data_PCOD9100893
_publ_section_title
;
Structure prediction by ZEFSAII (Michael W. Deem and Ramdas Pophale) SiO2 
 PCOD9100893
Probable space group: P -1
;
_chemical_formula_sum "Si O2"
_cell_formula_units_Z 16
_cell_length_a 9.133713
_cell_length_b 15.087461
_cell_length_c 13.305764
_cell_angle_alpha 31.826178
_cell_angle_beta 115.809645
_cell_angle_gamma 134.755046
_cell_volume 618.328227
_symmetry_space_group_name_H-M "P -1"
_symmetry_group_IT_number 2
_symmetry_cell_setting 'triclinic'
loop_
_space_group_symop_operation_xyz
x,y,z
-x,-y,-z
loop_
_atom_site_type_symbol
_atom_site_label
_atom_site_fract_x
_atom_site_fract_y
_atom_site_fract_z
Si Si1 0.026138 0.832670 0.464236
Si Si2 0.396965 0.124720 0.459308
Si Si3 0.422276 0.571716 0.494097
Si Si4 0.111445 0.900361 0.847605
Si Si5 0.582014 0.510789 0.766891
Si Si6 0.135190 0.687510 0.252514
Si Si7 0.337979 0.535102 0.958786
Si Si8 0.719118 0.170004 0.634767
O O1 0.145576 0.826543 0.414692
O O2 0.778347 0.605847 0.654026
O O3 0.179133 0.929572 0.515812
O O4 0.019066 0.020450 0.243449
O O5 0.357687 0.274823 0.358464
O O6 0.599655 0.284605 0.281965
O O7 0.474417 0.042638 0.641170
O O8 0.500000 0.500000 0.500000
O O9 0.369696 0.411423 0.728612
O O10 0.258088 0.594604 0.377660
O O11 0.635084 0.839590 0.338334
O O12 0.934937 0.697851 0.906841
O O13 0.140102 0.789928 0.052067
O O14 0.578566 0.376916 0.986625
O O15 0.252888 0.874902 0.199759
O O16 0.868163 0.451715 0.418893
O O17 0.500000 0.500000 0.000000
#
# Coordination Sequence:
#
# PCOD9100893 Si02
#       8
#     2   2   2   2   2   2   2   2
#     4  11  23  39  64 100 126 166 216 272 319 377
#     4  11  20  41  65  94 128 166 216 268 324 380
#     4  11  24  43  66  95 128 168 220 270 314 383
#     4  11  22  39  67  93 128 169 216 265 317 388
#     4  10  21  39  68  91 124 170 216 258 330 385
#     4  11  23  42  63  90 129 178 211 256 324 386
#     4  10  20  37  66  97 122 163 216 265 319 388
#     4  11  24  40  64  92 132 171 213 263 321 383
#
# _framework density 25.876223
#
# number of rings (size 3 to 8) (size 9 to 14) (size 15 to 20)
#    0.000    1.250    5.000    2.625    1.750    0.500 
#    2.250    0.625    0.000    0.000    0.000    0.000 
#    0.000    0.000    0.000    0.000    0.000    0.000 
#
# Total GULP energy -89277.740970 kJ/mol
# GULP energy per Si atom -5579.858811 kJ/mol
# Density = 2.581733 g / cm^3
# Si number density = 25.876223 Si / 1000 Ang^3
#
#
#
# Elastic Constant Matrix: (Units=GPa)
#
#
# Indices 1 2 3 4 5 6 
#
# 1 120.8283 37.9024 19.0741 25.9480 9.4635 -9.9085
# 2 37.9024 120.0015 46.7578 54.0669 6.4383 24.8668
# 3 19.0741 46.7578 89.0555 33.6294 11.4456 -2.1006
# 4 25.9480 54.0669 33.6294 54.1190 8.0750 -10.4486
# 5 9.4635 6.4383 11.4456 8.0750 25.2657 12.9206
# 6 -9.9085 24.8668 -2.1006 -10.4486 12.9206 45.8367
#
#
#
# Elastic Compliance Matrix: (Units=1/GPa)
#
#
# Indices 1 2 3 4 5 6 
#
# 1 0.011277 -0.008997 0.001500 0.006566 -0.010811 0.011932
# 2 -0.008997 0.045929 -0.008811 -0.051212 0.037318 -0.049458
# 3 0.001500 -0.008811 0.016748 0.001090 -0.010962 0.009210
# 4 0.006566 -0.051212 0.001090 0.085213 -0.049109 0.062520
# 5 -0.010811 0.037318 -0.010962 -0.049109 0.084490 -0.058095
# 6 0.011932 -0.049458 0.009210 0.062520 -0.058095 0.082277
#
#
# Mechanical properties :
#
#
# Convention : Reuss Voigt Hill
#
# Bulk Modulus (GPa) = 24.19144 59.70601 41.94873
# Shear Modulus (GPa) = 13.42897 40.12100 26.77499
#
# Velocity S-wave (km/s) = 2.28056 3.94191 3.22022
# Velocity P-wave (km/s) = 4.03780 6.62133 5.48388
#
# Compressibility (1/GPa) = 0.04133693
#
# Stress axis : x y z
#
# Youngs Moduli (GPa) = 88.67804 21.77297 59.70694
#
# Poissons Ratio (x) = 0.19589 -0.08955
# Poissons Ratio (y) = 0.79784 0.52609
# Poissons Ratio (z) = -0.13300 0.19185
#
# Static dielectric constant tensor:
#      x y z
#    x 2.086390 -0.008330 0.006760 
#    y -0.008330 2.096140 0.010500 
#    z 0.006760 0.010500 2.166970 
# 
# From -- ./inp_files/398441.got.cif
#   From: 2010.05.17/outbox.cif.g08.bks.cpg/sg2_200_cif.got.tgz:398441.got - 2010.06.03 11:33:40.
