data_PCOD9100579
_publ_section_title
;
Structure prediction by ZEFSAII (Michael W. Deem and Ramdas Pophale) SiO2 
 PCOD9100579
Probable space group: P -1
;
_chemical_formula_sum "Si O2"
_cell_formula_units_Z 14
_cell_length_a 10.920311
_cell_length_b 8.290772
_cell_length_c 8.846648
_cell_angle_alpha 66.240499
_cell_angle_beta 54.992337
_cell_angle_gamma 58.329438
_cell_volume 552.372952
_symmetry_space_group_name_H-M "P -1"
_symmetry_group_IT_number 2
_symmetry_cell_setting 'triclinic'
loop_
_space_group_symop_operation_xyz
x,y,z
-x,-y,-z
loop_
_atom_site_type_symbol
_atom_site_label
_atom_site_fract_x
_atom_site_fract_y
_atom_site_fract_z
Si Si1 0.082861 0.185295 0.455254
Si Si2 0.272240 0.447412 0.227624
Si Si3 0.714382 0.892605 0.228181
Si Si4 0.260525 0.662585 0.449298
Si Si5 0.618220 0.150062 0.498230
Si Si6 0.960159 0.203151 0.870480
Si Si7 0.423507 0.862608 0.030674
O O1 0.134297 0.363462 0.337216
O O2 0.999592 0.175606 0.676018
O O3 0.933810 0.215569 0.437219
O O4 0.257032 0.012053 0.417388
O O5 0.275051 0.488867 0.390350
O O6 0.216815 0.627386 0.081612
O O7 0.441958 0.291833 0.111335
O O8 0.567435 0.820796 0.353309
O O9 0.895011 0.740340 0.188150
O O10 0.665570 0.051528 0.337719
O O11 0.715380 0.997447 0.031672
O O12 0.340143 0.668458 0.553780
O O13 0.355640 0.752940 0.236087
O O14 0.000000 0.000000 0.000000
O O15 0.500000 0.000000 0.000000
#
# Coordination Sequence:
#
# PCOD9100579 Si02
#       7
#     2   2   2   2   2   2   2
#     4  10  20  40  67  96 132 178 228 276 327 400
#     4  11  23  42  68  99 135 175 226 284 332 399
#     4  10  20  38  64  90 132 171 220 269 339 384
#     4  11  21  36  64 100 129 170 227 275 325 401
#     4  10  20  37  64  95 129 176 223 271 334 396
#     4  10  21  38  65  95 133 178 219 270 342 393
#     4  12  23  42  68  97 130 179 228 277 337 405
#
# _framework density 25.345196000000001
#
# number of rings (size 3 to 8) (size 9 to 14) (size 15 to 20)
#    0.000    1.429    2.857    4.286    0.000    0.000 
#    0.000    1.429    0.000    3.429    0.000    2.000 
#    0.000    0.000    0.000    0.000    0.000    0.000 
#
# Total GULP energy -78134.895321 kJ/mol
# GULP energy per Si atom -5581.063952 kJ/mol
# Density = 2.528751 g / cm^3
# Si number density = 25.345196 Si / 1000 Ang^3
#
#
#
# Elastic Constant Matrix: (Units=GPa)
#
#
# Indices 1 2 3 4 5 6 
#
# 1 171.1716 39.1250 -0.4639 5.1192 -4.9802 16.4802
# 2 39.1250 82.4552 -3.4778 1.4314 5.3736 -11.7617
# 3 -0.4639 -3.4778 42.9009 -9.4923 -9.5774 9.5013
# 4 5.1192 1.4314 -9.4923 36.1805 3.5557 -3.8151
# 5 -4.9802 5.3736 -9.5774 3.5557 37.9837 -1.1774
# 6 16.4802 -11.7617 9.5013 -3.8151 -1.1774 35.4348
#
#
#
# Elastic Compliance Matrix: (Units=1/GPa)
#
#
# Indices 1 2 3 4 5 6 
#
# 1 0.007431 -0.004326 0.000995 -0.001349 0.001801 -0.005244
# 2 -0.004326 0.015360 -0.000872 0.000826 -0.002810 0.007340
# 3 0.000995 -0.000872 0.027575 0.005724 0.006444 -0.007315
# 4 -0.001349 0.000826 0.005724 0.029717 -0.001554 0.002515
# 5 0.001801 -0.002810 0.006444 -0.001554 0.028647 -0.002714
# 6 -0.005244 0.007340 -0.007315 0.002515 -0.002714 0.035238
#
#
# Mechanical properties :
#
#
# Convention : Reuss Voigt Hill
#
# Bulk Modulus (GPa) = 23.83277 40.76603 32.29940
# Shear Modulus (GPa) = 30.05516 39.34274 34.69895
#
# Velocity S-wave (km/s) = 3.44733 3.94417 3.70409
# Velocity P-wave (km/s) = 5.02684 6.07134 5.57361
#
# Compressibility (1/GPa) = 0.04195903
#
# Stress axis : x y z
#
# Youngs Moduli (GPa) = 134.56592 65.10612 36.26499
#
# Poissons Ratio (x) = 0.28166 -0.03607
# Poissons Ratio (y) = 0.58216 0.03161
# Poissons Ratio (z) = -0.13384 0.05675
#
# Static dielectric constant tensor:
#      x y z
#    x 2.070010 0.074960 -0.019800 
#    y 0.074960 2.239080 0.003150 
#    z -0.019800 0.003150 1.975650 
# 
# From -- ./inp_files/237448.got.cif
#   From: 2010.05.17/outbox.cif.g08.bks.cpg/sg2_119_cif.got.tgz:237448.got - 2010.06.03 11:33:40.
