data_PCOD9100154
_publ_section_title
;
Structure prediction by ZEFSAII (Michael W. Deem and Ramdas Pophale) SiO2 
 PCOD9100154
Probable space group: P -1
;
_chemical_formula_sum "Si O2"
_cell_formula_units_Z 14
_cell_length_a 5.124772
_cell_length_b 8.644996
_cell_length_c 21.234948
_cell_angle_alpha 141.741715
_cell_angle_beta 85.183643
_cell_angle_gamma 80.672748
_cell_volume 539.398873
_symmetry_space_group_name_H-M "P -1"
_symmetry_group_IT_number 2
_symmetry_cell_setting 'triclinic'
loop_
_space_group_symop_operation_xyz
x,y,z
-x,-y,-z
loop_
_atom_site_type_symbol
_atom_site_label
_atom_site_fract_x
_atom_site_fract_y
_atom_site_fract_z
Si Si1 0.845848 0.822578 0.117842
Si Si2 0.269609 0.538043 0.294260
Si Si3 0.928295 0.853803 0.872458
Si Si4 0.446085 0.269742 0.544811
Si Si5 0.376814 0.652652 0.896425
Si Si6 0.295217 0.910507 0.226540
Si Si7 0.978140 0.862660 0.566426
O O1 0.029242 0.884606 0.189106
O O2 0.517962 0.944076 0.183056
O O3 0.895326 0.979207 0.106945
O O4 0.000000 0.500000 0.000000
O O5 0.071246 0.368192 0.249471
O O6 0.472505 0.539957 0.347421
O O7 0.428024 0.389742 0.181431
O O8 0.116288 0.845600 0.373436
O O9 0.077351 0.705019 0.885766
O O10 0.651719 0.103317 0.979238
O O11 0.153737 0.312340 0.529349
O O12 0.685620 0.229628 0.473401
O O13 0.500000 0.000000 0.500000
O O14 0.503390 0.376812 0.842035
O O15 0.169250 0.096774 0.349484
#
# Coordination Sequence:
#
# PCOD9100154 Si02
#       7
#     2   2   2   2   2   2   2
#     4  12  26  45  68  95 137 182 226 263 324 399
#     4  10  22  34  64  91 136 165 217 267 347 375
#     4  11  25  40  63  98 139 174 216 274 331 395
#     4  10  20  37  62  99 132 165 212 282 330 390
#     4  10  24  40  65  97 136 171 220 271 334 391
#     4  11  25  45  72  94 134 181 225 268 326 397
#     4  10  22  38  67  95 130 168 223 271 330 385
#
# _framework density 25.954818
#
# number of rings (size 3 to 8) (size 9 to 14) (size 15 to 20)
#    0.000    1.429    1.429    3.429   14.000    0.000 
#    0.000    0.000    0.000    5.143    0.000    0.000 
#    0.000    0.000    0.000    0.000    0.000    0.000 
#
# Total GULP energy -78298.953395 kJ/mol
# GULP energy per Si atom -5592.782385 kJ/mol
# Density = 2.589574 g / cm^3
# Si number density = 25.954818 Si / 1000 Ang^3
#
#
#
# Elastic Constant Matrix: (Units=GPa)
#
#
# Indices 1 2 3 4 5 6 
#
# 1 106.1608 2.7346 46.5877 -8.8538 14.8203 17.3770
# 2 2.7346 60.4422 25.1448 1.3731 5.9419 -5.8266
# 3 46.5877 25.1448 141.7684 -19.5709 29.4222 17.5604
# 4 -8.8538 1.3731 -19.5709 35.1554 7.2420 -4.1910
# 5 14.8203 5.9419 29.4222 7.2420 53.0245 -11.4774
# 6 17.3770 -5.8266 17.5604 -4.1910 -11.4774 41.1996
#
#
#
# Elastic Compliance Matrix: (Units=1/GPa)
#
#
# Indices 1 2 3 4 5 6 
#
# 1 0.011843 0.000327 -0.002480 0.001699 -0.003201 -0.004610
# 2 0.000327 0.018928 -0.004937 -0.003241 0.002025 0.004877
# 3 -0.002480 -0.004937 0.012140 0.007191 -0.007830 -0.006276
# 4 0.001699 -0.003241 0.007191 0.034568 -0.009556 -0.003386
# 5 -0.003201 0.002025 -0.007830 -0.009556 0.027714 0.011722
# 6 -0.004610 0.004877 -0.006276 -0.003386 0.011722 0.032503
#
#
# Mechanical properties :
#
#
# Convention : Reuss Voigt Hill
#
# Bulk Modulus (GPa) = 34.80392 50.81175 42.80783
# Shear Modulus (GPa) = 30.96918 41.46952 36.21935
#
# Velocity S-wave (km/s) = 3.45801 4.00153 3.73966
# Velocity P-wave (km/s) = 5.42055 6.40072 5.93092
#
# Compressibility (1/GPa) = 0.02873240
#
# Stress axis : x y z
#
# Youngs Moduli (GPa) = 84.44017 52.83086 82.37570
#
# Poissons Ratio (x) = -0.01730 0.20429
# Poissons Ratio (y) = -0.02765 0.40666
# Poissons Ratio (z) = 0.20941 0.26081
#
# Static dielectric constant tensor:
#      x y z
#    x 2.392490 0.162560 -0.066230 
#    y 0.162560 2.104680 0.002300 
#    z -0.066230 0.002300 2.037840 
# 
# From -- ./inp_files/582091.got.cif
#   From: 2010.05.17/outbox.cif.g08.bks.cpg/sg2_292_cif.got.tgz:582091.got - 2010.06.03 11:33:40.
