data_PCOD9100174
_publ_section_title
;
Structure prediction by ZEFSAII (Michael W. Deem and Ramdas Pophale) SiO2 
 PCOD9100174
Probable space group: P -1
;
_chemical_formula_sum "Si O2"
_cell_formula_units_Z 16
_cell_length_a 27.120300
_cell_length_b 9.083490
_cell_length_c 22.009548
_cell_angle_alpha 133.115138
_cell_angle_beta 11.632315
_cell_angle_gamma 135.679109
_cell_volume 758.052311
_symmetry_space_group_name_H-M "P -1"
_symmetry_group_IT_number 2
_symmetry_cell_setting 'triclinic'
loop_
_space_group_symop_operation_xyz
x,y,z
-x,-y,-z
loop_
_atom_site_type_symbol
_atom_site_label
_atom_site_fract_x
_atom_site_fract_y
_atom_site_fract_z
Si Si1 0.006630 0.291430 0.259350
Si Si2 0.118384 0.035228 0.255624
Si Si3 0.268741 0.007707 0.929517
Si Si4 0.384060 0.270687 0.276146
Si Si5 0.318687 0.575823 0.784542
Si Si6 0.214163 0.692232 0.594688
Si Si7 0.574866 0.281787 0.172579
Si Si8 0.984476 0.415544 0.562979
O O1 0.816990 0.236070 0.416101
O O2 0.245676 0.487895 0.001994
O O3 0.909302 0.395229 0.463686
O O4 0.104357 0.100450 0.108663
O O5 0.129642 0.239911 0.338835
O O6 0.819865 0.902103 0.566568
O O7 0.260742 0.881792 0.070206
O O8 0.226684 0.087138 0.070872
O O9 0.567642 0.120644 0.584002
O O10 0.222285 0.758772 0.921791
O O11 0.315146 0.488026 0.412765
O O12 0.360308 0.210548 0.359533
O O13 0.680235 0.308672 0.913118
O O14 0.500000 0.500000 0.500000
O O15 0.475499 0.680395 0.685758
O O16 0.063913 0.389946 0.060984
O O17 0.000000 0.500000 0.500000
#
# Coordination Sequence:
#
# PCOD9100174 Si02
#       8
#     2   2   2   2   2   2   2   2
#     4  10  20  37  63  85 123 166 202 251 302 355
#     4  11  21  39  58  91 125 166 211 255 295 354
#     4  11  21  40  67  87 124 161 202 245 312 364
#     4  11  20  38  64  83 122 172 199 250 305 353
#     4  10  23  44  67  94 124 151 200 258 305 376
#     4  11  21  42  66  87 124 166 201 247 313 362
#     4   9  20  39  64  85 121 163 202 243 315 364
#     4  11  21  37  56  89 128 159 217 257 288 352
#
# _framework density 21.106724
#
# number of rings (size 3 to 8) (size 9 to 14) (size 15 to 20)
#    0.000    1.500    7.500    0.375    0.000    4.500 
#    2.250    4.375    0.000    0.000    0.000    0.000 
#    0.000    0.000    0.000    0.000    0.000    0.000 
#
# Total GULP energy -89391.434510 kJ/mol
# GULP energy per Si atom -5586.964657 kJ/mol
# Density = 2.105868 g / cm^3
# Si number density = 21.106724 Si / 1000 Ang^3
#
#
#
# Elastic Constant Matrix: (Units=GPa)
#
#
# Indices 1 2 3 4 5 6 
#
# 1 105.1174 44.5931 44.4741 28.5895 -8.9458 -27.4500
# 2 44.5931 61.4226 29.6609 7.0192 1.3114 -23.8284
# 3 44.4741 29.6609 89.0795 11.9975 13.3522 -7.8818
# 4 28.5895 7.0192 11.9975 35.2440 -0.0053 -7.6198
# 5 -8.9458 1.3114 13.3522 -0.0053 34.9076 8.2684
# 6 -27.4500 -23.8284 -7.8818 -7.6198 8.2684 29.4226
#
#
#
# Elastic Compliance Matrix: (Units=1/GPa)
#
#
# Indices 1 2 3 4 5 6 
#
# 1 0.021586 -0.008836 -0.006708 -0.012153 0.006989 0.006074
# 2 -0.008836 0.031953 -0.004369 0.006617 -0.006533 0.020013
# 3 -0.006708 -0.004369 0.016838 -0.000133 -0.007216 -0.003293
# 4 -0.012153 0.006617 -0.000133 0.038064 -0.004517 0.005113
# 5 0.006989 -0.006533 -0.007216 -0.004517 0.036303 -0.012075
# 6 0.006074 0.020013 -0.003293 0.005113 -0.012075 0.059698
#
#
# Mechanical properties :
#
#
# Convention : Reuss Voigt Hill
#
# Bulk Modulus (GPa) = 32.73334 54.78621 43.75978
# Shear Modulus (GPa) = 19.65005 29.04092 24.34549
#
# Velocity S-wave (km/s) = 3.05452 3.71335 3.39993
# Velocity P-wave (km/s) = 5.28982 6.66321 6.01584
#
# Compressibility (1/GPa) = 0.03054989
#
# Stress axis : x y z
#
# Youngs Moduli (GPa) = 46.32572 31.29630 59.38935
#
# Poissons Ratio (x) = 0.27654 0.39841
# Poissons Ratio (y) = 0.40934 0.25947
# Poissons Ratio (z) = 0.31077 0.13673
#
# Static dielectric constant tensor:
#      x y z
#    x 1.772820 -0.007120 -0.001670 
#    y -0.007120 1.787600 -0.052940 
#    z -0.001670 -0.052940 1.772820 
# 
# From -- ./inp_files/212610.got.cif
#   From: 2010.05.17/outbox.cif.g08.bks.cpg/sg2_107_cif.got.tgz:212610.got - 2010.06.03 11:33:40.
