data_PCOD9100050
_publ_section_title
;
Structure prediction by ZEFSAII (Michael W. Deem and Ramdas Pophale) SiO2 
 PCOD9100050
Probable space group: P -1
;
_chemical_formula_sum "Si O2"
_cell_formula_units_Z 14
_cell_length_a 7.231102
_cell_length_b 9.235551
_cell_length_c 19.069976
_cell_angle_alpha 43.340174
_cell_angle_beta 141.204695
_cell_angle_gamma 125.199663
_cell_volume 547.507829
_symmetry_space_group_name_H-M "P -1"
_symmetry_group_IT_number 2
_symmetry_cell_setting 'triclinic'
loop_
_space_group_symop_operation_xyz
x,y,z
-x,-y,-z
loop_
_atom_site_type_symbol
_atom_site_label
_atom_site_fract_x
_atom_site_fract_y
_atom_site_fract_z
Si Si1 0.470236 0.002300 0.592065
Si Si2 0.776549 0.447676 0.019812
Si Si3 0.331070 0.083688 0.160468
Si Si4 0.929582 0.381351 0.613953
Si Si5 0.731920 0.843992 0.087630
Si Si6 0.204652 0.282728 0.316907
Si Si7 0.570755 0.668885 0.332984
O O1 0.526659 0.935004 0.712378
O O2 0.185415 0.116029 0.434403
O O3 0.714628 0.192481 0.590018
O O4 0.549807 0.813789 0.629429
O O5 0.488196 0.315359 0.960021
O O6 0.683829 0.671332 0.943694
O O7 0.000000 0.500000 0.000000
O O8 0.940787 0.314904 0.174194
O O9 0.504840 0.913180 0.227049
O O10 0.991653 0.999191 0.082209
O O11 0.069400 0.307786 0.752535
O O12 0.203418 0.389515 0.640008
O O13 0.737442 0.591254 0.479999
O O14 0.500000 0.000000 0.000000
O O15 0.294513 0.512412 0.292632
#
# Coordination Sequence:
#
# PCOD9100050 Si02
#       7
#     2   2   2   2   2   2   2
#     4   9  19  38  66  92 121 169 216 264 314 386
#     4  12  21  39  66  94 132 174 212 260 325 388
#     4  11  24  42  68  98 127 169 221 270 314 377
#     4   9  20  40  66  90 125 170 213 258 332 384
#     4  11  22  40  67  95 130 174 216 256 320 397
#     4  10  20  37  62  91 127 169 208 255 330 379
#     4  10  22  41  66  92 128 165 214 272 321 376
#
# _framework density 25.570412000000001
#
# number of rings (size 3 to 8) (size 9 to 14) (size 15 to 20)
#    0.000    1.714    2.857    1.714    0.000    5.714 
#    2.571    1.429    0.000    0.000    0.000    0.000 
#    0.000    0.000    0.000    0.000    0.000    0.000 
#
# Total GULP energy -78303.992807 kJ/mol
# GULP energy per Si atom -5593.142343 kJ/mol
# Density = 2.551221 g / cm^3
# Si number density = 25.570412 Si / 1000 Ang^3
#
#
#
# Elastic Constant Matrix: (Units=GPa)
#
#
# Indices 1 2 3 4 5 6 
#
# 1 59.5250 35.2204 13.8061 8.5277 4.0722 -2.6088
# 2 35.2204 172.4561 107.5566 -6.5182 6.3063 4.2206
# 3 13.8061 107.5566 149.5434 13.9907 -7.2304 4.5091
# 4 8.5277 -6.5182 13.9907 53.4370 -12.5928 -0.8980
# 5 4.0722 6.3063 -7.2304 -12.5928 35.1107 -0.0533
# 6 -2.6088 4.2206 4.5091 -0.8980 -0.0533 22.1331
#
#
#
# Elastic Compliance Matrix: (Units=1/GPa)
#
#
# Indices 1 2 3 4 5 6 
#
# 1 0.020900 -0.006209 0.002828 -0.005413 -0.002664 0.002845
# 2 -0.006209 0.013215 -0.009420 0.004591 -0.001949 -0.001151
# 3 0.002828 -0.009420 0.013783 -0.004624 0.002542 -0.000860
# 4 -0.005413 0.004591 -0.004624 0.023030 0.007112 0.000380
# 5 -0.002664 -0.001949 0.002542 0.007112 0.032214 -0.000094
# 6 0.002845 -0.001151 -0.000860 0.000380 -0.000094 0.045926
#
#
# Mechanical properties :
#
#
# Convention : Reuss Voigt Hill
#
# Bulk Modulus (GPa) = 44.85306 77.18787 61.02047
# Shear Modulus (GPa) = 27.45707 37.13225 32.29466
#
# Velocity S-wave (km/s) = 3.28042 3.81485 3.55768
# Velocity P-wave (km/s) = 5.65042 7.04671 6.38684
#
# Compressibility (1/GPa) = 0.02229502
#
# Stress axis : x y z
#
# Youngs Moduli (GPa) = 47.84716 75.67340 72.55456
#
# Poissons Ratio (x) = 0.46985 -0.20518
# Poissons Ratio (y) = 0.29708 0.68348
# Poissons Ratio (z) = -0.13531 0.71286
#
# Static dielectric constant tensor:
#      x y z
#    x 2.306470 -0.124760 -0.140380 
#    y -0.124760 1.708140 0.040830 
#    z -0.140380 0.040830 2.077670 
# 
# From -- ./inp_files/598069.got.cif
#   From: 2010.05.17/outbox.cif.g08.bks.cpg/sg2_300_cif.got.tgz:598069.got - 2010.06.03 11:33:40.
