data_PCOD9100204
_publ_section_title
;
Structure prediction by ZEFSAII (Michael W. Deem and Ramdas Pophale) SiO2 
 PCOD9100204
Probable space group: P -1
;
_chemical_formula_sum "Si O2"
_cell_formula_units_Z 12
_cell_length_a 9.358059
_cell_length_b 9.214164
_cell_length_c 15.739839
_cell_angle_alpha 121.759121
_cell_angle_beta 146.217861
_cell_angle_gamma 42.727379
_cell_volume 499.119546
_symmetry_space_group_name_H-M "P -1"
_symmetry_group_IT_number 2
_symmetry_cell_setting 'triclinic'
loop_
_space_group_symop_operation_xyz
x,y,z
-x,-y,-z
loop_
_atom_site_type_symbol
_atom_site_label
_atom_site_fract_x
_atom_site_fract_y
_atom_site_fract_z
Si Si1 0.743726 0.520266 0.071925
Si Si2 0.119288 0.203936 0.363729
Si Si3 0.862594 0.130454 0.842384
Si Si4 0.231380 0.304438 0.703363
Si Si5 0.504823 0.399208 0.220074
Si Si6 0.392409 0.130988 0.204477
O O1 0.754928 0.682685 0.183707
O O2 0.118567 0.297505 0.189126
O O3 0.500000 0.500000 0.000000
O O4 0.639553 0.576563 0.939362
O O5 0.034984 0.438097 0.372891
O O6 0.888370 0.277381 0.354936
O O7 0.500000 0.000000 0.500000
O O8 0.027266 0.085857 0.217996
O O9 0.564201 0.221342 0.790274
O O10 0.697948 0.349527 0.771735
O O11 0.170886 0.086092 0.028335
O O12 0.281465 0.080432 0.654994
O O13 0.458797 0.260933 0.216027
#
# Coordination Sequence:
#
# PCOD9100204 Si02
#       6
#     2   2   2   2   2   2
#     4  11  18  35  60  92 124 155 192 231 301 374
#     4  11  24  42  61  83 115 166 220 248 282 354
#     4  10  20  37  63  87 121 157 197 247 299 359
#     4  11  22  34  60  92 119 160 200 243 302 355
#     4  10  23  38  59  97 125 156 193 246 309 353
#     4  11  22  35  61  97 134 147 185 252 311 368
#
# _framework density 24.042337
#
# number of rings (size 3 to 8) (size 9 to 14) (size 15 to 20)
#    0.000    1.333    5.000    4.500    0.000    6.667 
#    0.000    0.833    0.000    5.000    0.000    0.000 
#    0.000    0.000    0.000    0.000    0.000    0.000 
#
# Total GULP energy -66879.012159 kJ/mol
# GULP energy per Si atom -5573.251013 kJ/mol
# Density = 2.398762 g / cm^3
# Si number density = 24.042337 Si / 1000 Ang^3
#
#
#
# Elastic Constant Matrix: (Units=GPa)
#
#
# Indices 1 2 3 4 5 6 
#
# 1 92.0558 59.3476 10.7338 -19.4639 -0.5585 22.3577
# 2 59.3476 177.8657 41.3312 -64.8484 -2.1551 0.1217
# 3 10.7338 41.3312 44.8267 -28.6710 0.5170 1.4257
# 4 -19.4639 -64.8484 -28.6710 41.9869 -10.0361 0.2134
# 5 -0.5585 -2.1551 0.5170 -10.0361 19.7683 -6.9593
# 6 22.3577 0.1217 1.4257 0.2134 -6.9593 51.4686
#
#
#
# Elastic Compliance Matrix: (Units=1/GPa)
#
#
# Indices 1 2 3 4 5 6 
#
# 1 0.016449 -0.007503 -0.000202 -0.005472 -0.005907 -0.007898
# 2 -0.007503 0.021630 0.007655 0.041100 0.024996 0.006205
# 3 -0.000202 0.007655 0.046776 0.049777 0.025590 0.002028
# 4 -0.005472 0.041100 0.049777 0.136931 0.076291 0.010649
# 5 -0.005907 0.024996 0.025590 0.076291 0.096313 0.014504
# 6 -0.007898 0.006205 0.002028 0.010649 0.014504 0.024706
#
#
# Mechanical properties :
#
#
# Convention : Reuss Voigt Hill
#
# Bulk Modulus (GPa) = 11.79857 59.73037 35.76447
# Shear Modulus (GPa) = 13.47138 36.20047 24.83593
#
# Velocity S-wave (km/s) = 2.36967 3.88454 3.21753
# Velocity P-wave (km/s) = 3.52210 6.70949 5.35829
#
# Compressibility (1/GPa) = 0.08475605
#
# Stress axis : x y z
#
# Youngs Moduli (GPa) = 60.79469 46.23138 21.37840
#
# Poissons Ratio (x) = 0.34687 0.00431
# Poissons Ratio (y) = 0.45613 -0.16365
# Poissons Ratio (z) = 0.01226 -0.35389
#
# Static dielectric constant tensor:
#      x y z
#    x 1.932970 -0.020680 -0.114530 
#    y -0.020680 2.030860 0.057650 
#    z -0.114530 0.057650 2.221300 
# 
# From -- ./inp_files/268029.got.cif
#   From: 2010.05.17/outbox.cif.g08.bks.cpg/sg2_135_cif.got.tgz:268029.got - 2010.06.03 11:33:40.
