data_PCOD9100551
_publ_section_title
;
Structure prediction by ZEFSAII (Michael W. Deem and Ramdas Pophale) SiO2 
 PCOD9100551
Probable space group: P -1
;
_chemical_formula_sum "Si O2"
_cell_formula_units_Z 14
_cell_length_a 5.422472
_cell_length_b 14.188952
_cell_length_c 11.795529
_cell_angle_alpha 127.551291
_cell_angle_beta 126.009442
_cell_angle_gamma 59.002351
_cell_volume 564.383600
_symmetry_space_group_name_H-M "P -1"
_symmetry_group_IT_number 2
_symmetry_cell_setting 'triclinic'
loop_
_space_group_symop_operation_xyz
x,y,z
-x,-y,-z
loop_
_atom_site_type_symbol
_atom_site_label
_atom_site_fract_x
_atom_site_fract_y
_atom_site_fract_z
Si Si1 0.730656 0.517325 0.346651
Si Si2 0.314948 0.737372 0.516360
Si Si3 0.397352 0.849010 0.845150
Si Si4 0.645128 0.663188 0.952779
Si Si5 0.676623 0.936057 0.772302
Si Si6 0.263724 0.069846 0.583630
Si Si7 0.796894 0.556931 0.143563
O O1 0.432215 0.608924 0.392220
O O2 0.664091 0.388552 0.193275
O O3 0.804525 0.579826 0.296134
O O4 0.000000 0.500000 0.500000
O O5 0.358113 0.740931 0.666207
O O6 0.551937 0.821869 0.603155
O O7 0.963995 0.808990 0.441074
O O8 0.609587 0.783584 0.956980
O O9 0.555151 0.930605 0.863992
O O10 0.046674 0.910834 0.837445
O O11 0.916920 0.554160 0.896241
O O12 0.733730 0.663240 0.108941
O O13 0.494204 0.056363 0.744121
O O14 0.500000 0.000000 0.500000
O O15 0.000000 0.000000 0.500000
O O16 0.500000 0.500000 0.000000
#
# Coordination Sequence:
#
# PCOD9100551 Si02
#       7
#     2   2   2   2   2   2   2
#     4  11  21  35  54  85 120 149 182 236 282 341
#     4   9  20  28  50  79 111 147 184 221 290 330
#     4  10  19  30  52  78 103 142 183 226 274 327
#     4  10  21  36  55  76 110 154 192 231 271 340
#     4   9  18  31  47  79 109 138 185 226 278 325
#     4  10  16  32  49  71 112 148 179 229 277 336
#     4   9  21  38  54  72 109 151 197 230 275 326
#
# _framework density 24.805823
#
# number of rings (size 3 to 8) (size 9 to 14) (size 15 to 20)
#    0.857    1.429    1.429    1.714    4.000    3.429 
#    0.000    0.000    0.000    0.000    0.000    2.000 
#    0.000    0.000    0.000    0.000    0.000    0.000 
#
# Total GULP energy -78206.620316 kJ/mol
# GULP energy per Si atom -5586.187165 kJ/mol
# Density = 2.474936 g / cm^3
# Si number density = 24.805823 Si / 1000 Ang^3
#
#
#
# Elastic Constant Matrix: (Units=GPa)
#
#
# Indices 1 2 3 4 5 6 
#
# 1 152.0300 49.9447 53.3352 -20.7940 -27.0644 -10.1485
# 2 49.9447 115.9250 47.2462 -42.7320 -18.1864 0.8166
# 3 53.3352 47.2462 142.4055 -27.6964 -38.5051 -1.5246
# 4 -20.7940 -42.7320 -27.6964 56.3604 11.4893 -3.6780
# 5 -27.0644 -18.1864 -38.5051 11.4893 56.4002 -5.4882
# 6 -10.1485 0.8166 -1.5246 -3.6780 -5.4882 35.7427
#
#
#
# Elastic Compliance Matrix: (Units=1/GPa)
#
#
# Indices 1 2 3 4 5 6 
#
# 1 0.008668 -0.002682 -0.001663 0.000037 0.002427 0.002828
# 2 -0.002682 0.013662 -0.001867 0.008412 0.000104 -0.000272
# 3 -0.001663 -0.001867 0.010044 0.001919 0.005163 0.000989
# 4 0.000037 0.008412 0.001919 0.025418 -0.000906 0.002377
# 5 0.002427 0.000104 0.005163 -0.000906 0.023061 0.004355
# 6 0.002828 -0.000272 0.000989 0.002377 0.004355 0.029742
#
#
# Mechanical properties :
#
#
# Convention : Reuss Voigt Hill
#
# Bulk Modulus (GPa) = 50.12510 79.04587 64.58548
# Shear Modulus (GPa) = 38.55957 47.02295 42.79126
#
# Velocity S-wave (km/s) = 3.94694 4.35862 4.15788
# Velocity P-wave (km/s) = 6.40484 7.56737 7.01024
#
# Compressibility (1/GPa) = 0.01995009
#
# Stress axis : x y z
#
# Youngs Moduli (GPa) = 115.36548 73.19628 99.56105
#
# Poissons Ratio (x) = 0.19634 0.16555
# Poissons Ratio (y) = 0.30945 0.18586
# Poissons Ratio (z) = 0.19183 0.13664
#
# Static dielectric constant tensor:
#      x y z
#    x 1.722110 0.044040 -0.307540 
#    y 0.044040 1.969830 0.019270 
#    z -0.307540 0.019270 1.565930 
# 
# From -- ./inp_files/369451.got.cif
#   From: 2010.05.17/outbox.cif.g08.bks.cpg/sg2_185_cif.got.tgz:369451.got - 2010.06.03 11:33:40.
