data_PCOD9100014
_publ_section_title
;
Structure prediction by ZEFSAII (Michael W. Deem and Ramdas Pophale) SiO2 
 PCOD9100014
Probable space group: P -1
;
_chemical_formula_sum "Si O2"
_cell_formula_units_Z 12
_cell_length_a 19.206212
_cell_length_b 7.391577
_cell_length_c 12.882635
_cell_angle_alpha 119.630718
_cell_angle_beta 158.269755
_cell_angle_gamma 48.621577
_cell_volume 458.546594
_symmetry_space_group_name_H-M "P -1"
_symmetry_group_IT_number 2
_symmetry_cell_setting 'triclinic'
loop_
_space_group_symop_operation_xyz
x,y,z
-x,-y,-z
loop_
_atom_site_type_symbol
_atom_site_label
_atom_site_fract_x
_atom_site_fract_y
_atom_site_fract_z
Si Si1 0.751117 0.784901 0.460179
Si Si2 0.986479 0.271489 0.386003
Si Si3 0.866275 0.456146 0.891699
Si Si4 0.141013 0.755592 0.530262
Si Si5 0.444343 0.512234 0.677799
Si Si6 0.380251 0.054170 0.185011
O O1 0.757198 0.534378 0.363139
O O2 0.492294 0.015204 0.216176
O O3 0.831682 0.863759 0.497266
O O4 0.939597 0.700955 0.791224
O O5 0.000000 0.500000 0.500000
O O6 0.714143 0.410083 0.011724
O O7 0.064779 0.055684 0.524762
O O8 0.750559 0.335277 0.641123
O O9 0.641685 0.729223 0.713692
O O10 0.000000 0.500000 0.000000
O O11 0.336039 0.645394 0.676745
O O12 0.890378 0.842760 0.163767
O O13 0.473889 0.240425 0.651553
#
# Coordination Sequence:
#
# PCOD9100014 Si02
#       6
#     2   2   2   2   2   2
#     4  10  22  38  63  94 122 160 201 245 311 362
#     4  11  26  44  61  86 123 164 210 258 297 350
#     4  11  18  33  66  96 125 160 193 244 310 368
#     4   9  20  40  64  89 120 159 208 249 302 359
#     4  10  20  37  62  90 125 162 201 245 302 364
#     4   9  17  34  62  93 125 157 196 245 301 371
#
# _framework density 26.169643000000001
#
# number of rings (size 3 to 8) (size 9 to 14) (size 15 to 20)
#    0.000    2.000    5.000    0.500    0.000    4.667 
#    0.000    9.167    0.000    0.000    0.000    0.000 
#    0.000    0.000    0.000    0.000    0.000    0.000 
#
# Total GULP energy -66991.131180 kJ/mol
# GULP energy per Si atom -5582.594265 kJ/mol
# Density = 2.611008 g / cm^3
# Si number density = 26.169643 Si / 1000 Ang^3
#
#
#
# Elastic Constant Matrix: (Units=GPa)
#
#
# Indices 1 2 3 4 5 6 
#
# 1 229.5527 169.8062 -25.1235 -19.7729 60.1966 -81.6389
# 2 169.8062 347.2775 -72.7825 -40.4309 69.0737 -171.7597
# 3 -25.1235 -72.7825 163.8486 35.6424 -7.5501 70.4735
# 4 -19.7729 -40.4309 35.6424 48.2376 -23.0104 36.2504
# 5 60.1966 69.0737 -7.5501 -23.0104 63.3072 -48.7941
# 6 -81.6389 -171.7597 70.4735 36.2504 -48.7941 175.3467
#
#
#
# Elastic Compliance Matrix: (Units=1/GPa)
#
#
# Indices 1 2 3 4 5 6 
#
# 1 0.007689 -0.003328 0.000119 -0.001430 -0.004771 -0.000760
# 2 -0.003328 0.007351 0.000419 0.000219 -0.000682 0.005248
# 3 0.000119 0.000419 0.008592 -0.005592 -0.003806 -0.002890
# 4 -0.001430 0.000219 -0.005592 0.030628 0.010300 -0.001670
# 5 -0.004771 -0.000682 -0.003806 0.010300 0.027596 0.004190
# 6 -0.000760 0.005248 -0.002890 -0.001670 0.004190 0.013163
#
#
# Mechanical properties :
#
#
# Convention : Reuss Voigt Hill
#
# Bulk Modulus (GPa) = 55.39711 98.27550 76.83630
# Shear Modulus (GPa) = 46.89697 101.96356 74.43026
#
# Velocity S-wave (km/s) = 4.23784 6.24877 5.33884
# Velocity P-wave (km/s) = 6.72013 9.47088 8.21151
#
# Compressibility (1/GPa) = 0.01805148
#
# Stress axis : x y z
#
# Youngs Moduli (GPa) = 130.05782 136.02750 116.39091
#
# Poissons Ratio (x) = 0.45270 -0.01382
# Poissons Ratio (y) = 0.43284 -0.04876
# Poissons Ratio (z) = -0.01545 -0.05699
#
# Static dielectric constant tensor:
#      x y z
#    x 2.114770 -0.033470 -0.016210 
#    y -0.033470 2.177740 -0.054900 
#    z -0.016210 -0.054900 1.995370 
# 
# From -- ./inp_files/22981.got.cif
#   From: 2010.05.17/outbox.cif.g08.bks.cpg/sg2_12_cif.got.tgz:22981.got - 2010.06.03 11:33:40.
