data_PCOD9100555
_publ_section_title
;
Structure prediction by ZEFSAII (Michael W. Deem and Ramdas Pophale) SiO2 
 PCOD9100555
Probable space group: P -1
;
_chemical_formula_sum "Si O2"
_cell_formula_units_Z 16
_cell_length_a 7.137687
_cell_length_b 13.416541
_cell_length_c 7.351626
_cell_angle_alpha 76.507494
_cell_angle_beta 69.818233
_cell_angle_gamma 68.725312
_cell_volume 611.033569
_symmetry_space_group_name_H-M "P -1"
_symmetry_group_IT_number 2
_symmetry_cell_setting 'triclinic'
loop_
_space_group_symop_operation_xyz
x,y,z
-x,-y,-z
loop_
_atom_site_type_symbol
_atom_site_label
_atom_site_fract_x
_atom_site_fract_y
_atom_site_fract_z
Si Si1 0.533871 0.141244 0.118801
Si Si2 0.434417 0.095375 0.775801
Si Si3 0.509760 0.504459 0.780433
Si Si4 0.564548 0.709857 0.496194
Si Si5 0.887693 0.564635 0.218030
Si Si6 0.889824 0.666002 0.803429
Si Si7 0.032533 0.871933 0.047000
Si Si8 0.813783 0.294043 0.610690
O O1 0.338465 0.247544 0.168592
O O2 0.506624 0.029623 0.244318
O O3 0.562576 0.112417 0.903989
O O4 0.741527 0.166520 0.112993
O O5 0.436548 0.166712 0.565066
O O6 0.197991 0.130777 0.925881
O O7 0.501566 0.624594 0.678525
O O8 0.309763 0.475274 0.770351
O O9 0.719980 0.413401 0.678487
O O10 0.500000 0.500000 0.000000
O O11 0.798590 0.641525 0.382870
O O12 0.400748 0.720255 0.383269
O O13 0.073267 0.455133 0.231644
O O14 0.941693 0.636491 0.010115
O O15 0.041355 0.709736 0.611125
O O16 0.078991 0.799777 0.244270
O O17 0.000000 0.000000 0.000000
#
# Coordination Sequence:
#
# PCOD9100555 Si02
#       8
#     2   2   2   2   2   2   2   2
#     4  10  20  40  66  97 130 175 219 273 335 392
#     4  10  21  38  70  94 130 174 223 276 329 388
#     4  11  23  40  62  97 135 172 224 284 326 391
#     4  11  19  43  67  95 131 179 225 271 330 407
#     4  10  20  37  64  94 128 180 220 264 336 406
#     4  11  20  36  66  94 126 175 227 257 336 410
#     4  10  22  42  67  95 128 177 227 275 327 389
#     4  11  21  41  67  94 133 182 219 272 339 397
#
# _framework density 26.185141999999999
#
# number of rings (size 3 to 8) (size 9 to 14) (size 15 to 20)
#    0.000    1.500    5.000    1.500    0.000    2.000 
#    0.000    5.625    0.000    0.000    0.000    0.000 
#    0.000    0.000    0.000    0.000    0.000    0.000 
#
# Total GULP energy -89395.085246 kJ/mol
# GULP energy per Si atom -5587.192828 kJ/mol
# Density = 2.612554 g / cm^3
# Si number density = 26.185142 Si / 1000 Ang^3
#
#
#
# Elastic Constant Matrix: (Units=GPa)
#
#
# Indices 1 2 3 4 5 6 
#
# 1 82.0619 38.0068 0.7941 -0.8550 2.4835 -10.7096
# 2 38.0068 190.0658 67.9632 -37.0741 -4.1395 -24.0083
# 3 0.7941 67.9632 131.3852 -52.4940 -2.6441 4.5492
# 4 -0.8550 -37.0741 -52.4940 61.3146 -10.1282 -4.2429
# 5 2.4835 -4.1395 -2.6441 -10.1282 35.2517 -1.4172
# 6 -10.7096 -24.0083 4.5492 -4.2429 -1.4172 49.6663
#
#
#
# Elastic Compliance Matrix: (Units=1/GPa)
#
#
# Indices 1 2 3 4 5 6 
#
# 1 0.013872 -0.003253 0.001144 -0.000960 -0.001501 0.001189
# 2 -0.003253 0.008095 -0.003186 0.002692 0.001867 0.003787
# 3 0.001144 -0.003186 0.013357 0.009970 0.003349 -0.001569
# 4 -0.000960 0.002692 0.009970 0.028202 0.009349 0.002857
# 5 -0.001501 0.001867 0.003349 0.009349 0.031709 0.001975
# 6 0.001189 0.003787 -0.001569 0.002857 0.001975 0.022666
#
#
# Mechanical properties :
#
#
# Convention : Reuss Voigt Hill
#
# Bulk Modulus (GPa) = 40.42748 68.56013 54.49380
# Shear Modulus (GPa) = 36.56725 49.02979 42.79852
#
# Velocity S-wave (km/s) = 3.74102 4.33185 4.04723
# Velocity P-wave (km/s) = 5.84233 7.15958 6.53424
#
# Compressibility (1/GPa) = 0.02473565
#
# Stress axis : x y z
#
# Youngs Moduli (GPa) = 72.08798 123.53348 74.86521
#
# Poissons Ratio (x) = 0.40180 -0.08563
# Poissons Ratio (y) = 0.23447 0.23849
# Poissons Ratio (z) = -0.08246 0.39352
#
# Static dielectric constant tensor:
#      x y z
#    x 2.167000 0.049030 0.011060 
#    y 0.049030 2.054860 0.042960 
#    z 0.011060 0.042960 2.110710 
# 
# From -- ./inp_files/205815.got.cif
#   From: 2010.05.17/outbox.cif.g08.bks.cpg/sg2_103_cif.got.tgz:205815.got - 2010.06.03 11:33:40.
