data_PCOD9100185
_publ_section_title
;
Structure prediction by ZEFSAII (Michael W. Deem and Ramdas Pophale) SiO2 
 PCOD9100185
Probable space group: P -1
;
_chemical_formula_sum "Si O2"
_cell_formula_units_Z 16
_cell_length_a 11.462454
_cell_length_b 13.791997
_cell_length_c 15.128784
_cell_angle_alpha 117.831851
_cell_angle_beta 45.527989
_cell_angle_gamma 149.459903
_cell_volume 803.457728
_symmetry_space_group_name_H-M "P -1"
_symmetry_group_IT_number 2
_symmetry_cell_setting 'triclinic'
loop_
_space_group_symop_operation_xyz
x,y,z
-x,-y,-z
loop_
_atom_site_type_symbol
_atom_site_label
_atom_site_fract_x
_atom_site_fract_y
_atom_site_fract_z
Si Si1 0.875507 0.238962 0.643593
Si Si2 0.680335 0.307336 0.392256
Si Si3 0.637044 0.997315 0.054126
Si Si4 0.154848 0.200888 0.973807
Si Si5 0.239634 0.051486 0.353942
Si Si6 0.858441 0.632186 0.789263
Si Si7 0.335396 0.743548 0.933423
Si Si8 0.757818 0.073630 0.442393
O O1 0.564750 0.113802 0.796282
O O2 0.834381 0.173065 0.537765
O O3 0.144390 0.479380 0.605578
O O4 0.924621 0.160366 0.645968
O O5 0.525566 0.205693 0.335672
O O6 0.918756 0.344331 0.300308
O O7 0.402852 0.132265 0.534938
O O8 0.674326 0.140775 0.056388
O O9 0.446170 0.820824 0.007954
O O10 0.966529 0.135303 0.961099
O O11 0.126132 0.278371 0.097198
O O12 0.517941 0.394517 0.851539
O O13 0.000000 0.000000 0.000000
O O14 0.396918 0.165837 0.225660
O O15 0.000000 0.000000 0.500000
O O16 0.965087 0.762772 0.703117
O O17 0.000000 0.500000 0.000000
O O18 0.500000 0.000000 0.500000
#
# Coordination Sequence:
#
# PCOD9100185 Si02
#       8
#     2   2   2   2   2   2   2   2
#     4  10  20  37  63  86 117 159 201 247 305 363
#     4  10  20  38  64  83 116 163 199 249 306 365
#     4  10  21  39  61  94 117 155 214 248 297 371
#     4  11  23  39  59  89 127 166 201 255 303 366
#     4  10  22  41  59  90 123 155 202 260 313 365
#     4  10  22  38  58  88 123 162 206 245 305 361
#     4  10  21  40  67  87 120 163 205 255 309 368
#     4   9  19  35  55  86 115 150 198 244 289 358
#
# _framework density 19.913930000000001
#
# number of rings (size 3 to 8) (size 9 to 14) (size 15 to 20)
#    0.000    2.000    0.000    4.500    0.000    5.500 
#   11.250    0.000    0.000    0.000    0.000    0.000 
#    0.000    0.000    0.000    0.000    0.000    0.000 
#
# Total GULP energy -89298.744969 kJ/mol
# GULP energy per Si atom -5581.171561 kJ/mol
# Density = 1.986860 g / cm^3
# Si number density = 19.913930 Si / 1000 Ang^3
#
#
#
# Elastic Constant Matrix: (Units=GPa)
#
#
# Indices 1 2 3 4 5 6 
#
# 1 48.7379 29.0083 24.6609 -5.5430 -4.9473 12.2243
# 2 29.0083 138.3236 38.8428 -33.3444 -0.7173 -3.8238
# 3 24.6609 38.8428 91.3358 -18.7282 -3.6283 3.0015
# 4 -5.5430 -33.3444 -18.7282 27.7591 -2.9266 5.4533
# 5 -4.9473 -0.7173 -3.6283 -2.9266 26.8316 -0.6076
# 6 12.2243 -3.8238 3.0015 5.4533 -0.6076 33.5875
#
#
#
# Elastic Compliance Matrix: (Units=1/GPa)
#
#
# Indices 1 2 3 4 5 6 
#
# 1 0.029275 -0.005277 -0.005512 -0.001736 0.004086 -0.010407
# 2 -0.005277 0.011538 -0.001077 0.011856 0.000515 0.001415
# 3 -0.005512 -0.001077 0.014575 0.007751 0.001757 -0.000646
# 4 -0.001736 0.011856 0.007751 0.057454 0.007133 -0.007910
# 5 0.004086 0.000515 0.001757 0.007133 0.039006 -0.002038
# 6 -0.010407 0.001415 -0.000646 -0.007910 -0.002038 0.035027
#
#
# Mechanical properties :
#
#
# Convention : Reuss Voigt Hill
#
# Bulk Modulus (GPa) = 31.58852 51.49125 41.53988
# Shear Modulus (GPa) = 22.60810 30.02800 26.31805
#
# Velocity S-wave (km/s) = 3.37306 3.88737 3.63931
# Velocity P-wave (km/s) = 5.57378 6.78689 6.21003
#
# Compressibility (1/GPa) = 0.03165707
#
# Stress axis : x y z
#
# Youngs Moduli (GPa) = 34.15867 86.66852 68.60912
#
# Poissons Ratio (x) = 0.45731 0.37818
# Poissons Ratio (y) = 0.18024 0.07391
# Poissons Ratio (z) = 0.18828 0.09336
#
# Static dielectric constant tensor:
#      x y z
#    x 1.697730 -0.022210 -0.004540 
#    y -0.022210 1.682550 -0.007310 
#    z -0.004540 -0.007310 1.748130 
# 
# From -- ./inp_files/521618.got.cif
#   From: 2010.05.17/outbox.cif.g08.bks.cpg/sg2_261_cif.got.tgz:521618.got - 2010.06.03 11:33:40.
