data_PCOD9100852
_publ_section_title
;
Structure prediction by ZEFSAII (Michael W. Deem and Ramdas Pophale) SiO2 
 PCOD9100852
Probable space group: P -1
;
_chemical_formula_sum "Si O2"
_cell_formula_units_Z 15
_cell_length_a 8.799773
_cell_length_b 12.580946
_cell_length_c 9.211569
_cell_angle_alpha 34.963587
_cell_angle_beta 68.318260
_cell_angle_gamma 72.546947
_cell_volume 543.052438
_symmetry_space_group_name_H-M "P -1"
_symmetry_group_IT_number 2
_symmetry_cell_setting 'triclinic'
loop_
_space_group_symop_operation_xyz
x,y,z
-x,-y,-z
loop_
_atom_site_type_symbol
_atom_site_label
_atom_site_fract_x
_atom_site_fract_y
_atom_site_fract_z
Si Si1 0.772632 0.169100 0.190265
Si Si2 0.000000 0.500000 0.000000
Si Si3 0.673717 0.991358 0.707217
Si Si4 0.962494 0.726325 0.239896
Si Si5 0.694401 0.553834 0.903253
Si Si6 0.381209 0.277897 0.547556
Si Si7 0.150116 0.761598 0.413648
Si Si8 0.435547 0.689423 0.165736
O O1 0.718706 0.012467 0.497181
O O2 0.777066 0.351060 0.087523
O O3 0.643754 0.211128 0.060237
O O4 0.940107 0.188662 0.023757
O O5 0.180814 0.382416 0.087744
O O6 0.929084 0.405474 0.280837
O O7 0.519046 0.128829 0.640374
O O8 0.812703 0.083652 0.652635
O O9 0.603925 0.796010 0.002084
O O10 0.772539 0.766720 0.249217
O O11 0.000000 0.500000 0.500000
O O12 0.033771 0.812882 0.264849
O O13 0.709962 0.686761 0.612554
O O14 0.500000 0.500000 0.000000
O O15 0.450513 0.475258 0.357225
O O16 0.315802 0.713636 0.317409
#
# Coordination Sequence:
#
# PCOD9100852 Si02
#       8
#     2   1   2   2   2   2   2   2
#     4  10  20  37  66  92 131 181 223 275 352 411
#     4  12  20  34  68 100 136 184 230 290 364 404
#     4  12  24  42  68 103 130 177 238 281 343 423
#     4  11  19  40  66  92 133 180 214 285 351 407
#     4  11  19  35  61 104 128 167 241 283 327 430
#     4  11  22  40  73  93 132 176 233 279 343 422
#     4  11  22  38  65  98 136 175 224 286 351 410
#     4  10  24  41  63  97 141 176 220 289 352 413
#
# _framework density 27.621641
#
# number of rings (size 3 to 8) (size 9 to 14) (size 15 to 20)
#    0.000    1.067    8.000    0.800    0.000    0.533 
#    0.000    2.667    0.000    0.000    0.000   13.067 
#    0.000    0.000    0.000    0.000    0.000    0.000 
#
# Total GULP energy -83687.493097 kJ/mol
# GULP energy per Si atom -5579.166206 kJ/mol
# Density = 2.755877 g / cm^3
# Si number density = 27.621641 Si / 1000 Ang^3
#
#
#
# Elastic Constant Matrix: (Units=GPa)
#
#
# Indices 1 2 3 4 5 6 
#
# 1 131.8536 40.0205 100.6306 2.3583 -1.7373 -9.1642
# 2 40.0205 83.5935 71.9995 14.3865 -4.4736 4.2249
# 3 100.6306 71.9995 169.2185 44.7678 -24.0999 -15.7957
# 4 2.3583 14.3865 44.7678 42.3463 -4.4382 -6.3132
# 5 -1.7373 -4.4736 -24.0999 -4.4382 60.4195 4.9869
# 6 -9.1642 4.2249 -15.7957 -6.3132 4.9869 30.7584
#
#
#
# Elastic Compliance Matrix: (Units=1/GPa)
#
#
# Indices 1 2 3 4 5 6 
#
# 1 0.020860 0.003150 -0.019112 0.017459 -0.005545 0.000450
# 2 0.003150 0.021340 -0.013458 0.005424 -0.002692 -0.007354
# 3 -0.019112 -0.013458 0.031671 -0.026090 0.008704 0.005652
# 4 0.017459 0.005424 -0.026090 0.048024 -0.006133 0.001910
# 5 -0.005545 -0.002692 0.008704 -0.006133 0.019313 -0.001203
# 6 0.000450 -0.007354 0.005652 0.001910 -0.001203 0.037145
#
#
# Mechanical properties :
#
#
# Convention : Reuss Voigt Hill
#
# Bulk Modulus (GPa) = 66.52671 89.99633 78.26152
# Shear Modulus (GPa) = 20.64384 38.17252 29.40818
#
# Velocity S-wave (km/s) = 2.73679 3.72153 3.26648
# Velocity P-wave (km/s) = 5.84157 7.14975 6.52851
#
# Compressibility (1/GPa) = 0.01503156
#
# Stress axis : x y z
#
# Youngs Moduli (GPa) = 47.93793 46.86025 31.57489
#
# Poissons Ratio (x) = -0.14762 0.60346
# Poissons Ratio (y) = -0.15102 0.42493
# Poissons Ratio (z) = 0.91620 0.63064
#
# Static dielectric constant tensor:
#      x y z
#    x 1.392200 -1.099600 -0.073860 
#    y -1.099600 1.034130 0.041970 
#    z -0.073860 0.041970 2.287320 
# 
# From -- ./inp_files/205083.got.cif
#   From: 2010.05.17/outbox.cif.g08.bks.cpg/sg2_103_cif.got.tgz:205083.got - 2010.06.03 11:33:40.
