data_PCOD9100574
_publ_section_title
;
Structure prediction by ZEFSAII (Michael W. Deem and Ramdas Pophale) SiO2 
 PCOD9100574
Probable space group: P -1
;
_chemical_formula_sum "Si O2"
_cell_formula_units_Z 16
_cell_length_a 14.808625
_cell_length_b 4.947579
_cell_length_c 24.452263
_cell_angle_alpha 79.694997
_cell_angle_beta 19.324626
_cell_angle_gamma 79.042957
_cell_volume 582.048050
_symmetry_space_group_name_H-M "P -1"
_symmetry_group_IT_number 2
_symmetry_cell_setting 'triclinic'
loop_
_space_group_symop_operation_xyz
x,y,z
-x,-y,-z
loop_
_atom_site_type_symbol
_atom_site_label
_atom_site_fract_x
_atom_site_fract_y
_atom_site_fract_z
Si Si1 0.793659 0.396241 0.399974
Si Si2 0.800539 0.211967 0.174752
Si Si3 0.778312 0.169761 0.739878
Si Si4 0.719667 0.237742 0.892519
Si Si5 0.524060 0.261229 0.123222
Si Si6 0.360433 0.100561 0.828621
Si Si7 0.702774 0.206987 0.351526
Si Si8 0.749142 0.412054 0.541690
O O1 0.898666 0.253983 0.289133
O O2 0.481031 0.509091 0.565258
O O3 0.814068 0.254053 0.452474
O O4 0.979423 0.650134 0.290657
O O5 0.802897 0.105546 0.239428
O O6 0.547077 0.431869 0.306512
O O7 0.727928 0.997457 0.177283
O O8 0.106953 0.300419 0.986867
O O9 0.706416 0.079296 0.847032
O O10 0.545315 0.412767 0.848866
O O11 0.043912 0.349025 0.575692
O O12 0.745349 0.908835 0.729307
O O13 0.500000 0.500000 0.000000
O O14 0.695449 0.178687 0.973342
O O15 0.632434 0.147749 0.122928
O O16 0.657558 0.219883 0.649773
O O17 0.500000 0.000000 0.500000
#
# Coordination Sequence:
#
# PCOD9100574 Si02
#       8
#     2   2   2   2   2   2   2   2
#     4   9  20  39  63  97 124 171 217 278 331 405
#     4  10  24  43  61  98 129 188 221 281 340 403
#     4  10  24  45  72 100 134 177 228 285 346 404
#     4   9  20  43  65  96 135 173 218 278 348 407
#     4  11  25  43  69 104 134 180 227 284 340 406
#     4  11  25  42  66  94 138 177 234 275 334 412
#     4  10  20  37  64  95 128 163 222 276 337 391
#     4  10  22  44  68  91 136 178 228 276 345 400
#
# _framework density 27.489142999999999
#
# number of rings (size 3 to 8) (size 9 to 14) (size 15 to 20)
#    0.000    2.000    0.000    1.500    5.250    3.000 
#   18.000    0.000    0.000    0.000    0.000    0.000 
#    0.000    0.000    0.000    0.000    0.000    0.000 
#
# Total GULP energy -89439.513393 kJ/mol
# GULP energy per Si atom -5589.969587 kJ/mol
# Density = 2.742658 g / cm^3
# Si number density = 27.489143 Si / 1000 Ang^3
#
#
#
# Elastic Constant Matrix: (Units=GPa)
#
#
# Indices 1 2 3 4 5 6 
#
# 1 131.8836 17.5260 15.3565 -5.8756 25.2910 -9.7753
# 2 17.5260 75.2235 -3.6798 -4.9479 10.3074 -5.3945
# 3 15.3565 -3.6798 101.2470 -2.2637 33.2426 -14.2072
# 4 -5.8756 -4.9479 -2.2637 35.2600 -9.7159 4.7983
# 5 25.2910 10.3074 33.2426 -9.7159 42.5619 -2.5913
# 6 -9.7753 -5.3945 -14.2072 4.7983 -2.5913 44.0635
#
#
#
# Elastic Compliance Matrix: (Units=1/GPa)
#
#
# Indices 1 2 3 4 5 6 
#
# 1 0.008819 -0.001179 0.000641 -0.000390 -0.005438 0.001741
# 2 -0.001179 0.014482 0.002476 0.000481 -0.004509 0.001992
# 3 0.000641 0.002476 0.014667 -0.002769 -0.012780 0.004724
# 4 -0.000390 0.000481 -0.002769 0.031229 0.009176 -0.003781
# 5 -0.005438 -0.004509 -0.012780 0.009176 0.039619 -0.004549
# 6 0.001741 0.001992 0.004724 -0.003781 -0.004549 0.024992
#
#
# Mechanical properties :
#
#
# Convention : Reuss Voigt Hill
#
# Bulk Modulus (GPa) = 23.89855 40.75105 32.32480
# Shear Modulus (GPa) = 34.75133 42.98716 38.86924
#
# Velocity S-wave (km/s) = 3.55939 3.95876 3.76438
# Velocity P-wave (km/s) = 5.06014 5.97933 5.53884
#
# Compressibility (1/GPa) = 0.04184355
#
# Stress axis : x y z
#
# Youngs Moduli (GPa) = 113.39006 69.05158 68.18127
#
# Poissons Ratio (x) = 0.08141 -0.04369
# Poissons Ratio (y) = 0.13368 -0.16882
# Poissons Ratio (z) = -0.07266 -0.17097
#
# Static dielectric constant tensor:
#      x y z
#    x 2.183270 -0.035840 -0.005350 
#    y -0.035840 2.250520 -0.013790 
#    z -0.005350 -0.013790 2.244870 
# 
# From -- ./inp_files/611241.got.cif
#   From: 2010.05.17/outbox.cif.g08.bks.cpg/sg2_306_cif.got.tgz:611241.got - 2010.06.03 11:33:40.
