data_PCOD9100086
_publ_section_title
;
Structure prediction by ZEFSAII (Michael W. Deem and Ramdas Pophale) SiO2 
 PCOD9100086
Probable space group: P -1
;
_chemical_formula_sum "Si O2"
_cell_formula_units_Z 16
_cell_length_a 7.854815
_cell_length_b 12.335206
_cell_length_c 10.090577
_cell_angle_alpha 117.202684
_cell_angle_beta 99.384894
_cell_angle_gamma 50.265656
_cell_volume 656.666193
_symmetry_space_group_name_H-M "P -1"
_symmetry_group_IT_number 2
_symmetry_cell_setting 'triclinic'
loop_
_space_group_symop_operation_xyz
x,y,z
-x,-y,-z
loop_
_atom_site_type_symbol
_atom_site_label
_atom_site_fract_x
_atom_site_fract_y
_atom_site_fract_z
Si Si1 0.912994 0.449568 0.075157
Si Si2 0.797849 0.146015 0.147813
Si Si3 0.426937 0.912901 0.367851
Si Si4 0.877928 0.350882 0.436553
Si Si5 0.957316 0.857633 0.159489
Si Si6 0.456974 0.714433 0.060598
Si Si7 0.014093 0.851777 0.453533
Si Si8 0.255931 0.367748 0.572955
O O1 0.658017 0.539462 0.041137
O O2 0.890658 0.519762 0.255763
O O3 0.051509 0.261345 0.992963
O O4 0.000000 0.500000 0.000000
O O5 0.855647 0.252624 0.271450
O O6 0.585848 0.256684 0.084552
O O7 0.790684 0.043069 0.200815
O O8 0.000000 0.000000 0.000000
O O9 0.514380 0.821370 0.190133
O O10 0.507492 0.776361 0.410070
O O11 0.500000 0.000000 0.500000
O O12 0.165706 0.058303 0.400054
O O13 0.720170 0.533698 0.471363
O O14 0.811800 0.317318 0.549463
O O15 0.114455 0.319775 0.466439
O O16 0.215905 0.788051 0.135987
O O17 0.932137 0.831287 0.294621
O O18 0.000000 0.000000 0.500000
#
# Coordination Sequence:
#
# PCOD9100086 Si02
#       8
#     2   2   2   2   2   2   2   2
#     4  11  24  43  65  95 127 167 217 264 320 387
#     4  10  20  37  62  93 126 164 211 260 317 376
#     4  11  22  39  66  93 128 171 216 260 316 391
#     4  11  21  40  63  93 129 170 213 265 318 385
#     4  11  22  39  67  93 129 167 212 265 320 379
#     4  10  22  41  65  93 124 171 208 261 322 382
#     4  12  21  40  65  98 127 164 218 267 317 376
#     4  10  23  40  65  91 130 172 211 260 328 377
#
# _framework density 24.365501999999999
#
# number of rings (size 3 to 8) (size 9 to 14) (size 15 to 20)
#    0.000    1.250    3.750    3.375    1.750    1.000 
#    0.000    5.000    0.000    0.000    0.000    0.000 
#    0.000    0.000    0.000    0.000    0.000    0.000 
#
# Total GULP energy -89170.001111 kJ/mol
# GULP energy per Si atom -5573.125069 kJ/mol
# Density = 2.431004 g / cm^3
# Si number density = 24.365502 Si / 1000 Ang^3
#
#
#
# Elastic Constant Matrix: (Units=GPa)
#
#
# Indices 1 2 3 4 5 6 
#
# 1 46.3854 17.9166 18.2982 4.1571 16.2416 10.7541
# 2 17.9166 146.8961 51.2925 -15.0464 19.9362 31.6953
# 3 18.2982 51.2925 126.3138 -2.9542 31.2750 21.2278
# 4 4.1571 -15.0464 -2.9542 47.0757 4.6765 8.5742
# 5 16.2416 19.9362 31.2750 4.6765 34.4689 3.6761
# 6 10.7541 31.6953 21.2278 8.5742 3.6761 41.0700
#
#
#
# Elastic Compliance Matrix: (Units=1/GPa)
#
#
# Indices 1 2 3 4 5 6 
#
# 1 0.027260 -0.000581 0.000211 -0.000354 -0.012050 -0.005646
# 2 -0.000581 0.010112 -0.001682 0.004926 -0.003921 -0.007460
# 3 0.000211 -0.001682 0.011710 0.001920 -0.009548 -0.004356
# 4 -0.000354 0.004926 0.001920 0.025359 -0.006865 -0.009381
# 5 -0.012050 -0.003921 -0.009548 -0.006865 0.045649 0.008463
# 6 -0.005646 -0.007460 -0.004356 -0.009381 0.008463 0.035036
#
#
# Mechanical properties :
#
#
# Convention : Reuss Voigt Hill
#
# Bulk Modulus (GPa) = 22.23355 54.95666 38.59511
# Shear Modulus (GPa) = 28.69869 39.99545 34.34707
#
# Velocity S-wave (km/s) = 3.43569 4.05591 3.75862
# Velocity P-wave (km/s) = 4.98833 6.67368 5.89158
#
# Compressibility (1/GPa) = 0.04497707
#
# Stress axis : x y z
#
# Youngs Moduli (GPa) = 36.68428 98.89133 85.39497
#
# Poissons Ratio (x) = 0.05749 -0.01803
# Poissons Ratio (y) = 0.02132 0.14366
# Poissons Ratio (z) = -0.00775 0.16637
#
# Static dielectric constant tensor:
#      x y z
#    x 2.101930 0.045640 0.005620 
#    y 0.045640 2.014000 -0.009250 
#    z 0.005620 -0.009250 1.968100 
# 
# From -- ./inp_files/392869.got.cif
#   From: 2010.05.17/outbox.cif.g08.bks.cpg/sg2_197_cif.got.tgz:392869.got - 2010.06.03 11:33:40.
