data_PCOD9100298
_publ_section_title
;
Structure prediction by ZEFSAII (Michael W. Deem and Ramdas Pophale) SiO2 
 PCOD9100298
Probable space group: P -1
;
_chemical_formula_sum "Si O2"
_cell_formula_units_Z 14
_cell_length_a 23.881369
_cell_length_b 13.828596
_cell_length_c 9.301171
_cell_angle_alpha 31.779578
_cell_angle_beta 34.797214
_cell_angle_gamma 25.265391
_cell_volume 671.421940
_symmetry_space_group_name_H-M "P -1"
_symmetry_group_IT_number 2
_symmetry_cell_setting 'triclinic'
loop_
_space_group_symop_operation_xyz
x,y,z
-x,-y,-z
loop_
_atom_site_type_symbol
_atom_site_label
_atom_site_fract_x
_atom_site_fract_y
_atom_site_fract_z
Si Si1 0.069833 0.258799 0.554925
Si Si2 0.511121 0.356090 0.801557
Si Si3 0.310760 0.857857 0.759645
Si Si4 0.932188 0.900566 0.825995
Si Si5 0.173205 0.053437 0.304620
Si Si6 0.127531 0.685059 0.942131
Si Si7 0.605674 0.846854 0.841189
O O1 0.000000 0.500000 0.500000
O O2 0.210827 0.014974 0.635512
O O3 0.100095 0.257767 0.327226
O O4 0.963028 0.231842 0.831384
O O5 0.500000 0.500000 0.500000
O O6 0.429189 0.568963 0.828679
O O7 0.666369 0.121434 0.812143
O O8 0.442694 0.250421 0.040733
O O9 0.367695 0.990844 0.495093
O O10 0.211984 0.907986 0.028486
O O11 0.040706 0.717176 0.951867
O O12 0.898280 0.827404 0.848376
O O13 0.000000 0.000000 0.500000
O O14 0.158487 0.856506 0.627479
O O15 0.260562 0.398791 0.052534
O O16 0.500000 0.000000 0.000000
#
# Coordination Sequence:
#
# PCOD9100298 Si02
#       7
#     2   2   2   2   2   2   2
#     4  11  20  34  62  91 123 158 211 270 316 363
#     4  12  22  38  66  98 124 172 213 267 321 375
#     4  11  22  42  64  96 131 165 218 267 320 380
#     4   9  23  42  66  92 130 174 211 259 330 390
#     4  11  21  41  62  93 128 168 216 260 318 392
#     4  10  20  37  63  92 121 165 213 268 322 369
#     4  12  21  36  66  99 128 163 220 271 313 377
#
# _framework density 20.851268999999998
#
# number of rings (size 3 to 8) (size 9 to 14) (size 15 to 20)
#    0.000    1.143    5.714    0.429    0.000    2.857 
#    0.000    3.571    3.143    0.000    0.000    0.000 
#    0.000    0.000    0.000    0.000    0.000    0.000 
#
# Total GULP energy -78109.576075 kJ/mol
# GULP energy per Si atom -5579.255434 kJ/mol
# Density = 2.080381 g / cm^3
# Si number density = 20.851269 Si / 1000 Ang^3
#
#
#
# Elastic Constant Matrix: (Units=GPa)
#
#
# Indices 1 2 3 4 5 6 
#
# 1 82.1302 83.0727 25.8038 22.4435 2.6741 3.1693
# 2 83.0727 139.3524 52.9416 9.6262 -21.2304 11.5103
# 3 25.8038 52.9416 117.1297 16.4760 -21.6849 13.3326
# 4 22.4435 9.6262 16.4760 29.8214 2.0689 -3.6927
# 5 2.6741 -21.2304 -21.6849 2.0689 26.9869 6.4507
# 6 3.1693 11.5103 13.3326 -3.6927 6.4507 38.8393
#
#
#
# Elastic Compliance Matrix: (Units=1/GPa)
#
#
# Indices 1 2 3 4 5 6 
#
# 1 0.069846 -0.047443 0.001380 -0.033527 -0.043411 0.011909
# 2 -0.047443 0.041761 -0.003251 0.020092 0.036146 -0.011482
# 3 0.001380 -0.003251 0.013659 -0.009063 0.010516 -0.006446
# 4 -0.033527 0.020092 -0.009063 0.057372 0.006425 0.004280
# 5 -0.043411 0.036146 0.010516 0.006425 0.083495 -0.024036
# 6 0.011909 -0.011482 -0.006446 0.004280 -0.024036 0.034790
#
#
# Mechanical properties :
#
#
# Convention : Reuss Voigt Hill
#
# Bulk Modulus (GPa) = 37.54173 73.58316 55.56244
# Shear Modulus (GPa) = 12.24202 30.91578 21.57890
#
# Velocity S-wave (km/s) = 2.42567 3.85474 3.22047
# Velocity P-wave (km/s) = 5.08810 7.42820 6.36659
#
# Compressibility (1/GPa) = 0.02663703
#
# Stress axis : x y z
#
# Youngs Moduli (GPa) = 14.31731 23.94582 73.21414
#
# Poissons Ratio (x) = 1.13606 -0.10106
# Poissons Ratio (y) = 0.67926 0.23803
# Poissons Ratio (z) = -0.01976 0.07785
#
# Static dielectric constant tensor:
#      x y z
#    x 1.545120 0.882040 -0.241670 
#    y 0.882040 -1.627150 0.856440 
#    z -0.241670 0.856440 1.628600 
# 
# From -- ./inp_files/180238.got.cif
#   From: 2010.05.17/outbox.cif.g08.bks.cpg/sg2_91_cif.got.tgz:180238.got - 2010.06.03 11:33:40.
