data_PCOD9100368
_publ_section_title
;
Structure prediction by ZEFSAII (Michael W. Deem and Ramdas Pophale) SiO2 
 PCOD9100368
Probable space group: P -1
;
_chemical_formula_sum "Si O2"
_cell_formula_units_Z 15
_cell_length_a 5.023229
_cell_length_b 24.934144
_cell_length_c 7.990606
_cell_angle_alpha 140.118918
_cell_angle_beta 69.069157
_cell_angle_gamma 109.466034
_cell_volume 596.451357
_symmetry_space_group_name_H-M "P -1"
_symmetry_group_IT_number 2
_symmetry_cell_setting 'triclinic'
loop_
_space_group_symop_operation_xyz
x,y,z
-x,-y,-z
loop_
_atom_site_type_symbol
_atom_site_label
_atom_site_fract_x
_atom_site_fract_y
_atom_site_fract_z
Si Si1 0.500000 0.500000 0.000000
Si Si2 0.586783 0.331471 0.744061
Si Si3 0.839974 0.940614 0.753517
Si Si4 0.778379 0.061207 0.620915
Si Si5 0.300743 0.885395 0.903834
Si Si6 0.167981 0.254779 0.368720
Si Si7 0.807661 0.425192 0.451160
Si Si8 0.685809 0.680554 0.868085
O O1 0.528343 0.428591 0.972273
O O2 0.717555 0.451327 0.718117
O O3 0.920642 0.317426 0.610888
O O4 0.415691 0.283996 0.513755
O O5 0.466765 0.297901 0.872079
O O6 0.586400 0.874894 0.714615
O O7 0.070882 0.902522 0.494096
O O8 0.695905 0.013646 0.860849
O O9 0.000000 0.000000 0.000000
O O10 0.500000 0.000000 0.500000
O O11 0.700592 0.130572 0.936340
O O12 0.000000 0.000000 0.500000
O O13 0.015149 0.835324 0.778454
O O14 0.271758 0.260142 0.164786
O O15 0.479852 0.602559 0.652699
O O16 0.000000 0.500000 0.500000
O O17 0.003110 0.347804 0.228174
#
# Coordination Sequence:
#
# PCOD9100368 Si02
#       8
#     1   2   2   2   2   2   2   2
#     4  12  24  44  74 102 134 180 236 292 338 398
#     4  12  28  44  74 100 138 185 238 282 348 416
#     4  10  20  40  70  99 128 172 228 276 329 399
#     4  10  20  37  63  96 125 164 213 265 327 389
#     4  10  24  41  65  98 139 174 221 285 335 409
#     4  12  27  48  65 102 143 186 226 284 358 414
#     4  12  25  41  72 102 130 173 230 292 347 399
#     4  12  25  47  66 100 138 178 231 284 345 419
#
# _framework density 25.14874
#
# number of rings (size 3 to 8) (size 9 to 14) (size 15 to 20)
#    0.000    0.800    5.333    1.200    1.867    2.133 
#    0.000    0.000    0.000    0.000    0.000    0.000 
#    0.000    0.000    0.000    0.000    0.000    0.000 
#
# Total GULP energy -83623.405337 kJ/mol
# GULP energy per Si atom -5574.893689 kJ/mol
# Density = 2.509150 g / cm^3
# Si number density = 25.148740 Si / 1000 Ang^3
#
#
#
# Elastic Constant Matrix: (Units=GPa)
#
#
# Indices 1 2 3 4 5 6 
#
# 1 74.9687 25.7323 -4.1272 -5.9358 10.3727 9.7633
# 2 25.7323 142.8365 46.2939 -33.7870 1.6752 19.2395
# 3 -4.1272 46.2939 62.2500 -34.3317 -4.9857 6.5917
# 4 -5.9358 -33.7870 -34.3317 66.5356 -3.1265 -9.4763
# 5 10.3727 1.6752 -4.9857 -3.1265 29.6823 6.5922
# 6 9.7633 19.2395 6.5917 -9.4763 6.5922 42.6160
#
#
#
# Elastic Compliance Matrix: (Units=1/GPa)
#
#
# Indices 1 2 3 4 5 6 
#
# 1 0.015719 -0.003646 0.004368 0.001373 -0.004031 -0.001702
# 2 -0.003646 0.010604 -0.007342 0.000902 0.000123 -0.002635
# 3 0.004368 -0.007342 0.028669 0.011646 0.004998 -0.000304
# 4 0.001373 0.000902 0.011646 0.022041 0.003334 0.001862
# 5 -0.004031 0.000123 0.004998 0.003334 0.037381 -0.004946
# 6 -0.001702 -0.002635 -0.000304 0.001862 -0.004946 0.026271
#
#
# Mechanical properties :
#
#
# Convention : Reuss Voigt Hill
#
# Bulk Modulus (GPa) = 23.95018 46.20592 35.07805
# Shear Modulus (GPa) = 29.78989 41.91052 35.85020
#
# Velocity S-wave (km/s) = 3.44546 4.08671 3.77971
# Velocity P-wave (km/s) = 5.03710 6.37819 5.74689
#
# Compressibility (1/GPa) = 0.04175335
#
# Stress axis : x y z
#
# Youngs Moduli (GPa) = 63.61704 94.30278 34.88074
#
# Poissons Ratio (x) = 0.34386 -0.15238
# Poissons Ratio (y) = 0.23197 0.25608
# Poissons Ratio (z) = -0.27791 0.69233
#
# Static dielectric constant tensor:
#      x y z
#    x 1.997020 -0.067490 -0.043200 
#    y -0.067490 2.164310 -0.062070 
#    z -0.043200 -0.062070 2.043940 
# 
# From -- ./inp_files/142876.got.cif
#   From: 2010.05.17/outbox.cif.g08.bks.cpg/sg2_72_cif.got.tgz:142876.got - 2010.06.03 11:33:40.
