data_PCOD9100999
_publ_section_title
;
Structure prediction by ZEFSAII (Michael W. Deem and Ramdas Pophale) SiO2 
 PCOD9100999
Probable space group: P -1
;
_chemical_formula_sum "Si O2"
_cell_formula_units_Z 16
_cell_length_a 9.833934
_cell_length_b 13.439314
_cell_length_c 12.288895
_cell_angle_alpha 97.025287
_cell_angle_beta 53.694451
_cell_angle_gamma 135.451346
_cell_volume 778.574819
_symmetry_space_group_name_H-M "P -1"
_symmetry_group_IT_number 2
_symmetry_cell_setting 'triclinic'
loop_
_space_group_symop_operation_xyz
x,y,z
-x,-y,-z
loop_
_atom_site_type_symbol
_atom_site_label
_atom_site_fract_x
_atom_site_fract_y
_atom_site_fract_z
Si Si1 0.604353 0.938170 0.468494
Si Si2 0.326871 0.674611 0.400804
Si Si3 0.459109 0.095678 0.875647
Si Si4 0.462709 0.078185 0.263274
Si Si5 0.901667 0.616961 0.940409
Si Si6 0.817160 0.758248 0.873102
Si Si7 0.595191 0.292231 0.042985
Si Si8 0.793374 0.748421 0.129881
O O1 0.371958 0.751880 0.505344
O O2 0.693223 0.972425 0.557304
O O3 0.500000 0.000000 0.500000
O O4 0.885421 0.059464 0.281624
O O5 0.457969 0.808806 0.262639
O O6 0.535310 0.677090 0.304339
O O7 0.000000 0.500000 0.500000
O O8 0.601110 0.053317 0.790501
O O9 0.580675 0.212668 0.936476
O O10 0.117923 0.925731 0.032552
O O11 0.489783 0.182566 0.182042
O O12 0.771568 0.200353 0.180286
O O13 0.885704 0.490373 0.939090
O O14 0.769742 0.617055 0.104167
O O15 0.813140 0.635751 0.875198
O O16 0.591074 0.697601 0.892693
O O17 0.766539 0.773509 0.020952
#
# Coordination Sequence:
#
# PCOD9100999 Si02
#       8
#     2   2   2   2   2   2   2   2
#     4  12  21  40  63  82 127 166 202 244 306 374
#     4  12  23  34  63 101 120 149 206 270 301 344
#     4  11  20  41  62  87 121 166 205 248 300 368
#     4  11  24  40  57  91 127 166 193 247 316 365
#     4   9  20  40  63  86 118 162 200 251 301 358
#     4  10  20  37  68  83 115 165 204 251 294 363
#     4  12  23  35  64  95 120 149 215 257 294 359
#     4   9  19  41  62  87 117 160 211 237 310 359
#
# _framework density 20.550370000000001
#
# number of rings (size 3 to 8) (size 9 to 14) (size 15 to 20)
#    0.750    0.500    5.000    2.250    1.750    1.500 
#    0.000    0.000    0.000    0.750    0.000    0.000 
#    0.000    0.000    0.000    0.000    0.000    0.000 
#
# Total GULP energy -89109.181253 kJ/mol
# GULP energy per Si atom -5569.323828 kJ/mol
# Density = 2.050360 g / cm^3
# Si number density = 20.550370 Si / 1000 Ang^3
#
#
#
# Elastic Constant Matrix: (Units=GPa)
#
#
# Indices 1 2 3 4 5 6 
#
# 1 47.4046 9.4837 17.1884 4.8830 21.8821 -16.2802
# 2 9.4837 131.4158 35.5099 9.5814 4.4288 -11.2138
# 3 17.1884 35.5099 55.0985 8.8536 3.8103 -3.3902
# 4 4.8830 9.5814 8.8536 21.7768 0.2036 2.5364
# 5 21.8821 4.4288 3.8103 0.2036 35.5858 -8.9502
# 6 -16.2802 -11.2138 -3.3902 2.5364 -8.9502 18.7408
#
#
#
# Elastic Compliance Matrix: (Units=1/GPa)
#
#
# Indices 1 2 3 4 5 6 
#
# 1 0.045541 0.004081 -0.011802 -0.010782 -0.019084 0.032214
# 2 0.004081 0.010125 -0.006628 -0.003653 -0.000910 0.008464
# 3 -0.011802 -0.006628 0.026095 -0.004234 0.003486 -0.007260
# 4 -0.010782 -0.003653 -0.004234 0.053779 0.002616 -0.018347
# 5 -0.019084 -0.000910 0.003486 0.002616 0.040146 0.002327
# 6 0.032214 0.008464 -0.007260 -0.018347 0.002327 0.088690
#
#
# Mechanical properties :
#
#
# Convention : Reuss Voigt Hill
#
# Bulk Modulus (GPa) = 18.84572 39.80920 29.32746
# Shear Modulus (GPa) = 16.08945 26.66980 21.37962
#
# Velocity S-wave (km/s) = 2.80112 3.60638 3.22895
# Velocity P-wave (km/s) = 4.43307 6.06258 5.31069
#
# Compressibility (1/GPa) = 0.05306245
#
# Stress axis : x y z
#
# Youngs Moduli (GPa) = 21.95815 98.76467 38.32131
#
# Poissons Ratio (x) = -0.40303 0.45228
# Poissons Ratio (y) = -0.08961 0.25399
# Poissons Ratio (z) = 0.25916 0.65459
#
# Static dielectric constant tensor:
#      x y z
#    x 1.772700 0.048490 -0.051630 
#    y 0.048490 1.972940 -0.038710 
#    z -0.051630 -0.038710 1.797180 
# 
# From -- ./inp_files/392605.got.cif
#   From: 2010.05.17/outbox.cif.g08.bks.cpg/sg2_197_cif.got.tgz:392605.got - 2010.06.03 11:33:40.
