data_PCOD9100584
_publ_section_title
;
Structure prediction by ZEFSAII (Michael W. Deem and Ramdas Pophale) SiO2 
 PCOD9100584
Probable space group: P -1
;
_chemical_formula_sum "Si O2"
_cell_formula_units_Z 14
_cell_length_a 11.112821
_cell_length_b 11.842209
_cell_length_c 6.073379
_cell_angle_alpha 69.962174
_cell_angle_beta 59.100341
_cell_angle_gamma 79.505377
_cell_volume 644.284496
_symmetry_space_group_name_H-M "P -1"
_symmetry_group_IT_number 2
_symmetry_cell_setting 'triclinic'
loop_
_space_group_symop_operation_xyz
x,y,z
-x,-y,-z
loop_
_atom_site_type_symbol
_atom_site_label
_atom_site_fract_x
_atom_site_fract_y
_atom_site_fract_z
Si Si1 0.822824 0.280293 0.993152
Si Si2 0.570061 0.122572 0.273241
Si Si3 0.907690 0.733102 0.935618
Si Si4 0.812645 0.111337 0.754468
Si Si5 0.715232 0.755194 0.484260
Si Si6 0.131063 0.457324 0.255590
Si Si7 0.103970 0.060324 0.567545
O O1 0.696449 0.191357 0.234875
O O2 0.965744 0.259698 0.010536
O O3 0.838830 0.245288 0.739410
O O4 0.787681 0.420140 0.953845
O O5 0.444570 0.219011 0.321674
O O6 0.500000 0.000000 0.500000
O O7 0.654900 0.088120 0.994559
O O8 0.918241 0.609793 0.872885
O O9 0.908490 0.839371 0.684256
O O10 0.760597 0.737457 0.201317
O O11 0.942960 0.045581 0.803598
O O12 0.833807 0.056401 0.531344
O O13 0.778468 0.641609 0.631345
O O14 0.796068 0.876700 0.397809
O O15 0.000000 0.500000 0.500000
#
# Coordination Sequence:
#
# PCOD9100584 Si02
#       7
#     2   2   2   2   2   2   2
#     4  10  21  40  61  94 126 164 210 255 313 372
#     4  10  23  41  62  92 133 173 207 250 316 383
#     4  11  21  38  68  95 119 163 209 273 313 361
#     4   9  20  39  58  90 128 160 214 258 310 363
#     4  11  22  39  65  91 131 165 209 257 315 376
#     4  11  22  41  68  96 123 159 216 266 315 367
#     4  10  20  37  64  96 120 164 218 262 311 365
#
# _framework density 21.72953
#
# number of rings (size 3 to 8) (size 9 to 14) (size 15 to 20)
#    0.857    0.857    2.857    2.143    0.000    4.000 
#    0.000    3.571    0.000    0.000    0.000    0.000 
#    0.000    0.000    0.000    0.000    0.000    0.000 
#
# Total GULP energy -77987.127130 kJ/mol
# GULP energy per Si atom -5570.509081 kJ/mol
# Density = 2.168007 g / cm^3
# Si number density = 21.729530 Si / 1000 Ang^3
#
#
#
# Elastic Constant Matrix: (Units=GPa)
#
#
# Indices 1 2 3 4 5 6 
#
# 1 76.8082 52.2291 34.8597 14.3903 -22.2253 -8.9289
# 2 52.2291 138.1279 51.7685 16.7625 0.6991 14.6424
# 3 34.8597 51.7685 74.9597 19.4189 -24.4871 -8.2843
# 4 14.3903 16.7625 19.4189 49.1846 -5.5745 0.8070
# 5 -22.2253 0.6991 -24.4871 -5.5745 34.3268 9.9628
# 6 -8.9289 14.6424 -8.2843 0.8070 9.9628 51.7941
#
#
#
# Elastic Compliance Matrix: (Units=1/GPa)
#
#
# Indices 1 2 3 4 5 6 
#
# 1 0.024813 -0.010381 0.002081 -0.002804 0.015996 0.004512
# 2 -0.010381 0.016027 -0.011428 0.000651 -0.013479 -0.005566
# 3 0.002081 -0.011428 0.028770 -0.005897 0.019850 0.004465
# 4 -0.002804 0.000651 -0.005897 0.023079 -0.001817 -0.001621
# 5 0.015996 -0.013479 0.019850 -0.001817 0.053795 -0.000576
# 6 0.004512 -0.005566 0.004465 -0.001621 -0.000576 0.022509
#
#
# Mechanical properties :
#
#
# Convention : Reuss Voigt Hill
#
# Bulk Modulus (GPa) = 33.16263 63.06783 48.11523
# Shear Modulus (GPa) = 22.88319 37.13032 30.00675
#
# Velocity S-wave (km/s) = 3.24866 4.13819 3.72011
# Velocity P-wave (km/s) = 5.41908 7.20554 6.37519
#
# Compressibility (1/GPa) = 0.03015443
#
# Stress axis : x y z
#
# Youngs Moduli (GPa) = 40.30211 62.39381 34.75784
#
# Poissons Ratio (x) = 0.64771 -0.07233
# Poissons Ratio (y) = 0.41838 0.39721
# Poissons Ratio (z) = -0.08386 0.71302
#
# Static dielectric constant tensor:
#      x y z
#    x 1.811490 0.010250 0.004010 
#    y 0.010250 1.820500 -0.013200 
#    z 0.004010 -0.013200 1.901130 
# 
# From -- ./inp_files/66040.got.cif
#   From: 2010.05.17/outbox.cif.g08.bks.cpg/sg2_34_cif.got.tgz:66040.got - 2010.06.03 11:33:40.
