data_PCOD9100228
_publ_section_title
;
Structure prediction by ZEFSAII (Michael W. Deem and Ramdas Pophale) SiO2 
 PCOD9100228
Probable space group: P -1
;
_chemical_formula_sum "Si O2"
_cell_formula_units_Z 16
_cell_length_a 14.136555
_cell_length_b 12.978180
_cell_length_c 8.738721
_cell_angle_alpha 72.287125
_cell_angle_beta 31.921971
_cell_angle_gamma 71.065256
_cell_volume 800.542528
_symmetry_space_group_name_H-M "P -1"
_symmetry_group_IT_number 2
_symmetry_cell_setting 'triclinic'
loop_
_space_group_symop_operation_xyz
x,y,z
-x,-y,-z
loop_
_atom_site_type_symbol
_atom_site_label
_atom_site_fract_x
_atom_site_fract_y
_atom_site_fract_z
Si Si1 0.067160 0.830262 0.653180
Si Si2 0.472980 0.018913 0.284801
Si Si3 0.509930 0.169981 0.882385
Si Si4 0.101975 0.768297 0.281846
Si Si5 0.782170 0.629887 0.823660
Si Si6 0.203798 0.974445 0.924767
Si Si7 0.692652 0.442091 0.814395
Si Si8 0.998148 0.596325 0.840637
O O1 0.275783 0.830714 0.407328
O O2 0.059815 0.827078 0.478439
O O3 0.999123 0.717485 0.850936
O O4 0.944667 0.932470 0.847255
O O5 0.290634 0.007850 0.632544
O O6 0.534978 0.905246 0.163342
O O7 0.628541 0.040840 0.179175
O O8 0.452333 0.110947 0.141585
O O9 0.403457 0.289750 0.963865
O O10 0.281466 0.679954 0.095275
O O11 0.938079 0.697686 0.514592
O O12 0.125431 0.859553 0.084523
O O13 0.769278 0.522937 0.791853
O O14 0.838499 0.600910 0.933557
O O15 0.820821 0.426918 0.498050
O O16 0.500000 0.500000 0.000000
O O17 0.000000 0.500000 0.000000
#
# Coordination Sequence:
#
# PCOD9100228 Si02
#       8
#     2   2   2   2   2   2   2   2
#     4  10  21  38  64  87 126 162 202 250 312 368
#     4  10  24  38  60  86 128 156 208 250 308 361
#     4  11  22  41  60  90 122 164 202 248 314 376
#     4  10  20  37  63  89 119 166 205 248 311 367
#     4  10  21  40  67  86 122 168 206 249 310 372
#     4  11  22  41  60  92 122 162 208 257 302 361
#     4  10  21  41  63  90 122 164 209 251 305 372
#     4  10  22  42  63  93 121 158 207 257 311 360
#
# _framework density 19.986443999999999
#
# number of rings (size 3 to 8) (size 9 to 14) (size 15 to 20)
#    0.000    2.000    1.250    4.875    3.500    1.500 
#    9.000    1.250    0.000    0.000    0.000    0.000 
#    0.000    0.000    0.000    0.000    0.000    0.000 
#
# Total GULP energy -89402.521788 kJ/mol
# GULP energy per Si atom -5587.657612 kJ/mol
# Density = 1.994095 g / cm^3
# Si number density = 19.986444 Si / 1000 Ang^3
#
#
#
# Elastic Constant Matrix: (Units=GPa)
#
#
# Indices 1 2 3 4 5 6 
#
# 1 44.0241 30.3909 28.5707 -6.1676 -1.9124 2.0241
# 2 30.3909 141.3568 56.0551 3.0742 6.5022 -15.4555
# 3 28.5707 56.0551 74.4348 3.2426 -1.9791 -20.6384
# 4 -6.1676 3.0742 3.2426 41.0948 -6.0918 -6.8147
# 5 -1.9124 6.5022 -1.9791 -6.0918 15.3448 2.0466
# 6 2.0241 -15.4555 -20.6384 -6.8147 2.0466 28.1476
#
#
#
# Elastic Compliance Matrix: (Units=1/GPa)
#
#
# Indices 1 2 3 4 5 6 
#
# 1 0.037729 -0.004116 -0.015771 0.005917 0.008861 -0.015748
# 2 -0.004116 0.011020 -0.006330 -0.001666 -0.006901 0.001804
# 3 -0.015771 -0.006330 0.029618 -0.000823 0.001669 0.019055
# 4 0.005917 -0.001666 -0.000823 0.027821 0.011858 0.003929
# 5 0.008861 -0.006901 0.001669 0.011858 0.074891 -0.005778
# 6 -0.015748 0.001804 0.019055 0.003929 -0.005778 0.052993
#
#
# Mechanical properties :
#
#
# Convention : Reuss Voigt Hill
#
# Bulk Modulus (GPa) = 38.55896 54.42769 46.49332
# Shear Modulus (GPa) = 16.94052 26.57070 21.75561
#
# Velocity S-wave (km/s) = 2.91452 3.65010 3.30285
# Velocity P-wave (km/s) = 5.53718 6.71236 6.15289
#
# Compressibility (1/GPa) = 0.02593431
#
# Stress axis : x y z
#
# Youngs Moduli (GPa) = 26.50491 90.74186 33.76271
#
# Poissons Ratio (x) = 0.37347 0.53247
# Poissons Ratio (y) = 0.10909 0.21372
# Poissons Ratio (z) = 0.41801 0.57440
#
# Static dielectric constant tensor:
#      x y z
#    x 1.728110 0.002370 -0.015810 
#    y 0.002370 1.700320 -0.016180 
#    z -0.015810 -0.016180 1.694810 
# 
# From -- ./inp_files/306873.got.cif
#   From: 2010.05.17/outbox.cif.g08.bks.cpg/sg2_154_cif.got.tgz:306873.got - 2010.06.03 11:33:40.
