data_PCOD9100632
_publ_section_title
;
Structure prediction by ZEFSAII (Michael W. Deem and Ramdas Pophale) SiO2 
 PCOD9100632
Probable space group: P -1
;
_chemical_formula_sum "Si O2"
_cell_formula_units_Z 16
_cell_length_a 9.185438
_cell_length_b 7.971250
_cell_length_c 19.477979
_cell_angle_alpha 96.436919
_cell_angle_beta 138.305641
_cell_angle_gamma 63.141775
_cell_volume 782.958745
_symmetry_space_group_name_H-M "P -1"
_symmetry_group_IT_number 2
_symmetry_cell_setting 'triclinic'
loop_
_space_group_symop_operation_xyz
x,y,z
-x,-y,-z
loop_
_atom_site_type_symbol
_atom_site_label
_atom_site_fract_x
_atom_site_fract_y
_atom_site_fract_z
Si Si1 0.460174 0.029338 0.744187
Si Si2 0.018260 0.003393 0.424770
Si Si3 0.588354 0.771776 0.014024
Si Si4 0.965701 0.346371 0.088590
Si Si5 0.116404 0.770360 0.793150
Si Si6 0.483687 0.342926 0.864099
Si Si7 0.799143 0.714865 0.472996
Si Si8 0.614754 0.135234 0.562911
O O1 0.488040 0.187859 0.805577
O O2 0.383216 0.122868 0.643829
O O3 0.227970 0.003362 0.686498
O O4 0.735460 0.811418 0.835155
O O5 0.042548 0.195613 0.433698
O O6 0.000000 0.000000 0.500000
O O7 0.280790 0.826862 0.468937
O O8 0.558526 0.711377 0.076995
O O9 0.863720 0.583185 0.072022
O O10 0.369219 0.778078 0.891042
O O11 0.500000 0.000000 0.000000
O O12 0.947518 0.274692 0.155767
O O13 0.755301 0.334490 0.966314
O O14 0.226753 0.571528 0.775824
O O15 0.877816 0.982799 0.691223
O O16 0.613241 0.696375 0.460974
O O17 0.000000 0.500000 0.500000
O O18 0.500000 0.000000 0.500000
#
# Coordination Sequence:
#
# PCOD9100632 Si02
#       8
#     2   2   2   2   2   2   2   2
#     4  11  20  37  60  85 126 150 189 250 299 347
#     4   9  22  40  56  84 122 155 187 250 303 344
#     4   9  19  36  57  82 122 147 194 246 288 355
#     4   9  18  38  57  83 115 160 193 234 293 355
#     4   9  18  36  59  83 110 156 199 238 289 348
#     4   9  20  33  58  87 113 153 200 235 290 354
#     4  10  22  41  61  88 116 154 205 246 288 357
#     4  10  20  37  65  82 113 154 205 236 293 355
#
# _framework density 20.435303000000001
#
# number of rings (size 3 to 8) (size 9 to 14) (size 15 to 20)
#    0.000    2.500    1.250    1.875    5.250    0.000 
#    2.250    3.125    0.000    0.000    0.000    0.000 
#    0.000    0.000    0.000    0.000    0.000    0.000 
#
# Total GULP energy -89085.909053 kJ/mol
# GULP energy per Si atom -5567.869316 kJ/mol
# Density = 2.038879 g / cm^3
# Si number density = 20.435303 Si / 1000 Ang^3
#
#
#
# Elastic Constant Matrix: (Units=GPa)
#
#
# Indices 1 2 3 4 5 6 
#
# 1 103.4400 34.8626 34.2341 -6.8171 23.1938 -24.5002
# 2 34.8626 128.3986 28.5759 -1.4022 21.4369 -18.9104
# 3 34.2341 28.5759 66.4826 2.5691 4.1174 -8.4233
# 4 -6.8171 -1.4022 2.5691 24.5364 -5.3349 2.9302
# 5 23.1938 21.4369 4.1174 -5.3349 34.1999 -8.8676
# 6 -24.5002 -18.9104 -8.4233 2.9302 -8.8676 30.0218
#
#
#
# Elastic Compliance Matrix: (Units=1/GPa)
#
#
# Indices 1 2 3 4 5 6 
#
# 1 0.015685 -0.000365 -0.006512 0.002480 -0.007055 0.008417
# 2 -0.000365 0.009952 -0.003301 -0.000659 -0.004734 0.003711
# 3 -0.006512 -0.003301 0.019656 -0.003236 0.003475 -0.000536
# 4 0.002480 -0.000659 -0.003236 0.043140 0.005350 -0.001930
# 5 -0.007055 -0.004734 0.003475 0.005350 0.038184 0.002992
# 6 0.008417 0.003711 -0.000536 -0.001930 0.002992 0.043437
#
#
# Mechanical properties :
#
#
# Convention : Reuss Voigt Hill
#
# Bulk Modulus (GPa) = 40.10231 54.85183 47.47707
# Shear Modulus (GPa) = 25.16109 31.12820 28.14464
#
# Velocity S-wave (km/s) = 3.51273 3.90713 3.71517
# Velocity P-wave (km/s) = 6.00991 6.87416 6.45651
#
# Compressibility (1/GPa) = 0.02493622
#
# Stress axis : x y z
#
# Youngs Moduli (GPa) = 63.75690 100.48712 50.87628
#
# Poissons Ratio (x) = 0.03665 0.33132
# Poissons Ratio (y) = 0.02325 0.16793
# Poissons Ratio (z) = 0.41520 0.33169
#
# Static dielectric constant tensor:
#      x y z
#    x 1.794750 -0.005520 -0.032650 
#    y -0.005520 1.774070 -0.001340 
#    z -0.032650 -0.001340 1.724700 
# 
# From -- ./inp_files/196837.got.cif
#   From: 2010.05.17/outbox.cif.g08.bks.cpg/sg2_99_cif.got.tgz:196837.got - 2010.06.03 11:33:40.
