data_PCOD9100127
_publ_section_title
;
Structure prediction by ZEFSAII (Michael W. Deem and Ramdas Pophale) SiO2 
 PCOD9100127
Probable space group: P -1
;
_chemical_formula_sum "Si O2"
_cell_formula_units_Z 16
_cell_length_a 32.215248
_cell_length_b 9.541609
_cell_length_c 16.027165
_cell_angle_alpha 133.910000
_cell_angle_beta 16.554785
_cell_angle_gamma 143.329217
_cell_volume 751.768795
_symmetry_space_group_name_H-M "P -1"
_symmetry_group_IT_number 2
_symmetry_cell_setting 'triclinic'
loop_
_space_group_symop_operation_xyz
x,y,z
-x,-y,-z
loop_
_atom_site_type_symbol
_atom_site_label
_atom_site_fract_x
_atom_site_fract_y
_atom_site_fract_z
Si Si1 0.305170 0.297674 0.475456
Si Si2 0.777701 0.141305 0.328870
Si Si3 0.992256 0.662752 0.393164
Si Si4 0.196504 0.403228 0.577054
Si Si5 0.276272 0.253063 0.828074
Si Si6 0.950765 0.940243 0.443118
Si Si7 0.912939 0.701212 0.949910
Si Si8 0.453812 0.776821 0.937569
O O1 0.342834 0.446453 0.379381
O O2 0.505730 0.377696 0.149836
O O3 0.217723 0.344580 0.739342
O O4 0.133365 0.984304 0.656651
O O5 0.749937 0.344533 0.461959
O O6 0.734095 0.988856 0.265192
O O7 0.627210 0.926183 0.597168
O O8 0.006605 0.287661 0.954801
O O9 0.108438 0.917715 0.334449
O O10 0.084791 0.531002 0.153620
O O11 0.968843 0.768043 0.396593
O O12 0.765716 0.414400 0.751961
O O13 0.150244 0.214485 0.512946
O O14 0.500000 0.500000 0.500000
O O15 0.171875 0.274031 0.960916
O O16 0.167033 0.194370 0.099611
O O17 0.500000 0.000000 0.000000
#
# Coordination Sequence:
#
# PCOD9100127 Si02
#       8
#     2   2   2   2   2   2   2   2
#     4  11  21  39  62  99 128 161 218 266 307 378
#     4  10  20  37  62  96 121 167 209 264 318 364
#     4  11  25  42  65  92 131 177 206 258 323 392
#     4  10  21  38  66  92 126 167 218 263 316 371
#     4  11  22  42  67  97 128 163 213 268 313 381
#     4  10  23  43  63  89 133 174 209 253 330 382
#     4  11  22  40  66  95 127 166 214 261 319 377
#     4  12  22  37  63  96 129 166 212 260 317 373
#
# _framework density 21.283138999999998
#
# number of rings (size 3 to 8) (size 9 to 14) (size 15 to 20)
#    0.000    1.250    5.000    2.250    5.250    0.500 
#    0.000    6.875    0.000    0.000    0.000    0.000 
#    0.000    0.000    0.000    0.000    0.000    0.000 
#
# Total GULP energy -89259.013355 kJ/mol
# GULP energy per Si atom -5578.688335 kJ/mol
# Density = 2.123470 g / cm^3
# Si number density = 21.283139 Si / 1000 Ang^3
#
#
#
# Elastic Constant Matrix: (Units=GPa)
#
#
# Indices 1 2 3 4 5 6 
#
# 1 61.8285 34.9916 25.1827 15.2244 11.0964 -8.5814
# 2 34.9916 129.0768 21.1069 35.0061 -5.5632 -0.3121
# 3 25.1827 21.1069 42.6568 9.0288 -4.2749 -2.4490
# 4 15.2244 35.0061 9.0288 33.9522 -0.4186 5.7724
# 5 11.0964 -5.5632 -4.2749 -0.4186 25.8743 3.0387
# 6 -8.5814 -0.3121 -2.4490 5.7724 3.0387 25.7652
#
#
#
# Elastic Compliance Matrix: (Units=1/GPa)
#
#
# Indices 1 2 3 4 5 6 
#
# 1 0.033074 -0.004934 -0.016623 -0.007854 -0.019699 0.013459
# 2 -0.004934 0.012098 -0.000475 -0.010113 0.004452 0.000199
# 3 -0.016623 -0.000475 0.034706 -0.000496 0.013186 -0.003687
# 4 -0.007854 -0.010113 -0.000496 0.045866 0.003435 -0.013466
# 5 -0.019699 0.004452 0.013186 0.003435 0.051712 -0.012122
# 6 0.013459 0.000199 -0.003687 -0.013466 -0.012122 0.047393
#
#
# Mechanical properties :
#
#
# Convention : Reuss Voigt Hill
#
# Bulk Modulus (GPa) = 27.92253 44.01384 35.96818
# Shear Modulus (GPa) = 17.80295 27.27038 22.53667
#
# Velocity S-wave (km/s) = 2.89534 3.58343 3.25760
# Velocity P-wave (km/s) = 4.93207 6.15194 5.57547
#
# Compressibility (1/GPa) = 0.03581337
#
# Stress axis : x y z
#
# Youngs Moduli (GPa) = 30.23486 82.65995 28.81312
#
# Poissons Ratio (x) = 0.40788 0.47897
# Poissons Ratio (y) = 0.14919 0.01368
# Poissons Ratio (z) = 0.50260 0.03925
#
# Static dielectric constant tensor:
#      x y z
#    x 1.781750 0.005060 0.021460 
#    y 0.005060 1.782970 -0.026590 
#    z 0.021460 -0.026590 1.887060 
# 
# From -- ./inp_files/544844.got.cif
#   From: 2010.05.17/outbox.cif.g08.bks.cpg/sg2_273_cif.got.tgz:544844.got - 2010.06.03 11:33:40.
