data_PCOD9100844
_publ_section_title
;
Structure prediction by ZEFSAII (Michael W. Deem and Ramdas Pophale) SiO2 
 PCOD9100844
Probable space group: P -1
;
_chemical_formula_sum "Si O2"
_cell_formula_units_Z 14
_cell_length_a 10.251187
_cell_length_b 5.293011
_cell_length_c 23.717468
_cell_angle_alpha 57.069236
_cell_angle_beta 43.185950
_cell_angle_gamma 84.675970
_cell_volume 627.528031
_symmetry_space_group_name_H-M "P -1"
_symmetry_group_IT_number 2
_symmetry_cell_setting 'triclinic'
loop_
_space_group_symop_operation_xyz
x,y,z
-x,-y,-z
loop_
_atom_site_type_symbol
_atom_site_label
_atom_site_fract_x
_atom_site_fract_y
_atom_site_fract_z
Si Si1 0.685328 0.817212 0.864179
Si Si2 0.578514 0.725750 0.687900
Si Si3 0.716696 0.156734 0.707176
Si Si4 0.334453 0.433012 0.635163
Si Si5 0.169078 0.608750 0.778582
Si Si6 0.768241 0.264694 0.881529
Si Si7 0.239294 0.557556 0.524183
O O1 0.811780 0.653139 0.812873
O O2 0.590222 0.946508 0.829643
O O3 0.833895 0.128115 0.823175
O O4 0.500000 0.500000 0.000000
O O5 0.663494 0.463873 0.678682
O O6 0.310207 0.536131 0.787694
O O7 0.648954 0.899510 0.706432
O O8 0.678526 0.054986 0.573290
O O9 0.979212 0.327218 0.617485
O O10 0.265763 0.586701 0.689891
O O11 0.285345 0.550150 0.576828
O O12 0.598132 0.560697 0.539712
O O13 0.215055 0.000929 0.727332
O O14 0.906516 0.310332 0.888811
O O15 0.500000 0.000000 0.000000
#
# Coordination Sequence:
#
# PCOD9100844 Si02
#       7
#     2   2   2   2   2   2   2
#     4  10  22  40  65  92 113 143 202 266 305 344
#     4  11  25  37  56  87 128 169 196 232 292 372
#     4  12  23  39  61  86 121 167 204 239 295 360
#     4  10  23  36  60  87 119 161 201 253 295 338
#     4  11  21  40  58  87 124 158 199 244 302 353
#     4  10  20  37  66  92 111 143 194 259 309 345
#     4  10  22  39  58  89 126 160 207 246 289 349
#
# _framework density 22.309757999999999
#
# number of rings (size 3 to 8) (size 9 to 14) (size 15 to 20)
#    0.000    1.429    0.000    6.000    0.000    9.714 
#    0.000    0.000    0.000   20.571    0.000    0.000 
#    0.000    0.000    0.000    0.000    0.000    0.000 
#
# Total GULP energy -78178.313243 kJ/mol
# GULP energy per Si atom -5584.165232 kJ/mol
# Density = 2.225898 g / cm^3
# Si number density = 22.309758 Si / 1000 Ang^3
#
#
#
# Elastic Constant Matrix: (Units=GPa)
#
#
# Indices 1 2 3 4 5 6 
#
# 1 151.0081 21.6726 28.4429 -4.0695 -29.8456 5.7818
# 2 21.6726 126.3974 -1.5978 1.8887 -9.6763 13.0481
# 3 28.4429 -1.5978 59.3934 3.2938 -13.1730 -3.0186
# 4 -4.0695 1.8887 3.2938 16.1735 0.1862 -4.1753
# 5 -29.8456 -9.6763 -13.1730 0.1862 31.3594 3.4357
# 6 5.7818 13.0481 -3.0186 -4.1753 3.4357 39.6147
#
#
#
# Elastic Compliance Matrix: (Units=1/GPa)
#
#
# Indices 1 2 3 4 5 6 
#
# 1 0.008814 -0.000881 -0.002893 0.002422 0.007060 -0.001574
# 2 -0.000881 0.008639 0.001222 -0.002311 0.002694 -0.003101
# 3 -0.002893 0.001222 0.019868 -0.004855 0.005943 0.000507
# 4 0.002422 -0.002311 -0.004855 0.065546 -0.001612 0.007086
# 5 0.007060 0.002694 0.005943 -0.001612 0.042528 -0.005323
# 6 -0.001574 -0.003101 0.000507 0.007086 -0.005323 0.027741
#
#
# Mechanical properties :
#
#
# Convention : Reuss Voigt Hill
#
# Bulk Modulus (GPa) = 31.03897 48.20379 39.62138
# Shear Modulus (GPa) = 26.45784 36.64825 31.55305
#
# Velocity S-wave (km/s) = 3.44747 4.05742 3.76482
# Velocity P-wave (km/s) = 5.45799 6.60331 6.05778
#
# Compressibility (1/GPa) = 0.03221756
#
# Stress axis : x y z
#
# Youngs Moduli (GPa) = 113.45019 115.75432 50.33107
#
# Poissons Ratio (x) = 0.10201 0.14563
# Poissons Ratio (y) = 0.09998 -0.06153
# Poissons Ratio (z) = 0.32826 -0.14151
#
# Static dielectric constant tensor:
#      x y z
#    x -2.873380 2.830290 8.559120 
#    y 2.830290 0.152100 -5.148750 
#    z 8.559120 -5.148750 -13.747830 
# 
# From -- ./inp_files/46285.got.cif
#   From: 2010.05.17/outbox.cif.g08.bks.cpg/sg2_24_cif.got.tgz:46285.got - 2010.06.03 11:33:40.
