data_PCOD9100233
_publ_section_title
;
Structure prediction by ZEFSAII (Michael W. Deem and Ramdas Pophale) SiO2 
 PCOD9100233
Probable space group: P -1
;
_chemical_formula_sum "Si O2"
_cell_formula_units_Z 16
_cell_length_a 8.947254
_cell_length_b 15.087242
_cell_length_c 10.646068
_cell_angle_alpha 56.088427
_cell_angle_beta 128.125296
_cell_angle_gamma 92.331023
_cell_volume 830.463594
_symmetry_space_group_name_H-M "P -1"
_symmetry_group_IT_number 2
_symmetry_cell_setting 'triclinic'
loop_
_space_group_symop_operation_xyz
x,y,z
-x,-y,-z
loop_
_atom_site_type_symbol
_atom_site_label
_atom_site_fract_x
_atom_site_fract_y
_atom_site_fract_z
Si Si1 0.991653 0.914724 0.453087
Si Si2 0.597769 0.886397 0.236501
Si Si3 0.534202 0.303966 0.134090
Si Si4 0.852110 0.975408 0.038286
Si Si5 0.115778 0.367913 0.537258
Si Si6 0.364421 0.550896 0.738794
Si Si7 0.272519 0.561410 0.402748
Si Si8 0.844557 0.742589 0.092006
O O1 0.223147 0.799175 0.664647
O O2 0.791025 0.892391 0.404360
O O3 0.939927 0.955536 0.245029
O O4 0.000000 0.000000 0.500000
O O5 0.713171 0.761161 0.323503
O O6 0.500000 0.000000 0.000000
O O7 0.384845 0.910530 0.180008
O O8 0.511026 0.386929 0.177194
O O9 0.483673 0.405652 0.920274
O O10 0.371676 0.246582 0.091260
O O11 0.831880 0.859508 0.064425
O O12 0.000000 0.000000 0.000000
O O13 0.190031 0.461693 0.451143
O O14 0.121689 0.352823 0.702657
O O15 0.867943 0.404713 0.349527
O O16 0.323066 0.592835 0.542233
O O17 0.500000 0.500000 0.500000
O O18 0.054095 0.682811 0.157916
#
# Coordination Sequence:
#
# PCOD9100233 Si02
#       8
#     2   2   2   2   2   2   2   2
#     4  11  22  38  65  95 121 152 211 263 303 365
#     4  10  20  38  61  90 116 160 213 251 290 369
#     4  11  20  36  65  90 119 155 209 255 310 355
#     4  11  25  43  65  89 126 170 207 252 318 372
#     4  11  18  39  63  88 118 158 220 244 292 370
#     4  10  20  37  63  89 121 161 203 254 309 362
#     4  11  23  37  60  92 123 162 208 253 303 364
#     4  11  20  40  63  87 120 167 212 250 297 380
#
# _framework density 19.266345999999999
#
# number of rings (size 3 to 8) (size 9 to 14) (size 15 to 20)
#    0.000    1.250    6.250    2.250    3.500    0.000 
#    0.000    3.125    0.000    0.000    0.000    0.000 
#    0.000    0.000    0.000    0.000    0.000    0.000 
#
# Total GULP energy -89086.564617 kJ/mol
# GULP energy per Si atom -5567.910289 kJ/mol
# Density = 1.922249 g / cm^3
# Si number density = 19.266346 Si / 1000 Ang^3
#
#
#
# Elastic Constant Matrix: (Units=GPa)
#
#
# Indices 1 2 3 4 5 6 
#
# 1 113.9940 37.6647 37.8446 3.0872 39.5907 -6.6725
# 2 37.6647 119.5945 35.9587 2.7968 16.5408 3.8105
# 3 37.8446 35.9587 102.5068 -3.0870 41.2966 -3.8243
# 4 3.0872 2.7968 -3.0870 35.0121 -2.2757 12.1503
# 5 39.5907 16.5408 41.2966 -2.2757 35.4068 -7.5068
# 6 -6.6725 3.8105 -3.8243 12.1503 -7.5068 20.0910
#
#
#
# Elastic Compliance Matrix: (Units=1/GPa)
#
#
# Indices 1 2 3 4 5 6 
#
# 1 0.015780 -0.003144 0.003337 -0.002265 -0.020148 0.000314
# 2 -0.003144 0.010160 -0.003316 0.000371 0.002008 -0.003077
# 3 0.003337 -0.003316 0.020465 0.001993 -0.027135 -0.005711
# 4 -0.002265 0.000371 0.001993 0.036996 -0.002635 -0.023801
# 5 -0.020148 0.002008 -0.027135 -0.002635 0.085857 0.021436
# 6 0.000314 -0.003077 -0.005711 -0.023801 0.021436 0.071777
#
#
# Mechanical properties :
#
#
# Convention : Reuss Voigt Hill
#
# Bulk Modulus (GPa) = 24.89995 62.11461 43.50728
# Shear Modulus (GPa) = 19.18148 33.07714 26.12931
#
# Velocity S-wave (km/s) = 3.15873 4.14797 3.68668
# Velocity P-wave (km/s) = 5.12402 7.43309 6.38382
#
# Compressibility (1/GPa) = 0.04016072
#
# Stress axis : x y z
#
# Youngs Moduli (GPa) = 63.37039 98.42190 48.86336
#
# Poissons Ratio (x) = 0.30940 -0.16306
# Poissons Ratio (y) = 0.19921 0.16203
# Poissons Ratio (z) = -0.21148 0.32637
#
# Static dielectric constant tensor:
#      x y z
#    x 1.715170 0.005740 0.021530 
#    y 0.005740 1.785690 0.001820 
#    z 0.021530 0.001820 1.747640 
# 
# From -- ./inp_files/261986.got.cif
#   From: 2010.05.17/outbox.cif.g08.bks.cpg/sg2_131_cif.got.tgz:261986.got - 2010.06.03 11:33:40.
