data_PCOD9100004
_publ_section_title
;
Structure prediction by ZEFSAII (Michael W. Deem and Ramdas Pophale) SiO2 
 PCOD9100004
Probable space group: P -1
;
_chemical_formula_sum "Si O2"
_cell_formula_units_Z 16
_cell_length_a 9.338217
_cell_length_b 11.533829
_cell_length_c 10.112145
_cell_angle_alpha 80.391253
_cell_angle_beta 136.582767
_cell_angle_gamma 93.620608
_cell_volume 735.348225
_symmetry_space_group_name_H-M "P -1"
_symmetry_group_IT_number 2
_symmetry_cell_setting 'triclinic'
loop_
_space_group_symop_operation_xyz
x,y,z
-x,-y,-z
loop_
_atom_site_type_symbol
_atom_site_label
_atom_site_fract_x
_atom_site_fract_y
_atom_site_fract_z
Si Si1 0.613234 0.236882 0.858100
Si Si2 0.379567 0.275760 0.963311
Si Si3 0.968828 0.451576 0.634668
Si Si4 0.510589 0.392602 0.279428
Si Si5 0.878442 0.427405 0.038283
Si Si6 0.556080 0.795106 0.526612
Si Si7 0.751080 0.966054 0.980632
Si Si8 0.206653 0.000033 0.309177
O O1 0.468917 0.278692 0.875922
O O2 0.836549 0.292976 0.006171
O O3 0.516909 0.264763 0.644129
O O4 0.642155 0.095139 0.909761
O O5 0.365705 0.141909 0.025244
O O6 0.149333 0.345888 0.803296
O O7 0.526996 0.336714 0.154772
O O8 0.733926 0.412381 0.488581
O O9 0.000000 0.500000 0.500000
O O10 0.012583 0.549956 0.753918
O O11 0.357628 0.509814 0.137449
O O12 0.393305 0.303835 0.311120
O O13 0.000000 0.500000 0.000000
O O14 0.724426 0.887471 0.587614
O O15 0.369462 0.884723 0.445641
O O16 0.785233 0.958184 0.846733
O O17 0.980291 0.963717 0.198074
#
# Coordination Sequence:
#
# PCOD9100004 Si02
#       8
#     2   2   2   2   2   2   2   2
#     4  11  24  40  60  92 134 162 203 263 316 367
#     4  11  23  43  64  94 128 167 211 253 312 379
#     4  11  24  43  68  90 123 171 211 257 312 370
#     4  11  23  42  69  89 122 167 214 255 311 370
#     4  11  26  43  65  96 127 162 211 263 315 368
#     4  10  20  37  62  90 121 160 207 263 303 365
#     4  10  20  38  64  88 127 166 203 256 316 368
#     4   9  19  36  61  91 120 161 213 250 305 373
#
# _framework density 21.758399000000001
#
# number of rings (size 3 to 8) (size 9 to 14) (size 15 to 20)
#    0.000    1.500    1.250    3.375    1.750    7.000 
#    2.250    0.625    0.000    0.000    0.000    0.000 
#    0.000    0.000    0.000    0.000    0.000    0.000 
#
# Total GULP energy -89458.401914 kJ/mol
# GULP energy per Si atom -5591.150120 kJ/mol
# Density = 2.170888 g / cm^3
# Si number density = 21.758399 Si / 1000 Ang^3
#
#
#
# Elastic Constant Matrix: (Units=GPa)
#
#
# Indices 1 2 3 4 5 6 
#
# 1 47.3169 9.2365 9.6338 14.8973 -4.5530 4.8110
# 2 9.2365 77.7648 26.3836 12.9733 -5.3215 13.8026
# 3 9.6338 26.3836 102.8772 25.5336 -1.7547 -7.0791
# 4 14.8973 12.9733 25.5336 43.0194 -0.0371 -3.3924
# 5 -4.5530 -5.3215 -1.7547 -0.0371 40.0982 2.1143
# 6 4.8110 13.8026 -7.0791 -3.3924 2.1143 20.5088
#
#
#
# Elastic Compliance Matrix: (Units=1/GPa)
#
#
# Indices 1 2 3 4 5 6 
#
# 1 0.025223 0.000484 -0.000747 -0.009093 0.003327 -0.008347
# 2 0.000484 0.017829 -0.004589 -0.003974 0.002990 -0.014662
# 3 -0.000747 -0.004589 0.012768 -0.005398 -0.000500 0.006830
# 4 -0.009093 -0.003974 -0.005398 0.031455 -0.002208 0.008375
# 5 0.003327 0.002990 -0.000500 -0.002208 0.026006 -0.006012
# 6 -0.008347 -0.014662 0.006830 0.008375 -0.006012 0.064948
#
#
# Mechanical properties :
#
#
# Convention : Reuss Voigt Hill
#
# Bulk Modulus (GPa) = 21.68473 35.38519 28.53496
# Shear Modulus (GPa) = 24.59346 32.90561 28.74954
#
# Velocity S-wave (km/s) = 3.36564 3.89307 3.63892
# Velocity P-wave (km/s) = 5.00910 6.04203 5.54965
#
# Compressibility (1/GPa) = 0.04611541
#
# Stress axis : x y z
#
# Youngs Moduli (GPa) = 39.64579 56.08919 78.31877
#
# Poissons Ratio (x) = -0.02713 0.05850
# Poissons Ratio (y) = -0.01918 0.35942
# Poissons Ratio (z) = 0.02961 0.25741
#
# Static dielectric constant tensor:
#      x y z
#    x 1.782010 -0.025370 0.034460 
#    y -0.025370 1.817700 0.014070 
#    z 0.034460 0.014070 1.807740 
# 
# From -- ./inp_files/188037.got.cif
#   From: 2010.05.17/outbox.cif.g08.bks.cpg/sg2_95_cif.got.tgz:188037.got - 2010.06.03 11:33:40.
