data_PCOD9100756
_publ_section_title
;
Structure prediction by ZEFSAII (Michael W. Deem and Ramdas Pophale) SiO2 
 PCOD9100756
Probable space group: P -1
;
_chemical_formula_sum "Si O2"
_cell_formula_units_Z 14
_cell_length_a 10.910587
_cell_length_b 14.222287
_cell_length_c 8.696284
_cell_angle_alpha 150.674155
_cell_angle_beta 110.636107
_cell_angle_gamma 63.164422
_cell_volume 587.122321
_symmetry_space_group_name_H-M "P -1"
_symmetry_group_IT_number 2
_symmetry_cell_setting 'triclinic'
loop_
_space_group_symop_operation_xyz
x,y,z
-x,-y,-z
loop_
_atom_site_type_symbol
_atom_site_label
_atom_site_fract_x
_atom_site_fract_y
_atom_site_fract_z
Si Si1 0.199753 0.037575 0.114342
Si Si2 0.490262 0.880778 0.168819
Si Si3 0.086739 0.170240 0.819437
Si Si4 0.022584 0.902840 0.635087
Si Si5 0.562365 0.467400 0.220984
Si Si6 0.629638 0.170236 0.528724
Si Si7 0.833075 0.584277 0.576860
O O1 0.079862 0.103162 0.281857
O O2 0.211918 0.225739 0.289589
O O3 0.334513 0.944710 0.137336
O O4 0.163123 0.882936 0.759648
O O5 0.500000 0.000000 0.500000
O O6 0.569101 0.982739 0.234194
O O7 0.521682 0.643520 0.867374
O O8 0.004995 0.224140 0.701273
O O9 0.208101 0.953331 0.562769
O O10 0.158000 0.334236 0.131357
O O11 0.994345 0.121909 0.848254
O O12 0.454265 0.681618 0.430100
O O13 0.711399 0.482874 0.363284
O O14 0.596935 0.318226 0.874062
O O15 0.000000 0.500000 0.500000
#
# Coordination Sequence:
#
# PCOD9100756 Si02
#       7
#     2   2   2   2   2   2   2
#     4  10  20  39  65  94 129 171 221 261 330 390
#     4  10  20  37  65  95 128 174 217 263 322 389
#     4  10  22  41  65  94 135 173 214 274 337 380
#     4   9  20  36  64  94 117 177 219 256 326 392
#     4  10  22  39  66  98 125 176 222 267 318 398
#     4  10  21  41  65  94 130 170 224 264 328 388
#     4  11  25  41  65  97 134 172 222 272 327 393
#
# _framework density 23.845116999999998
#
# number of rings (size 3 to 8) (size 9 to 14) (size 15 to 20)
#    0.000    2.000    1.429    1.714   12.000    0.571 
#    0.000    2.857    0.000    0.000    0.000    0.000 
#    0.000    0.000    0.000    0.000    0.000    0.000 
#
# Total GULP energy -77954.891549 kJ/mol
# GULP energy per Si atom -5568.206539 kJ/mol
# Density = 2.379084 g / cm^3
# Si number density = 23.845117 Si / 1000 Ang^3
#
#
#
# Elastic Constant Matrix: (Units=GPa)
#
#
# Indices 1 2 3 4 5 6 
#
# 1 80.2678 30.9146 48.0251 10.9922 35.9944 -9.6491
# 2 30.9146 100.8674 54.7860 -8.9693 32.4686 -10.8960
# 3 48.0251 54.7860 114.4955 -15.6514 43.4830 -5.9477
# 4 10.9922 -8.9693 -15.6514 45.7180 -5.7479 10.5592
# 5 35.9944 32.4686 43.4830 -5.7479 46.4530 2.9757
# 6 -9.6491 -10.8960 -5.9477 10.5592 2.9757 39.7260
#
#
#
# Elastic Compliance Matrix: (Units=1/GPa)
#
#
# Indices 1 2 3 4 5 6 
#
# 1 0.026999 0.000861 -0.006090 -0.013169 -0.018139 0.010741
# 2 0.000861 0.014855 -0.004675 -0.000776 -0.007047 0.004318
# 3 -0.006090 -0.004675 0.016934 0.005737 -0.007076 -0.001221
# 4 -0.013169 -0.000776 0.005737 0.030746 0.009916 -0.011468
# 5 -0.018139 -0.007047 -0.007076 0.009916 0.049238 -0.013722
# 6 0.010741 0.004318 -0.001221 -0.011468 -0.013722 0.032859
#
#
# Mechanical properties :
#
#
# Convention : Reuss Voigt Hill
#
# Bulk Modulus (GPa) = 25.65424 62.56469 44.10946
# Shear Modulus (GPa) = 24.45803 37.17307 30.81555
#
# Velocity S-wave (km/s) = 3.20614 3.95262 3.59879
# Velocity P-wave (km/s) = 4.94851 6.86483 5.98388
#
# Compressibility (1/GPa) = 0.03897991
#
# Stress axis : x y z
#
# Youngs Moduli (GPa) = 37.03820 67.31748 59.05405
#
# Poissons Ratio (x) = -0.05797 0.35965
# Poissons Ratio (y) = -0.03189 0.27607
# Poissons Ratio (z) = 0.22557 0.31470
#
# Static dielectric constant tensor:
#      x y z
#    x 1.995080 0.144210 0.010990 
#    y 0.144210 1.754130 -0.123020 
#    z 0.010990 -0.123020 1.909400 
# 
# From -- ./inp_files/271294.got.cif
#   From: 2010.05.17/outbox.cif.g08.bks.cpg/sg2_136_cif.got.tgz:271294.got - 2010.06.03 11:33:40.
