data_PCOD9100246
_publ_section_title
;
Structure prediction by ZEFSAII (Michael W. Deem and Ramdas Pophale) SiO2 
 PCOD9100246
Probable space group: P -1
;
_chemical_formula_sum "Si O2"
_cell_formula_units_Z 16
_cell_length_a 18.192747
_cell_length_b 11.700703
_cell_length_c 8.656390
_cell_angle_alpha 63.049423
_cell_angle_beta 80.636349
_cell_angle_gamma 134.718899
_cell_volume 758.084168
_symmetry_space_group_name_H-M "P -1"
_symmetry_group_IT_number 2
_symmetry_cell_setting 'triclinic'
loop_
_space_group_symop_operation_xyz
x,y,z
-x,-y,-z
loop_
_atom_site_type_symbol
_atom_site_label
_atom_site_fract_x
_atom_site_fract_y
_atom_site_fract_z
Si Si1 0.705535 0.947082 0.636943
Si Si2 0.147517 0.841607 0.015214
Si Si3 0.057968 0.438904 0.319283
Si Si4 0.222075 0.417720 0.790189
Si Si5 0.467138 0.509896 0.239672
Si Si6 0.151234 0.585883 0.844579
Si Si7 0.000054 0.146884 0.753098
Si Si8 0.477939 0.628207 0.490074
O O1 0.661088 0.763984 0.647891
O O2 0.869304 0.160242 0.531758
O O3 0.736578 0.127986 0.427834
O O4 0.569653 0.745640 0.937753
O O5 0.098354 0.894470 0.091570
O O6 0.114048 0.660225 0.232601
O O7 0.022994 0.653336 0.028567
O O8 0.332079 0.104543 0.747455
O O9 0.086147 0.356602 0.460394
O O10 0.134413 0.552574 0.053878
O O11 0.209893 0.537470 0.796602
O O12 0.401445 0.641471 0.568833
O O13 0.133739 0.294962 0.730710
O O14 0.117540 0.147222 0.074786
O O15 0.414183 0.507107 0.411527
O O16 0.571021 0.555402 0.257404
#
# Coordination Sequence:
#
# PCOD9100246 Si02
#       8
#     2   2   2   2   2   2   2   2
#     4  10  20  38  59  88 117 145 188 241 291 334
#     4  10  20  37  63  90 113 142 191 244 286 330
#     4  11  20  36  63  87 110 149 196 239 280 334
#     4  10  23  39  55  81 122 158 186 229 284 343
#     4  10  21  35  61  89 114 146 190 241 287 334
#     4  10  22  39  59  84 118 154 187 232 285 342
#     4  10  21  38  59  85 115 151 194 235 280 337
#     4  11  20  37  61  88 115 150 191 235 282 336
#
# _framework density 21.105836
#
# number of rings (size 3 to 8) (size 9 to 14) (size 15 to 20)
#    0.000    1.750    0.000    6.375    0.000    4.500 
#    0.000    7.500    0.000    0.000    0.000    0.000 
#    0.000    0.000    0.000    0.000    0.000    0.000 
#
# Total GULP energy -89312.492339 kJ/mol
# GULP energy per Si atom -5582.030771 kJ/mol
# Density = 2.105780 g / cm^3
# Si number density = 21.105836 Si / 1000 Ang^3
#
#
#
# Elastic Constant Matrix: (Units=GPa)
#
#
# Indices 1 2 3 4 5 6 
#
# 1 107.4215 15.7236 55.0081 -1.7721 -1.8695 -18.0266
# 2 15.7236 42.5595 25.2271 -4.2661 -3.6044 -8.1594
# 3 55.0081 25.2271 124.7107 -2.6173 22.3081 -2.3534
# 4 -1.7721 -4.2661 -2.6173 29.2340 2.5528 2.3032
# 5 -1.8695 -3.6044 22.3081 2.5528 41.4194 2.1550
# 6 -18.0266 -8.1594 -2.3534 2.3032 2.1550 25.4567
#
#
#
# Elastic Compliance Matrix: (Units=1/GPa)
#
#
# Indices 1 2 3 4 5 6 
#
# 1 0.014523 0.001028 -0.007191 -0.000738 0.004161 0.009663
# 2 0.001028 0.029953 -0.007364 0.002548 0.005999 0.008910
# 3 -0.007191 -0.007364 0.014083 0.000912 -0.008319 -0.005529
# 4 -0.000738 0.002548 0.000912 0.035023 -0.002327 -0.002593
# 5 0.004161 0.005999 -0.008319 -0.002327 0.029382 0.001823
# 6 0.009663 0.008910 -0.005529 -0.002593 0.001823 0.048550
#
#
# Mechanical properties :
#
#
# Convention : Reuss Voigt Hill
#
# Bulk Modulus (GPa) = 31.74093 51.84546 41.79320
# Shear Modulus (GPa) = 23.91536 31.13754 27.52645
#
# Velocity S-wave (km/s) = 3.36983 3.84514 3.61530
# Velocity P-wave (km/s) = 5.49660 6.65817 6.10507
#
# Compressibility (1/GPa) = 0.03150506
#
# Stress axis : x y z
#
# Youngs Moduli (GPa) = 68.85624 33.38535 71.00729
#
# Poissons Ratio (x) = -0.03433 0.51063
# Poissons Ratio (y) = -0.07080 0.52290
# Poissons Ratio (z) = 0.49517 0.24585
#
# Static dielectric constant tensor:
#      x y z
#    x 1.729340 -0.006060 0.025760 
#    y -0.006060 1.841680 -0.015130 
#    z 0.025760 -0.015130 1.813440 
# 
# From -- ./inp_files/333034.got.cif
#   From: 2010.05.17/outbox.cif.g08.bks.cpg/sg2_167_cif.got.tgz:333034.got - 2010.06.03 11:33:40.
