data_PCOD9100766
_publ_section_title
;
Structure prediction by ZEFSAII (Michael W. Deem and Ramdas Pophale) SiO2 
 PCOD9100766
Probable space group: P -1
;
_chemical_formula_sum "Si O2"
_cell_formula_units_Z 15
_cell_length_a 18.721619
_cell_length_b 4.934487
_cell_length_c 6.563222
_cell_angle_alpha 99.449003
_cell_angle_beta 77.566392
_cell_angle_gamma 102.362758
_cell_volume 573.922757
_symmetry_space_group_name_H-M "P -1"
_symmetry_group_IT_number 2
_symmetry_cell_setting 'triclinic'
loop_
_space_group_symop_operation_xyz
x,y,z
-x,-y,-z
loop_
_atom_site_type_symbol
_atom_site_label
_atom_site_fract_x
_atom_site_fract_y
_atom_site_fract_z
Si Si1 0.500000 0.500000 0.000000
Si Si2 0.574764 0.943486 0.340631
Si Si3 0.746970 0.923817 0.942385
Si Si4 0.335387 0.475486 0.564767
Si Si5 0.815327 0.414218 0.223034
Si Si6 0.892817 0.788796 0.869921
Si Si7 0.960268 0.303168 0.182263
Si Si8 0.350222 0.658744 0.109370
O O1 0.450988 0.257938 0.856321
O O2 0.562477 0.300596 0.979822
O O3 0.620504 0.770040 0.439572
O O4 0.500000 0.000000 0.500000
O O5 0.626414 0.243155 0.303046
O O6 0.695511 0.091879 0.863647
O O7 0.826763 0.884831 0.795304
O O8 0.699357 0.622559 0.990764
O O9 0.771742 0.106565 0.151590
O O10 0.246575 0.424777 0.636091
O O11 0.349948 0.567456 0.334936
O O12 0.887615 0.413625 0.318657
O O13 0.849483 0.533248 0.999624
O O14 0.970485 0.734222 0.722706
O O15 0.923345 0.020016 0.052923
O O16 0.000000 0.500000 0.000000
#
# Coordination Sequence:
#
# PCOD9100766 Si02
#       8
#     1   2   2   2   2   2   2   2
#     4  12  28  46  76  98 136 180 234 284 350 410
#     4  12  27  50  70 102 137 182 229 290 346 411
#     4  11  22  41  63  94 128 170 230 272 339 396
#     4  12  27  46  68  98 142 176 229 282 346 409
#     4  10  20  37  65  96 130 173 222 283 335 412
#     4   9  17  34  60  97 130 167 221 281 328 408
#     4   8  16  30  58  98 130 166 214 278 337 392
#     4  12  26  43  64  95 129 181 222 285 340 409
#
# _framework density 26.135922000000001
#
# number of rings (size 3 to 8) (size 9 to 14) (size 15 to 20)
#    0.000    1.333    2.667    2.800    3.733    1.067 
#    0.000    0.000    0.000    1.600    0.000    0.000 
#    0.000    0.000    0.000    0.000    0.000    0.000 
#
# Total GULP energy -83613.595259 kJ/mol
# GULP energy per Si atom -5574.239684 kJ/mol
# Density = 2.607644 g / cm^3
# Si number density = 26.135922 Si / 1000 Ang^3
#
#
#
# Elastic Constant Matrix: (Units=GPa)
#
#
# Indices 1 2 3 4 5 6 
#
# 1 298.6533 60.7856 37.4411 12.8555 -54.1546 -41.5137
# 2 60.7856 147.2660 8.2251 17.5758 -10.4860 -10.0712
# 3 37.4411 8.2251 30.4985 14.8336 -3.3414 -2.4153
# 4 12.8555 17.5758 14.8336 15.9889 -2.1837 0.9875
# 5 -54.1546 -10.4860 -3.3414 -2.1837 45.4032 13.2709
# 6 -41.5137 -10.0712 -2.4153 0.9875 13.2709 56.8238
#
#
#
# Elastic Compliance Matrix: (Units=1/GPa)
#
#
# Indices 1 2 3 4 5 6 
#
# 1 0.006002 -0.002234 -0.009356 0.006951 0.005661 0.002148
# 2 -0.002234 0.009140 0.007907 -0.015771 -0.000972 0.000825
# 3 -0.009356 0.007907 0.077419 -0.074068 -0.007457 0.000886
# 4 0.006951 -0.015771 -0.074068 0.144369 0.007649 -0.005161
# 5 0.005661 -0.000972 -0.007457 0.007649 0.029348 -0.003341
# 6 0.002148 0.000825 0.000886 -0.005161 -0.003341 0.020221
#
#
# Mechanical properties :
#
#
# Convention : Reuss Voigt Hill
#
# Bulk Modulus (GPa) = 11.73775 76.59126 44.16450
# Shear Modulus (GPa) = 15.51520 48.30762 31.91141
#
# Velocity S-wave (km/s) = 2.43911 4.30388 3.49804
# Velocity P-wave (km/s) = 3.52606 7.35299 5.76626
#
# Compressibility (1/GPa) = 0.08519523
#
# Stress axis : x y z
#
# Youngs Moduli (GPa) = 166.61393 109.40380 12.91670
#
# Poissons Ratio (x) = 0.24445 0.12085
# Poissons Ratio (y) = 0.37228 -0.10213
# Poissons Ratio (z) = 1.55882 -0.86507
#
# Static dielectric constant tensor:
#      x y z
#    x 2.106580 -0.019410 -0.020310 
#    y -0.019410 2.150510 -0.047830 
#    z -0.020310 -0.047830 2.202610 
# 
# From -- ./inp_files/322003.got.cif
#   From: 2010.05.17/outbox.cif.g08.bks.cpg/sg2_162_cif.got.tgz:322003.got - 2010.06.03 11:33:40.
