data_PCOD9100305
_publ_section_title
;
Structure prediction by ZEFSAII (Michael W. Deem and Ramdas Pophale) SiO2 
 PCOD9100305
Probable space group: P -1
;
_chemical_formula_sum "Si O2"
_cell_formula_units_Z 16
_cell_length_a 8.655021
_cell_length_b 11.649634
_cell_length_c 19.357593
_cell_angle_alpha 149.522112
_cell_angle_beta 56.733401
_cell_angle_gamma 132.089686
_cell_volume 732.438165
_symmetry_space_group_name_H-M "P -1"
_symmetry_group_IT_number 2
_symmetry_cell_setting 'triclinic'
loop_
_space_group_symop_operation_xyz
x,y,z
-x,-y,-z
loop_
_atom_site_type_symbol
_atom_site_label
_atom_site_fract_x
_atom_site_fract_y
_atom_site_fract_z
Si Si1 0.528027 0.615059 0.946480
Si Si2 0.743533 0.984104 0.449649
Si Si3 0.956042 0.723892 0.067876
Si Si4 0.047719 0.773276 0.222988
Si Si5 0.924815 0.047621 0.117438
Si Si6 0.661574 0.525793 0.732492
Si Si7 0.384674 0.863358 0.297036
Si Si8 0.774589 0.327086 0.492470
O O1 0.287369 0.464260 0.949328
O O2 0.569021 0.660104 0.877133
O O3 0.614668 0.410528 0.838473
O O4 0.673006 0.885498 0.088089
O O5 0.518656 0.765655 0.364674
O O6 0.896052 0.857131 0.343368
O O7 0.724641 0.085069 0.581894
O O8 0.808318 0.190638 0.480806
O O9 0.972466 0.913869 0.101721
O O10 0.063834 0.856434 0.181975
O O11 0.041261 0.532960 0.920652
O O12 0.258696 0.868861 0.263935
O O13 0.091659 0.344815 0.241045
O O14 0.000000 0.000000 0.000000
O O15 0.673217 0.506512 0.636645
O O16 0.618492 0.097734 0.363579
O O17 0.000000 0.500000 0.500000
#
# Coordination Sequence:
#
# PCOD9100305 Si02
#       8
#     2   2   2   2   2   2   2   2
#     4  11  19  40  67  93 125 158 220 272 307 368
#     4  11  21  44  65  89 130 174 211 260 318 386
#     4  11  23  40  65  96 132 170 208 261 326 379
#     4  11  24  38  66  91 133 174 208 249 325 395
#     4  10  23  37  65  99 125 158 215 275 309 366
#     4  10  20  37  63  92 125 159 207 267 324 357
#     4  11  21  40  67  94 121 169 217 258 317 379
#     4  11  23  37  68  96 121 161 220 279 314 358
#
# _framework density 21.844847000000001
#
# number of rings (size 3 to 8) (size 9 to 14) (size 15 to 20)
#    0.000    1.250    5.000    1.500    3.500    0.000 
#    0.000    1.250    2.750    0.000    0.000    0.000 
#    0.000    0.000    0.000    0.000    0.000    0.000 
#
# Total GULP energy -89099.597457 kJ/mol
# GULP energy per Si atom -5568.724841 kJ/mol
# Density = 2.179513 g / cm^3
# Si number density = 21.844847 Si / 1000 Ang^3
#
#
#
# Elastic Constant Matrix: (Units=GPa)
#
#
# Indices 1 2 3 4 5 6 
#
# 1 105.0609 53.9643 43.7480 -2.3256 17.4319 0.6808
# 2 53.9643 128.2777 32.1494 7.7356 13.3074 11.5648
# 3 43.7480 32.1494 104.4495 -2.9732 19.1318 13.2983
# 4 -2.3256 7.7356 -2.9732 34.2315 11.2855 12.6833
# 5 17.4319 13.3074 19.1318 11.2855 45.8886 -7.0950
# 6 0.6808 11.5648 13.2983 12.6833 -7.0950 30.4267
#
#
#
# Elastic Compliance Matrix: (Units=1/GPa)
#
#
# Indices 1 2 3 4 5 6 
#
# 1 0.014252 -0.004996 -0.004257 0.001642 -0.002249 0.002231
# 2 -0.004996 0.010532 -0.000506 -0.001055 -0.001230 -0.003517
# 3 -0.004257 -0.000506 0.014651 0.007936 -0.008043 -0.011299
# 4 0.001642 -0.001055 0.007936 0.046621 -0.019271 -0.027032
# 5 -0.002249 -0.001230 -0.008043 -0.019271 0.034194 0.020040
# 6 0.002231 -0.003517 -0.011299 -0.027032 0.020040 0.055032
#
#
# Mechanical properties :
#
#
# Convention : Reuss Voigt Hill
#
# Bulk Modulus (GPa) = 50.20918 66.39015 58.29967
# Shear Modulus (GPa) = 24.82144 35.97112 30.39628
#
# Velocity S-wave (km/s) = 3.37450 4.06231 3.73428
# Velocity P-wave (km/s) = 6.18202 7.24299 6.73343
#
# Compressibility (1/GPa) = 0.01991667
#
# Stress axis : x y z
#
# Youngs Moduli (GPa) = 70.16557 94.94575 68.25703
#
# Poissons Ratio (x) = 0.47430 0.29058
# Poissons Ratio (y) = 0.35051 0.03457
# Poissons Ratio (z) = 0.29870 0.04809
#
# Static dielectric constant tensor:
#      x y z
#    x 1.836950 0.001210 -0.024630 
#    y 0.001210 1.865200 -0.044600 
#    z -0.024630 -0.044600 1.943830 
# 
# From -- ./inp_files/189306.got.cif
#   From: 2010.05.17/outbox.cif.g08.bks.cpg/sg2_95_cif.got.tgz:189306.got - 2010.06.03 11:33:40.
