data_PCOD9100587
_publ_section_title
;
Structure prediction by ZEFSAII (Michael W. Deem and Ramdas Pophale) SiO2 
 PCOD9100587
Probable space group: P -1
;
_chemical_formula_sum "Si O2"
_cell_formula_units_Z 16
_cell_length_a 21.964567
_cell_length_b 8.624869
_cell_length_c 17.199534
_cell_angle_alpha 37.826864
_cell_angle_beta 153.016253
_cell_angle_gamma 149.829193
_cell_volume 740.313165
_symmetry_space_group_name_H-M "P -1"
_symmetry_group_IT_number 2
_symmetry_cell_setting 'triclinic'
loop_
_space_group_symop_operation_xyz
x,y,z
-x,-y,-z
loop_
_atom_site_type_symbol
_atom_site_label
_atom_site_fract_x
_atom_site_fract_y
_atom_site_fract_z
Si Si1 0.161964 0.688999 0.923168
Si Si2 0.232621 0.706798 0.621856
Si Si3 0.184303 0.209340 0.658808
Si Si4 0.220967 0.893026 0.077742
Si Si5 0.541401 0.173083 0.893822
Si Si6 0.989422 0.082358 0.690356
Si Si7 0.447789 0.569314 0.701948
Si Si8 0.179363 0.563919 0.323166
O O1 0.963987 0.455514 0.782531
O O2 0.202599 0.028793 0.819696
O O3 0.194364 0.691634 0.050849
O O4 0.278978 0.680086 0.997932
O O5 0.237500 0.542620 0.615650
O O6 0.142942 0.876116 0.437661
O O7 0.115204 0.409486 0.661686
O O8 0.404800 0.928742 0.773704
O O9 0.308953 0.268104 0.710531
O O10 0.000000 0.000000 0.500000
O O11 0.197026 0.718469 0.199597
O O12 0.405505 0.195132 0.168150
O O13 0.096444 0.995564 0.893917
O O14 0.519402 0.450027 0.769213
O O15 0.500000 0.000000 0.000000
O O16 0.888643 0.792701 0.631494
O O17 0.353249 0.706339 0.504668
#
# Coordination Sequence:
#
# PCOD9100587 Si02
#       8
#     2   2   2   2   2   2   2   2
#     4  11  23  42  67 100 130 176 223 271 339 401
#     4  11  22  38  64  98 137 168 210 278 345 396
#     4  12  23  39  67  97 138 171 219 279 339 405
#     4  11  24  43  73  92 131 185 233 268 318 396
#     4  12  25  38  65 101 144 167 209 281 347 398
#     4  10  20  37  64  96 124 166 221 266 333 387
#     4  12  24  42  65 102 134 174 224 278 335 392
#     4  11  22  47  69  92 133 184 228 270 320 401
#
# _framework density 21.612476999999998
#
# number of rings (size 3 to 8) (size 9 to 14) (size 15 to 20)
#    0.000    0.750    6.250    3.375    1.750    2.000 
#    0.000    1.250    5.500    0.000    0.000    0.000 
#    0.000    0.000    0.000    0.000    0.000    0.000 
#
# Total GULP energy -89326.554340 kJ/mol
# GULP energy per Si atom -5582.909646 kJ/mol
# Density = 2.156329 g / cm^3
# Si number density = 21.612477 Si / 1000 Ang^3
#
#
#
# Elastic Constant Matrix: (Units=GPa)
#
#
# Indices 1 2 3 4 5 6 
#
# 1 93.2098 -5.6671 50.3247 -3.9071 24.1148 8.3709
# 2 -5.6671 23.2569 3.8669 15.6801 4.5010 0.9292
# 3 50.3247 3.8669 115.5517 14.1305 9.3104 -0.9232
# 4 -3.9071 15.6801 14.1305 33.1964 4.3599 -8.9906
# 5 24.1148 4.5010 9.3104 4.3599 46.9232 -0.7671
# 6 8.3709 0.9292 -0.9232 -8.9906 -0.7671 35.5600
#
#
#
# Elastic Compliance Matrix: (Units=1/GPa)
#
#
# Indices 1 2 3 4 5 6 
#
# 1 0.017890 0.005592 -0.007660 0.002750 -0.008532 -0.004045
# 2 0.005592 0.069328 -0.000117 -0.034428 -0.006497 -0.011976
# 3 -0.007660 -0.000117 0.012607 -0.006324 0.002043 0.000579
# 4 0.002750 -0.034428 -0.006324 0.053272 -0.001585 0.013523
# 5 -0.008532 -0.006497 0.002043 -0.001585 0.026100 0.002394
# 6 -0.004045 -0.011976 0.000579 0.013523 0.002394 0.032872
#
#
# Mechanical properties :
#
#
# Convention : Reuss Voigt Hill
#
# Bulk Modulus (GPa) = 10.47616 36.56304 23.51960
# Shear Modulus (GPa) = 20.14032 35.36886 27.75459
#
# Velocity S-wave (km/s) = 3.05599 4.04976 3.58745
# Velocity P-wave (km/s) = 4.16052 6.23071 5.29772
#
# Compressibility (1/GPa) = 0.09545485
#
# Stress axis : x y z
#
# Youngs Moduli (GPa) = 55.89744 14.42419 79.31912
#
# Poissons Ratio (x) = -0.08066 0.60755
# Poissons Ratio (y) = -0.31257 0.00931
# Poissons Ratio (z) = 0.42815 0.00169
#
# Static dielectric constant tensor:
#      x y z
#    x 1.832500 0.008170 0.004090 
#    y 0.008170 1.783720 0.002390 
#    z 0.004090 0.002390 1.828570 
# 
# From -- ./inp_files/577553.got.cif
#   From: 2010.05.17/outbox.cif.g08.bks.cpg/sg2_289_cif.got.tgz:577553.got - 2010.06.03 11:33:40.
