data_PCOD9100960
_publ_section_title
;
Structure prediction by ZEFSAII (Michael W. Deem and Ramdas Pophale) SiO2 
 PCOD9100960
Probable space group: P -1
;
_chemical_formula_sum "Si O2"
_cell_formula_units_Z 16
_cell_length_a 13.951828
_cell_length_b 9.336598
_cell_length_c 5.307499
_cell_angle_alpha 87.567792
_cell_angle_beta 87.352729
_cell_angle_gamma 77.345982
_cell_volume 673.485311
_symmetry_space_group_name_H-M "P -1"
_symmetry_group_IT_number 2
_symmetry_cell_setting 'triclinic'
loop_
_space_group_symop_operation_xyz
x,y,z
-x,-y,-z
loop_
_atom_site_type_symbol
_atom_site_label
_atom_site_fract_x
_atom_site_fract_y
_atom_site_fract_z
Si Si1 0.470002 0.638317 0.303186
Si Si2 0.286337 0.145935 0.549409
Si Si3 0.734298 0.436620 0.661425
Si Si4 0.115347 0.804099 0.599241
Si Si5 0.678089 0.610481 0.129904
Si Si6 0.895395 0.883103 0.700411
Si Si7 0.236524 0.929943 0.914412
Si Si8 0.422073 0.960861 0.209668
O O1 0.500000 0.500000 0.500000
O O2 0.359656 0.629490 0.246622
O O3 0.561914 0.616862 0.100383
O O4 0.464134 0.809016 0.367586
O O5 0.303067 0.235423 0.785868
O O6 0.182382 0.197480 0.417944
O O7 0.281462 0.984390 0.655410
O O8 0.378029 0.110224 0.355291
O O9 0.830575 0.313463 0.599316
O O10 0.708547 0.516961 0.389262
O O11 0.738237 0.547202 0.881588
O O12 0.186911 0.800660 0.833236
O O13 0.006587 0.792597 0.693502
O O14 0.104965 0.965450 0.463746
O O15 0.851680 0.943874 0.971301
O O16 0.326311 0.922065 0.091648
O O17 0.500000 0.000000 0.000000
#
# Coordination Sequence:
#
# PCOD9100960 Si02
#       8
#     2   2   2   2   2   2   2   2
#     4  10  23  45  66  97 140 182 230 281 346 412
#     4  10  23  42  63  96 132 174 226 283 338 418
#     4  11  25  43  65  97 133 185 230 281 345 412
#     4  10  21  39  64  98 128 163 227 285 351 413
#     4  11  26  43  66  91 138 187 230 279 341 417
#     4   9  20  39  67  96 125 168 217 287 353 411
#     4  10  20  37  67  95 132 167 219 288 346 410
#     4  11  24  40  70 103 135 179 230 285 346 414
#
# _framework density 23.757014000000002
#
# number of rings (size 3 to 8) (size 9 to 14) (size 15 to 20)
#    0.000    1.750    0.000    3.750    8.750    3.000 
#    2.250    1.250    0.000    0.000    0.000    0.000 
#    0.000    0.000    0.000    0.000    0.000    0.000 
#
# Total GULP energy -89265.480015 kJ/mol
# GULP energy per Si atom -5579.092501 kJ/mol
# Density = 2.370294 g / cm^3
# Si number density = 23.757014 Si / 1000 Ang^3
#
#
#
# Elastic Constant Matrix: (Units=GPa)
#
#
# Indices 1 2 3 4 5 6 
#
# 1 141.6584 61.0970 72.9938 36.9781 -18.6429 -15.8633
# 2 61.0970 86.7231 32.0787 12.5731 -2.8872 -3.5579
# 3 72.9938 32.0787 122.3837 37.1952 -8.7632 -10.5405
# 4 36.9781 12.5731 37.1952 38.5000 -4.5110 -10.6192
# 5 -18.6429 -2.8872 -8.7632 -4.5110 30.8121 6.5979
# 6 -15.8633 -3.5579 -10.5405 -10.6192 6.5979 24.8641
#
#
#
# Elastic Compliance Matrix: (Units=1/GPa)
#
#
# Indices 1 2 3 4 5 6 
#
# 1 0.015715 -0.008112 -0.004594 -0.006617 0.005934 0.002517
# 2 -0.008112 0.017005 -0.000575 0.002089 -0.002888 -0.001327
# 3 -0.004594 -0.000575 0.013676 -0.008893 -0.000031 -0.001006
# 4 -0.006617 0.002089 -0.008893 0.043084 -0.002462 0.011362
# 5 0.005934 -0.002888 -0.000031 -0.002462 0.037014 -0.007514
# 6 0.002517 -0.001327 -0.001006 0.011362 -0.007514 0.048055
#
#
# Mechanical properties :
#
#
# Convention : Reuss Voigt Hill
#
# Bulk Modulus (GPa) = 50.41873 75.90045 63.15959
# Shear Modulus (GPa) = 24.07052 31.14162 27.60607
#
# Velocity S-wave (km/s) = 3.18653 3.62448 3.41254
# Velocity P-wave (km/s) = 5.89978 7.03803 6.49389
#
# Compressibility (1/GPa) = 0.01983390
#
# Stress axis : x y z
#
# Youngs Moduli (GPa) = 63.63239 58.80569 73.12185
#
# Poissons Ratio (x) = 0.47703 0.33593
# Poissons Ratio (y) = 0.51619 0.04205
# Poissons Ratio (z) = 0.29233 0.03382
#
# Static dielectric constant tensor:
#      x y z
#    x 1.909670 -0.005430 0.033700 
#    y -0.005430 2.000930 -0.051890 
#    z 0.033700 -0.051890 1.962550 
# 
# From -- ./inp_files/47794.got.cif
#   From: 2010.05.17/outbox.cif.g08.bks.cpg/sg2_24_cif.got.tgz:47794.got - 2010.06.03 11:33:40.
