data_PCOD9100734
_publ_section_title
;
Structure prediction by ZEFSAII (Michael W. Deem and Ramdas Pophale) SiO2 
 PCOD9100734
Probable space group: P -1
;
_chemical_formula_sum "Si O2"
_cell_formula_units_Z 16
_cell_length_a 14.309892
_cell_length_b 8.070797
_cell_length_c 7.824876
_cell_angle_alpha 74.626164
_cell_angle_beta 133.094089
_cell_angle_gamma 111.200635
_cell_volume 615.040645
_symmetry_space_group_name_H-M "P -1"
_symmetry_group_IT_number 2
_symmetry_cell_setting 'triclinic'
loop_
_space_group_symop_operation_xyz
x,y,z
-x,-y,-z
loop_
_atom_site_type_symbol
_atom_site_label
_atom_site_fract_x
_atom_site_fract_y
_atom_site_fract_z
Si Si1 0.524794 0.424241 0.738473
Si Si2 0.039883 0.386039 0.824921
Si Si3 0.838524 0.590058 0.384777
Si Si4 0.096432 0.056631 0.447889
Si Si5 0.255467 0.667467 0.151125
Si Si6 0.596141 0.310715 0.310485
Si Si7 0.867563 0.078563 0.916759
Si Si8 0.337946 0.037431 0.590296
O O1 0.500000 0.500000 0.500000
O O2 0.658542 0.363237 0.892250
O O3 0.513194 0.579553 0.814372
O O4 0.419619 0.234767 0.686758
O O5 0.123727 0.340262 0.781160
O O6 0.965415 0.525278 0.620335
O O7 0.928205 0.239741 0.819243
O O8 0.141590 0.485839 0.066888
O O9 0.831173 0.742615 0.466939
O O10 0.708121 0.432061 0.296596
O O11 0.215996 0.967280 0.587945
O O12 0.000000 0.000000 0.500000
O O13 0.997971 0.034527 0.168831
O O14 0.339300 0.693500 0.421137
O O15 0.194594 0.835954 0.026331
O O16 0.574270 0.105604 0.279205
O O17 0.745233 0.952223 0.694156
#
# Coordination Sequence:
#
# PCOD9100734 Si02
#       8
#     2   2   2   2   2   2   2   2
#     4  10  23  41  66  96 131 180 228 270 326 384
#     4  11  21  36  67 102 128 176 216 274 340 398
#     4  11  21  38  66  94 137 173 213 272 346 391
#     4  12  25  40  63 103 140 173 213 275 346 401
#     4  10  20  37  65  93 131 170 226 263 327 391
#     4  10  21  41  65  96 127 176 218 276 327 388
#     4  11  22  39  66  99 136 168 219 278 335 394
#     4  11  23  41  69  95 136 173 226 270 329 398
#
# _framework density 26.014543
#
# number of rings (size 3 to 8) (size 9 to 14) (size 15 to 20)
#    0.000    1.250    5.000    2.250    3.500    4.500 
#    0.000    0.625    0.000    1.500    0.000    0.000 
#    0.000    0.000    0.000    0.000    0.000    0.000 
#
# Total GULP energy -89405.069490 kJ/mol
# GULP energy per Si atom -5587.816843 kJ/mol
# Density = 2.595533 g / cm^3
# Si number density = 26.014543 Si / 1000 Ang^3
#
#
#
# Elastic Constant Matrix: (Units=GPa)
#
#
# Indices 1 2 3 4 5 6 
#
# 1 147.1352 36.4645 2.1375 -10.5470 12.6610 -34.3324
# 2 36.4645 90.3426 3.7463 -5.2303 9.6397 -25.9757
# 3 2.1375 3.7463 29.9241 -7.2900 -12.2357 -7.6190
# 4 -10.5470 -5.2303 -7.2900 8.8005 0.7616 2.5065
# 5 12.6610 9.6397 -12.2357 0.7616 41.7356 -8.1780
# 6 -34.3324 -25.9757 -7.6190 2.5065 -8.1780 52.4342
#
#
#
# Elastic Compliance Matrix: (Units=1/GPa)
#
#
# Indices 1 2 3 4 5 6 
#
# 1 0.009217 -0.001677 0.003364 0.011454 -0.000643 0.005045
# 2 -0.001677 0.013706 0.000294 0.005028 -0.001636 0.005239
# 3 0.003364 0.000294 0.052803 0.043640 0.015628 0.010372
# 4 0.011454 0.005028 0.043640 0.163141 0.007069 0.009636
# 5 -0.000643 -0.001636 0.015628 0.007069 0.030042 0.005387
# 6 0.005045 0.005239 0.010372 0.009636 0.005387 0.026857
#
#
# Mechanical properties :
#
#
# Convention : Reuss Voigt Hill
#
# Bulk Modulus (GPa) = 12.54919 39.12205 25.83562
# Shear Modulus (GPa) = 15.70516 35.59763 25.65140
#
# Velocity S-wave (km/s) = 2.45971 3.70317 3.14353
# Velocity P-wave (km/s) = 3.59184 5.77545 4.80921
#
# Compressibility (1/GPa) = 0.07968641
#
# Stress axis : x y z
#
# Youngs Moduli (GPa) = 108.49651 72.96231 18.93816
#
# Poissons Ratio (x) = 0.12238 -0.06370
# Poissons Ratio (y) = 0.18199 -0.00557
# Poissons Ratio (z) = -0.36495 -0.02144
#
# Static dielectric constant tensor:
#      x y z
#    x 2.097350 -0.044490 0.013490 
#    y -0.044490 2.143460 0.037450 
#    z 0.013490 0.037450 2.074270 
# 
# From -- ./inp_files/298401.got.cif
#   From: 2010.05.17/outbox.cif.g08.bks.cpg/sg2_150_cif.got.tgz:298401.got - 2010.06.03 11:33:40.
