data_PCOD9100354
_publ_section_title
;
Structure prediction by ZEFSAII (Michael W. Deem and Ramdas Pophale) SiO2 
 PCOD9100354
Probable space group: P -1
;
_chemical_formula_sum "Si O2"
_cell_formula_units_Z 16
_cell_length_a 9.639890
_cell_length_b 11.359700
_cell_length_c 9.171621
_cell_angle_alpha 51.094005
_cell_angle_beta 111.884600
_cell_angle_gamma 127.582044
_cell_volume 619.286774
_symmetry_space_group_name_H-M "P -1"
_symmetry_group_IT_number 2
_symmetry_cell_setting 'triclinic'
loop_
_space_group_symop_operation_xyz
x,y,z
-x,-y,-z
loop_
_atom_site_type_symbol
_atom_site_label
_atom_site_fract_x
_atom_site_fract_y
_atom_site_fract_z
Si Si1 0.631520 0.119265 0.661373
Si Si2 0.947180 0.463033 0.175935
Si Si3 0.536251 0.405777 0.772491
Si Si4 0.241714 0.925225 0.648454
Si Si5 0.018199 0.875360 0.223807
Si Si6 0.728989 0.501313 0.277070
Si Si7 0.709167 0.210115 0.940727
Si Si8 0.241476 0.226027 0.547847
O O1 0.682170 0.316833 0.478249
O O2 0.611096 0.105306 0.840440
O O3 0.783142 0.077901 0.720102
O O4 0.437529 0.986782 0.630495
O O5 0.887481 0.259865 0.334904
O O6 0.790900 0.488619 0.149445
O O7 0.121944 0.617090 0.198341
O O8 0.000000 0.500000 0.000000
O O9 0.425402 0.457570 0.793000
O O10 0.605734 0.279374 0.942043
O O11 0.408525 0.300632 0.666257
O O12 0.708061 0.587577 0.648011
O O13 0.229511 0.098527 0.512846
O O14 0.225257 0.880376 0.851089
O O15 0.895799 0.670827 0.284380
O O16 0.926816 0.877546 0.335720
O O17 0.000000 0.000000 0.000000
#
# Coordination Sequence:
#
# PCOD9100354 Si02
#       8
#     2   2   2   2   2   2   2   2
#     4  12  22  39  68  99 120 165 216 265 305 368
#     4  10  25  44  63  87 131 177 201 251 320 390
#     4  10  20  37  63  95 121 161 202 271 313 358
#     4  11  23  41  63  92 128 169 211 249 308 388
#     4  11  24  35  63 102 131 153 208 275 312 361
#     4  11  23  42  65  91 132 163 211 259 322 370
#     4  11  21  39  67  94 125 165 214 250 320 368
#     4  10  20  38  58  93 133 153 200 263 325 355
#
# _framework density 25.836172999999999
#
# number of rings (size 3 to 8) (size 9 to 14) (size 15 to 20)
#    0.000    1.250    3.750    3.000    7.000    0.500 
#    0.000    4.375    0.000    0.000    0.000    0.000 
#    0.000    0.000    0.000    0.000    0.000    0.000 
#
# Total GULP energy -89526.936029 kJ/mol
# GULP energy per Si atom -5595.433502 kJ/mol
# Density = 2.577737 g / cm^3
# Si number density = 25.836173 Si / 1000 Ang^3
#
#
#
# Elastic Constant Matrix: (Units=GPa)
#
#
# Indices 1 2 3 4 5 6 
#
# 1 191.5540 20.6402 35.2105 -6.7885 -14.0314 -12.2291
# 2 20.6402 85.4079 18.6312 -28.5586 -7.1735 10.6594
# 3 35.2105 18.6312 91.6333 -20.9187 -4.9213 -1.3068
# 4 -6.7885 -28.5586 -20.9187 44.9225 -10.2413 -12.4797
# 5 -14.0314 -7.1735 -4.9213 -10.2413 38.0861 1.4008
# 6 -12.2291 10.6594 -1.3068 -12.4797 1.4008 45.8857
#
#
#
# Elastic Compliance Matrix: (Units=1/GPa)
#
#
# Indices 1 2 3 4 5 6 
#
# 1 0.005928 -0.001003 -0.001892 0.000272 0.001758 0.001780
# 2 -0.001003 0.016338 -0.000097 0.011164 0.005741 -0.001204
# 3 -0.001892 -0.000097 0.013446 0.007045 0.002853 0.001730
# 4 0.000272 0.011164 0.007045 0.037736 0.012983 0.007547
# 5 0.001758 0.005741 0.002853 0.012983 0.031780 0.001777
# 6 0.001780 -0.001204 0.001730 0.007547 0.001777 0.024595
#
#
# Mechanical properties :
#
#
# Convention : Reuss Voigt Hill
#
# Bulk Modulus (GPa) = 33.63821 57.50655 45.57238
# Shear Modulus (GPa) = 34.31340 45.38641 39.84991
#
# Velocity S-wave (km/s) = 3.64828 4.19585 3.93161
# Velocity P-wave (km/s) = 5.54930 6.76609 6.18768
#
# Compressibility (1/GPa) = 0.02972809
#
# Stress axis : x y z
#
# Youngs Moduli (GPa) = 168.67906 61.20847 74.37220
#
# Poissons Ratio (x) = 0.06141 0.14072
# Poissons Ratio (y) = 0.16924 0.00718
# Poissons Ratio (z) = 0.31915 0.00591
#
# Static dielectric constant tensor:
#      x y z
#    x 2.053160 0.044560 -0.023700 
#    y 0.044560 2.071160 0.014130 
#    z -0.023700 0.014130 2.022250 
# 
# From -- ./inp_files/392115.got.cif
#   From: 2010.05.17/outbox.cif.g08.bks.cpg/sg2_197_cif.got.tgz:392115.got - 2010.06.03 11:33:40.
