data_PCOD9100991
_publ_section_title
;
Structure prediction by ZEFSAII (Michael W. Deem and Ramdas Pophale) SiO2 
 PCOD9100991
Probable space group: P -1
;
_chemical_formula_sum "Si O2"
_cell_formula_units_Z 16
_cell_length_a 16.756161
_cell_length_b 5.165710
_cell_length_c 18.344164
_cell_angle_alpha 119.806080
_cell_angle_beta 28.561985
_cell_angle_gamma 122.027183
_cell_volume 641.687928
_symmetry_space_group_name_H-M "P -1"
_symmetry_group_IT_number 2
_symmetry_cell_setting 'triclinic'
loop_
_space_group_symop_operation_xyz
x,y,z
-x,-y,-z
loop_
_atom_site_type_symbol
_atom_site_label
_atom_site_fract_x
_atom_site_fract_y
_atom_site_fract_z
Si Si1 0.075254 0.209969 0.877618
Si Si2 0.687617 0.320297 0.993284
Si Si3 0.451170 0.935321 0.302822
Si Si4 0.416575 0.495921 0.146131
Si Si5 0.080052 0.109551 0.319150
Si Si6 0.740036 0.760120 0.132508
Si Si7 0.004753 0.795351 0.756373
Si Si8 0.770425 0.619868 0.504662
O O1 0.247673 0.236291 0.789609
O O2 0.074112 0.128864 0.781982
O O3 0.000000 0.500000 0.000000
O O4 0.934953 0.908186 0.973487
O O5 0.807568 0.638548 0.909550
O O6 0.790112 0.078433 0.848685
O O7 0.505755 0.280794 0.094857
O O8 0.689389 0.421144 0.090335
O O9 0.467160 0.822467 0.191210
O O10 0.621463 0.962800 0.218711
O O11 0.336345 0.627334 0.389357
O O12 0.356027 0.211604 0.413863
O O13 0.211772 0.378482 0.291029
O O14 0.500000 0.500000 0.000000
O O15 0.989954 0.215198 0.336336
O O16 0.924218 0.881793 0.452673
O O17 0.126032 0.576066 0.655297
#
# Coordination Sequence:
#
# PCOD9100991 Si02
#       8
#     2   2   2   2   2   2   2   2
#     4  10  20  37  68 103 132 161 216 275 342 394
#     4   9  19  36  61  91 131 169 211 272 338 389
#     4  11  26  46  69  92 136 178 222 271 320 391
#     4  11  23  40  65 105 130 169 218 283 339 390
#     4  11  21  38  67  91 137 171 228 266 328 384
#     4   9  21  39  60  98 131 171 210 273 338 390
#     4  10  20  40  64  94 129 178 214 274 319 395
#     4  11  25  47  65  93 132 189 228 258 316 391
#
# _framework density 24.934239000000002
#
# number of rings (size 3 to 8) (size 9 to 14) (size 15 to 20)
#    0.000    1.750    2.500    1.125    1.750    5.000 
#    0.000    1.250    0.000    0.000    0.000    0.000 
#    0.000    0.000    0.000    0.000    0.000    0.000 
#
# Total GULP energy -89361.113477 kJ/mol
# GULP energy per Si atom -5585.069592 kJ/mol
# Density = 2.487749 g / cm^3
# Si number density = 24.934239 Si / 1000 Ang^3
#
#
#
# Elastic Constant Matrix: (Units=GPa)
#
#
# Indices 1 2 3 4 5 6 
#
# 1 149.6926 43.5354 32.0946 7.6071 -28.4848 12.3426
# 2 43.5354 90.1568 10.9135 8.4819 -4.6851 7.9032
# 3 32.0946 10.9135 72.8914 4.7413 -28.7730 -2.0163
# 4 7.6071 8.4819 4.7413 41.9410 -15.4523 -6.5595
# 5 -28.4848 -4.6851 -28.7730 -15.4523 32.0007 2.2130
# 6 12.3426 7.9032 -2.0163 -6.5595 2.2130 39.0321
#
#
#
# Elastic Compliance Matrix: (Units=1/GPa)
#
#
# Indices 1 2 3 4 5 6 
#
# 1 0.009766 -0.004187 -0.000359 0.002015 0.008898 -0.002425
# 2 -0.004187 0.013642 -0.002164 -0.004088 -0.005516 -0.001924
# 3 -0.000359 -0.002164 0.022922 0.006657 0.023081 0.001546
# 4 0.002015 -0.004088 0.006657 0.032620 0.022605 0.004735
# 5 0.008898 -0.005516 0.023081 0.022605 0.070077 -0.000679
# 6 -0.002425 -0.001924 0.001546 0.004735 -0.000679 0.027690
#
#
# Mechanical properties :
#
#
# Convention : Reuss Voigt Hill
#
# Bulk Modulus (GPa) = 30.38543 53.98089 42.18316
# Shear Modulus (GPa) = 24.86245 37.67458 31.26851
#
# Velocity S-wave (km/s) = 3.16115 3.89132 3.54508
# Velocity P-wave (km/s) = 5.05336 6.47195 5.80614
#
# Compressibility (1/GPa) = 0.03291051
#
# Stress axis : x y z
#
# Youngs Moduli (GPa) = 102.39999 73.30222 43.62661
#
# Poissons Ratio (x) = 0.30691 0.01566
# Poissons Ratio (y) = 0.42874 0.09440
# Poissons Ratio (z) = 0.03675 0.15861
#
# Static dielectric constant tensor:
#      x y z
#    x 2.077130 -0.003940 0.073380 
#    y -0.003940 2.041990 -0.023980 
#    z 0.073380 -0.023980 2.063440 
# 
# From -- ./inp_files/571698.got.cif
#   From: 2010.05.17/outbox.cif.g08.bks.cpg/sg2_286_cif.got.tgz:571698.got - 2010.06.03 11:33:40.
