data_PCOD9100222
_publ_section_title
;
Structure prediction by ZEFSAII (Michael W. Deem and Ramdas Pophale) SiO2 
 PCOD9100222
Probable space group: P -1
;
_chemical_formula_sum "Si O2"
_cell_formula_units_Z 14
_cell_length_a 12.252252
_cell_length_b 9.855418
_cell_length_c 19.664887
_cell_angle_alpha 115.743247
_cell_angle_beta 152.039519
_cell_angle_gamma 45.241258
_cell_volume 653.113800
_symmetry_space_group_name_H-M "P -1"
_symmetry_group_IT_number 2
_symmetry_cell_setting 'triclinic'
loop_
_space_group_symop_operation_xyz
x,y,z
-x,-y,-z
loop_
_atom_site_type_symbol
_atom_site_label
_atom_site_fract_x
_atom_site_fract_y
_atom_site_fract_z
Si Si1 0.789734 0.228489 0.391856
Si Si2 0.003890 0.720096 0.047473
Si Si3 0.819145 0.667956 0.161343
Si Si4 0.134871 0.240720 0.182157
Si Si5 0.256469 0.262969 0.628148
Si Si6 0.651443 0.073775 0.174856
Si Si7 0.686970 0.188730 0.968173
O O1 0.371365 0.471135 0.223648
O O2 0.807878 0.149666 0.308464
O O3 0.002874 0.276097 0.533184
O O4 0.000000 0.000000 0.500000
O O5 0.953146 0.709565 0.936697
O O6 0.669458 0.818440 0.926846
O O7 0.979604 0.913504 0.083621
O O8 0.627098 0.685507 0.123600
O O9 0.128455 0.408956 0.247104
O O10 0.900738 0.803243 0.249794
O O11 0.522939 0.814989 0.970110
O O12 0.501779 0.969829 0.332625
O O13 0.844870 0.276918 0.067678
O O14 0.525650 0.224236 0.814116
O O15 0.000000 0.500000 0.500000
#
# Coordination Sequence:
#
# PCOD9100222 Si02
#       7
#     2   2   2   2   2   2   2
#     4  12  22  35  62  92 123 154 195 255 309 347
#     4  10  20  37  63  89 115 152 211 250 286 350
#     4  10  21  37  63  87 117 155 210 243 287 354
#     4  11  20  38  66  88 115 161 208 242 292 359
#     4  11  24  40  62  91 126 153 198 257 306 352
#     4  10  22  39  61  87 120 157 203 250 290 352
#     4  10  21  40  64  89 115 159 203 249 293 358
#
# _framework density 21.435773999999999
#
# number of rings (size 3 to 8) (size 9 to 14) (size 15 to 20)
#    0.000    1.429    1.429    6.857    2.000    0.000 
#    0.000    1.429    9.429    0.000    0.000    0.000 
#    0.000    0.000    0.000    0.000    0.000    0.000 
#
# Total GULP energy -78191.845442 kJ/mol
# GULP energy per Si atom -5585.131817 kJ/mol
# Density = 2.138698 g / cm^3
# Si number density = 21.435774 Si / 1000 Ang^3
#
#
#
# Elastic Constant Matrix: (Units=GPa)
#
#
# Indices 1 2 3 4 5 6 
#
# 1 42.8327 -4.1444 -12.4500 -11.0947 0.1814 4.5641
# 2 -4.1444 114.0195 32.4903 -32.6559 -0.0118 -6.4133
# 3 -12.4500 32.4903 59.4292 -23.6473 -4.2917 8.7523
# 4 -11.0947 -32.6559 -23.6473 45.0086 7.5461 -0.7306
# 5 0.1814 -0.0118 -4.2917 7.5461 16.6124 -3.1293
# 6 4.5641 -6.4133 8.7523 -0.7306 -3.1293 38.5284
#
#
#
# Elastic Compliance Matrix: (Units=1/GPa)
#
#
# Indices 1 2 3 4 5 6 
#
# 1 0.032594 0.002020 0.013163 0.017327 -0.006083 -0.006681
# 2 0.002020 0.012429 -0.003742 0.008309 -0.004285 0.002489
# 3 0.013163 -0.003742 0.029138 0.015948 -0.001487 -0.008620
# 4 0.017327 0.008309 0.015948 0.043634 -0.016794 -0.004829
# 5 -0.006083 -0.004285 -0.001487 -0.016794 0.068558 0.005595
# 6 -0.006681 0.002489 -0.008620 -0.004829 0.005595 0.029482
#
#
# Mechanical properties :
#
#
# Convention : Reuss Voigt Hill
#
# Bulk Modulus (GPa) = 10.30459 27.56370 18.93414
# Shear Modulus (GPa) = 22.19263 33.38891 27.79077
#
# Velocity S-wave (km/s) = 3.22111 3.95096 3.60455
# Velocity P-wave (km/s) = 4.31876 5.80518 5.11624
#
# Compressibility (1/GPa) = 0.09704413
#
# Stress axis : x y z
#
# Youngs Moduli (GPa) = 30.68052 80.45402 34.31952
#
# Poissons Ratio (x) = -0.16253 -0.45175
# Poissons Ratio (y) = -0.06198 0.12842
# Poissons Ratio (z) = -0.40385 0.30105
#
# Static dielectric constant tensor:
#      x y z
#    x 1.798630 -0.013050 0.019290 
#    y -0.013050 1.819860 -0.006800 
#    z 0.019290 -0.006800 1.768790 
# 
# From -- ./inp_files/179017.got.cif
#   From: 2010.05.17/outbox.cif.g08.bks.cpg/sg2_90_cif.got.tgz:179017.got - 2010.06.03 11:33:40.
