data_PCOD9100429
_publ_section_title
;
Structure prediction by ZEFSAII (Michael W. Deem and Ramdas Pophale) SiO2 
 PCOD9100429
Probable space group: P -1
;
_chemical_formula_sum "Si O2"
_cell_formula_units_Z 16
_cell_length_a 14.883361
_cell_length_b 20.944165
_cell_length_c 8.665149
_cell_angle_alpha 36.632948
_cell_angle_beta 130.831376
_cell_angle_gamma 155.449551
_cell_volume 637.333944
_symmetry_space_group_name_H-M "P -1"
_symmetry_group_IT_number 2
_symmetry_cell_setting 'triclinic'
loop_
_space_group_symop_operation_xyz
x,y,z
-x,-y,-z
loop_
_atom_site_type_symbol
_atom_site_label
_atom_site_fract_x
_atom_site_fract_y
_atom_site_fract_z
Si Si1 0.144187 0.177438 0.941485
Si Si2 0.159663 0.732661 0.653548
Si Si3 0.229198 0.084560 0.726871
Si Si4 0.231189 0.430525 0.343880
Si Si5 0.473630 0.083523 0.099063
Si Si6 0.899253 0.772574 0.707524
Si Si7 0.775751 0.304571 0.526675
Si Si8 0.466593 0.669630 0.843788
O O1 0.302215 0.217121 0.135292
O O2 0.289724 0.380058 0.624555
O O3 0.963296 0.089854 0.023694
O O4 0.000000 0.000000 0.000000
O O5 0.328887 0.954159 0.345999
O O6 0.921913 0.600810 0.683745
O O7 0.283637 0.776035 0.854835
O O8 0.123710 0.960251 0.692311
O O9 0.230241 0.213238 0.473054
O O10 0.450748 0.187325 0.817699
O O11 0.068156 0.247954 0.387223
O O12 0.422149 0.624927 0.067756
O O13 0.150809 0.645449 0.668115
O O14 0.345148 0.903937 0.184918
O O15 0.731575 0.556594 0.012954
O O16 0.000000 0.500000 0.500000
O O17 0.588260 0.254291 0.422359
#
# Coordination Sequence:
#
# PCOD9100429 Si02
#       8
#     2   2   2   2   2   2   2   2
#     4  12  22  35  66  91 113 171 208 249 303 374
#     4   9  20  36  61  91 117 163 208 252 298 368
#     4  11  20  40  66  86 128 161 212 248 312 373
#     4  10  21  40  58  91 130 153 210 251 318 355
#     4   9  20  35  63  93 114 163 216 254 291 369
#     4   9  23  39  59  90 130 160 190 267 322 353
#     4  10  20  37  64  87 126 161 203 256 313 361
#     4  10  24  38  60  92 130 151 207 261 310 360
#
# _framework density 25.104579000000001
#
# number of rings (size 3 to 8) (size 9 to 14) (size 15 to 20)
#    1.500    0.500    2.500    1.125    3.500    1.000 
#    0.000    0.625    5.500    0.000    0.000    0.000 
#    0.000    0.000    0.000    0.000    0.000    0.000 
#
# Total GULP energy -89420.735057 kJ/mol
# GULP energy per Si atom -5588.795941 kJ/mol
# Density = 2.504744 g / cm^3
# Si number density = 25.104579 Si / 1000 Ang^3
#
#
#
# Elastic Constant Matrix: (Units=GPa)
#
#
# Indices 1 2 3 4 5 6 
#
# 1 58.8441 35.3768 20.3366 12.9809 10.7737 -8.7105
# 2 35.3768 96.5873 20.1174 31.0225 10.1690 -6.8685
# 3 20.3366 20.1174 111.1679 20.5108 31.4674 8.8594
# 4 12.9809 31.0225 20.5108 44.1506 11.0728 5.3678
# 5 10.7737 10.1690 31.4674 11.0728 38.5181 4.5182
# 6 -8.7105 -6.8685 8.8594 5.3678 4.5182 34.5425
#
#
#
# Elastic Compliance Matrix: (Units=1/GPa)
#
#
# Indices 1 2 3 4 5 6 
#
# 1 0.023776 -0.007244 -0.002467 -0.000644 -0.003207 0.005707
# 2 -0.007244 0.016334 -0.000155 -0.009703 0.000286 0.002931
# 3 -0.002467 -0.000155 0.012544 -0.002575 -0.008500 -0.002358
# 4 -0.000644 -0.009703 -0.002575 0.032536 -0.003805 -0.005990
# 5 -0.003207 0.000286 -0.008500 -0.003805 0.035123 -0.002574
# 6 0.005707 0.002931 -0.002358 -0.005990 -0.002574 0.032844
#
#
# Mechanical properties :
#
#
# Convention : Reuss Voigt Hill
#
# Bulk Modulus (GPa) = 30.37543 46.47344 38.42444
# Shear Modulus (GPa) = 27.19429 36.16015 31.67722
#
# Velocity S-wave (km/s) = 3.29483 3.79935 3.55605
# Velocity P-wave (km/s) = 5.15756 6.14808 5.67447
#
# Compressibility (1/GPa) = 0.03292134
#
# Stress axis : x y z
#
# Youngs Moduli (GPa) = 42.05960 61.22273 79.72132
#
# Poissons Ratio (x) = 0.44351 0.19666
# Poissons Ratio (y) = 0.30469 0.01235
# Poissons Ratio (z) = 0.10375 0.00949
#
# Static dielectric constant tensor:
#      x y z
#    x 1.973910 -0.001900 -0.053180 
#    y -0.001900 1.975730 -0.076410 
#    z -0.053180 -0.076410 2.004880 
# 
# From -- ./inp_files/467587.got.cif
#   From: 2010.05.17/outbox.cif.g08.bks.cpg/sg2_234_cif.got.tgz:467587.got - 2010.06.03 11:33:40.
