data_PCOD9100740
_publ_section_title
;
Structure prediction by ZEFSAII (Michael W. Deem and Ramdas Pophale) SiO2 
 PCOD9100740
Probable space group: P -1
;
_chemical_formula_sum "Si O2"
_cell_formula_units_Z 14
_cell_length_a 12.894020
_cell_length_b 9.235390
_cell_length_c 8.310817
_cell_angle_alpha 67.388091
_cell_angle_beta 128.507919
_cell_angle_gamma 132.163762
_cell_volume 573.077189
_symmetry_space_group_name_H-M "P -1"
_symmetry_group_IT_number 2
_symmetry_cell_setting 'triclinic'
loop_
_space_group_symop_operation_xyz
x,y,z
-x,-y,-z
loop_
_atom_site_type_symbol
_atom_site_label
_atom_site_fract_x
_atom_site_fract_y
_atom_site_fract_z
Si Si1 0.417090 0.068845 0.268579
Si Si2 0.283666 0.453240 0.276011
Si Si3 0.347785 0.851995 0.796442
Si Si4 0.101149 0.404779 0.816571
Si Si5 0.353726 0.204452 0.648937
Si Si6 0.680755 0.703449 0.069183
Si Si7 0.149024 0.646436 0.202201
O O1 0.564506 0.190043 0.234604
O O2 0.500000 0.000000 0.500000
O O3 0.263939 0.859256 0.144409
O O4 0.340309 0.190101 0.148632
O O5 0.282982 0.287447 0.431133
O O6 0.449432 0.624355 0.266493
O O7 0.255067 0.562491 0.340440
O O8 0.142640 0.355641 0.048788
O O9 0.201868 0.639813 0.807483
O O10 0.301786 0.994054 0.635941
O O11 0.500000 0.000000 0.000000
O O12 0.177131 0.328618 0.803030
O O13 0.914464 0.333362 0.696004
O O14 0.299150 0.192291 0.785767
O O15 0.500000 0.500000 0.000000
O O16 0.000000 0.500000 0.000000
#
# Coordination Sequence:
#
# PCOD9100740 Si02
#       7
#     2   2   2   2   2   2   2
#     4  12  26  40  71 101 133 172 231 277 329 396
#     4  10  20  37  65  94 122 172 224 271 315 393
#     4  12  19  41  64  98 125 178 226 266 323 405
#     4  11  23  41  67  90 134 178 213 274 344 391
#     4  11  22  35  68  94 129 165 235 270 318 384
#     4  12  23  40  63 100 137 171 219 281 338 387
#     4  10  23  44  68  96 137 181 219 270 341 405
#
# _framework density 24.42952
#
# number of rings (size 3 to 8) (size 9 to 14) (size 15 to 20)
#    0.000    0.857    7.143    0.857    4.000    0.571 
#    0.000    3.571    0.000    0.000    0.000    0.000 
#    0.000    0.000    0.000    0.000    0.000    0.000 
#
# Total GULP energy -78085.427389 kJ/mol
# GULP energy per Si atom -5577.530528 kJ/mol
# Density = 2.437392 g / cm^3
# Si number density = 24.429520 Si / 1000 Ang^3
#
#
#
# Elastic Constant Matrix: (Units=GPa)
#
#
# Indices 1 2 3 4 5 6 
#
# 1 168.1170 24.8334 14.1174 -13.6560 1.9305 -18.5170
# 2 24.8334 93.3585 38.5395 -27.2699 15.8131 -23.1579
# 3 14.1174 38.5395 55.3156 -24.2723 -0.8134 -4.2534
# 4 -13.6560 -27.2699 -24.2723 41.5214 -12.1112 10.3241
# 5 1.9305 15.8131 -0.8134 -12.1112 20.7177 -6.8331
# 6 -18.5170 -23.1579 -4.2534 10.3241 -6.8331 36.2649
#
#
#
# Elastic Compliance Matrix: (Units=1/GPa)
#
#
# Indices 1 2 3 4 5 6 
#
# 1 0.006475 -0.000858 -0.000299 0.001197 0.001626 0.002689
# 2 -0.000858 0.021387 -0.014834 -0.001456 -0.014666 0.009131
# 3 -0.000299 -0.014834 0.037079 0.020016 0.022272 -0.006778
# 4 0.001197 -0.001456 0.020016 0.044137 0.025710 -0.005691
# 5 0.001626 -0.014666 0.022272 0.025710 0.075541 0.000991
# 6 0.002689 0.009131 -0.006778 -0.005691 0.000991 0.035790
#
#
# Mechanical properties :
#
#
# Convention : Reuss Voigt Hill
#
# Bulk Modulus (GPa) = 30.34045 52.41910 41.37977
# Shear Modulus (GPa) = 18.98415 35.65418 27.31916
#
# Velocity S-wave (km/s) = 2.79067 3.82445 3.34770
# Velocity P-wave (km/s) = 4.77811 6.40357 5.64961
#
# Compressibility (1/GPa) = 0.03295930
#
# Stress axis : x y z
#
# Youngs Moduli (GPa) = 154.44572 46.75706 26.96944
#
# Poissons Ratio (x) = 0.04010 0.00806
# Poissons Ratio (y) = 0.13246 0.40007
# Poissons Ratio (z) = 0.04616 0.69361
#
# Static dielectric constant tensor:
#      x y z
#    x 2.102350 -0.045700 0.053310 
#    y -0.045700 1.907060 0.011040 
#    z 0.053310 0.011040 2.091910 
# 
# From -- ./inp_files/243217.got.cif
#   From: 2010.05.17/outbox.cif.g08.bks.cpg/sg2_122_cif.got.tgz:243217.got - 2010.06.03 11:33:40.
