data_PCOD9100493
_publ_section_title
;
Structure prediction by ZEFSAII (Michael W. Deem and Ramdas Pophale) SiO2 
 PCOD9100493
Probable space group: P -1
;
_chemical_formula_sum "Si O2"
_cell_formula_units_Z 12
_cell_length_a 10.836632
_cell_length_b 16.667768
_cell_length_c 5.507947
_cell_angle_alpha 64.117960
_cell_angle_beta 63.889401
_cell_angle_gamma 32.846338
_cell_volume 479.955575
_symmetry_space_group_name_H-M "P -1"
_symmetry_group_IT_number 2
_symmetry_cell_setting 'triclinic'
loop_
_space_group_symop_operation_xyz
x,y,z
-x,-y,-z
loop_
_atom_site_type_symbol
_atom_site_label
_atom_site_fract_x
_atom_site_fract_y
_atom_site_fract_z
Si Si1 0.986605 0.951688 0.326523
Si Si2 0.791230 0.439704 0.254583
Si Si3 0.576946 0.061867 0.301695
Si Si4 0.339043 0.647360 0.198139
Si Si5 0.911741 0.623012 0.588984
Si Si6 0.057956 0.206060 0.966521
O O1 0.213109 0.773252 0.340534
O O2 0.757890 0.010507 0.403905
O O3 0.000000 0.000000 0.500000
O O4 0.000000 0.000000 0.000000
O O5 0.596168 0.549071 0.074345
O O6 0.664850 0.450322 0.561499
O O7 0.904681 0.465873 0.235784
O O8 0.003891 0.271067 0.191991
O O9 0.349803 0.240982 0.265925
O O10 0.500000 0.000000 0.500000
O O11 0.725435 0.969266 0.048823
O O12 0.167216 0.730997 0.010641
O O13 0.922946 0.712622 0.315861
O O14 0.000000 0.500000 0.500000
#
# Coordination Sequence:
#
# PCOD9100493 Si02
#       6
#     2   2   2   2   2   2
#     4  11  26  45  69 103 141 181 228 292 352 409
#     4  10  20  37  64  91 121 172 217 280 331 409
#     4   9  21  45  64  93 131 180 228 277 336 417
#     4   9  21  38  61  92 127 165 222 273 340 404
#     4  10  22  37  56  91 129 163 217 274 339 399
#     4   9  19  38  61  85 119 168 226 270 330 407
#
# _framework density 25.002313999999998
#
# number of rings (size 3 to 8) (size 9 to 14) (size 15 to 20)
#    0.000    2.333    0.000    1.500    7.000    2.667 
#    6.000    0.000    0.000    0.000    0.000    0.000 
#    0.000    0.000    0.000    0.000    0.000    0.000 
#
# Total GULP energy -67007.157471 kJ/mol
# GULP energy per Si atom -5583.929789 kJ/mol
# Density = 2.494541 g / cm^3
# Si number density = 25.002314 Si / 1000 Ang^3
#
#
#
# Elastic Constant Matrix: (Units=GPa)
#
#
# Indices 1 2 3 4 5 6 
#
# 1 179.6045 92.7016 47.9746 31.9469 25.1217 4.9278
# 2 92.7016 183.5223 19.5090 32.3503 15.4181 -5.5858
# 3 47.9746 19.5090 80.0592 6.5649 3.3446 5.7788
# 4 31.9469 32.3503 6.5649 36.2020 23.7324 2.7757
# 5 25.1217 15.4181 3.3446 23.7324 30.5492 13.3191
# 6 4.9278 -5.5858 5.7788 2.7757 13.3191 43.5180
#
#
#
# Elastic Compliance Matrix: (Units=1/GPa)
#
#
# Indices 1 2 3 4 5 6 
#
# 1 0.009582 -0.003722 -0.004581 -0.001154 -0.004869 0.000609
# 2 -0.003722 0.008134 0.000584 -0.006566 0.003698 0.000675
# 3 -0.004581 0.000584 0.015264 -0.002021 0.004547 -0.002696
# 4 -0.001154 -0.006566 -0.002021 0.070191 -0.055275 0.011997
# 5 -0.004869 0.003698 0.004547 -0.055275 0.087233 -0.022751
# 6 0.000609 0.000675 -0.002696 0.011997 -0.022751 0.029553
#
#
# Mechanical properties :
#
#
# Convention : Reuss Voigt Hill
#
# Bulk Modulus (GPa) = 57.00839 84.83960 70.92400
# Shear Modulus (GPa) = 20.72590 40.92057 30.82323
#
# Velocity S-wave (km/s) = 2.88229 4.04997 3.51496
# Velocity P-wave (km/s) = 5.82473 7.47503 6.70088
#
# Compressibility (1/GPa) = 0.01754128
#
# Stress axis : x y z
#
# Youngs Moduli (GPa) = 104.36063 122.93483 65.51372
#
# Poissons Ratio (x) = 0.45759 0.30011
# Poissons Ratio (y) = 0.38845 -0.03823
# Poissons Ratio (z) = 0.47807 -0.07173
#
# Static dielectric constant tensor:
#      x y z
#    x 2.019140 0.024540 -0.058670 
#    y 0.024540 2.053640 -0.074260 
#    z -0.058670 -0.074260 2.067260 
# 
# From -- ./inp_files/30908.got.cif
#   From: 2010.05.17/outbox.cif.g08.bks.cpg/sg2_16_cif.got.tgz:30908.got - 2010.06.03 11:33:40.
