data_PCOD9100120
_publ_section_title
;
Structure prediction by ZEFSAII (Michael W. Deem and Ramdas Pophale) SiO2 
 PCOD9100120
Probable space group: P -1
;
_chemical_formula_sum "Si O2"
_cell_formula_units_Z 16
_cell_length_a 5.053468
_cell_length_b 24.952854
_cell_length_c 9.733426
_cell_angle_alpha 137.961369
_cell_angle_beta 108.940318
_cell_angle_gamma 71.927851
_cell_volume 772.739615
_symmetry_space_group_name_H-M "P -1"
_symmetry_group_IT_number 2
_symmetry_cell_setting 'triclinic'
loop_
_space_group_symop_operation_xyz
x,y,z
-x,-y,-z
loop_
_atom_site_type_symbol
_atom_site_label
_atom_site_fract_x
_atom_site_fract_y
_atom_site_fract_z
Si Si1 0.510267 0.631453 0.717318
Si Si2 0.019513 0.027487 0.212985
Si Si3 0.438520 0.884069 0.513201
Si Si4 0.461497 0.538616 0.919596
Si Si5 0.880187 0.492954 0.667187
Si Si6 0.703729 0.289739 0.879617
Si Si7 0.211065 0.226283 0.012214
Si Si8 0.228332 0.882453 0.174511
O O1 0.742080 0.558616 0.660394
O O2 0.242796 0.590914 0.541054
O O3 0.415300 0.677492 0.930374
O O4 0.643844 0.695832 0.767689
O O5 0.252993 0.088959 0.387379
O O6 0.119021 0.952490 0.186170
O O7 0.727667 0.070693 0.303534
O O8 0.000000 0.000000 0.000000
O O9 0.268325 0.908864 0.389999
O O10 0.436668 0.788128 0.339107
O O11 0.536572 0.841754 0.107880
O O12 0.742828 0.523617 0.847808
O O13 0.350436 0.633364 0.080646
O O14 0.211128 0.495321 0.725677
O O15 0.500000 0.500000 0.000000
O O16 0.027875 0.258035 0.907898
O O17 0.989555 0.185143 0.989197
#
# Coordination Sequence:
#
# PCOD9100120 Si02
#       8
#     2   2   2   2   2   2   2   2
#     4  10  20  37  62  95 124 151 205 271 324 356
#     4  12  26  45  64  93 133 167 202 260 326 390
#     4  11  22  41  70  94 119 169 219 257 311 378
#     4  11  23  41  59  88 128 173 215 249 300 381
#     4  10  23  35  62  88 122 164 207 258 318 363
#     4  10  22  38  67  92 122 160 212 260 309 369
#     4  11  19  36  62  96 125 154 200 273 314 355
#     4  11  23  39  67  98 121 160 216 265 312 375
#
# _framework density 20.705551
#
# number of rings (size 3 to 8) (size 9 to 14) (size 15 to 20)
#    0.000    1.250    3.750    3.750    1.750    1.500 
#    0.000    3.750    0.000    0.000    0.000    0.000 
#    0.000    0.000    0.000    0.000    0.000    0.000 
#
# Total GULP energy -89442.801698 kJ/mol
# GULP energy per Si atom -5590.175106 kJ/mol
# Density = 2.065842 g / cm^3
# Si number density = 20.705551 Si / 1000 Ang^3
#
#
#
# Elastic Constant Matrix: (Units=GPa)
#
#
# Indices 1 2 3 4 5 6 
#
# 1 76.5174 13.5637 -6.4164 3.6008 0.4829 -0.1372
# 2 13.5637 112.0562 41.2188 9.6195 0.9249 4.3828
# 3 -6.4164 41.2188 66.2612 10.6892 4.2031 3.4678
# 4 3.6008 9.6195 10.6892 28.7152 13.4262 -1.0705
# 5 0.4829 0.9249 4.2031 13.4262 31.3338 7.8928
# 6 -0.1372 4.3828 3.4678 -1.0705 7.8928 20.5483
#
#
#
# Elastic Compliance Matrix: (Units=1/GPa)
#
#
# Indices 1 2 3 4 5 6 
#
# 1 0.013946 -0.002740 0.003410 -0.002318 0.000450 -0.000192
# 2 -0.002740 0.012300 -0.007604 -0.002036 0.002148 -0.002290
# 3 0.003410 -0.007604 0.021238 -0.006152 0.000585 -0.002485
# 4 -0.002318 -0.002036 -0.006152 0.049637 -0.023655 0.013129
# 5 0.000450 0.002148 0.000585 -0.023655 0.046888 -0.019797
# 6 -0.000192 -0.002290 -0.002485 0.013129 -0.019797 0.057860
#
#
# Mechanical properties :
#
#
# Convention : Reuss Voigt Hill
#
# Bulk Modulus (GPa) = 29.74780 39.06300 34.40540
# Shear Modulus (GPa) = 22.03196 29.88403 25.95799
#
# Velocity S-wave (km/s) = 3.26553 3.80318 3.54457
# Velocity P-wave (km/s) = 5.34944 6.18001 5.77966
#
# Compressibility (1/GPa) = 0.03361594
#
# Stress axis : x y z
#
# Youngs Moduli (GPa) = 71.70283 81.30386 47.08565
#
# Poissons Ratio (x) = 0.22276 -0.16057
# Poissons Ratio (y) = 0.19645 0.35806
# Poissons Ratio (z) = -0.24453 0.61827
#
# Static dielectric constant tensor:
#      x y z
#    x 1.765010 0.009870 -0.004110 
#    y 0.009870 1.730150 0.023090 
#    z -0.004110 0.023090 1.766640 
# 
# From -- ./inp_files/42451.got.cif
#   From: 2010.05.17/outbox.cif.g08.bks.cpg/sg2_22_cif.got.tgz:42451.got - 2010.06.03 11:33:40.
