data_PCOD9100172
_publ_section_title
;
Structure prediction by ZEFSAII (Michael W. Deem and Ramdas Pophale) SiO2 
 PCOD9100172
Probable space group: P -1
;
_chemical_formula_sum "Si O2"
_cell_formula_units_Z 16
_cell_length_a 14.460481
_cell_length_b 11.109074
_cell_length_c 9.632213
_cell_angle_alpha 91.352361
_cell_angle_beta 101.745031
_cell_angle_gamma 28.961196
_cell_volume 693.514723
_symmetry_space_group_name_H-M "P -1"
_symmetry_group_IT_number 2
_symmetry_cell_setting 'triclinic'
loop_
_space_group_symop_operation_xyz
x,y,z
-x,-y,-z
loop_
_atom_site_type_symbol
_atom_site_label
_atom_site_fract_x
_atom_site_fract_y
_atom_site_fract_z
Si Si1 0.340538 0.442258 0.931696
Si Si2 0.225571 0.026215 0.419298
Si Si3 0.908668 0.024114 0.130728
Si Si4 0.430149 0.956328 0.251411
Si Si5 0.254662 0.282825 0.966780
Si Si6 0.719855 0.239983 0.791096
Si Si7 0.853780 0.594073 0.355216
Si Si8 0.647125 0.186588 0.250183
O O1 0.208775 0.713214 0.881219
O O2 0.458706 0.267255 0.822815
O O3 0.210395 0.475618 0.951699
O O4 0.514197 0.269088 0.096370
O O5 0.982252 0.324988 0.369764
O O6 0.331466 0.008080 0.356552
O O7 0.257853 0.868526 0.337724
O O8 0.319975 0.916497 0.598258
O O9 0.855597 0.995024 0.236936
O O10 0.815869 0.079410 0.959011
O O11 0.146608 0.789416 0.188541
O O12 0.620109 0.832188 0.336737
O O13 0.250237 0.222177 0.110514
O O14 0.154307 0.340281 0.800130
O O15 0.500000 0.000000 0.000000
O O16 0.486534 0.542350 0.752066
O O17 0.000000 0.500000 0.500000
#
# Coordination Sequence:
#
# PCOD9100172 Si02
#       8
#     2   2   2   2   2   2   2   2
#     4   9  17  37  63  85 115 160 207 240 303 360
#     4  12  25  37  62  90 125 162 200 250 311 356
#     4  10  20  37  63  85 121 158 202 255 294 355
#     4  10  22  41  65  86 123 164 204 249 301 364
#     4   8  18  37  65  84 114 161 200 246 298 359
#     4  10  21  39  58  90 120 155 211 247 293 371
#     4  10  23  41  61  91 123 154 206 257 306 360
#     4  11  23  35  59  91 123 163 197 247 305 360
#
# _framework density 23.070886999999999
#
# number of rings (size 3 to 8) (size 9 to 14) (size 15 to 20)
#    0.000    2.250    0.000    4.875    5.250    2.500 
#    0.000    0.000    0.000    0.000    0.000    0.000 
#    0.000    0.000    0.000    0.000    0.000    0.000 
#
# Total GULP energy -89393.176374 kJ/mol
# GULP energy per Si atom -5587.073523 kJ/mol
# Density = 2.301838 g / cm^3
# Si number density = 23.070887 Si / 1000 Ang^3
#
#
#
# Elastic Constant Matrix: (Units=GPa)
#
#
# Indices 1 2 3 4 5 6 
#
# 1 83.5190 -1.9383 65.3373 6.9266 -16.5103 -18.6765
# 2 -1.9383 43.6288 5.4517 0.9918 -0.3472 -4.9006
# 3 65.3373 5.4517 151.0399 2.2048 -7.3364 -19.8311
# 4 6.9266 0.9918 2.2048 24.6965 -6.8000 2.4015
# 5 -16.5103 -0.3472 -7.3364 -6.8000 43.1960 11.5529
# 6 -18.6765 -4.9006 -19.8311 2.4015 11.5529 33.3809
#
#
#
# Elastic Compliance Matrix: (Units=1/GPa)
#
#
# Indices 1 2 3 4 5 6 
#
# 1 0.020987 0.002781 -0.008088 -0.004704 0.004270 0.006206
# 2 0.002781 0.023781 -0.001462 -0.002196 -0.000551 0.004528
# 3 -0.008088 -0.001462 0.010333 0.000731 -0.001756 0.001954
# 4 -0.004704 -0.002196 0.000731 0.044736 0.007588 -0.008364
# 5 0.004270 -0.000551 -0.001756 0.007588 0.028081 -0.008999
# 6 0.006206 0.004528 0.001954 -0.008364 -0.008999 0.038971
#
#
# Mechanical properties :
#
#
# Convention : Reuss Voigt Hill
#
# Bulk Modulus (GPa) = 24.05952 46.20990 35.13471
# Shear Modulus (GPa) = 25.73575 34.21050 29.97312
#
# Velocity S-wave (km/s) = 3.34354 3.85495 3.60832
# Velocity P-wave (km/s) = 5.03556 6.31563 5.71157
#
# Compressibility (1/GPa) = 0.04156358
#
# Stress axis : x y z
#
# Youngs Moduli (GPa) = 47.64773 42.05053 96.77801
#
# Poissons Ratio (x) = -0.11695 0.78276
# Poissons Ratio (y) = -0.13251 0.14146
# Poissons Ratio (z) = 0.38539 0.06146
#
# Static dielectric constant tensor:
#      x y z
#    x 1.926350 0.038250 0.000990 
#    y 0.038250 1.901880 0.013840 
#    z 0.000990 0.013840 1.877280 
# 
# From -- ./inp_files/307576.got.cif
#   From: 2010.05.17/outbox.cif.g08.bks.cpg/sg2_154_cif.got.tgz:307576.got - 2010.06.03 11:33:40.
