data_PCOD9100788
_publ_section_title
;
Structure prediction by ZEFSAII (Michael W. Deem and Ramdas Pophale) SiO2 
 PCOD9100788
Probable space group: P -1
;
_chemical_formula_sum "Si O2"
_cell_formula_units_Z 14
_cell_length_a 6.810003
_cell_length_b 17.158804
_cell_length_c 11.715551
_cell_angle_alpha 152.982562
_cell_angle_beta 81.507087
_cell_angle_gamma 103.097450
_cell_volume 601.137266
_symmetry_space_group_name_H-M "P -1"
_symmetry_group_IT_number 2
_symmetry_cell_setting 'triclinic'
loop_
_space_group_symop_operation_xyz
x,y,z
-x,-y,-z
loop_
_atom_site_type_symbol
_atom_site_label
_atom_site_fract_x
_atom_site_fract_y
_atom_site_fract_z
Si Si1 0.845763 0.970504 0.153939
Si Si2 0.836778 0.104619 0.819556
Si Si3 0.531475 0.213949 0.546711
Si Si4 0.898489 0.758139 0.666319
Si Si5 0.515943 0.519629 0.303623
Si Si6 0.389529 0.797658 0.228271
Si Si7 0.798868 0.354221 0.353498
O O1 0.674297 0.078961 0.326412
O O2 0.046748 0.096269 0.245455
O O3 0.936394 0.902677 0.171476
O O4 0.788324 0.824670 0.870830
O O5 0.189488 0.808551 0.186977
O O6 0.690594 0.911384 0.579618
O O7 0.758271 0.222056 0.078253
O O8 0.525495 0.359926 0.642357
O O9 0.623516 0.288343 0.757844
O O10 0.751141 0.588417 0.408452
O O11 0.117203 0.741107 0.671982
O O12 0.378071 0.559371 0.471356
O O13 0.489005 0.318071 0.008678
O O14 0.500000 0.000000 0.500000
O O15 0.000000 0.500000 0.500000
#
# Coordination Sequence:
#
# PCOD9100788 Si02
#       7
#     2   2   2   2   2   2   2
#     4  10  20  37  65  99 131 161 204 260 320 383
#     4  10  22  42  65  94 134 166 211 261 320 384
#     4  11  22  41  68  96 126 174 217 259 313 378
#     4  10  21  37  63 101 131 159 204 259 326 386
#     4  12  23  42  69  93 131 169 210 273 320 372
#     4  10  25  44  63  90 128 177 222 257 314 379
#     4  11  24  39  65 101 131 164 208 264 329 388
#
# _framework density 23.289189
#
# number of rings (size 3 to 8) (size 9 to 14) (size 15 to 20)
#    0.000    1.429    2.857    2.143    0.000    8.571 
#    0.000    5.000    0.000    0.000    0.000    0.000 
#    0.000    0.000    0.000    0.000    0.000    0.000 
#
# Total GULP energy -78232.406528 kJ/mol
# GULP energy per Si atom -5588.029038 kJ/mol
# Density = 2.323618 g / cm^3
# Si number density = 23.289189 Si / 1000 Ang^3
#
#
#
# Elastic Constant Matrix: (Units=GPa)
#
#
# Indices 1 2 3 4 5 6 
#
# 1 75.9752 25.7974 28.1652 -4.9861 9.9296 -26.9077
# 2 25.7974 56.2757 -0.6605 6.0988 24.8805 -18.5737
# 3 28.1652 -0.6605 105.4348 9.4834 1.4815 -3.6615
# 4 -4.9861 6.0988 9.4834 23.6893 -7.4933 6.7381
# 5 9.9296 24.8805 1.4815 -7.4933 30.9368 -5.6127
# 6 -26.9077 -18.5737 -3.6615 6.7381 -5.6127 40.7844
#
#
#
# Elastic Compliance Matrix: (Units=1/GPa)
#
#
# Indices 1 2 3 4 5 6 
#
# 1 0.022246 -0.011517 -0.006730 0.010060 0.006339 0.008038
# 2 -0.011517 0.053549 0.008185 -0.039063 -0.046023 0.017644
# 3 -0.006730 0.008185 0.012495 -0.011256 -0.007524 0.001234
# 4 0.010060 -0.039063 -0.011256 0.078295 0.044242 -0.019010
# 5 0.006339 -0.046023 -0.007524 0.044242 0.075778 -0.014333
# 6 0.008038 0.017644 0.001234 -0.019010 -0.014333 0.039137
#
#
# Mechanical properties :
#
#
# Convention : Reuss Voigt Hill
#
# Bulk Modulus (GPa) = 14.66989 38.25443 26.46216
# Shear Modulus (GPa) = 15.41566 31.37436 23.39501
#
# Velocity S-wave (km/s) = 2.57558 3.67436 3.17289
# Velocity P-wave (km/s) = 3.89326 5.87049 4.98097
#
# Compressibility (1/GPa) = 0.06816685
#
# Stress axis : x y z
#
# Youngs Moduli (GPa) = 44.95173 18.67436 80.03504
#
# Poissons Ratio (x) = 0.21507 0.53861
# Poissons Ratio (y) = 0.51770 -0.65508
# Poissons Ratio (z) = 0.30251 -0.15285
#
# Static dielectric constant tensor:
#      x y z
#    x 1.890270 -0.091740 -0.024210 
#    y -0.091740 1.983330 0.000290 
#    z -0.024210 0.000290 1.870520 
# 
# From -- ./inp_files/485850.got.cif
#   From: 2010.05.17/outbox.cif.g08.bks.cpg/sg2_243_cif.got.tgz:485850.got - 2010.06.03 11:33:40.
