data_PCOD9100295
_publ_section_title
;
Structure prediction by ZEFSAII (Michael W. Deem and Ramdas Pophale) SiO2 
 PCOD9100295
Probable space group: P -1
;
_chemical_formula_sum "Si O2"
_cell_formula_units_Z 14
_cell_length_a 24.751787
_cell_length_b 8.332794
_cell_length_c 13.608757
_cell_angle_alpha 48.253468
_cell_angle_beta 159.715459
_cell_angle_gamma 140.476036
_cell_volume 597.727204
_symmetry_space_group_name_H-M "P -1"
_symmetry_group_IT_number 2
_symmetry_cell_setting 'triclinic'
loop_
_space_group_symop_operation_xyz
x,y,z
-x,-y,-z
loop_
_atom_site_type_symbol
_atom_site_label
_atom_site_fract_x
_atom_site_fract_y
_atom_site_fract_z
Si Si1 0.931596 0.764596 0.291720
Si Si2 0.252936 0.811369 0.304155
Si Si3 0.048121 0.749625 0.794685
Si Si4 0.619303 0.378705 0.234215
Si Si5 0.317698 0.813872 0.919678
Si Si6 0.632683 0.286733 0.739024
Si Si7 0.854695 0.864067 0.896712
O O1 0.780427 0.464459 0.188128
O O2 0.918182 0.808727 0.132928
O O3 0.140611 0.831522 0.633338
O O4 0.907272 0.965019 0.228098
O O5 0.334141 0.669831 0.555861
O O6 0.429790 0.057245 0.446547
O O7 0.087854 0.667367 0.001618
O O8 0.199100 0.939698 0.243437
O O9 0.827441 0.564685 0.467343
O O10 0.193079 0.732657 0.982045
O O11 0.500000 0.500000 0.000000
O O12 0.490541 0.104855 0.067257
O O13 0.389331 0.758988 0.163737
O O14 0.689614 0.575213 0.696108
O O15 0.000000 0.000000 0.000000
#
# Coordination Sequence:
#
# PCOD9100295 Si02
#       7
#     2   2   2   2   2   2   2
#     4   9  19  37  62  89 122 165 201 245 305 368
#     4  10  22  39  60  88 124 166 202 253 304 369
#     4  11  21  37  63  96 123 157 207 256 307 358
#     4  11  21  37  59  90 122 163 201 253 307 356
#     4   9  19  39  61  84 124 168 201 244 304 368
#     4  10  21  37  62  92 124 160 209 250 304 368
#     4  10  20  37  63  92 121 159 205 256 310 363
#
# _framework density 23.422056000000001
#
# number of rings (size 3 to 8) (size 9 to 14) (size 15 to 20)
#    0.000    2.000    1.429    2.143    0.000    2.857 
#    0.000    0.000    0.000   26.571    0.000    0.000 
#    0.000    0.000    0.000    0.000    0.000    0.000 
#
# Total GULP energy -78159.755679 kJ/mol
# GULP energy per Si atom -5582.839691 kJ/mol
# Density = 2.336875 g / cm^3
# Si number density = 23.422056 Si / 1000 Ang^3
#
#
#
# Elastic Constant Matrix: (Units=GPa)
#
#
# Indices 1 2 3 4 5 6 
#
# 1 78.6186 31.3659 23.5012 4.6275 18.6409 -10.6240
# 2 31.3659 124.4453 54.4129 0.7714 13.0475 -10.9110
# 3 23.5012 54.4129 136.1294 8.2177 12.4309 -6.5590
# 4 4.6275 0.7714 8.2177 46.0842 7.8338 0.6975
# 5 18.6409 13.0475 12.4309 7.8338 31.2791 -6.7243
# 6 -10.6240 -10.9110 -6.5590 0.6975 -6.7243 20.4285
#
#
#
# Elastic Compliance Matrix: (Units=1/GPa)
#
#
# Indices 1 2 3 4 5 6 
#
# 1 0.016363 -0.002574 -0.000899 -0.000267 -0.007296 0.004454
# 2 -0.002574 0.010619 -0.003620 0.000867 -0.001075 0.002787
# 3 -0.000899 -0.003620 0.009146 -0.001273 -0.001233 0.000173
# 4 -0.000267 0.000867 -0.001273 0.023015 -0.006078 -0.002871
# 5 -0.007296 -0.001075 -0.001233 -0.006078 0.040678 0.008833
# 6 0.004454 0.002787 0.000173 -0.002871 0.008833 0.055817
#
#
# Mechanical properties :
#
#
# Convention : Reuss Voigt Hill
#
# Bulk Modulus (GPa) = 45.57560 61.97258 53.77409
# Shear Modulus (GPa) = 28.22656 34.88591 31.55624
#
# Velocity S-wave (km/s) = 3.47526 3.86352 3.67452
# Velocity P-wave (km/s) = 5.96690 6.81314 6.40402
#
# Compressibility (1/GPa) = 0.02194156
#
# Stress axis : x y z
#
# Youngs Moduli (GPa) = 61.11415 94.17116 109.33825
#
# Poissons Ratio (x) = 0.24239 0.09830
# Poissons Ratio (y) = 0.15730 0.39581
# Poissons Ratio (z) = 0.05494 0.34091
#
# Static dielectric constant tensor:
#      x y z
#    x 1.908690 0.044600 -0.035090 
#    y 0.044600 1.942240 0.061900 
#    z -0.035090 0.061900 1.905570 
# 
# From -- ./inp_files/168014.got.cif
#   From: 2010.05.17/outbox.cif.g08.bks.cpg/sg2_85_cif.got.tgz:168014.got - 2010.06.03 11:33:40.
