data_PCOD9100914
_publ_section_title
;
Structure prediction by ZEFSAII (Michael W. Deem and Ramdas Pophale) SiO2 
 PCOD9100914
Probable space group: P -1
;
_chemical_formula_sum "Si O2"
_cell_formula_units_Z 16
_cell_length_a 12.490200
_cell_length_b 8.877659
_cell_length_c 15.701162
_cell_angle_alpha 53.479616
_cell_angle_beta 28.197820
_cell_angle_gamma 56.300047
_cell_volume 659.005480
_symmetry_space_group_name_H-M "P -1"
_symmetry_group_IT_number 2
_symmetry_cell_setting 'triclinic'
loop_
_space_group_symop_operation_xyz
x,y,z
-x,-y,-z
loop_
_atom_site_type_symbol
_atom_site_label
_atom_site_fract_x
_atom_site_fract_y
_atom_site_fract_z
Si Si1 0.879274 0.212285 0.519532
Si Si2 0.327680 0.817188 0.497520
Si Si3 0.001480 0.222278 0.770761
Si Si4 0.415121 0.199640 0.949382
Si Si5 0.141116 0.189352 0.854370
Si Si6 0.161614 0.259642 0.464780
Si Si7 0.028626 0.781460 0.864841
Si Si8 0.422603 0.546106 0.944028
O O1 0.814375 0.271243 0.449157
O O2 0.635057 0.231946 0.728881
O O3 0.040202 0.302435 0.445006
O O4 0.000000 0.000000 0.500000
O O5 0.597070 0.828068 0.291477
O O6 0.248432 0.725067 0.672206
O O7 0.234834 0.037277 0.489467
O O8 0.170110 0.272808 0.710920
O O9 0.015571 0.298962 0.639337
O O10 0.039326 0.001238 0.804384
O O11 0.771358 0.290317 0.957339
O O12 0.362096 0.355252 0.006617
O O13 0.195290 0.212532 0.039032
O O14 0.500000 0.000000 0.000000
O O15 0.005151 0.302709 0.988576
O O16 0.000000 0.000000 0.000000
O O17 0.382993 0.371688 0.275640
O O18 0.500000 0.500000 0.000000
#
# Coordination Sequence:
#
# PCOD9100914 Si02
#       8
#     2   2   2   2   2   2   2   2
#     4  10  21  36  64  93 131 168 207 266 317 381
#     4  10  20  37  66  99 129 175 214 266 324 363
#     4  10  23  43  65  95 130 171 213 270 323 378
#     4  12  24  41  63  95 130 166 218 265 322 398
#     4  10  20  37  67  98 132 167 222 273 314 373
#     4  10  22  41  59  97 134 167 218 261 321 396
#     4  10  21  39  66  99 127 169 225 263 311 386
#     4  12  27  40  65  94 131 175 207 268 336 383
#
# _framework density 24.279011000000001
#
# number of rings (size 3 to 8) (size 9 to 14) (size 15 to 20)
#    0.000    1.500    1.250    5.250    7.000    7.500 
#    0.000    0.625    0.000    1.500    0.000    0.000 
#    0.000    0.000    0.000    0.000    0.000    0.000 
#
# Total GULP energy -89249.799937 kJ/mol
# GULP energy per Si atom -5578.112496 kJ/mol
# Density = 2.422375 g / cm^3
# Si number density = 24.279011 Si / 1000 Ang^3
#
#
#
# Elastic Constant Matrix: (Units=GPa)
#
#
# Indices 1 2 3 4 5 6 
#
# 1 137.3289 18.5121 27.2968 8.2408 14.0245 43.9679
# 2 18.5121 -4.5593 13.1905 -19.5676 40.9860 -7.4966
# 3 27.2968 13.1905 113.6295 22.1786 1.4077 25.0989
# 4 8.2408 -19.5676 22.1786 17.6851 12.3417 -2.1503
# 5 14.0245 40.9860 1.4077 12.3417 22.5692 29.0329
# 6 43.9679 -7.4966 25.0989 -2.1503 29.0329 13.3183
#
#
#
# Elastic Compliance Matrix: (Units=1/GPa)
#
#
# Indices 1 2 3 4 5 6 
#
# 1 0.013521 0.012449 -0.001015 0.008972 -0.004561 -0.024325
# 2 0.012449 0.029867 0.005620 0.004801 0.011685 -0.059574
# 3 -0.001015 0.005620 0.009791 -0.003094 -0.004161 -0.003368
# 4 0.008972 0.004801 -0.003094 0.047680 0.012720 -0.041118
# 5 -0.004561 0.011685 -0.004161 0.012720 0.011824 0.005754
# 6 -0.024325 -0.059574 -0.003368 -0.041118 0.005754 0.109021
#
#
# Mechanical properties :
#
#
# Convention : Reuss Voigt Hill
#
# Bulk Modulus (GPa) = 11.45646 40.48866 25.97256
# Shear Modulus (GPa) = 23.07407 23.20781 23.14094
#
# Velocity S-wave (km/s) = 3.08615 3.09508 3.09062
# Velocity P-wave (km/s) = 4.17469 5.43004 4.84321
#
# Compressibility (1/GPa) = 0.08728703
#
# Stress axis : x y z
#
# Youngs Moduli (GPa) = 73.96021 33.48134 102.13056
#
# Poissons Ratio (x) = -0.41681 0.10365
# Poissons Ratio (y) = -0.92074 -0.57393
# Poissons Ratio (z) = 0.07506 -0.18815
#
# Static dielectric constant tensor:
#      x y z
#    x 2.091150 -0.071850 0.031180 
#    y -0.071850 1.924270 -0.037750 
#    z 0.031180 -0.037750 1.958820 
# 
# From -- ./inp_files/348939.got.cif
#   From: 2010.05.17/outbox.cif.g08.bks.cpg/sg2_175_cif.got.tgz:348939.got - 2010.06.03 11:33:40.
