data_PCOD9100271
_publ_section_title
;
Structure prediction by ZEFSAII (Michael W. Deem and Ramdas Pophale) SiO2 
 PCOD9100271
Probable space group: P -1
;
_chemical_formula_sum "Si O2"
_cell_formula_units_Z 16
_cell_length_a 6.477457
_cell_length_b 13.170508
_cell_length_c 13.160888
_cell_angle_alpha 75.787268
_cell_angle_beta 86.733155
_cell_angle_gamma 133.788452
_cell_volume 743.278122
_symmetry_space_group_name_H-M "P -1"
_symmetry_group_IT_number 2
_symmetry_cell_setting 'triclinic'
loop_
_space_group_symop_operation_xyz
x,y,z
-x,-y,-z
loop_
_atom_site_type_symbol
_atom_site_label
_atom_site_fract_x
_atom_site_fract_y
_atom_site_fract_z
Si Si1 0.541673 0.894863 0.995242
Si Si2 0.406604 0.533118 0.088836
Si Si3 0.725803 0.277024 0.167454
Si Si4 0.046986 0.400910 0.485351
Si Si5 0.232710 0.843214 0.606173
Si Si6 0.584055 0.656256 0.715693
Si Si7 0.777695 0.819312 0.127372
Si Si8 0.724306 0.612544 0.337829
O O1 0.349801 0.787828 0.929223
O O2 0.532949 0.822334 0.117631
O O3 0.888892 0.011862 0.921699
O O4 0.500000 0.000000 0.000000
O O5 0.385955 0.442478 0.201966
O O6 0.672084 0.712519 0.058926
O O7 0.066832 0.449436 0.111882
O O8 0.500000 0.500000 0.000000
O O9 0.707394 0.174592 0.275564
O O10 0.515074 0.289431 0.218492
O O11 0.394333 0.517997 0.413719
O O12 0.025285 0.311195 0.601549
O O13 0.000000 0.500000 0.500000
O O14 0.842362 0.288156 0.425743
O O15 0.919768 0.795314 0.626318
O O16 0.500000 0.000000 0.500000
O O17 0.327061 0.522538 0.677012
O O18 0.783260 0.733410 0.234978
#
# Coordination Sequence:
#
# PCOD9100271 Si02
#       8
#     2   2   2   2   2   2   2   2
#     4  11  25  42  60  88 130 169 211 259 317 383
#     4  10  20  37  63  91 119 154 210 263 308 377
#     4  11  23  40  66  91 124 172 210 259 328 378
#     4  10  20  38  63  92 124 161 210 263 315 375
#     4  10  23  40  60  94 130 164 215 266 319 383
#     4   9  20  39  61  89 127 158 208 264 309 382
#     4  10  23  40  58  88 122 162 207 255 314 371
#     4   9  20  38  62  88 123 159 206 262 313 369
#
# _framework density 21.526264000000001
#
# number of rings (size 3 to 8) (size 9 to 14) (size 15 to 20)
#    0.000    2.000    0.000    3.000    1.750    8.500 
#    2.250    0.000    0.000    0.000    0.000    0.000 
#    0.000    0.000    0.000    0.000    0.000    0.000 
#
# Total GULP energy -89113.985694 kJ/mol
# GULP energy per Si atom -5569.624106 kJ/mol
# Density = 2.147727 g / cm^3
# Si number density = 21.526264 Si / 1000 Ang^3
#
#
#
# Elastic Constant Matrix: (Units=GPa)
#
#
# Indices 1 2 3 4 5 6 
#
# 1 63.3939 18.7713 20.5140 10.2609 12.8241 -14.6536
# 2 18.7713 67.5069 18.4276 4.7053 -2.9022 4.7315
# 3 20.5140 18.4276 68.0853 -0.3974 16.2006 6.0169
# 4 10.2609 4.7053 -0.3974 33.8140 1.2917 -5.0582
# 5 12.8241 -2.9022 16.2006 1.2917 43.5693 5.1486
# 6 -14.6536 4.7315 6.0169 -5.0582 5.1486 35.0659
#
#
#
# Elastic Compliance Matrix: (Units=1/GPa)
#
#
# Indices 1 2 3 4 5 6 
#
# 1 0.024191 -0.006189 -0.005061 -0.004449 -0.006960 0.012193
# 2 -0.006189 0.018306 -0.003851 -0.001720 0.005162 -0.005401
# 3 -0.005061 -0.003851 0.018884 0.001937 -0.005401 -0.003763
# 4 -0.004449 -0.001720 0.001937 0.031622 -0.000784 0.002717
# 5 -0.006960 0.005162 -0.005401 -0.000784 0.028195 -0.006931
# 6 0.012193 -0.005401 -0.003763 0.002717 -0.006931 0.036397
#
#
# Mechanical properties :
#
#
# Convention : Reuss Voigt Hill
#
# Bulk Modulus (GPa) = 32.07298 34.93464 33.50381
# Shear Modulus (GPa) = 25.22844 31.90806 28.56825
#
# Velocity S-wave (km/s) = 3.42714 3.85422 3.64694
# Velocity P-wave (km/s) = 5.53102 6.00590 5.77334
#
# Compressibility (1/GPa) = 0.03117889
#
# Stress axis : x y z
#
# Youngs Moduli (GPa) = 41.33749 54.62775 52.95582
#
# Poissons Ratio (x) = 0.33808 0.26802
# Poissons Ratio (y) = 0.25583 0.20393
# Poissons Ratio (z) = 0.20922 0.21036
#
# Static dielectric constant tensor:
#      x y z
#    x 1.829940 0.246390 0.133950 
#    y 0.246390 0.325190 -0.000880 
#    z 0.133950 -0.000880 1.987660 
# 
# From -- ./inp_files/283190.got.cif
#   From: 2010.05.17/outbox.cif.g08.bks.cpg/sg2_142_cif.got.tgz:283190.got - 2010.06.03 11:33:40.
