data_PCOD9100269
_publ_section_title
;
Structure prediction by ZEFSAII (Michael W. Deem and Ramdas Pophale) SiO2 
 PCOD9100269
Probable space group: P -1
;
_chemical_formula_sum "Si O2"
_cell_formula_units_Z 16
_cell_length_a 15.300159
_cell_length_b 11.438558
_cell_length_c 20.619062
_cell_angle_alpha 146.291413
_cell_angle_beta 152.274715
_cell_angle_gamma 25.541186
_cell_volume 713.867851
_symmetry_space_group_name_H-M "P -1"
_symmetry_group_IT_number 2
_symmetry_cell_setting 'triclinic'
loop_
_space_group_symop_operation_xyz
x,y,z
-x,-y,-z
loop_
_atom_site_type_symbol
_atom_site_label
_atom_site_fract_x
_atom_site_fract_y
_atom_site_fract_z
Si Si1 0.592401 0.019392 0.296796
Si Si2 0.343828 0.822224 0.981120
Si Si3 0.888194 0.243480 0.088962
Si Si4 0.295732 0.856042 0.447432
Si Si5 0.397563 0.679215 0.667820
Si Si6 0.899514 0.530898 0.613987
Si Si7 0.282941 0.744072 0.763763
Si Si8 0.725009 0.720157 0.448211
O O1 0.815293 0.717843 0.331584
O O2 0.565565 0.210525 0.423954
O O3 0.677817 0.072610 0.311735
O O4 0.379646 0.014837 0.132731
O O5 0.145539 0.829802 0.894631
O O6 0.286554 0.877697 0.892946
O O7 0.611233 0.516675 0.017054
O O8 0.068309 0.313789 0.240017
O O9 0.000000 0.000000 0.000000
O O10 0.361821 0.594968 0.333065
O O11 0.375487 0.000564 0.523440
O O12 0.001653 0.072765 0.360502
O O13 0.213578 0.612938 0.509698
O O14 0.417976 0.719000 0.775383
O O15 0.758208 0.722533 0.547741
O O16 0.383460 0.435905 0.704721
O O17 0.000000 0.500000 0.500000
#
# Coordination Sequence:
#
# PCOD9100269 Si02
#       8
#     2   2   2   2   2   2   2   2
#     4  11  22  42  61  91 125 165 207 254 301 369
#     4  10  24  39  62  89 128 166 199 250 317 364
#     4  10  22  38  61  94 127 160 202 250 315 376
#     4  11  22  37  64  90 120 161 208 262 304 359
#     4  11  24  39  63  90 123 162 216 252 298 357
#     4  10  20  37  63  91 118 161 197 259 307 358
#     4  10  22  40  60  88 123 165 201 257 306 368
#     4   9  16  32  58  84 114 144 195 245 304 345
#
# _framework density 22.413112999999999
#
# number of rings (size 3 to 8) (size 9 to 14) (size 15 to 20)
#    0.000    1.750    3.750    2.250    5.250    4.500 
#    0.000    0.625    0.000    0.000    0.000    0.000 
#    0.000    0.000    0.000    0.000    0.000    0.000 
#
# Total GULP energy -89297.457172 kJ/mol
# GULP energy per Si atom -5581.091073 kJ/mol
# Density = 2.236210 g / cm^3
# Si number density = 22.413113 Si / 1000 Ang^3
#
#
#
# Elastic Constant Matrix: (Units=GPa)
#
#
# Indices 1 2 3 4 5 6 
#
# 1 107.4060 13.0655 19.2979 -1.1967 -21.7186 12.0940
# 2 13.0655 41.6740 7.6737 7.2009 -9.5396 -1.9075
# 3 19.2979 7.6737 82.7671 -3.9857 -17.0980 2.7130
# 4 -1.1967 7.2009 -3.9857 15.8616 -5.5077 -6.1340
# 5 -21.7186 -9.5396 -17.0980 -5.5077 35.2542 5.5033
# 6 12.0940 -1.9075 2.7130 -6.1340 5.5033 32.2010
#
#
#
# Elastic Compliance Matrix: (Units=1/GPa)
#
#
# Indices 1 2 3 4 5 6 
#
# 1 0.011899 -0.002544 -0.000692 0.002407 0.007524 -0.005389
# 2 -0.002544 0.028000 -0.001941 -0.012338 0.003158 -0.000113
# 3 -0.000692 -0.001941 0.014243 0.006482 0.007131 -0.001039
# 4 0.002407 -0.012338 0.006482 0.078765 0.011910 0.010787
# 5 0.007524 0.003158 0.007131 0.011910 0.040404 -0.007876
# 6 -0.005389 -0.000113 -0.001039 0.010787 -0.007876 0.036561
#
#
# Mechanical properties :
#
#
# Convention : Reuss Voigt Hill
#
# Bulk Modulus (GPa) = 22.83629 34.65791 28.74710
# Shear Modulus (GPa) = 21.29284 29.45069 25.37177
#
# Velocity S-wave (km/s) = 3.08558 3.62884 3.36818
# Velocity P-wave (km/s) = 4.78595 5.74933 5.28962
#
# Compressibility (1/GPa) = 0.04378995
#
# Stress axis : x y z
#
# Youngs Moduli (GPa) = 84.03902 35.71377 70.21138
#
# Poissons Ratio (x) = 0.09084 0.04856
# Poissons Ratio (y) = 0.21376 0.13628
# Poissons Ratio (z) = 0.05813 0.06932
#
# Static dielectric constant tensor:
#      x y z
#    x 1.855430 -0.034870 -0.013000 
#    y -0.034870 1.885650 0.026240 
#    z -0.013000 0.026240 1.855940 
# 
# From -- ./inp_files/532533.got.cif
#   From: 2010.05.17/outbox.cif.g08.bks.cpg/sg2_267_cif.got.tgz:532533.got - 2010.06.03 11:33:40.
