data_PCOD9100873
_publ_section_title
;
Structure prediction by ZEFSAII (Michael W. Deem and Ramdas Pophale) SiO2 
 PCOD9100873
Probable space group: P -1
;
_chemical_formula_sum "Si O2"
_cell_formula_units_Z 13
_cell_length_a 5.611142
_cell_length_b 17.254749
_cell_length_c 8.562340
_cell_angle_alpha 42.235911
_cell_angle_beta 59.551806
_cell_angle_gamma 65.378488
_cell_volume 479.159288
_symmetry_space_group_name_H-M "P -1"
_symmetry_group_IT_number 2
_symmetry_cell_setting 'triclinic'
loop_
_space_group_symop_operation_xyz
x,y,z
-x,-y,-z
loop_
_atom_site_type_symbol
_atom_site_label
_atom_site_fract_x
_atom_site_fract_y
_atom_site_fract_z
Si Si1 0.536049 0.572939 0.705349
Si Si2 0.144994 0.916753 0.708055
Si Si3 0.972504 0.649540 0.647564
Si Si4 0.327831 0.230398 0.882975
Si Si5 0.265090 0.101749 0.614659
Si Si6 0.644271 0.390733 0.708843
Si Si7 0.500000 0.000000 0.000000
O O1 0.674289 0.601442 0.781698
O O2 0.684426 0.453743 0.764555
O O3 0.608271 0.677805 0.407302
O O4 0.202229 0.584458 0.778787
O O5 0.460668 0.894822 0.586851
O O6 0.103882 0.994693 0.761535
O O7 0.000000 0.000000 0.500000
O O8 0.988609 0.800785 0.948346
O O9 0.106695 0.646414 0.433860
O O10 0.925390 0.781674 0.517534
O O11 0.439205 0.288225 0.917249
O O12 0.481843 0.106717 0.977045
O O13 0.369183 0.088454 0.775982
O O14 0.500000 0.500000 0.500000
#
# Coordination Sequence:
#
# PCOD9100873 Si02
#       7
#     2   2   2   2   2   2   1
#     4  10  21  40  64 102 131 168 226 293 339 390
#     4  11  25  44  61  89 148 181 223 266 355 414
#     4  10  20  37  66  95 127 173 222 282 334 393
#     4  10  21  37  64  95 126 177 216 282 330 406
#     4  11  26  42  63  97 134 189 221 285 332 415
#     4   8  19  37  63  97 133 163 224 286 342 389
#     4  12  22  40  62 100 128 162 246 274 334 388
#
# _framework density 27.130852000000001
#
# number of rings (size 3 to 8) (size 9 to 14) (size 15 to 20)
#    0.000    2.154    3.077    0.462    6.462    3.077 
#    0.000    0.000    0.000    9.231    0.000    0.000 
#    0.000    0.000    0.000    0.000    0.000    0.000 
#
# Total GULP energy -72586.619287 kJ/mol
# GULP energy per Si atom -5583.586099 kJ/mol
# Density = 2.706910 g / cm^3
# Si number density = 27.130852 Si / 1000 Ang^3
#
#
#
# Elastic Constant Matrix: (Units=GPa)
#
#
# Indices 1 2 3 4 5 6 
#
# 1 128.1732 19.3461 41.0877 -19.6671 -4.8529 14.6680
# 2 19.3461 148.9749 27.9600 -34.9802 -26.7418 -5.8739
# 3 41.0877 27.9600 111.7258 0.4604 1.8615 0.7550
# 4 -19.6671 -34.9802 0.4604 30.8633 5.7702 -5.3362
# 5 -4.8529 -26.7418 1.8615 5.7702 60.2687 -6.8298
# 6 14.6680 -5.8739 0.7550 -5.3362 -6.8298 51.6821
#
#
#
# Elastic Compliance Matrix: (Units=1/GPa)
#
#
# Indices 1 2 3 4 5 6 
#
# 1 0.010353 0.001264 -0.004152 0.007661 0.000578 -0.001867
# 2 0.001264 0.011161 -0.003402 0.013215 0.004220 0.002882
# 3 -0.004152 -0.003402 0.011384 -0.006414 -0.001610 -0.000249
# 4 0.007661 0.013215 -0.006414 0.052838 0.002206 0.005168
# 5 0.000578 0.004220 -0.001610 0.002206 0.018694 0.003037
# 6 -0.001867 0.002882 -0.000249 0.005168 0.003037 0.021145
#
#
# Mechanical properties :
#
#
# Convention : Reuss Voigt Hill
#
# Bulk Modulus (GPa) = 49.22011 62.85127 56.03569
# Shear Modulus (GPa) = 34.49962 48.59482 41.54722
#
# Velocity S-wave (km/s) = 3.56982 4.23676 3.91751
# Velocity P-wave (km/s) = 5.93065 6.86657 6.41570
#
# Compressibility (1/GPa) = 0.02031690
#
# Stress axis : x y z
#
# Youngs Moduli (GPa) = 96.58765 89.59616 87.84364
#
# Poissons Ratio (x) = -0.11323 0.36475
# Poissons Ratio (y) = -0.12206 0.29886
# Poissons Ratio (z) = 0.40106 0.30482
#
# Static dielectric constant tensor:
#      x y z
#    x 2.166810 -0.120220 -0.169590 
#    y -0.120220 2.063920 0.036600 
#    z -0.169590 0.036600 2.161420 
# 
# From -- ./inp_files/41025.got.cif
#   From: 2010.05.17/outbox.cif.g08.bks.cpg/sg2_21_cif.got.tgz:41025.got - 2010.06.03 11:33:40.
