data_PCOD9100350
_publ_section_title
;
Structure prediction by ZEFSAII (Michael W. Deem and Ramdas Pophale) SiO2 
 PCOD9100350
Probable space group: P -1
;
_chemical_formula_sum "Si O2"
_cell_formula_units_Z 16
_cell_length_a 28.161123
_cell_length_b 9.559318
_cell_length_c 5.122602
_cell_angle_alpha 77.010963
_cell_angle_beta 103.922884
_cell_angle_gamma 153.385684
_cell_volume 599.475070
_symmetry_space_group_name_H-M "P -1"
_symmetry_group_IT_number 2
_symmetry_cell_setting 'triclinic'
loop_
_space_group_symop_operation_xyz
x,y,z
-x,-y,-z
loop_
_atom_site_type_symbol
_atom_site_label
_atom_site_fract_x
_atom_site_fract_y
_atom_site_fract_z
Si Si1 0.592821 0.766148 0.798146
Si Si2 0.458821 0.644743 0.330712
Si Si3 0.857892 0.370703 0.310623
Si Si4 0.169015 0.216877 0.208114
Si Si5 0.346825 0.689089 0.881847
Si Si6 0.009827 0.356316 0.128385
Si Si7 0.280957 0.269896 0.628198
Si Si8 0.217324 0.581010 0.419274
O O1 0.535561 0.729022 0.541919
O O2 0.614915 0.660731 0.786789
O O3 0.709340 0.140131 0.807136
O O4 0.500000 0.500000 0.000000
O O5 0.387344 0.544715 0.478914
O O6 0.533660 0.942047 0.134984
O O7 0.910723 0.508150 0.036933
O O8 0.817142 0.404782 0.397050
O O9 0.764416 0.008713 0.314211
O O10 0.947485 0.551454 0.562295
O O11 0.185744 0.117419 0.441692
O O12 0.129983 0.257536 0.288131
O O13 0.289787 0.564503 0.131117
O O14 0.100949 0.004498 0.951483
O O15 0.318382 0.453141 0.857065
O O16 0.285324 0.633332 0.625717
O O17 0.000000 0.500000 0.000000
#
# Coordination Sequence:
#
# PCOD9100350 Si02
#       8
#     2   2   2   2   2   2   2   2
#     4  10  20  37  63  94 138 181 222 284 341 409
#     4  10  21  38  62  98 132 176 228 276 341 415
#     4  12  27  46  75 106 137 183 239 292 346 422
#     4  11  25  43  68  93 137 181 224 290 353 407
#     4  10  23  42  65  95 141 179 223 286 345 415
#     4  12  27  47  75 104 140 181 236 293 358 411
#     4  11  23  41  66  99 134 178 232 284 346 417
#     4  10  24  43  64 101 138 178 232 285 349 413
#
# _framework density 26.690020000000001
#
# number of rings (size 3 to 8) (size 9 to 14) (size 15 to 20)
#    0.000    1.250    2.500    2.250    5.250    3.500 
#    0.000    0.000    0.000    0.000    0.000    0.000 
#    0.000    0.000    0.000    0.000    0.000    0.000 
#
# Total GULP energy -89540.214634 kJ/mol
# GULP energy per Si atom -5596.263415 kJ/mol
# Density = 2.662927 g / cm^3
# Si number density = 26.690020 Si / 1000 Ang^3
#
#
#
# Elastic Constant Matrix: (Units=GPa)
#
#
# Indices 1 2 3 4 5 6 
#
# 1 135.1137 53.5059 29.2263 10.5593 -22.9150 -29.2914
# 2 53.5059 120.9565 19.5229 1.4661 -8.5212 -12.3940
# 3 29.2263 19.5229 71.5156 3.6759 -10.2486 -6.0065
# 4 10.5593 1.4661 3.6759 47.7496 6.5163 -7.1639
# 5 -22.9150 -8.5212 -10.2486 6.5163 52.7692 2.4801
# 6 -29.2914 -12.3940 -6.0065 -7.1639 2.4801 48.9516
#
#
#
# Elastic Compliance Matrix: (Units=1/GPa)
#
#
# Indices 1 2 3 4 5 6 
#
# 1 0.011348 -0.003803 -0.002527 -0.001965 0.003829 0.005036
# 2 -0.003803 0.010149 -0.001284 0.000717 -0.000362 0.000260
# 3 -0.002527 -0.001284 0.015665 -0.000881 0.001853 -0.000138
# 4 -0.001965 0.000717 -0.000881 0.022290 -0.003772 0.002351
# 5 0.003829 -0.000362 0.001853 -0.003772 0.021343 0.000794
# 6 0.005036 0.000260 -0.000138 0.002351 0.000794 0.023795
#
#
# Mechanical properties :
#
#
# Convention : Reuss Voigt Hill
#
# Bulk Modulus (GPa) = 45.58553 59.12179 52.35366
# Shear Modulus (GPa) = 39.33001 44.91613 42.12307
#
# Velocity S-wave (km/s) = 3.84289 4.10674 3.97701
# Velocity P-wave (km/s) = 6.06689 6.68480 6.38332
#
# Compressibility (1/GPa) = 0.02193679
#
# Stress axis : x y z
#
# Youngs Moduli (GPa) = 88.11790 98.53071 63.83523
#
# Poissons Ratio (x) = 0.37467 0.16131
# Poissons Ratio (y) = 0.33507 0.08193
# Poissons Ratio (z) = 0.22267 0.12646
#
# Static dielectric constant tensor:
#      x y z
#    x 2.115360 0.041520 0.009100 
#    y 0.041520 2.080260 -0.000890 
#    z 0.009100 -0.000890 2.168500 
# 
# From -- ./inp_files/38603.got.cif
#   From: 2010.05.17/outbox.cif.g08.bks.cpg/sg2_20_cif.got.tgz:38603.got - 2010.06.03 11:33:40.
