data_PCOD9100978
_publ_section_title
;
Structure prediction by ZEFSAII (Michael W. Deem and Ramdas Pophale) SiO2 
 PCOD9100978
Probable space group: P -1
;
_chemical_formula_sum "Si O2"
_cell_formula_units_Z 16
_cell_length_a 10.582981
_cell_length_b 16.032005
_cell_length_c 13.828020
_cell_angle_alpha 146.688377
_cell_angle_beta 125.308752
_cell_angle_gamma 33.905470
_cell_volume 665.604761
_symmetry_space_group_name_H-M "P -1"
_symmetry_group_IT_number 2
_symmetry_cell_setting 'triclinic'
loop_
_space_group_symop_operation_xyz
x,y,z
-x,-y,-z
loop_
_atom_site_type_symbol
_atom_site_label
_atom_site_fract_x
_atom_site_fract_y
_atom_site_fract_z
Si Si1 0.415772 0.033170 0.848568
Si Si2 0.847472 0.664094 0.793564
Si Si3 0.388736 0.550761 0.760966
Si Si4 0.262322 0.598758 0.533902
Si Si5 0.802352 0.154349 0.854381
Si Si6 0.794739 0.028254 0.456761
Si Si7 0.204204 0.505138 0.131641
Si Si8 0.263537 0.473503 0.903817
O O1 0.710300 0.811349 0.776108
O O2 0.322613 0.960382 0.678251
O O3 0.287230 0.124049 0.983996
O O4 0.314912 0.265518 0.986006
O O5 0.774354 0.544185 0.658974
O O6 0.128241 0.479187 0.766555
O O7 0.274472 0.582209 0.640601
O O8 0.585390 0.529249 0.797089
O O9 0.554818 0.300837 0.650802
O O10 0.206688 0.765914 0.964875
O O11 0.500000 0.500000 0.500000
O O12 0.035361 0.875096 0.672228
O O13 0.556159 0.243425 0.817493
O O14 0.794109 0.305868 0.928090
O O15 0.954512 0.767865 0.319289
O O16 0.000000 0.000000 0.500000
O O17 0.166852 0.511883 0.006031
#
# Coordination Sequence:
#
# PCOD9100978 Si02
#       8
#     2   2   2   2   2   2   2   2
#     4  11  22  41  62 109 144 181 225 298 356 401
#     4  11  25  41  68 103 147 181 232 293 356 411
#     4  10  22  44  66 102 136 188 230 286 349 413
#     4  12  26  44  72 109 138 183 237 290 351 422
#     4  10  25  47  73  95 143 186 234 292 352 417
#     4  10  20  37  67  98 138 177 237 280 334 419
#     4  10  21  39  69 100 136 187 230 287 342 416
#     4  10  23  47  70  98 136 192 228 287 358 411
#
# _framework density 24.03829
#
# number of rings (size 3 to 8) (size 9 to 14) (size 15 to 20)
#    0.000    1.500    2.500    1.500    7.000    0.500 
#    9.000    3.125    0.000    0.000    0.000    0.000 
#    0.000    0.000    0.000    0.000    0.000    0.000 
#
# Total GULP energy -89413.901074 kJ/mol
# GULP energy per Si atom -5588.368817 kJ/mol
# Density = 2.398358 g / cm^3
# Si number density = 24.038290 Si / 1000 Ang^3
#
#
#
# Elastic Constant Matrix: (Units=GPa)
#
#
# Indices 1 2 3 4 5 6 
#
# 1 47.2207 42.5374 26.0586 7.1015 7.2362 -8.4976
# 2 42.5374 152.6223 57.5008 0.4576 9.7770 -13.1218
# 3 26.0586 57.5008 114.7754 4.6513 14.7860 -16.5513
# 4 7.1015 0.4576 4.6513 67.4219 0.4915 3.6322
# 5 7.2362 9.7770 14.7860 0.4915 32.6830 -5.2902
# 6 -8.4976 -13.1218 -16.5513 3.6322 -5.2902 33.1342
#
#
#
# Elastic Compliance Matrix: (Units=1/GPa)
#
#
# Indices 1 2 3 4 5 6 
#
# 1 0.030442 -0.007096 -0.002315 -0.003178 -0.002920 0.003723
# 2 -0.007096 0.009789 -0.003304 0.000889 0.000178 0.000338
# 3 -0.002315 -0.003304 0.011860 -0.000721 -0.003275 0.003579
# 4 -0.003178 0.000889 -0.000721 0.015343 0.000131 -0.002484
# 5 -0.002920 0.000178 -0.003275 0.000131 0.033149 0.002964
# 6 0.003723 0.000338 0.003579 -0.002484 0.002964 0.033802
#
#
# Mechanical properties :
#
#
# Convention : Reuss Voigt Hill
#
# Bulk Modulus (GPa) = 37.50485 62.97911 50.24198
# Shear Modulus (GPa) = 29.63797 39.21594 34.42695
#
# Velocity S-wave (km/s) = 3.51515 4.04343 3.78851
# Velocity P-wave (km/s) = 5.66666 6.93221 6.33113
#
# Compressibility (1/GPa) = 0.02666322
#
# Stress axis : x y z
#
# Youngs Moduli (GPa) = 32.84957 102.15177 84.31349
#
# Poissons Ratio (x) = 0.72483 0.19518
# Poissons Ratio (y) = 0.23309 0.27854
# Poissons Ratio (z) = 0.07604 0.33747
#
# Static dielectric constant tensor:
#      x y z
#    x 1.941560 0.016200 -0.044060 
#    y 0.016200 2.013690 -0.010600 
#    z -0.044060 -0.010600 1.912630 
# 
# From -- ./inp_files/523486.got.cif
#   From: 2010.05.17/outbox.cif.g08.bks.cpg/sg2_262_cif.got.tgz:523486.got - 2010.06.03 11:33:40.
