data_PCOD9100369
_publ_section_title
;
Structure prediction by ZEFSAII (Michael W. Deem and Ramdas Pophale) SiO2 
 PCOD9100369
Probable space group: P -1
;
_chemical_formula_sum "Si O2"
_cell_formula_units_Z 16
_cell_length_a 5.501645
_cell_length_b 17.333215
_cell_length_c 12.552117
_cell_angle_alpha 33.274677
_cell_angle_beta 89.690846
_cell_angle_gamma 102.343285
_cell_volume 602.507769
_symmetry_space_group_name_H-M "P -1"
_symmetry_group_IT_number 2
_symmetry_cell_setting 'triclinic'
loop_
_space_group_symop_operation_xyz
x,y,z
-x,-y,-z
loop_
_atom_site_type_symbol
_atom_site_label
_atom_site_fract_x
_atom_site_fract_y
_atom_site_fract_z
Si Si1 0.910799 0.157753 0.085053
Si Si2 0.746792 0.268194 0.683989
Si Si3 0.245256 0.424690 0.661727
Si Si4 0.782502 0.959056 0.666141
Si Si5 0.335333 0.655473 0.999387
Si Si6 0.827094 0.274224 0.291247
Si Si7 0.579869 0.978630 0.879857
Si Si8 0.410388 0.391616 0.230138
O O1 0.939455 0.055644 0.299664
O O2 0.778929 0.274706 0.987528
O O3 0.720862 0.046164 0.125440
O O4 0.196491 0.281974 0.903537
O O5 0.751362 0.423822 0.453502
O O6 0.994253 0.341517 0.679145
O O7 0.745603 0.138297 0.752740
O O8 0.486018 0.165494 0.873455
O O9 0.500000 0.500000 0.500000
O O10 0.600511 0.798503 0.799552
O O11 0.710803 0.972428 0.775246
O O12 0.739217 0.100061 0.455185
O O13 0.137416 0.627308 0.931332
O O14 0.402537 0.508669 0.187127
O O15 0.609848 0.305710 0.327800
O O16 0.099983 0.294921 0.324249
O O17 0.500000 0.500000 0.000000
#
# Coordination Sequence:
#
# PCOD9100369 Si02
#       8
#     2   2   2   2   2   2   2   2
#     4  10  23  38  62  94 134 174 217 282 334 399
#     4   9  19  38  65  84 127 168 217 267 333 401
#     4  10  20  37  63  96 126 168 220 268 332 403
#     4  11  24  39  62  95 135 168 225 275 337 392
#     4  10  23  42  65  91 132 176 224 275 339 399
#     4  11  25  42  71  97 132 183 229 279 333 408
#     4   9  20  40  59  89 125 173 215 276 331 396
#     4  10  23  44  68  95 129 174 232 281 336 396
#
# _framework density 26.555672999999999
#
# number of rings (size 3 to 8) (size 9 to 14) (size 15 to 20)
#    0.000    2.000    0.000    2.625    8.750    3.500 
#    0.000    3.750    0.000    0.000    0.000    0.000 
#    0.000    0.000    0.000    0.000    0.000    0.000 
#
# Total GULP energy -89308.668541 kJ/mol
# GULP energy per Si atom -5581.791784 kJ/mol
# Density = 2.649523 g / cm^3
# Si number density = 26.555673 Si / 1000 Ang^3
#
#
#
# Elastic Constant Matrix: (Units=GPa)
#
#
# Indices 1 2 3 4 5 6 
#
# 1 107.5853 40.4602 57.7349 -23.8197 6.2887 -6.3756
# 2 40.4602 121.0222 26.0613 -35.4147 -4.6973 -4.9702
# 3 57.7349 26.0613 119.4970 -31.6997 12.7614 3.5792
# 4 -23.8197 -35.4147 -31.6997 47.0894 7.5610 -8.1244
# 5 6.2887 -4.6973 12.7614 7.5610 35.3401 -0.7801
# 6 -6.3756 -4.9702 3.5792 -8.1244 -0.7801 43.1504
#
#
#
# Elastic Compliance Matrix: (Units=1/GPa)
#
#
# Indices 1 2 3 4 5 6 
#
# 1 0.014007 -0.002907 -0.005625 0.001731 -0.001163 0.002506
# 2 -0.002907 0.011545 0.001028 0.008323 -0.000048 0.002381
# 3 -0.005625 0.001028 0.013534 0.007832 -0.005435 -0.000459
# 4 0.001731 0.008323 0.007832 0.036447 -0.009668 0.007252
# 5 -0.001163 -0.000048 -0.005435 -0.009668 0.032507 -0.000959
# 6 0.002506 0.002381 -0.000459 0.007252 -0.000959 0.025206
#
#
# Mechanical properties :
#
#
# Convention : Reuss Voigt Hill
#
# Bulk Modulus (GPa) = 41.53179 66.29083 53.91131
# Shear Modulus (GPa) = 31.99422 40.03918 36.01670
#
# Velocity S-wave (km/s) = 3.47479 3.88718 3.68675
# Velocity P-wave (km/s) = 5.63669 6.72042 6.20227
#
# Compressibility (1/GPa) = 0.02407794
#
# Stress axis : x y z
#
# Youngs Moduli (GPa) = 71.39517 86.61906 73.88959
#
# Poissons Ratio (x) = 0.25180 0.41562
# Poissons Ratio (y) = 0.20754 -0.07598
# Poissons Ratio (z) = 0.40159 -0.08907
#
# Static dielectric constant tensor:
#      x y z
#    x 2.259080 0.002220 0.017890 
#    y 0.002220 2.158370 0.055490 
#    z 0.017890 0.055490 2.170380 
# 
# From -- ./inp_files/53671.got.cif
#   From: 2010.05.17/outbox.cif.g08.bks.cpg/sg2_27_cif.got.tgz:53671.got - 2010.06.03 11:33:40.
