data_PCOD9100396
_publ_section_title
;
Structure prediction by ZEFSAII (Michael W. Deem and Ramdas Pophale) SiO2 
 PCOD9100396
Probable space group: P -1
;
_chemical_formula_sum "Si O2"
_cell_formula_units_Z 12
_cell_length_a 7.875487
_cell_length_b 13.850475
_cell_length_c 7.330447
_cell_angle_alpha 82.615289
_cell_angle_beta 86.440851
_cell_angle_gamma 37.660106
_cell_volume 483.444320
_symmetry_space_group_name_H-M "P -1"
_symmetry_group_IT_number 2
_symmetry_cell_setting 'triclinic'
loop_
_space_group_symop_operation_xyz
x,y,z
-x,-y,-z
loop_
_atom_site_type_symbol
_atom_site_label
_atom_site_fract_x
_atom_site_fract_y
_atom_site_fract_z
Si Si1 0.307138 0.453611 0.493527
Si Si2 0.856074 0.164486 0.034961
Si Si3 0.531241 0.452647 0.800628
Si Si4 0.331361 0.078208 0.184516
Si Si5 0.704407 0.688594 0.956100
Si Si6 0.663263 0.762140 0.360469
O O1 0.320495 0.479747 0.697982
O O2 0.458462 0.459877 0.350833
O O3 0.438765 0.286863 0.513634
O O4 0.990259 0.608204 0.414713
O O5 0.805764 0.260621 0.843939
O O6 0.548853 0.267886 0.094069
O O7 0.000000 0.000000 0.000000
O O8 0.049702 0.141688 0.160024
O O9 0.500000 0.500000 0.000000
O O10 0.516359 0.931998 0.348550
O O11 0.281632 0.216299 0.182022
O O12 0.500000 0.000000 0.000000
O O13 0.628778 0.753730 0.151272
O O14 0.000000 0.500000 0.000000
#
# Coordination Sequence:
#
# PCOD9100396 Si02
#       6
#     2   2   2   2   2   2
#     4  10  22  39  68  99 139 183 233 287 361 417
#     4  12  22  39  68 102 138 185 240 287 358 429
#     4  11  24  41  66 103 137 182 237 291 348 428
#     4  10  20  37  63  98 137 184 236 287 351 429
#     4  11  24  38  65 108 142 181 241 297 350 427
#     4  10  20  40  64  95 136 183 233 282 353 429
#
# _framework density 24.821887
#
# number of rings (size 3 to 8) (size 9 to 14) (size 15 to 20)
#    0.000    1.333    5.000    2.000    4.667    0.000 
#    0.000    2.500    0.000   22.000    0.000    0.000 
#    0.000    0.000    0.000    0.000    0.000    0.000 
#
# Total GULP energy -67005.105582 kJ/mol
# GULP energy per Si atom -5583.758799 kJ/mol
# Density = 2.476539 g / cm^3
# Si number density = 24.821887 Si / 1000 Ang^3
#
#
#
# Elastic Constant Matrix: (Units=GPa)
#
#
# Indices 1 2 3 4 5 6 
#
# 1 138.8100 63.9483 36.1205 -15.4033 -12.7183 22.0522
# 2 63.9483 138.0690 45.6844 -45.3277 -30.3874 26.8831
# 3 36.1205 45.6844 113.8153 -20.0664 -7.9749 26.0601
# 4 -15.4033 -45.3277 -20.0664 60.5397 20.4341 -10.6344
# 5 -12.7183 -30.3874 -7.9749 20.4341 47.4963 -15.1272
# 6 22.0522 26.8831 26.0601 -10.6344 -15.1272 47.6963
#
#
#
# Elastic Compliance Matrix: (Units=1/GPa)
#
#
# Indices 1 2 3 4 5 6 
#
# 1 0.009551 -0.004176 -0.001194 -0.001298 -0.000331 -0.001804
# 2 -0.004176 0.013170 -0.002159 0.006576 0.003570 -0.001714
# 3 -0.001194 -0.002159 0.011248 0.001671 -0.002010 -0.004642
# 4 -0.001298 0.006576 0.001671 0.023653 -0.006269 -0.000735
# 5 -0.000331 0.003570 -0.002010 -0.006269 0.027722 0.006633
# 6 -0.001804 -0.001714 -0.004642 -0.000735 0.006633 0.027242
#
#
# Mechanical properties :
#
#
# Convention : Reuss Voigt Hill
#
# Bulk Modulus (GPa) = 52.87807 75.80008 64.33908
# Shear Modulus (GPa) = 37.32806 47.47587 42.40197
#
# Velocity S-wave (km/s) = 3.88214 4.37814 4.13758
# Velocity P-wave (km/s) = 6.43770 7.49409 6.98589
#
# Compressibility (1/GPa) = 0.01891143
#
# Stress axis : x y z
#
# Youngs Moduli (GPa) = 104.70165 75.93135 88.90343
#
# Poissons Ratio (x) = 0.31711 0.10612
# Poissons Ratio (y) = 0.43726 0.19192
# Poissons Ratio (z) = 0.12498 0.16392
#
# Static dielectric constant tensor:
#      x y z
#    x 2.198700 -0.014870 -0.039140 
#    y -0.014870 2.063680 -0.010800 
#    z -0.039140 -0.010800 1.972000 
# 
# From -- ./inp_files/200755.got.cif
#   From: 2010.05.17/outbox.cif.g08.bks.cpg/sg2_101_cif.got.tgz:200755.got - 2010.06.03 11:33:40.
