data_PCOD9100633
_publ_section_title
;
Structure prediction by ZEFSAII (Michael W. Deem and Ramdas Pophale) SiO2 
 PCOD9100633
Probable space group: P -1
;
_chemical_formula_sum "Si O2"
_cell_formula_units_Z 16
_cell_length_a 21.362752
_cell_length_b 12.937058
_cell_length_c 9.138528
_cell_angle_alpha 145.648143
_cell_angle_beta 133.411873
_cell_angle_gamma 28.573696
_cell_volume 674.913004
_symmetry_space_group_name_H-M "P -1"
_symmetry_group_IT_number 2
_symmetry_cell_setting 'triclinic'
loop_
_space_group_symop_operation_xyz
x,y,z
-x,-y,-z
loop_
_atom_site_type_symbol
_atom_site_label
_atom_site_fract_x
_atom_site_fract_y
_atom_site_fract_z
Si Si1 0.427541 0.426909 0.020898
Si Si2 0.948722 0.675983 0.886193
Si Si3 0.733106 0.516011 0.423044
Si Si4 0.974588 0.070254 0.713073
Si Si5 0.863143 0.890673 0.334782
Si Si6 0.482499 0.954474 0.709536
Si Si7 0.319699 0.017250 0.263044
Si Si8 0.603722 0.202200 0.401077
O O1 0.339663 0.481912 0.816758
O O2 0.566517 0.262942 0.977628
O O3 0.456101 0.211702 0.928453
O O4 0.360791 0.715081 0.313693
O O5 0.032134 0.359249 0.673930
O O6 0.815283 0.877196 0.812726
O O7 0.906493 0.793122 0.122453
O O8 0.043201 0.688169 0.999571
O O9 0.883101 0.214659 0.327398
O O10 0.636254 0.661962 0.578565
O O11 0.727099 0.735286 0.619995
O O12 0.859652 0.113786 0.619908
O O13 0.000000 0.000000 0.500000
O O14 0.731508 0.987266 0.255497
O O15 0.392880 0.989906 0.486602
O O16 0.443156 0.916588 0.751852
O O17 0.500000 0.500000 0.500000
#
# Coordination Sequence:
#
# PCOD9100633 Si02
#       8
#     2   2   2   2   2   2   2   2
#     4   9  21  39  60  90 119 155 189 247 296 337
#     4  10  20  37  65  83 111 155 194 249 291 327
#     4   9  18  37  64  90 120 146 200 250 284 335
#     4  10  21  34  59  90 114 150 197 244 287 338
#     4  10  23  41  53  88 121 149 198 238 285 355
#     4   9  22  38  60  92 118 153 193 241 294 349
#     4   9  17  37  65  90 116 146 201 248 288 335
#     4  12  26  40  59  86 124 156 193 235 291 366
#
# _framework density 23.706759999999999
#
# number of rings (size 3 to 8) (size 9 to 14) (size 15 to 20)
#    0.000    2.250    1.250    2.250    7.000    2.500 
#    0.000    1.250    0.000    0.000    0.000    0.000 
#    0.000    0.000    0.000    0.000    0.000    0.000 
#
# Total GULP energy -89360.153125 kJ/mol
# GULP energy per Si atom -5585.009570 kJ/mol
# Density = 2.365280 g / cm^3
# Si number density = 23.706760 Si / 1000 Ang^3
#
#
#
# Elastic Constant Matrix: (Units=GPa)
#
#
# Indices 1 2 3 4 5 6 
#
# 1 99.9604 8.2950 7.8010 7.0528 32.1427 3.6493
# 2 8.2950 66.7947 -19.2312 -9.0140 -1.8174 4.4867
# 3 7.8010 -19.2312 48.6617 -0.7732 25.9430 5.7539
# 4 7.0528 -9.0140 -0.7732 19.4445 -0.8499 8.0836
# 5 32.1427 -1.8174 25.9430 -0.8499 28.6380 -1.4590
# 6 3.6493 4.4867 5.7539 8.0836 -1.4590 20.0237
#
#
#
# Elastic Compliance Matrix: (Units=1/GPa)
#
#
# Indices 1 2 3 4 5 6 
#
# 1 0.027369 0.005667 0.032767 -0.000361 -0.061071 -0.019977
# 2 0.005667 0.027194 0.031524 0.021723 -0.033944 -0.027428
# 3 0.032767 0.031524 0.107904 0.028260 -0.135014 -0.065288
# 4 -0.000361 0.021723 0.028260 0.081481 -0.023821 -0.047552
# 5 -0.061071 -0.033944 -0.135014 -0.023821 0.227175 0.083702
# 6 -0.019977 -0.027428 -0.065288 -0.047552 0.083702 0.103784
#
#
# Mechanical properties :
#
#
# Convention : Reuss Voigt Hill
#
# Bulk Modulus (GPa) = 3.30708 23.23849 13.27278
# Shear Modulus (GPa) = 9.33207 28.19137 18.76172
#
# Velocity S-wave (km/s) = 1.98620 3.45218 2.81625
# Velocity P-wave (km/s) = 2.58032 5.07088 4.02317
#
# Compressibility (1/GPa) = 0.30238179
#
# Stress axis : x y z
#
# Youngs Moduli (GPa) = 36.53772 36.77284 9.26748
#
# Poissons Ratio (x) = -0.20838 -0.30367
# Poissons Ratio (y) = -0.20705 -0.29214
# Poissons Ratio (z) = -1.19723 -1.15921
#
# Static dielectric constant tensor:
#      x y z
#    x 1.936400 0.032730 -0.015690 
#    y 0.032730 1.884540 -0.018310 
#    z -0.015690 -0.018310 1.948870 
# 
# From -- ./inp_files/258027.got.cif
#   From: 2010.05.17/outbox.cif.g08.bks.cpg/sg2_130_cif.got.tgz:258027.got - 2010.06.03 11:33:40.
