data_PCOD9100975
_publ_section_title
;
Structure prediction by ZEFSAII (Michael W. Deem and Ramdas Pophale) SiO2 
 PCOD9100975
Probable space group: P -1
;
_chemical_formula_sum "Si O2"
_cell_formula_units_Z 16
_cell_length_a 13.970065
_cell_length_b 8.163429
_cell_length_c 13.316657
_cell_angle_alpha 60.329418
_cell_angle_beta 45.415963
_cell_angle_gamma 94.816685
_cell_volume 673.749378
_symmetry_space_group_name_H-M "P -1"
_symmetry_group_IT_number 2
_symmetry_cell_setting 'triclinic'
loop_
_space_group_symop_operation_xyz
x,y,z
-x,-y,-z
loop_
_atom_site_type_symbol
_atom_site_label
_atom_site_fract_x
_atom_site_fract_y
_atom_site_fract_z
Si Si1 0.601249 0.410162 0.494668
Si Si2 0.245726 0.347153 0.181709
Si Si3 0.024053 0.327489 0.973597
Si Si4 0.202128 0.201602 0.581399
Si Si5 0.136473 0.950331 0.219445
Si Si6 0.075456 0.688094 0.533866
Si Si7 0.773329 0.110276 0.025266
Si Si8 0.378762 0.154636 0.293813
O O1 0.500000 0.500000 0.500000
O O2 0.766072 0.502559 0.271529
O O3 0.695883 0.570186 0.480843
O O4 0.442364 0.093890 0.718994
O O5 0.048606 0.245123 0.383054
O O6 0.318938 0.278573 0.233508
O O7 0.223603 0.205699 0.140678
O O8 0.403845 0.658667 0.948667
O O9 0.000000 0.500000 0.000000
O O10 0.889417 0.189481 0.016972
O O11 0.951906 0.083928 0.167453
O O12 0.334522 0.185889 0.427915
O O13 0.081584 0.219747 0.592090
O O14 0.153710 0.787839 0.332771
O O15 0.242868 0.053874 0.004069
O O16 0.920450 0.386682 0.771682
O O17 0.242037 0.860631 0.440034
#
# Coordination Sequence:
#
# PCOD9100975 Si02
#       8
#     2   2   2   2   2   2   2   2
#     4  12  26  50  73  99 130 188 243 283 334 420
#     4  10  20  38  66  98 133 173 227 267 333 406
#     4  12  28  46  71 103 140 175 227 300 355 398
#     4  12  21  44  73  94 135 184 229 283 339 410
#     4  11  21  42  69  98 135 183 225 278 337 412
#     4  11  22  41  64  99 142 176 217 280 344 404
#     4  12  26  45  66  98 139 179 227 283 351 403
#     4  10  20  37  67  98 131 173 224 278 327 401
#
# _framework density 23.747703999999999
#
# number of rings (size 3 to 8) (size 9 to 14) (size 15 to 20)
#    0.000    0.750    5.000    3.750    0.000    2.500 
#    0.000    0.625    0.000    0.000    0.000    0.000 
#    0.000    0.000    0.000    0.000    0.000    0.000 
#
# Total GULP energy -89364.853686 kJ/mol
# GULP energy per Si atom -5585.303355 kJ/mol
# Density = 2.369365 g / cm^3
# Si number density = 23.747704 Si / 1000 Ang^3
#
#
#
# Elastic Constant Matrix: (Units=GPa)
#
#
# Indices 1 2 3 4 5 6 
#
# 1 58.9954 21.6404 32.8325 -2.8068 6.7095 8.4774
# 2 21.6404 81.0049 49.3643 3.1953 7.0245 14.9644
# 3 32.8325 49.3643 162.4269 -9.1999 -22.7307 12.0282
# 4 -2.8068 3.1953 -9.1999 51.4185 -1.9124 9.3523
# 5 6.7095 7.0245 -22.7307 -1.9124 37.3484 -1.8952
# 6 8.4774 14.9644 12.0282 9.3523 -1.8952 20.3444
#
#
#
# Elastic Compliance Matrix: (Units=1/GPa)
#
#
# Indices 1 2 3 4 5 6 
#
# 1 0.021619 -0.001438 -0.004256 0.001490 -0.006468 -0.006722
# 2 -0.001438 0.018752 -0.005715 -0.000686 -0.007298 -0.010180
# 3 -0.004256 -0.005715 0.010025 0.002259 0.008044 -0.000239
# 4 0.001490 -0.000686 0.002259 0.022127 0.001788 -0.011457
# 5 -0.006468 -0.007298 0.008044 0.001788 0.034587 0.005708
# 6 -0.006722 -0.010180 -0.000239 -0.011457 0.005708 0.065383
#
#
# Mechanical properties :
#
#
# Convention : Reuss Voigt Hill
#
# Bulk Modulus (GPa) = 36.25966 56.67795 46.46880
# Shear Modulus (GPa) = 24.44951 35.06161 29.75556
#
# Velocity S-wave (km/s) = 3.21215 3.84659 3.54360
# Velocity P-wave (km/s) = 5.39064 6.60658 6.02934
#
# Compressibility (1/GPa) = 0.02757886
#
# Stress axis : x y z
#
# Youngs Moduli (GPa) = 46.25564 53.32703 99.74854
#
# Poissons Ratio (x) = 0.07668 0.42453
# Poissons Ratio (y) = 0.06651 0.57005
# Poissons Ratio (z) = 0.19686 0.30476
#
# Static dielectric constant tensor:
#      x y z
#    x 1.930350 -0.063300 0.029390 
#    y -0.063300 2.015410 -0.018140 
#    z 0.029390 -0.018140 1.929570 
# 
# From -- ./inp_files/447112.got.cif
#   From: 2010.05.17/outbox.cif.g08.bks.cpg/sg2_224_cif.got.tgz:447112.got - 2010.06.03 11:33:40.
