data_PCOD9100568
_publ_section_title
;
Structure prediction by ZEFSAII (Michael W. Deem and Ramdas Pophale) SiO2 
 PCOD9100568
Probable space group: P -1
;
_chemical_formula_sum "Si O2"
_cell_formula_units_Z 16
_cell_length_a 17.964473
_cell_length_b 9.815958
_cell_length_c 20.510299
_cell_angle_alpha 45.668301
_cell_angle_beta 21.476650
_cell_angle_gamma 32.091668
_cell_volume 624.484959
_symmetry_space_group_name_H-M "P -1"
_symmetry_group_IT_number 2
_symmetry_cell_setting 'triclinic'
loop_
_space_group_symop_operation_xyz
x,y,z
-x,-y,-z
loop_
_atom_site_type_symbol
_atom_site_label
_atom_site_fract_x
_atom_site_fract_y
_atom_site_fract_z
Si Si1 0.162382 0.713752 0.173195
Si Si2 0.154010 0.186995 0.472615
Si Si3 0.200742 0.480661 0.087554
Si Si4 0.624287 0.057480 0.303801
Si Si5 0.257821 0.669733 0.352744
Si Si6 0.791558 0.436381 0.433120
Si Si7 0.801235 0.328543 0.218614
Si Si8 0.232993 0.285955 0.809847
O O1 0.170908 0.538584 0.170748
O O2 0.950067 0.842413 0.366656
O O3 0.500000 0.500000 0.000000
O O4 0.029332 0.991511 0.152424
O O5 0.000000 0.500000 0.500000
O O6 0.010635 0.190117 0.525602
O O7 0.521491 0.938737 0.258411
O O8 0.968823 0.796223 0.137000
O O9 0.092038 0.345668 0.199219
O O10 0.537977 0.299819 0.848953
O O11 0.589380 0.751745 0.523977
O O12 0.606913 0.884696 0.330509
O O13 0.500285 0.316819 0.272461
O O14 0.152062 0.735790 0.491938
O O15 0.548846 0.494035 0.567143
O O16 0.825439 0.451421 0.219723
O O17 0.933678 0.365888 0.038963
#
# Coordination Sequence:
#
# PCOD9100568 Si02
#       8
#     2   2   2   2   2   2   2   2
#     4  12  23  39  66  99 134 163 217 277 324 386
#     4  12  22  39  63  96 133 173 214 268 330 388
#     4  12  20  37  62  97 124 166 216 273 320 378
#     4  10  20  37  64  95 124 167 218 273 313 382
#     4  10  21  36  61  94 128 159 218 270 320 377
#     4  10  23  38  65  94 129 168 222 272 319 383
#     4  11  25  44  62 100 132 170 222 267 331 396
#     4  11  24  42  67  94 134 177 210 271 338 386
#
# _framework density 25.621110999999999
#
# number of rings (size 3 to 8) (size 9 to 14) (size 15 to 20)
#    0.750    0.250    3.750    4.500    1.750    0.500 
#    0.000    0.625    0.000    3.000    0.000    0.000 
#    0.000    0.000    0.000    0.000    0.000    0.000 
#
# Total GULP energy -89473.188202 kJ/mol
# GULP energy per Si atom -5592.074263 kJ/mol
# Density = 2.556280 g / cm^3
# Si number density = 25.621111 Si / 1000 Ang^3
#
#
#
# Elastic Constant Matrix: (Units=GPa)
#
#
# Indices 1 2 3 4 5 6 
#
# 1 131.0564 24.4076 44.6613 -10.0583 -17.3284 -1.7693
# 2 24.4076 80.3249 17.9237 -4.9177 -5.8181 5.5390
# 3 44.6613 17.9237 89.1851 -18.8046 -16.5796 6.6457
# 4 -10.0583 -4.9177 -18.8046 36.2422 -0.8763 -6.6808
# 5 -17.3284 -5.8181 -16.5796 -0.8763 45.5521 5.2580
# 6 -1.7693 5.5390 6.6457 -6.6808 5.2580 38.6832
#
#
#
# Elastic Compliance Matrix: (Units=1/GPa)
#
#
# Indices 1 2 3 4 5 6 
#
# 1 0.009691 -0.001952 -0.004098 0.000578 0.001809 0.001281
# 2 -0.001952 0.013553 -0.001433 0.000231 0.000683 -0.001837
# 3 -0.004098 -0.001433 0.015942 0.006646 0.004439 -0.002177
# 4 0.000578 0.000231 0.006646 0.032038 0.002823 0.004001
# 5 0.001809 0.000683 0.004439 0.002823 0.024821 -0.003664
# 6 0.001281 -0.001837 -0.002177 0.004001 -0.003664 0.027736
#
#
# Mechanical properties :
#
#
# Convention : Reuss Voigt Hill
#
# Bulk Modulus (GPa) = 41.29120 52.72797 47.00958
# Shear Modulus (GPa) = 34.05516 38.33377 36.19447
#
# Velocity S-wave (km/s) = 3.64975 3.87224 3.76264
# Velocity P-wave (km/s) = 5.82340 6.37314 6.10446
#
# Compressibility (1/GPa) = 0.02421824
#
# Stress axis : x y z
#
# Youngs Moduli (GPa) = 103.18591 73.78548 62.72909
#
# Poissons Ratio (x) = 0.14405 0.25706
# Poissons Ratio (y) = 0.20145 0.08992
# Poissons Ratio (z) = 0.42285 0.10577
#
# Static dielectric constant tensor:
#      x y z
#    x 1.978540 0.034780 -0.026530 
#    y 0.034780 2.038900 0.012200 
#    z -0.026530 0.012200 2.054090 
# 
# From -- ./inp_files/613691.got.cif
#   From: 2010.05.17/outbox.cif.g08.bks.cpg/sg2_307_cif.got.tgz:613691.got - 2010.06.03 11:33:40.
