data_PCOD9100655
_publ_section_title
;
Structure prediction by ZEFSAII (Michael W. Deem and Ramdas Pophale) SiO2 
 PCOD9100655
Probable space group: P -1
;
_chemical_formula_sum "Si O2"
_cell_formula_units_Z 14
_cell_length_a 10.521851
_cell_length_b 7.092736
_cell_length_c 9.363984
_cell_angle_alpha 62.037969
_cell_angle_beta 60.297754
_cell_angle_gamma 82.404265
_cell_volume 531.555236
_symmetry_space_group_name_H-M "P -1"
_symmetry_group_IT_number 2
_symmetry_cell_setting 'triclinic'
loop_
_space_group_symop_operation_xyz
x,y,z
-x,-y,-z
loop_
_atom_site_type_symbol
_atom_site_label
_atom_site_fract_x
_atom_site_fract_y
_atom_site_fract_z
Si Si1 0.888913 0.109045 0.921341
Si Si2 0.006263 0.743917 0.482238
Si Si3 0.685680 0.768811 0.753289
Si Si4 0.608235 0.608659 0.559208
Si Si5 0.681737 0.519963 0.137826
Si Si6 0.412922 0.964408 0.748314
Si Si7 0.895159 0.508004 0.265962
O O1 0.921605 0.104567 0.736939
O O2 0.944341 0.355594 0.849757
O O3 0.721259 0.014975 0.075635
O O4 0.000000 0.000000 0.000000
O O5 0.851418 0.814260 0.587946
O O6 0.000000 0.500000 0.500000
O O7 0.090670 0.721387 0.591901
O O8 0.626795 0.593434 0.726318
O O9 0.571707 0.944480 0.737692
O O10 0.681936 0.668482 0.947406
O O11 0.453438 0.452805 0.685482
O O12 0.762807 0.576605 0.414023
O O13 0.585458 0.847921 0.435340
O O14 0.645581 0.269699 0.202312
O O15 0.833704 0.539300 0.132852
#
# Coordination Sequence:
#
# PCOD9100655 Si02
#       7
#     2   2   2   2   2   2   2
#     4  11  21  40  66  94 122 165 209 255 303 377
#     4  10  20  37  65  88 124 166 209 251 301 380
#     4  11  21  39  64  94 122 164 213 252 304 372
#     4  11  21  42  64  88 128 168 206 246 308 387
#     4  11  24  37  63  98 125 157 206 268 310 351
#     4  11  23  39  68  92 124 165 210 253 308 371
#     4  11  23  40  63  93 128 159 208 257 315 359
#
# _framework density 26.337810000000001
#
# number of rings (size 3 to 8) (size 9 to 14) (size 15 to 20)
#    0.000    1.143    4.286    5.571    2.000    2.286 
#    0.000    3.571    0.000    6.000    0.000    0.000 
#    0.000    0.000    0.000    0.000    0.000    0.000 
#
# Total GULP energy -78259.797003 kJ/mol
# GULP energy per Si atom -5589.985500 kJ/mol
# Density = 2.627786 g / cm^3
# Si number density = 26.337810 Si / 1000 Ang^3
#
#
#
# Elastic Constant Matrix: (Units=GPa)
#
#
# Indices 1 2 3 4 5 6 
#
# 1 164.8660 35.2815 83.9198 -8.7373 4.2700 -37.6832
# 2 35.2815 72.1708 24.9570 -5.8229 -8.3709 -6.6704
# 3 83.9198 24.9570 210.1138 1.4420 -6.9375 -12.1900
# 4 -8.7373 -5.8229 1.4420 27.4900 -9.4176 -6.1071
# 5 4.2700 -8.3709 -6.9375 -9.4176 63.4996 8.4088
# 6 -37.6832 -6.6704 -12.1900 -6.1071 8.4088 36.7625
#
#
#
# Elastic Compliance Matrix: (Units=1/GPa)
#
#
# Indices 1 2 3 4 5 6 
#
# 1 0.011554 -0.003201 -0.003685 0.004903 -0.002384 0.011400
# 2 -0.003201 0.016165 -0.000608 0.003269 0.002852 -0.000659
# 3 -0.003685 -0.000608 0.006210 -0.001843 0.000882 -0.002337
# 4 0.004903 0.003269 -0.001843 0.042815 0.004790 0.011025
# 5 -0.002384 0.002852 0.000882 0.004790 0.017739 -0.004896
# 6 0.011400 -0.000659 -0.002337 0.011025 -0.004896 0.040944
#
#
# Mechanical properties :
#
#
# Convention : Reuss Voigt Hill
#
# Bulk Modulus (GPa) = 52.79992 81.71857 67.25924
# Shear Modulus (GPa) = 31.90226 45.74990 38.82608
#
# Velocity S-wave (km/s) = 3.48411 4.17231 3.84364
# Velocity P-wave (km/s) = 6.02296 7.36921 6.72984
#
# Compressibility (1/GPa) = 0.01893942
#
# Stress axis : x y z
#
# Youngs Moduli (GPa) = 86.55155 61.86291 161.03862
#
# Poissons Ratio (x) = 0.19802 0.59349
# Poissons Ratio (y) = 0.27705 0.09792
# Poissons Ratio (z) = 0.31897 0.03762
#
# Static dielectric constant tensor:
#      x y z
#    x 2.169910 0.062150 -0.034210 
#    y 0.062150 2.244140 0.071180 
#    z -0.034210 0.071180 2.086070 
# 
# From -- ./inp_files/237026.got.cif
#   From: 2010.05.17/outbox.cif.g08.bks.cpg/sg2_119_cif.got.tgz:237026.got - 2010.06.03 11:33:40.
