data_PCOD9100939
_publ_section_title
;
Structure prediction by ZEFSAII (Michael W. Deem and Ramdas Pophale) SiO2 
 PCOD9100939
Probable space group: P -1
;
_chemical_formula_sum "Si O2"
_cell_formula_units_Z 16
_cell_length_a 10.628015
_cell_length_b 12.072129
_cell_length_c 9.962368
_cell_angle_alpha 53.015643
_cell_angle_beta 130.311440
_cell_angle_gamma 100.877030
_cell_volume 735.185324
_symmetry_space_group_name_H-M "P -1"
_symmetry_group_IT_number 2
_symmetry_cell_setting 'triclinic'
loop_
_space_group_symop_operation_xyz
x,y,z
-x,-y,-z
loop_
_atom_site_type_symbol
_atom_site_label
_atom_site_fract_x
_atom_site_fract_y
_atom_site_fract_z
Si Si1 0.651729 0.788554 0.651410
Si Si2 0.556833 0.103356 0.314625
Si Si3 0.181148 0.103807 0.942805
Si Si4 0.497473 0.412163 0.428032
Si Si5 0.515109 0.397841 0.954486
Si Si6 0.854069 0.604359 0.419902
Si Si7 0.007930 0.575562 0.090258
Si Si8 0.133494 0.799735 0.128674
O O1 0.491551 0.839791 0.608243
O O2 0.603192 0.706015 0.552389
O O3 0.687734 0.937566 0.529036
O O4 0.809181 0.669416 0.922510
O O5 0.373793 0.090952 0.140095
O O6 0.608810 0.228318 0.182557
O O7 0.140687 0.231024 0.711138
O O8 0.031874 0.156844 0.916442
O O9 0.174223 0.945688 0.009780
O O10 0.500000 0.500000 0.500000
O O11 0.411514 0.527547 0.167865
O O12 0.695356 0.312941 0.601129
O O13 0.329460 0.398308 0.764915
O O14 0.500000 0.500000 0.000000
O O15 0.000000 0.500000 0.500000
O O16 0.896973 0.537471 0.646172
O O17 0.096643 0.702443 0.054634
O O18 0.000000 0.500000 0.000000
#
# Coordination Sequence:
#
# PCOD9100939 Si02
#       8
#     2   2   2   2   2   2   2   2
#     4  11  22  38  61  90 127 162 200 254 311 361
#     4  10  20  38  63  93 123 152 205 264 311 352
#     4  10  20  37  67  90 120 154 208 265 304 356
#     4  12  24  40  60  91 129 165 204 248 307 376
#     4  11  22  39  63  94 121 158 208 259 304 360
#     4  11  21  41  62  92 122 160 209 254 306 357
#     4  12  24  41  62  90 127 170 206 245 304 378
#     4  11  21  40  62  93 118 165 209 248 308 366
#
# _framework density 21.763217999999998
#
# number of rings (size 3 to 8) (size 9 to 14) (size 15 to 20)
#    0.000    1.000    6.250    1.500    0.000    0.000 
#    2.250    2.500    0.000    0.000    0.000    0.000 
#    0.000    0.000    0.000    0.000    0.000    0.000 
#
# Total GULP energy -89360.829191 kJ/mol
# GULP energy per Si atom -5585.051824 kJ/mol
# Density = 2.171368 g / cm^3
# Si number density = 21.763218 Si / 1000 Ang^3
#
#
#
# Elastic Constant Matrix: (Units=GPa)
#
#
# Indices 1 2 3 4 5 6 
#
# 1 28.9951 29.2024 14.8388 -8.0670 -4.6423 2.3893
# 2 29.2024 203.1195 75.3444 -6.6943 -35.1129 18.3056
# 3 14.8388 75.3444 114.0953 -15.5930 -25.0158 1.9902
# 4 -8.0670 -6.6943 -15.5930 46.7255 4.9284 -9.2827
# 5 -4.6423 -35.1129 -25.0158 4.9284 29.8221 1.7133
# 6 2.3893 18.3056 1.9902 -9.2827 1.7133 26.1594
#
#
#
# Elastic Compliance Matrix: (Units=1/GPa)
#
#
# Indices 1 2 3 4 5 6 
#
# 1 0.042620 -0.006302 -0.001157 0.007056 -0.003113 0.003313
# 2 -0.006302 0.009084 -0.003877 -0.003280 0.007414 -0.007136
# 3 -0.001157 -0.003877 0.013128 0.003586 0.005517 0.002732
# 4 0.007056 -0.003280 0.003586 0.026008 -0.004681 0.010914
# 5 -0.003113 0.007414 0.005517 -0.004681 0.047760 -0.010113
# 6 0.003313 -0.007136 0.002732 0.010914 -0.010113 0.047245
#
#
# Mechanical properties :
#
#
# Convention : Reuss Voigt Hill
#
# Bulk Modulus (GPa) = 23.72042 64.99791 44.35917
# Shear Modulus (GPa) = 22.46465 35.66304 29.06385
#
# Velocity S-wave (km/s) = 3.21632 4.05246 3.65836
# Velocity P-wave (km/s) = 4.97151 7.19912 6.18641
#
# Compressibility (1/GPa) = 0.04215776
#
# Stress axis : x y z
#
# Youngs Moduli (GPa) = 23.46326 110.07990 76.17463
#
# Poissons Ratio (x) = 0.69377 0.08815
# Poissons Ratio (y) = 0.14787 0.29537
# Poissons Ratio (z) = 0.02715 0.42683
#
# Static dielectric constant tensor:
#      x y z
#    x 1.845750 0.042920 0.034600 
#    y 0.042920 1.831990 -0.008590 
#    z 0.034600 -0.008590 1.835010 
# 
# From -- ./inp_files/262150.got.cif
#   From: 2010.05.17/outbox.cif.g08.bks.cpg/sg2_132_cif.got.tgz:262150.got - 2010.06.03 11:33:40.
