data_PCOD9100986
_publ_section_title
;
Structure prediction by ZEFSAII (Michael W. Deem and Ramdas Pophale) SiO2 
 PCOD9100986
Probable space group: P -1
;
_chemical_formula_sum "Si O2"
_cell_formula_units_Z 16
_cell_length_a 5.176604
_cell_length_b 9.160425
_cell_length_c 20.757937
_cell_angle_alpha 129.864314
_cell_angle_beta 64.946836
_cell_angle_gamma 100.068890
_cell_volume 677.822527
_symmetry_space_group_name_H-M "P -1"
_symmetry_group_IT_number 2
_symmetry_cell_setting 'triclinic'
loop_
_space_group_symop_operation_xyz
x,y,z
-x,-y,-z
loop_
_atom_site_type_symbol
_atom_site_label
_atom_site_fract_x
_atom_site_fract_y
_atom_site_fract_z
Si Si1 0.747846 0.278666 0.298148
Si Si2 0.613884 0.035875 0.140823
Si Si3 0.519909 0.626790 0.843916
Si Si4 0.060018 0.703842 0.025139
Si Si5 0.811188 0.682384 0.426977
Si Si6 0.888599 0.633932 0.260602
Si Si7 0.066842 0.929398 0.222246
Si Si8 0.773660 0.407568 0.541338
O O1 0.814964 0.170976 0.193631
O O2 0.920907 0.451495 0.346486
O O3 0.435830 0.402873 0.358724
O O4 0.825485 0.113919 0.295306
O O5 0.481054 0.170470 0.135499
O O6 0.379016 0.999867 0.209832
O O7 0.800783 0.831613 0.049725
O O8 0.829547 0.519563 0.800332
O O9 0.360680 0.476291 0.775072
O O10 0.329765 0.671627 0.940636
O O11 0.090180 0.820671 0.120351
O O12 0.000000 0.500000 0.000000
O O13 0.482981 0.699235 0.491935
O O14 0.802980 0.733819 0.367093
O O15 0.044720 0.736073 0.467648
O O16 0.986084 0.787902 0.244788
O O17 0.000000 0.500000 0.500000
#
# Coordination Sequence:
#
# PCOD9100986 Si02
#       8
#     2   2   2   2   2   2   2   2
#     4   9  20  36  62  89 123 155 209 246 302 372
#     4  11  23  41  61  90 120 165 219 263 317 365
#     4  12  25  41  63  87 122 166 217 272 316 360
#     4  11  24  41  58  87 124 167 215 271 325 370
#     4  10  20  39  63  94 125 161 202 250 297 377
#     4  12  24  41  64  89 126 168 209 259 312 369
#     4  11  24  38  63  86 125 170 213 262 316 373
#     4  10  20  37  68 101 127 154 199 253 304 362
#
# _framework density 23.604998999999999
#
# number of rings (size 3 to 8) (size 9 to 14) (size 15 to 20)
#    0.750    0.500    2.500    4.500    5.250    1.500 
#    0.000    0.000    0.000    1.500    0.000    0.000 
#    0.000    0.000    0.000    0.000    0.000    0.000 
#
# Total GULP energy -89242.618945 kJ/mol
# GULP energy per Si atom -5577.663684 kJ/mol
# Density = 2.355127 g / cm^3
# Si number density = 23.604999 Si / 1000 Ang^3
#
#
#
# Elastic Constant Matrix: (Units=GPa)
#
#
# Indices 1 2 3 4 5 6 
#
# 1 117.5761 13.3944 -1.6021 -3.4963 -15.3208 -2.9772
# 2 13.3944 123.7661 -0.5766 -23.6362 -6.4452 -1.8005
# 3 -1.6021 -0.5766 42.7257 -24.8583 -5.5404 4.2241
# 4 -3.4963 -23.6362 -24.8583 28.0691 9.6501 1.8372
# 5 -15.3208 -6.4452 -5.5404 9.6501 22.9264 -4.6348
# 6 -2.9772 -1.8005 4.2241 1.8372 -4.6348 24.5337
#
#
#
# Elastic Compliance Matrix: (Units=1/GPa)
#
#
# Indices 1 2 3 4 5 6 
#
# 1 0.009657 -0.001361 -0.001284 -0.004072 0.008107 0.003130
# 2 -0.001361 0.013058 0.015506 0.026885 -0.005816 -0.004989
# 3 -0.001284 0.015506 0.073003 0.085585 -0.019254 -0.021634
# 4 -0.004072 0.026885 0.085585 0.151103 -0.044759 -0.033028
# 5 0.008107 -0.005816 -0.019254 -0.044759 0.065552 0.019608
# 6 0.003130 -0.004989 -0.021634 -0.033028 0.019608 0.050676
#
#
# Mechanical properties :
#
#
# Convention : Reuss Voigt Hill
#
# Bulk Modulus (GPa) = 8.23442 34.05548 21.14495
# Shear Modulus (GPa) = 13.23429 33.29597 23.26513
#
# Velocity S-wave (km/s) = 2.37039 3.75980 3.14284
# Velocity P-wave (km/s) = 3.31476 5.77119 4.70608
#
# Compressibility (1/GPa) = 0.12144149
#
# Stress axis : x y z
#
# Youngs Moduli (GPa) = 103.54858 76.58022 13.69813
#
# Poissons Ratio (x) = 0.10423 0.01758
# Poissons Ratio (y) = 0.14094 -0.21241
# Poissons Ratio (z) = 0.13291 -1.18747
#
# Static dielectric constant tensor:
#      x y z
#    x 1.553260 -0.439080 -0.097790 
#    y -0.439080 1.474460 -0.165460 
#    z -0.097790 -0.165460 1.880610 
# 
# From -- ./inp_files/44212.got.cif
#   From: 2010.05.17/outbox.cif.g08.bks.cpg/sg2_23_cif.got.tgz:44212.got - 2010.06.03 11:33:40.
