data_PCOD9100533
_publ_section_title
;
Structure prediction by ZEFSAII (Michael W. Deem and Ramdas Pophale) SiO2 
 PCOD9100533
Probable space group: P -1
;
_chemical_formula_sum "Si O2"
_cell_formula_units_Z 16
_cell_length_a 12.116854
_cell_length_b 8.407117
_cell_length_c 8.427624
_cell_angle_alpha 86.777782
_cell_angle_beta 126.631232
_cell_angle_gamma 89.549150
_cell_volume 686.934239
_symmetry_space_group_name_H-M "P -1"
_symmetry_group_IT_number 2
_symmetry_cell_setting 'triclinic'
loop_
_space_group_symop_operation_xyz
x,y,z
-x,-y,-z
loop_
_atom_site_type_symbol
_atom_site_label
_atom_site_fract_x
_atom_site_fract_y
_atom_site_fract_z
Si Si1 0.864720 0.753984 0.806974
Si Si2 0.704189 0.079268 0.127163
Si Si3 0.734229 0.581386 0.958353
Si Si4 0.813711 0.584368 0.484215
Si Si5 0.825324 0.087288 0.588591
Si Si6 0.419581 0.264823 0.921294
Si Si7 0.808692 0.243213 0.894925
Si Si8 0.983349 0.692654 0.367548
O O1 0.759450 0.731366 0.859479
O O2 0.838915 0.599795 0.688260
O O3 0.025975 0.749250 0.983416
O O4 0.825487 0.909569 0.664159
O O5 0.766874 0.095884 0.358118
O O6 0.782376 0.127148 0.030061
O O7 0.658717 0.896612 0.093188
O O8 0.570399 0.201632 0.009513
O O9 0.602851 0.618521 0.954063
O O10 0.742505 0.413505 0.886284
O O11 0.871397 0.591567 0.185823
O O12 0.664191 0.643039 0.295679
O O13 0.872730 0.410323 0.495868
O O14 0.918577 0.703867 0.484153
O O15 0.980272 0.145142 0.691509
O O16 0.762225 0.187699 0.681483
#
# Coordination Sequence:
#
# PCOD9100533 Si02
#       8
#     2   2   2   2   2   2   2   2
#     4  12  22  39  64 101 133 169 210 269 339 391
#     4  11  26  47  67  96 129 178 225 271 321 380
#     4  11  23  43  66  95 136 175 209 268 334 388
#     4  10  20  37  64  93 126 174 212 263 331 390
#     4  12  25  40  65 103 133 171 215 273 328 390
#     4  10  24  48  66  89 130 178 225 267 320 389
#     4  12  25  42  68 100 138 167 215 277 322 398
#     4  10  21  37  61  97 132 166 212 265 333 394
#
# _framework density 23.291893999999999
#
# number of rings (size 3 to 8) (size 9 to 14) (size 15 to 20)
#    0.000    1.000    3.750    3.000    7.000    1.500 
#    2.250    2.500    0.000    0.000    0.000    0.000 
#    0.000    0.000    0.000    0.000    0.000    0.000 
#
# Total GULP energy -89317.203670 kJ/mol
# GULP energy per Si atom -5582.325229 kJ/mol
# Density = 2.323888 g / cm^3
# Si number density = 23.291894 Si / 1000 Ang^3
#
#
#
# Elastic Constant Matrix: (Units=GPa)
#
#
# Indices 1 2 3 4 5 6 
#
# 1 62.9665 12.8402 24.7009 3.8033 -21.3767 -0.2274
# 2 12.8402 80.0904 18.5440 4.4154 -6.2727 -3.7454
# 3 24.7009 18.5440 69.6889 0.3659 -24.5308 -6.3434
# 4 3.8033 4.4154 0.3659 36.0999 -10.4264 -10.1681
# 5 -21.3767 -6.2727 -24.5308 -10.4264 37.3636 -11.5823
# 6 -0.2274 -3.7454 -6.3434 -10.1681 -11.5823 35.8373
#
#
#
# Elastic Compliance Matrix: (Units=1/GPa)
#
#
# Indices 1 2 3 4 5 6 
#
# 1 0.021237 -0.001858 -0.002228 0.002882 0.012550 0.004420
# 2 -0.001858 0.013576 -0.003660 -0.002111 -0.001919 -0.000460
# 3 -0.002228 -0.003660 0.025097 0.010789 0.022007 0.014219
# 4 0.002882 -0.002111 0.010789 0.041544 0.026843 0.022170
# 5 0.012550 -0.001919 0.022007 0.026843 0.065671 0.032615
# 6 0.004420 -0.000460 0.014219 0.022170 0.032615 0.047232
#
#
# Mechanical properties :
#
#
# Convention : Reuss Voigt Hill
#
# Bulk Modulus (GPa) = 22.51369 36.10177 29.30773
# Shear Modulus (GPa) = 20.43694 32.30421 26.37057
#
# Velocity S-wave (km/s) = 2.96535 3.72819 3.36844
# Velocity P-wave (km/s) = 4.62723 5.83660 5.26674
#
# Compressibility (1/GPa) = 0.04441742
#
# Stress axis : x y z
#
# Youngs Moduli (GPa) = 47.08799 73.66024 39.84482
#
# Poissons Ratio (x) = 0.13687 0.08878
# Poissons Ratio (y) = 0.08749 0.14583
# Poissons Ratio (z) = 0.10492 0.26960
#
# Static dielectric constant tensor:
#      x y z
#    x 1.928220 0.024450 -0.085550 
#    y 0.024450 1.907010 0.011660 
#    z -0.085550 0.011660 1.951820 
# 
# From -- ./inp_files/174975.got.cif
#   From: 2010.05.17/outbox.cif.g08.bks.cpg/sg2_88_cif.got.tgz:174975.got - 2010.06.03 11:33:40.
