data_PCOD9100941
_publ_section_title
;
Structure prediction by ZEFSAII (Michael W. Deem and Ramdas Pophale) SiO2 
 PCOD9100941
Probable space group: P -1
;
_chemical_formula_sum "Si O2"
_cell_formula_units_Z 14
_cell_length_a 21.385475
_cell_length_b 9.289792
_cell_length_c 19.805826
_cell_angle_alpha 27.752627
_cell_angle_beta 20.840779
_cell_angle_gamma 28.153781
_cell_volume 615.413571
_symmetry_space_group_name_H-M "P -1"
_symmetry_group_IT_number 2
_symmetry_cell_setting 'triclinic'
loop_
_space_group_symop_operation_xyz
x,y,z
-x,-y,-z
loop_
_atom_site_type_symbol
_atom_site_label
_atom_site_fract_x
_atom_site_fract_y
_atom_site_fract_z
Si Si1 0.024559 0.855497 0.413559
Si Si2 0.247773 0.288987 0.072612
Si Si3 0.668925 0.630054 0.297701
Si Si4 0.363574 0.805516 0.277498
Si Si5 0.939951 0.923560 0.849530
Si Si6 0.031432 0.237482 0.755297
Si Si7 0.572021 0.899712 0.544003
O O1 0.051099 0.539030 0.564449
O O2 0.812545 0.093771 0.538075
O O3 0.147586 0.065103 0.230836
O O4 0.075297 0.805041 0.304656
O O5 0.098254 0.628547 0.104757
O O6 0.318113 0.120681 0.144248
O O7 0.438717 0.282226 0.848599
O O8 0.500000 0.500000 0.500000
O O9 0.855795 0.348857 0.252118
O O10 0.578809 0.904025 0.331310
O O11 0.766483 0.788642 0.076148
O O12 0.379188 0.493272 0.344646
O O13 0.945453 0.048051 0.868288
O O14 0.236753 0.038475 0.656003
O O15 0.500000 0.000000 0.500000
#
# Coordination Sequence:
#
# PCOD9100941 Si02
#       7
#     2   2   2   2   2   2   2
#     4  11  21  40  67  96 128 167 207 259 319 378
#     4  10  20  37  67  91 125 166 206 263 317 362
#     4  11  25  46  65  87 132 168 211 267 306 377
#     4  10  20  39  63  93 129 159 211 264 310 369
#     4  11  25  43  65  92 126 173 212 251 326 378
#     4  11  21  43  63  94 136 161 208 274 310 373
#     4  12  23  40  67  90 124 171 211 262 316 370
#
# _framework density 22.748930999999999
#
# number of rings (size 3 to 8) (size 9 to 14) (size 15 to 20)
#    0.000    1.143    4.286    3.000    0.000    2.286 
#    0.000    2.143    0.000    0.000    0.000    0.000 
#    0.000    0.000    0.000    0.000    0.000    0.000 
#
# Total GULP energy -78174.639289 kJ/mol
# GULP energy per Si atom -5583.902806 kJ/mol
# Density = 2.269715 g / cm^3
# Si number density = 22.748931 Si / 1000 Ang^3
#
#
#
# Elastic Constant Matrix: (Units=GPa)
#
#
# Indices 1 2 3 4 5 6 
#
# 1 64.1419 13.3388 44.4813 15.1471 -1.9819 -6.4060
# 2 13.3388 61.8332 21.3978 9.0952 1.2818 -5.2191
# 3 44.4813 21.3978 154.4283 25.1026 -28.0122 -9.3573
# 4 15.1471 9.0952 25.1026 29.4199 -4.9358 -7.3311
# 5 -1.9819 1.2818 -28.0122 -4.9358 19.5822 -4.3545
# 6 -6.4060 -5.2191 -9.3573 -7.3311 -4.3545 17.4239
#
#
#
# Elastic Compliance Matrix: (Units=1/GPa)
#
#
# Indices 1 2 3 4 5 6 
#
# 1 0.021751 -0.001248 -0.006744 -0.006953 -0.009400 -0.001274
# 2 -0.001248 0.018022 -0.002560 -0.003543 -0.005717 0.000645
# 3 -0.006744 -0.002560 0.013062 -0.001618 0.019535 0.007970
# 4 -0.006953 -0.003543 -0.001618 0.046866 0.013144 0.018517
# 5 -0.009400 -0.005717 0.019535 0.013144 0.089113 0.033124
# 6 -0.001274 0.000645 0.007970 0.018517 0.033124 0.077467
#
#
# Mechanical properties :
#
#
# Convention : Reuss Voigt Hill
#
# Bulk Modulus (GPa) = 31.51499 48.75989 40.13744
# Shear Modulus (GPa) = 16.78063 26.69755 21.73909
#
# Velocity S-wave (km/s) = 2.71891 3.42946 3.09465
# Velocity P-wave (km/s) = 4.87238 6.09607 5.51825
#
# Compressibility (1/GPa) = 0.03173093
#
# Stress axis : x y z
#
# Youngs Moduli (GPa) = 45.97410 55.48859 76.55622
#
# Poissons Ratio (x) = 0.06926 0.51633
# Poissons Ratio (y) = 0.05739 0.19595
# Poissons Ratio (z) = 0.31007 0.14203
#
# Static dielectric constant tensor:
#      x y z
#    x 1.838070 -0.019990 0.006570 
#    y -0.019990 1.905560 -0.009790 
#    z 0.006570 -0.009790 1.914620 
# 
# From -- ./inp_files/282515.got.cif
#   From: 2010.05.17/outbox.cif.g08.bks.cpg/sg2_142_cif.got.tgz:282515.got - 2010.06.03 11:33:40.
