data_PCOD9100676
_publ_section_title
;
Structure prediction by ZEFSAII (Michael W. Deem and Ramdas Pophale) SiO2 
 PCOD9100676
Probable space group: P -1
;
_chemical_formula_sum "Si O2"
_cell_formula_units_Z 15
_cell_length_a 11.984421
_cell_length_b 22.932532
_cell_length_c 16.468749
_cell_angle_alpha 16.693137
_cell_angle_beta 139.895205
_cell_angle_gamma 149.022082
_cell_volume 618.640954
_symmetry_space_group_name_H-M "P -1"
_symmetry_group_IT_number 2
_symmetry_cell_setting 'triclinic'
loop_
_space_group_symop_operation_xyz
x,y,z
-x,-y,-z
loop_
_atom_site_type_symbol
_atom_site_label
_atom_site_fract_x
_atom_site_fract_y
_atom_site_fract_z
Si Si1 0.289453 0.208119 0.147233
Si Si2 0.192683 0.874940 0.682618
Si Si3 0.500000 0.500000 0.500000
Si Si4 0.557064 0.403461 0.481619
Si Si5 0.471286 0.802892 0.417983
Si Si6 0.059004 0.208428 0.627716
Si Si7 0.657766 0.363828 0.030737
Si Si8 0.884377 0.150285 0.777833
O O1 0.229419 0.107529 0.339722
O O2 0.363814 0.497799 0.789285
O O3 0.494590 0.225955 0.202979
O O4 0.074698 0.978046 0.275068
O O5 0.919936 0.606596 0.885009
O O6 0.299502 0.985883 0.682283
O O7 0.325197 0.806863 0.794818
O O8 0.482266 0.346218 0.608578
O O9 0.294452 0.507085 0.338999
O O10 0.479963 0.169123 0.688294
O O11 0.450975 0.526580 0.221167
O O12 0.843524 0.630471 0.335887
O O13 0.273155 0.805531 0.329753
O O14 0.895105 0.161807 0.670223
O O15 0.205520 0.142654 0.848265
#
# Coordination Sequence:
#
# PCOD9100676 Si02
#       8
#     2   2   1   2   2   2   2   2
#     4  11  22  41  64  94 130 175 217 270 323 389
#     4  11  24  40  66  95 129 172 225 274 318 389
#     4  10  22  36  62  92 126 164 216 264 316 390
#     4  10  21  40  64  90 127 170 208 269 328 383
#     4  11  23  38  66  96 133 172 210 270 335 392
#     4  10  20  37  65  90 122 171 214 272 313 385
#     4  10  22  42  67  93 125 175 224 271 323 380
#     4  10  20  38  66  91 122 168 217 255 329 393
#
# _framework density 24.246699
#
# number of rings (size 3 to 8) (size 9 to 14) (size 15 to 20)
#    0.000    1.600    2.667    2.800    3.733    2.133 
#    0.000    3.333   11.733    0.000    0.000    0.000 
#    0.000    0.000    0.000    0.000    0.000    0.000 
#
# Total GULP energy -83745.519329 kJ/mol
# GULP energy per Si atom -5583.034622 kJ/mol
# Density = 2.419151 g / cm^3
# Si number density = 24.246699 Si / 1000 Ang^3
#
#
#
# Elastic Constant Matrix: (Units=GPa)
#
#
# Indices 1 2 3 4 5 6 
#
# 1 120.4658 44.5972 31.8056 -4.8201 2.0576 -22.4514
# 2 44.5972 131.4905 26.4319 -26.5806 4.6155 -11.6882
# 3 31.8056 26.4319 45.8398 -0.2798 12.6596 -4.5240
# 4 -4.8201 -26.5806 -0.2798 28.4660 4.7277 4.9080
# 5 2.0576 4.6155 12.6596 4.7277 33.7870 1.6938
# 6 -22.4514 -11.6882 -4.5240 4.9080 1.6938 49.4494
#
#
#
# Elastic Compliance Matrix: (Units=1/GPa)
#
#
# Indices 1 2 3 4 5 6 
#
# 1 0.011766 -0.002653 -0.006848 -0.001643 0.002232 0.004175
# 2 -0.002653 0.011567 -0.004410 0.010493 -0.001241 0.000127
# 3 -0.006848 -0.004410 0.031929 -0.003126 -0.010478 -0.000561
# 4 -0.001643 0.010493 -0.003126 0.046197 -0.006480 -0.002915
# 5 0.002232 -0.001241 -0.010478 -0.006480 0.034503 -0.000777
# 6 0.004175 0.000127 -0.000561 -0.002915 -0.000777 0.022413
#
#
# Mechanical properties :
#
#
# Convention : Reuss Voigt Hill
#
# Bulk Modulus (GPa) = 36.44385 55.94060 46.19222
# Shear Modulus (GPa) = 25.59602 35.33792 30.46697
#
# Velocity S-wave (km/s) = 3.25260 3.82177 3.54862
# Velocity P-wave (km/s) = 5.40083 6.52657 5.99020
#
# Compressibility (1/GPa) = 0.02743947
#
# Stress axis : x y z
#
# Youngs Moduli (GPa) = 84.99317 86.44968 31.31997
#
# Poissons Ratio (x) = 0.22938 0.21448
# Poissons Ratio (y) = 0.22552 0.13811
# Poissons Ratio (z) = 0.58204 0.38121
#
# Static dielectric constant tensor:
#      x y z
#    x 1.985070 0.090460 -0.127040 
#    y 0.090460 2.010880 -0.065850 
#    z -0.127040 -0.065850 2.146050 
# 
# From -- ./inp_files/570924.got.cif
#   From: 2010.05.17/outbox.cif.g08.bks.cpg/sg2_286_cif.got.tgz:570924.got - 2010.06.03 11:33:40.
