data_PCOD9100977
_publ_section_title
;
Structure prediction by ZEFSAII (Michael W. Deem and Ramdas Pophale) SiO2 
 PCOD9100977
Probable space group: P -1
;
_chemical_formula_sum "Si O2"
_cell_formula_units_Z 16
_cell_length_a 7.906099
_cell_length_b 10.531511
_cell_length_c 8.938640
_cell_angle_alpha 81.934148
_cell_angle_beta 81.891956
_cell_angle_gamma 96.600741
_cell_volume 722.605567
_symmetry_space_group_name_H-M "P -1"
_symmetry_group_IT_number 2
_symmetry_cell_setting 'triclinic'
loop_
_space_group_symop_operation_xyz
x,y,z
-x,-y,-z
loop_
_atom_site_type_symbol
_atom_site_label
_atom_site_fract_x
_atom_site_fract_y
_atom_site_fract_z
Si Si1 0.658628 0.709233 0.333675
Si Si2 0.103114 0.358938 0.135627
Si Si3 0.044130 0.461478 0.666408
Si Si4 0.119358 0.135060 0.973190
Si Si5 0.309953 0.726529 0.208297
Si Si6 0.386131 0.021919 0.155976
Si Si7 0.403445 0.253443 0.318313
Si Si8 0.641114 0.416458 0.061476
O O1 0.772616 0.816176 0.196002
O O2 0.468348 0.678297 0.288829
O O3 0.636901 0.751007 0.500401
O O4 0.776165 0.594474 0.337669
O O5 0.032612 0.249094 0.043465
O O6 0.192665 0.478521 0.003948
O O7 0.032718 0.584685 0.752181
O O8 0.244757 0.309350 0.239939
O O9 0.879106 0.353128 0.739063
O O10 0.000000 0.500000 0.500000
O O11 0.252770 0.104317 0.085365
O O12 0.000000 0.000000 0.000000
O O13 0.310351 0.875146 0.230769
O O14 0.356254 0.703519 0.033246
O O15 0.443180 0.113519 0.274787
O O16 0.500000 0.000000 0.000000
O O17 0.568828 0.356126 0.235420
O O18 0.500000 0.500000 0.000000
#
# Coordination Sequence:
#
# PCOD9100977 Si02
#       8
#     2   2   2   2   2   2   2   2
#     4  12  24  42  69 105 135 172 231 283 333 401
#     4   9  20  43  67  89 135 185 219 270 342 406
#     4  11  24  46  66  98 144 176 217 281 350 395
#     4  11  24  45  68  98 132 177 232 280 327 404
#     4  11  23  43  70  96 130 183 227 278 328 403
#     4  11  20  43  69  90 132 179 225 269 337 403
#     4  10  20  37  67  98 135 175 219 284 337 394
#     4   9  17  36  64  94 125 175 222 261 336 397
#
# _framework density 22.142095999999999
#
# number of rings (size 3 to 8) (size 9 to 14) (size 15 to 20)
#    0.000    1.500    3.750    2.250    0.000    1.500 
#    4.500    3.125    0.000    0.000    0.000    0.000 
#    0.000    0.000    0.000    0.000    0.000    0.000 
#
# Total GULP energy -89302.133958 kJ/mol
# GULP energy per Si atom -5581.383372 kJ/mol
# Density = 2.209170 g / cm^3
# Si number density = 22.142096 Si / 1000 Ang^3
#
#
#
# Elastic Constant Matrix: (Units=GPa)
#
#
# Indices 1 2 3 4 5 6 
#
# 1 72.2315 32.7794 51.3842 11.5242 2.7586 -22.0537
# 2 32.7794 162.0755 63.2489 27.1775 -18.3666 -7.0208
# 3 51.3842 63.2489 112.5072 22.6366 -3.6529 3.9360
# 4 11.5242 27.1775 22.6366 33.4821 -13.1415 -1.2525
# 5 2.7586 -18.3666 -3.6529 -13.1415 28.5458 -2.1992
# 6 -22.0537 -7.0208 3.9360 -1.2525 -2.1992 28.2951
#
#
#
# Elastic Compliance Matrix: (Units=1/GPa)
#
#
# Indices 1 2 3 4 5 6 
#
# 1 0.035419 0.000792 -0.017539 -0.001191 -0.003400 0.029925
# 2 0.000792 0.008978 -0.004913 -0.002434 0.004240 0.003750
# 3 -0.017539 -0.004913 0.021493 -0.006404 -0.003082 -0.018402
# 4 -0.001191 -0.002434 -0.006404 0.043786 0.018095 0.002703
# 5 -0.003400 0.004240 -0.003082 0.018095 0.046272 0.003228
# 6 0.029925 0.003750 -0.018402 0.002703 0.003228 0.062527
#
#
# Mechanical properties :
#
#
# Convention : Reuss Voigt Hill
#
# Bulk Modulus (GPa) = 44.30745 71.29326 57.80035
# Shear Modulus (GPa) = 18.56537 31.35803 24.96170
#
# Velocity S-wave (km/s) = 2.89877 3.76735 3.36123
# Velocity P-wave (km/s) = 5.59086 7.15485 6.42065
#
# Compressibility (1/GPa) = 0.02256957
#
# Stress axis : x y z
#
# Youngs Moduli (GPa) = 28.23355 111.38311 46.52683
#
# Poissons Ratio (x) = -0.08820 0.81605
# Poissons Ratio (y) = -0.02236 0.22857
# Poissons Ratio (z) = 0.49520 0.54719
#
# Static dielectric constant tensor:
#      x y z
#    x 1.870680 -0.005830 -0.019220 
#    y -0.005830 1.931390 0.024060 
#    z -0.019220 0.024060 1.826780 
# 
# From -- ./inp_files/177823.got.cif
#   From: 2010.05.17/outbox.cif.g08.bks.cpg/sg2_89_cif.got.tgz:177823.got - 2010.06.03 11:33:40.
