data_PCOD9100806
_publ_section_title
;
Structure prediction by ZEFSAII (Michael W. Deem and Ramdas Pophale) SiO2 
 PCOD9100806
Probable space group: P -1
;
_chemical_formula_sum "Si O2"
_cell_formula_units_Z 16
_cell_length_a 11.899360
_cell_length_b 12.958310
_cell_length_c 9.520731
_cell_angle_alpha 79.288170
_cell_angle_beta 134.734995
_cell_angle_gamma 125.891070
_cell_volume 776.514882
_symmetry_space_group_name_H-M "P -1"
_symmetry_group_IT_number 2
_symmetry_cell_setting 'triclinic'
loop_
_space_group_symop_operation_xyz
x,y,z
-x,-y,-z
loop_
_atom_site_type_symbol
_atom_site_label
_atom_site_fract_x
_atom_site_fract_y
_atom_site_fract_z
Si Si1 0.472103 0.583960 0.344332
Si Si2 0.187101 0.581183 0.535267
Si Si3 0.853048 0.675181 0.489712
Si Si4 0.264382 0.148009 0.339932
Si Si5 0.906465 0.170629 0.062110
Si Si6 0.016259 0.083464 0.631002
Si Si7 0.368390 0.134978 0.114831
Si Si8 0.002032 0.406383 0.914419
O O1 0.500000 0.500000 0.500000
O O2 0.653475 0.654925 0.370938
O O3 0.524242 0.710379 0.447758
O O4 0.247150 0.483511 0.101960
O O5 0.229469 0.476472 0.573014
O O6 0.393303 0.730167 0.728626
O O7 0.000000 0.500000 0.500000
O O8 0.101628 0.598531 0.316133
O O9 0.963427 0.788450 0.435405
O O10 0.011263 0.742510 0.743465
O O11 0.303660 0.127426 0.222242
O O12 0.088410 0.164957 0.181501
O O13 0.170928 0.023212 0.398581
O O14 0.889676 0.254617 0.913372
O O15 0.698286 0.013185 0.938307
O O16 0.223167 0.141646 0.884105
O O17 0.000000 0.000000 0.500000
O O18 0.000000 0.500000 0.000000
#
# Coordination Sequence:
#
# PCOD9100806 Si02
#       8
#     2   2   2   2   2   2   2   2
#     4  11  19  37  71  98 126 173 229 266 319 391
#     4  12  30  46  60  98 144 173 215 279 336 388
#     4  11  22  44  67  99 129 172 225 274 324 398
#     4  10  20  37  66 108 132 159 217 286 327 374
#     4  10  20  39  72  96 129 168 224 267 317 402
#     4  11  20  38  70 101 131 167 218 280 329 378
#     4  11  24  43  65  98 138 169 216 278 332 389
#     4  12  23  42  69  95 134 182 220 264 324 400
#
# _framework density 20.604886
#
# number of rings (size 3 to 8) (size 9 to 14) (size 15 to 20)
#    0.000    1.000    7.500    3.000    1.750    3.000 
#    0.000    1.875    0.000    0.000    0.000    0.000 
#    0.000    0.000    0.000    0.000    0.000    0.000 
#
# Total GULP energy -89442.186859 kJ/mol
# GULP energy per Si atom -5590.136679 kJ/mol
# Density = 2.055799 g / cm^3
# Si number density = 20.604886 Si / 1000 Ang^3
#
#
#
# Elastic Constant Matrix: (Units=GPa)
#
#
# Indices 1 2 3 4 5 6 
#
# 1 30.1790 0.1082 -0.2198 5.5005 -3.2300 16.1196
# 2 0.1082 142.0714 38.9358 3.9884 10.1185 13.7281
# 3 -0.2198 38.9358 89.3725 16.2600 2.8124 15.0799
# 4 5.5005 3.9884 16.2600 51.1430 2.6032 -3.0534
# 5 -3.2300 10.1185 2.8124 2.6032 13.9551 -2.9866
# 6 16.1196 13.7281 15.0799 -3.0534 -2.9866 29.7069
#
#
#
# Elastic Compliance Matrix: (Units=1/GPa)
#
#
# Indices 1 2 3 4 5 6 
#
# 1 0.053669 0.001253 0.007035 -0.010372 0.004784 -0.033857
# 2 0.001253 0.008656 -0.002977 0.000229 -0.006236 -0.003772
# 3 0.007035 -0.002977 0.015478 -0.006073 -0.000549 -0.010978
# 4 -0.010372 0.000229 -0.006073 0.023392 -0.003424 0.010665
# 5 0.004784 -0.006236 -0.000549 -0.003424 0.079799 0.008235
# 6 -0.033857 -0.003772 -0.010978 0.010665 0.008235 0.061274
#
#
# Mechanical properties :
#
#
# Convention : Reuss Voigt Hill
#
# Bulk Modulus (GPa) = 11.30895 37.69683 24.50289
# Shear Modulus (GPa) = 19.14827 33.81425 26.48126
#
# Velocity S-wave (km/s) = 3.05176 4.05542 3.58885
# Velocity P-wave (km/s) = 4.23297 6.34534 5.39358
#
# Compressibility (1/GPa) = 0.08842557
#
# Stress axis : x y z
#
# Youngs Moduli (GPa) = 18.63274 115.52960 64.60862
#
# Poissons Ratio (x) = -0.14476 -0.45454
# Poissons Ratio (y) = -0.02335 0.19233
# Poissons Ratio (z) = -0.13109 0.34391
#
# Static dielectric constant tensor:
#      x y z
#    x 1.860040 -0.041920 -0.030460 
#    y -0.041920 1.771690 0.031710 
#    z -0.030460 0.031710 1.728850 
# 
# From -- ./inp_files/273008.got.cif
#   From: 2010.05.17/outbox.cif.g08.bks.cpg/sg2_137_cif.got.tgz:273008.got - 2010.06.03 11:33:40.
