data_PCOD9100392
_publ_section_title
;
Structure prediction by ZEFSAII (Michael W. Deem and Ramdas Pophale) SiO2 
 PCOD9100392
Probable space group: P -1
;
_chemical_formula_sum "Si O2"
_cell_formula_units_Z 16
_cell_length_a 17.555834
_cell_length_b 11.518331
_cell_length_c 8.367661
_cell_angle_alpha 118.302850
_cell_angle_beta 129.010046
_cell_angle_gamma 32.181342
_cell_volume 693.197280
_symmetry_space_group_name_H-M "P -1"
_symmetry_group_IT_number 2
_symmetry_cell_setting 'triclinic'
loop_
_space_group_symop_operation_xyz
x,y,z
-x,-y,-z
loop_
_atom_site_type_symbol
_atom_site_label
_atom_site_fract_x
_atom_site_fract_y
_atom_site_fract_z
Si Si1 0.232620 0.265495 0.430755
Si Si2 0.923768 0.760289 0.375737
Si Si3 0.598125 0.527444 0.601492
Si Si4 0.309464 0.691759 0.852706
Si Si5 0.878214 0.089565 0.543936
Si Si6 0.208689 0.063010 0.028756
Si Si7 0.421463 0.316307 0.661145
Si Si8 0.424940 0.957975 0.781812
O O1 0.167900 0.213584 0.206726
O O2 0.329435 0.279632 0.479494
O O3 0.365703 0.068434 0.601210
O O4 0.074163 0.506158 0.452486
O O5 0.747069 0.895847 0.272933
O O6 0.937814 0.888435 0.560649
O O7 0.911006 0.789970 0.184530
O O8 0.500000 0.500000 0.500000
O O9 0.792403 0.283730 0.677465
O O10 0.545982 0.641006 0.433006
O O11 0.546495 0.701915 0.764075
O O12 0.275239 0.782065 0.688368
O O13 0.294557 0.549899 0.739862
O O14 0.500000 0.500000 0.000000
O O15 0.211356 0.902392 0.967983
O O16 0.000000 0.000000 0.500000
O O17 0.405162 0.882893 0.148180
O O18 0.500000 0.000000 0.000000
#
# Coordination Sequence:
#
# PCOD9100392 Si02
#       8
#     2   2   2   2   2   2   2   2
#     4  12  24  42  66  98 137 176 222 281 339 401
#     4  11  23  41  66  97 139 177 217 278 348 401
#     4  11  22  43  71  96 131 183 228 276 338 405
#     4   8  17  33  56  91 125 161 206 271 322 375
#     4  10  20  39  67  99 129 167 224 281 331 387
#     4  10  20  37  63  98 128 170 225 273 327 403
#     4  10  20  38  66  98 127 168 228 279 328 396
#     4  12  27  46  67  96 138 183 229 275 337 409
#
# _framework density 23.081451999999999
#
# number of rings (size 3 to 8) (size 9 to 14) (size 15 to 20)
#    0.000    1.500    2.500    3.375    1.750    0.000 
#    6.750    0.000    0.000    0.750    0.000    0.000 
#    0.000    0.000    0.000    0.000    0.000    0.000 
#
# Total GULP energy -89137.746043 kJ/mol
# GULP energy per Si atom -5571.109128 kJ/mol
# Density = 2.302892 g / cm^3
# Si number density = 23.081452 Si / 1000 Ang^3
#
#
#
# Elastic Constant Matrix: (Units=GPa)
#
#
# Indices 1 2 3 4 5 6 
#
# 1 90.1420 41.3136 1.8527 9.2538 5.7238 -5.5669
# 2 41.3136 198.3508 22.8685 40.1765 14.1358 -4.6833
# 3 1.8527 22.8685 43.1630 16.1293 2.0515 8.0144
# 4 9.2538 40.1765 16.1293 42.3900 6.7654 8.5439
# 5 5.7238 14.1358 2.0515 6.7654 13.2499 -4.7301
# 6 -5.5669 -4.6833 8.0144 8.5439 -4.7301 32.7682
#
#
#
# Elastic Compliance Matrix: (Units=1/GPa)
#
#
# Indices 1 2 3 4 5 6 
#
# 1 0.012456 -0.002350 0.000823 -0.000772 -0.002079 0.001480
# 2 -0.002350 0.007104 -0.001871 -0.005503 -0.002709 0.002118
# 3 0.000823 -0.001871 0.028060 -0.008025 -0.000374 -0.004952
# 4 -0.000772 -0.005503 -0.008025 0.036577 -0.015036 -0.010662
# 5 -0.002079 -0.002709 -0.000374 -0.015036 0.092953 0.016689
# 6 0.001480 0.002118 -0.004952 -0.010662 0.016689 0.037472
#
#
# Mechanical properties :
#
#
# Convention : Reuss Voigt Hill
#
# Bulk Modulus (GPa) = 24.49548 51.52506 38.01027
# Shear Modulus (GPa) = 21.27407 35.38969 28.33188
#
# Velocity S-wave (km/s) = 3.03924 3.91992 3.50733
# Velocity P-wave (km/s) = 4.79078 6.54671 5.73633
#
# Compressibility (1/GPa) = 0.04082386
#
# Stress axis : x y z
#
# Youngs Moduli (GPa) = 80.28039 140.75645 35.63769
#
# Poissons Ratio (x) = 0.33077 -0.02932
# Poissons Ratio (y) = 0.18865 0.06669
# Poissons Ratio (z) = -0.06604 0.26340
#
# Static dielectric constant tensor:
#      x y z
#    x 1.947720 0.001650 0.021650 
#    y 0.001650 1.992540 0.058000 
#    z 0.021650 0.058000 1.940860 
# 
# From -- ./inp_files/346286.got.cif
#   From: 2010.05.17/outbox.cif.g08.bks.cpg/sg2_174_cif.got.tgz:346286.got - 2010.06.03 11:33:40.
