data_PCOD9100144
_publ_section_title
;
Structure prediction by ZEFSAII (Michael W. Deem and Ramdas Pophale) SiO2 
 PCOD9100144
Probable space group: P -1
;
_chemical_formula_sum "Si O2"
_cell_formula_units_Z 16
_cell_length_a 11.395963
_cell_length_b 8.757830
_cell_length_c 10.456379
_cell_angle_alpha 66.324015
_cell_angle_beta 51.216023
_cell_angle_gamma 60.571750
_cell_volume 701.732318
_symmetry_space_group_name_H-M "P -1"
_symmetry_group_IT_number 2
_symmetry_cell_setting 'triclinic'
loop_
_space_group_symop_operation_xyz
x,y,z
-x,-y,-z
loop_
_atom_site_type_symbol
_atom_site_label
_atom_site_fract_x
_atom_site_fract_y
_atom_site_fract_z
Si Si1 0.456147 0.823839 0.249264
Si Si2 0.878513 0.914770 0.546504
Si Si3 0.820536 0.768350 0.374794
Si Si4 0.366552 0.387425 0.261053
Si Si5 0.879896 0.548811 0.785520
Si Si6 0.393507 0.887505 0.979889
Si Si7 0.187292 0.913650 0.878811
Si Si8 0.350116 0.529426 0.832035
O O1 0.554587 0.620327 0.283935
O O2 0.298711 0.936816 0.394637
O O3 0.585470 0.923200 0.115429
O O4 0.383889 0.842854 0.148021
O O5 0.907089 0.834994 0.410506
O O6 0.884065 0.744402 0.687011
O O7 0.000000 0.000000 0.500000
O O8 0.684818 0.705044 0.552907
O O9 0.946955 0.600433 0.275931
O O10 0.753809 0.935106 0.272000
O O11 0.205983 0.504181 0.262113
O O12 0.444732 0.243855 0.147338
O O13 0.502529 0.464425 0.181327
O O14 0.773487 0.540433 0.982729
O O15 0.259003 0.866759 0.986832
O O16 0.249898 0.736442 0.809363
O O17 0.000000 0.000000 0.000000
#
# Coordination Sequence:
#
# PCOD9100144 Si02
#       8
#     2   2   2   2   2   2   2   2
#     4  11  21  41  63  96 131 157 215 269 324 378
#     4  11  25  39  65  99 134 171 203 269 337 373
#     4  11  24  43  63  90 139 163 220 261 317 389
#     4  10  20  37  62  98 117 166 216 271 318 354
#     4  11  20  40  63  96 126 162 223 266 315 373
#     4  10  21  39  65  89 127 167 211 267 316 375
#     4  11  25  43  64  94 126 178 221 257 317 386
#     4  11  23  36  69  94 124 166 221 266 313 379
#
# _framework density 22.800715
#
# number of rings (size 3 to 8) (size 9 to 14) (size 15 to 20)
#    0.000    1.250    5.000    2.625    7.000    2.000 
#    0.000    2.500    0.000    0.000    0.000    0.000 
#    0.000    0.000    0.000    0.000    0.000    0.000 
#
# Total GULP energy -89308.871513 kJ/mol
# GULP energy per Si atom -5581.804470 kJ/mol
# Density = 2.274882 g / cm^3
# Si number density = 22.800715 Si / 1000 Ang^3
#
#
#
# Elastic Constant Matrix: (Units=GPa)
#
#
# Indices 1 2 3 4 5 6 
#
# 1 32.6699 7.0397 4.9243 -2.9881 -12.1837 4.0162
# 2 7.0397 160.7826 29.7197 15.4102 -14.0615 -15.5243
# 3 4.9243 29.7197 70.9241 2.2018 -7.6390 -7.8035
# 4 -2.9881 15.4102 2.2018 37.7312 -4.8066 -2.9547
# 5 -12.1837 -14.0615 -7.6390 -4.8066 17.4431 2.4368
# 6 4.0162 -15.5243 -7.8035 -2.9547 2.4368 24.7899
#
#
#
# Elastic Compliance Matrix: (Units=1/GPa)
#
#
# Indices 1 2 3 4 5 6 
#
# 1 0.045767 -0.000589 -0.000572 0.007507 0.034776 -0.010487
# 2 -0.000589 0.007530 -0.002279 -0.002264 0.003551 0.003474
# 3 -0.000572 -0.002279 0.015920 0.000789 0.004487 0.003330
# 4 0.007507 -0.002264 0.000789 0.029489 0.011895 -0.000041
# 5 0.034776 0.003551 0.004487 0.011895 0.091057 -0.009531
# 6 -0.010487 0.003474 0.003330 -0.000041 -0.009531 0.046194
#
#
# Mechanical properties :
#
#
# Convention : Reuss Voigt Hill
#
# Bulk Modulus (GPa) = 16.04211 38.63823 27.34017
# Shear Modulus (GPa) = 18.96701 30.83902 24.90302
#
# Velocity S-wave (km/s) = 2.88733 3.68169 3.30844
# Velocity P-wave (km/s) = 4.26223 5.92081 5.15861
#
# Compressibility (1/GPa) = 0.06233594
#
# Stress axis : x y z
#
# Youngs Moduli (GPa) = 21.84962 132.80659 62.81592
#
# Poissons Ratio (x) = 0.07820 0.03594
# Poissons Ratio (y) = 0.01287 0.14318
# Poissons Ratio (z) = 0.01250 0.30271
#
# Static dielectric constant tensor:
#      x y z
#    x 1.859930 -0.003200 0.013320 
#    y -0.003200 1.921010 0.001830 
#    z 0.013320 0.001830 1.857040 
# 
# From -- ./inp_files/416791.got.cif
#   From: 2010.05.17/outbox.cif.g08.bks.cpg/sg2_209_cif.got.tgz:416791.got - 2010.06.03 11:33:40.
