data_PCOD9100989
_publ_section_title
;
Structure prediction by ZEFSAII (Michael W. Deem and Ramdas Pophale) SiO2 
 PCOD9100989
Probable space group: P -1
;
_chemical_formula_sum "Si O2"
_cell_formula_units_Z 14
_cell_length_a 5.779257
_cell_length_b 14.863102
_cell_length_c 14.602755
_cell_angle_alpha 33.379114
_cell_angle_beta 106.920072
_cell_angle_gamma 94.649799
_cell_volume 628.202092
_symmetry_space_group_name_H-M "P -1"
_symmetry_group_IT_number 2
_symmetry_cell_setting 'triclinic'
loop_
_space_group_symop_operation_xyz
x,y,z
-x,-y,-z
loop_
_atom_site_type_symbol
_atom_site_label
_atom_site_fract_x
_atom_site_fract_y
_atom_site_fract_z
Si Si1 0.826790 0.859564 0.845194
Si Si2 0.751316 0.998732 0.168694
Si Si3 0.674064 0.802770 0.485851
Si Si4 0.731854 0.682999 0.145192
Si Si5 0.805012 0.898708 0.602759
Si Si6 0.998095 0.179386 0.805714
Si Si7 0.470309 0.571510 0.540790
O O1 0.897434 0.824698 0.776617
O O2 0.054837 0.890835 0.903500
O O3 0.594396 0.040282 0.668897
O O4 0.766646 0.701043 0.025250
O O5 0.823924 0.895381 0.358888
O O6 0.775423 0.864371 0.204323
O O7 0.473377 0.130584 0.019977
O O8 0.791866 0.770907 0.627134
O O9 0.665403 0.638603 0.565886
O O10 0.974630 0.687566 0.228482
O O11 0.625586 0.546494 0.299207
O O12 0.500000 0.000000 0.500000
O O13 0.000000 0.000000 0.500000
O O14 0.754549 0.253363 0.652619
O O15 0.000000 0.000000 0.000000
O O16 0.500000 0.500000 0.500000
#
# Coordination Sequence:
#
# PCOD9100989 Si02
#       7
#     2   2   2   2   2   2   2
#     4  10  20  39  63  93 120 163 215 269 321 381
#     4  11  19  38  63  86 122 160 216 260 319 375
#     4  10  21  39  63  92 123 164 214 268 320 385
#     4  11  24  37  58  91 129 168 206 268 324 394
#     4  10  20  37  68 102 126 162 224 286 327 377
#     4  12  21  39  62  86 120 164 219 263 314 380
#     4  12  25  41  58  92 132 171 210 258 330 398
#
# _framework density 22.285822
#
# number of rings (size 3 to 8) (size 9 to 14) (size 15 to 20)
#    0.000    1.143    4.286    3.429    0.000    0.000 
#    0.000    0.714    0.000    0.857    0.000    0.000 
#    0.000    0.000    0.000    0.000    0.000    0.000 
#
# Total GULP energy -77960.978768 kJ/mol
# GULP energy per Si atom -5568.641341 kJ/mol
# Density = 2.223510 g / cm^3
# Si number density = 22.285822 Si / 1000 Ang^3
#
#
#
# Elastic Constant Matrix: (Units=GPa)
#
#
# Indices 1 2 3 4 5 6 
#
# 1 61.5451 27.6424 17.0998 9.2955 -24.2860 -3.5202
# 2 27.6424 153.4379 53.0067 28.4269 -27.8927 -8.6689
# 3 17.0998 53.0067 79.7296 18.2575 -31.8730 -13.9427
# 4 9.2955 28.4269 18.2575 34.3747 -4.5831 -10.2458
# 5 -24.2860 -27.8927 -31.8730 -4.5831 41.6204 7.1728
# 6 -3.5202 -8.6689 -13.9427 -10.2458 7.1728 33.5821
#
#
#
# Elastic Compliance Matrix: (Units=1/GPa)
#
#
# Indices 1 2 3 4 5 6 
#
# 1 0.022249 -0.001653 0.002572 -0.004603 0.013567 -0.001329
# 2 -0.001653 0.009538 -0.004302 -0.005368 0.001804 -0.001520
# 3 0.002572 -0.004302 0.022810 -0.006216 0.014785 0.003575
# 4 -0.004603 -0.005368 -0.006216 0.039792 -0.008293 0.009462
# 5 0.013567 0.001804 0.014785 -0.008293 0.044243 -0.003954
# 6 -0.001329 -0.001520 0.003575 0.009462 -0.003954 0.034462
#
#
# Mechanical properties :
#
#
# Convention : Reuss Voigt Hill
#
# Bulk Modulus (GPa) = 20.90679 54.46783 37.68731
# Shear Modulus (GPa) = 25.53608 35.04634 30.29121
#
# Velocity S-wave (km/s) = 3.38870 3.96988 3.69075
# Velocity P-wave (km/s) = 4.97118 6.74588 5.92535
#
# Compressibility (1/GPa) = 0.04783135
#
# Stress axis : x y z
#
# Youngs Moduli (GPa) = 44.94673 104.84571 43.84028
#
# Poissons Ratio (x) = 0.17330 -0.11277
# Poissons Ratio (y) = 0.07429 0.18860
# Poissons Ratio (z) = -0.11562 0.45105
#
# Static dielectric constant tensor:
#      x y z
#    x 2.033220 -0.074470 -0.028010 
#    y -0.074470 1.842880 0.020300 
#    z -0.028010 0.020300 1.828620 
# 
# From -- ./inp_files/34665.got.cif
#   From: 2010.05.17/outbox.cif.g08.bks.cpg/sg2_18_cif.got.tgz:34665.got - 2010.06.03 11:33:40.
