data_PCOD9100538
_publ_section_title
;
Structure prediction by ZEFSAII (Michael W. Deem and Ramdas Pophale) SiO2 
 PCOD9100538
Probable space group: P -1
;
_chemical_formula_sum "Si O2"
_cell_formula_units_Z 16
_cell_length_a 16.277896
_cell_length_b 5.656570
_cell_length_c 13.470411
_cell_angle_alpha 91.600045
_cell_angle_beta 140.278674
_cell_angle_gamma 111.659326
_cell_volume 626.981316
_symmetry_space_group_name_H-M "P -1"
_symmetry_group_IT_number 2
_symmetry_cell_setting 'triclinic'
loop_
_space_group_symop_operation_xyz
x,y,z
-x,-y,-z
loop_
_atom_site_type_symbol
_atom_site_label
_atom_site_fract_x
_atom_site_fract_y
_atom_site_fract_z
Si Si1 0.044449 0.622895 0.287535
Si Si2 0.419055 0.707246 0.273037
Si Si3 0.670613 0.368795 0.439646
Si Si4 0.273140 0.185800 0.355505
Si Si5 0.416732 0.385759 0.093024
Si Si6 0.403704 0.134550 0.901998
Si Si7 0.851818 0.247880 0.926498
Si Si8 0.948797 0.195794 0.500668
O O1 0.167259 0.568045 0.447538
O O2 0.153756 0.905049 0.316222
O O3 0.987178 0.719095 0.325657
O O4 0.913158 0.335293 0.096875
O O5 0.534045 0.017829 0.323330
O O6 0.546321 0.715586 0.461295
O O7 0.344202 0.448323 0.117345
O O8 0.291995 0.723874 0.212441
O O9 0.584458 0.469600 0.294942
O O10 0.719023 0.542528 0.591462
O O11 0.209938 0.064056 0.184650
O O12 0.460287 0.577136 0.036215
O O13 0.333083 0.084302 0.949899
O O14 0.245843 0.001436 0.687438
O O15 0.500000 0.000000 0.000000
O O16 0.000000 0.500000 0.000000
O O17 0.000000 0.500000 0.500000
O O18 0.000000 0.000000 0.500000
#
# Coordination Sequence:
#
# PCOD9100538 Si02
#       8
#     2   2   2   2   2   2   2   2
#     4  10  23  42  66  91 136 181 227 285 351 428
#     4  10  20  37  64  93 130 166 226 275 347 410
#     4  10  20  39  65  94 126 171 227 284 347 416
#     4   9  20  40  67  93 124 175 229 285 348 410
#     4  10  22  38  71  94 127 174 233 292 353 408
#     4  11  24  43  71  97 134 180 248 297 354 428
#     4  10  22  41  64  93 133 178 221 283 353 427
#     4  12  30  46  71 107 152 193 241 296 376 437
#
# _framework density 25.519102
#
# number of rings (size 3 to 8) (size 9 to 14) (size 15 to 20)
#    0.000    1.750    0.000    4.125    8.750    2.000 
#    0.000    7.500    0.000    0.000    0.000    0.000 
#    0.000    0.000    0.000    0.000    0.000    0.000 
#
# Total GULP energy -89376.417785 kJ/mol
# GULP energy per Si atom -5586.026112 kJ/mol
# Density = 2.546102 g / cm^3
# Si number density = 25.519102 Si / 1000 Ang^3
#
#
#
# Elastic Constant Matrix: (Units=GPa)
#
#
# Indices 1 2 3 4 5 6 
#
# 1 113.9644 39.7579 32.4099 6.1205 -37.3033 -18.7468
# 2 39.7579 37.6738 -3.9748 -12.7343 -11.8513 -11.7915
# 3 32.4099 -3.9748 76.4186 13.7588 -35.6214 -14.3378
# 4 6.1205 -12.7343 13.7588 29.2594 -9.6671 -9.2307
# 5 -37.3033 -11.8513 -35.6214 -9.6671 55.2487 9.5645
# 6 -18.7468 -11.7915 -14.3378 -9.2307 9.5645 44.9947
#
#
#
# Elastic Compliance Matrix: (Units=1/GPa)
#
#
# Indices 1 2 3 4 5 6 
#
# 1 0.022437 -0.031011 -0.008854 -0.015263 0.000973 -0.004938
# 2 -0.031011 0.091095 0.021422 0.049291 0.016830 0.024313
# 3 -0.008854 0.021422 0.025048 0.006789 0.014533 0.008210
# 4 -0.015263 0.049291 0.006789 0.066029 0.012815 0.019543
# 5 0.000973 0.016830 0.014533 0.012815 0.033107 0.005039
# 6 -0.004938 0.024313 0.008210 0.019543 0.005039 0.032094
#
#
# Mechanical properties :
#
#
# Convention : Reuss Voigt Hill
#
# Bulk Modulus (GPa) = 9.83323 40.49366 25.16344
# Shear Modulus (GPa) = 14.68027 36.55814 25.61921
#
# Velocity S-wave (km/s) = 2.40107 3.78905 3.17191
# Velocity P-wave (km/s) = 3.39831 5.91988 4.82667
#
# Compressibility (1/GPa) = 0.10169597
#
# Stress axis : x y z
#
# Youngs Moduli (GPa) = 44.56935 10.97749 39.92407
#
# Poissons Ratio (x) = 0.34042 0.35347
# Poissons Ratio (y) = 1.38213 -0.85527
# Poissons Ratio (z) = 0.39460 -0.23517
#
# Static dielectric constant tensor:
#      x y z
#    x 1.976390 0.107490 0.007340 
#    y 0.107490 1.796580 -0.094390 
#    z 0.007340 -0.094390 1.914700 
# 
# From -- ./inp_files/525958.got.cif
#   From: 2010.05.17/outbox.cif.g08.bks.cpg/sg2_263_cif.got.tgz:525958.got - 2010.06.03 11:33:40.
