data_PCOD9100206
_publ_section_title
;
Structure prediction by ZEFSAII (Michael W. Deem and Ramdas Pophale) SiO2 
 PCOD9100206
Probable space group: P -1
;
_chemical_formula_sum "Si O2"
_cell_formula_units_Z 15
_cell_length_a 8.633627
_cell_length_b 6.944485
_cell_length_c 14.038693
_cell_angle_alpha 114.410305
_cell_angle_beta 121.701282
_cell_angle_gamma 94.648238
_cell_volume 601.865639
_symmetry_space_group_name_H-M "P -1"
_symmetry_group_IT_number 2
_symmetry_cell_setting 'triclinic'
loop_
_space_group_symop_operation_xyz
x,y,z
-x,-y,-z
loop_
_atom_site_type_symbol
_atom_site_label
_atom_site_fract_x
_atom_site_fract_y
_atom_site_fract_z
Si Si1 0.197673 0.878755 0.403163
Si Si2 0.293764 0.762641 0.222271
Si Si3 0.308710 0.963392 0.676242
Si Si4 0.732406 0.648522 0.585846
Si Si5 0.752202 0.592186 0.177326
Si Si6 0.016457 0.003192 0.118355
Si Si7 0.000000 0.500000 0.500000
Si Si8 0.646277 0.632870 0.944294
O O1 0.328281 0.800629 0.355022
O O2 0.230393 0.935529 0.536106
O O3 0.982548 0.671912 0.285355
O O4 0.223337 0.119884 0.413423
O O5 0.101112 0.813289 0.143819
O O6 0.300559 0.519906 0.148147
O O7 0.459779 0.959180 0.253444
O O8 0.166440 0.742436 0.639987
O O9 0.282754 0.179084 0.759451
O O10 0.500000 0.500000 0.500000
O O11 0.834054 0.514845 0.527940
O O12 0.849863 0.756941 0.742944
O O13 0.581934 0.405040 0.145444
O O14 0.690166 0.528078 0.035716
O O15 0.788043 0.896305 0.051868
O O16 0.000000 0.000000 0.000000
#
# Coordination Sequence:
#
# PCOD9100206 Si02
#       8
#     2   2   2   2   2   2   1   2
#     4  11  21  41  63  91 129 163 213 262 320 382
#     4  10  22  40  64  90 123 159 216 262 313 382
#     4  11  23  39  62  94 124 169 208 265 318 387
#     4  11  25  44  66  94 135 176 215 272 329 387
#     4  10  20  37  63  87 124 156 206 258 314 370
#     4  11  23  42  63  93 131 168 207 267 329 383
#     4  12  22  40  64  90 136 170 218 262 328 380
#     4  10  20  39  64  87 118 165 204 258 312 376
#
# _framework density 24.922508000000001
#
# number of rings (size 3 to 8) (size 9 to 14) (size 15 to 20)
#    0.000    1.333    4.000    2.800    0.000    3.200 
#    2.400    0.000    0.000    5.600    0.000    0.000 
#    0.000    0.000    0.000    0.000    0.000    0.000 
#
# Total GULP energy -83503.198994 kJ/mol
# GULP energy per Si atom -5566.879933 kJ/mol
# Density = 2.486578 g / cm^3
# Si number density = 24.922508 Si / 1000 Ang^3
#
#
#
# Elastic Constant Matrix: (Units=GPa)
#
#
# Indices 1 2 3 4 5 6 
#
# 1 142.1621 16.9526 48.0456 20.9715 1.8170 16.5487
# 2 16.9526 49.0980 33.9946 8.3956 17.7105 8.9505
# 3 48.0456 33.9946 138.5022 17.1627 -8.1574 11.1756
# 4 20.9715 8.3956 17.1627 40.8670 24.4347 13.4743
# 5 1.8170 17.7105 -8.1574 24.4347 62.4730 23.2883
# 6 16.5487 8.9505 11.1756 13.4743 23.2883 17.8880
#
#
#
# Elastic Compliance Matrix: (Units=1/GPa)
#
#
# Indices 1 2 3 4 5 6 
#
# 1 0.009536 -0.001952 -0.000978 -0.003674 0.006316 -0.012689
# 2 -0.001952 0.029997 -0.008617 0.004498 -0.013899 0.006887
# 3 -0.000978 -0.008617 0.011889 -0.005004 0.010492 -0.012102
# 4 -0.003674 0.004498 -0.005004 0.038075 -0.014797 -0.005141
# 5 0.006316 -0.013899 0.010492 -0.014797 0.048175 -0.057016
# 6 -0.012689 0.006887 -0.012102 -0.005141 -0.057016 0.149858
#
#
# Mechanical properties :
#
#
# Convention : Reuss Voigt Hill
#
# Bulk Modulus (GPa) = 35.30144 58.63866 46.97005
# Shear Modulus (GPa) = 15.62181 39.63025 27.62603
#
# Velocity S-wave (km/s) = 2.50634 3.99198 3.33299
# Velocity P-wave (km/s) = 4.75089 6.69532 5.80510
#
# Compressibility (1/GPa) = 0.02832746
#
# Stress axis : x y z
#
# Youngs Moduli (GPa) = 104.86787 33.33713 84.11350
#
# Poissons Ratio (x) = 0.06509 0.08223
# Poissons Ratio (y) = 0.20474 0.72479
# Poissons Ratio (z) = 0.10252 0.28726
#
# Static dielectric constant tensor:
#      x y z
#    x 1.996410 0.066590 0.060260 
#    y 0.066590 2.084930 0.008760 
#    z 0.060260 0.008760 1.985760 
# 
# From -- ./inp_files/239731.got.cif
#   From: 2010.05.17/outbox.cif.g08.bks.cpg/sg2_120_cif.got.tgz:239731.got - 2010.06.03 11:33:40.
