data_PCOD9100008
_publ_section_title
;
Structure prediction by ZEFSAII (Michael W. Deem and Ramdas Pophale) SiO2 
 PCOD9100008
Probable space group: P -1
;
_chemical_formula_sum "Si O2"
_cell_formula_units_Z 14
_cell_length_a 8.298027
_cell_length_b 11.746557
_cell_length_c 17.849619
_cell_angle_alpha 149.802266
_cell_angle_beta 47.617539
_cell_angle_gamma 113.037161
_cell_volume 554.177805
_symmetry_space_group_name_H-M "P -1"
_symmetry_group_IT_number 2
_symmetry_cell_setting 'triclinic'
loop_
_space_group_symop_operation_xyz
x,y,z
-x,-y,-z
loop_
_atom_site_type_symbol
_atom_site_label
_atom_site_fract_x
_atom_site_fract_y
_atom_site_fract_z
Si Si1 0.810814 0.708001 0.071439
Si Si2 0.719255 0.201628 0.671200
Si Si3 0.493321 0.796228 0.049613
Si Si4 0.061554 0.117082 0.721093
Si Si5 0.189533 0.239253 0.209447
Si Si6 0.640920 0.659520 0.624720
Si Si7 0.144531 0.795004 0.904381
O O1 0.834677 0.881672 0.228788
O O2 0.510568 0.807257 0.220847
O O3 0.965376 0.710579 0.952189
O O4 0.964984 0.404364 0.878577
O O5 0.739864 0.110451 0.526176
O O6 0.643689 0.505604 0.874021
O O7 0.000000 0.000000 0.500000
O O8 0.626955 0.739094 0.894493
O O9 0.197134 0.887746 0.194166
O O10 0.483501 0.068332 0.227733
O O11 0.259507 0.291114 0.298774
O O12 0.904680 0.439385 0.384025
O O13 0.205640 0.960544 0.039344
O O14 0.426625 0.585890 0.666184
O O15 0.000000 0.000000 0.000000
#
# Coordination Sequence:
#
# PCOD9100008 Si02
#       7
#     2   2   2   2   2   2   2
#     4  10  23  42  62  89 125 164 209 255 306 368
#     4  11  25  40  63  95 124 161 206 257 315 369
#     4  10  20  37  62  90 123 158 202 252 305 361
#     4  10  21  40  66  91 121 163 208 258 308 364
#     4  10  21  38  64  92 119 161 208 253 303 365
#     4  10  21  39  63  90 122 161 209 254 301 365
#     4  11  24  39  60  92 130 166 202 253 310 368
#
# _framework density 25.262650000000001
#
# number of rings (size 3 to 8) (size 9 to 14) (size 15 to 20)
#    0.000    1.714    0.000    4.714    0.000   10.857 
#    0.000    0.000    0.000    0.000    0.000    0.000 
#    0.000    0.000    0.000    0.000    0.000    0.000 
#
# Total GULP energy -78310.187571 kJ/mol
# GULP energy per Si atom -5593.584826 kJ/mol
# Density = 2.520515 g / cm^3
# Si number density = 25.262650 Si / 1000 Ang^3
#
#
#
# Elastic Constant Matrix: (Units=GPa)
#
#
# Indices 1 2 3 4 5 6 
#
# 1 78.8494 28.8538 30.3393 -11.5066 -11.5000 14.3194
# 2 28.8538 188.5366 55.0314 -37.2072 -21.4982 20.6794
# 3 30.3393 55.0314 143.2604 -26.5691 -22.5478 9.3507
# 4 -11.5066 -37.2072 -26.5691 36.5732 -0.2832 -5.1387
# 5 -11.5000 -21.4982 -22.5478 -0.2832 51.6800 -8.1357
# 6 14.3194 20.6794 9.3507 -5.1387 -8.1357 32.7390
#
#
#
# Elastic Compliance Matrix: (Units=1/GPa)
#
#
# Indices 1 2 3 4 5 6 
#
# 1 0.015091 -0.000620 -0.002047 0.001944 0.001436 -0.004962
# 2 -0.000620 0.007484 -0.001071 0.006287 0.002128 -0.002634
# 3 -0.002047 -0.001071 0.009243 0.005082 0.003244 0.000536
# 4 0.001944 0.006287 0.005082 0.038245 0.005653 0.001135
# 5 0.001436 0.002128 0.003244 0.005653 0.022567 0.003597
# 6 -0.004962 -0.002634 0.000536 0.001135 0.003597 0.035298
#
#
# Mechanical properties :
#
#
# Convention : Reuss Voigt Hill
#
# Bulk Modulus (GPa) = 41.08163 71.01060 56.04611
# Shear Modulus (GPa) = 34.83862 43.95988 39.39925
#
# Velocity S-wave (km/s) = 3.71759 4.17599 3.95344
# Velocity P-wave (km/s) = 5.89274 7.17090 6.56301
#
# Compressibility (1/GPa) = 0.02434178
#
# Stress axis : x y z
#
# Youngs Moduli (GPa) = 66.26272 133.62370 108.18704
#
# Poissons Ratio (x) = 0.08290 0.22149
# Poissons Ratio (y) = 0.04111 0.11582
# Poissons Ratio (z) = 0.13566 0.14305
#
# Static dielectric constant tensor:
#      x y z
#    x 2.128830 -0.050700 -0.002800 
#    y -0.050700 1.959210 -0.001100 
#    z -0.002800 -0.001100 2.026380 
# 
# From -- ./inp_files/589680.got.cif
#   From: 2010.05.17/outbox.cif.g08.bks.cpg/sg2_295_cif.got.tgz:589680.got - 2010.06.03 11:33:40.
