data_PCOD9100181
_publ_section_title
;
Structure prediction by ZEFSAII (Michael W. Deem and Ramdas Pophale) SiO2 
 PCOD9100181
Probable space group: P -1
;
_chemical_formula_sum "Si O2"
_cell_formula_units_Z 16
_cell_length_a 10.245090
_cell_length_b 16.361111
_cell_length_c 9.673254
_cell_angle_alpha 79.061253
_cell_angle_beta 71.490537
_cell_angle_gamma 34.981680
_cell_volume 874.097816
_symmetry_space_group_name_H-M "P -1"
_symmetry_group_IT_number 2
_symmetry_cell_setting 'triclinic'
loop_
_space_group_symop_operation_xyz
x,y,z
-x,-y,-z
loop_
_atom_site_type_symbol
_atom_site_label
_atom_site_fract_x
_atom_site_fract_y
_atom_site_fract_z
Si Si1 0.917511 0.771824 0.778834
Si Si2 0.834017 0.384000 0.833927
Si Si3 0.153251 0.224426 0.510340
Si Si4 0.640888 0.062419 0.441458
Si Si5 0.061677 0.959763 0.831447
Si Si6 0.722278 0.321987 0.120147
Si Si7 0.345594 0.920779 0.249409
Si Si8 0.124351 0.353468 0.954737
O O1 0.947661 0.729432 0.624709
O O2 0.162912 0.680571 0.795128
O O3 0.738421 0.940645 0.792549
O O4 0.836651 0.732185 0.907061
O O5 0.555345 0.530133 0.855054
O O6 0.967691 0.324219 0.663854
O O7 0.944925 0.398868 0.891935
O O8 0.856422 0.287320 0.946421
O O9 0.361120 0.190758 0.462073
O O10 0.266276 0.077665 0.541843
O O11 0.791651 0.038043 0.286559
O O12 0.677459 0.080552 0.577509
O O13 0.225466 0.797878 0.823125
O O14 0.830121 0.050775 0.789125
O O15 0.000000 0.000000 0.000000
O O16 0.615844 0.768531 0.163364
O O17 0.000000 0.500000 0.000000
#
# Coordination Sequence:
#
# PCOD9100181 Si02
#       8
#     2   2   2   2   2   2   2   2
#     4   9  21  39  61  86 116 154 202 239 286 353
#     4  10  20  40  61  81 120 157 194 234 297 355
#     4  10  20  37  63  86 115 153 196 239 291 353
#     4  10  21  38  58  90 118 149 196 243 294 347
#     4  11  23  36  60  89 117 150 199 245 291 336
#     4   9  21  39  58  84 117 156 195 237 286 355
#     4  10  21  41  61  82 119 161 194 240 294 349
#     4  11  23  38  59  89 122 155 195 242 297 347
#
# _framework density 18.304586
#
# number of rings (size 3 to 8) (size 9 to 14) (size 15 to 20)
#    0.000    2.000    1.250    1.500    3.500    0.500 
#    4.500    1.250    0.000    0.000    0.000    0.000 
#    0.000    0.000    0.000    0.000    0.000    0.000 
#
# Total GULP energy -89217.491148 kJ/mol
# GULP energy per Si atom -5576.093197 kJ/mol
# Density = 1.826292 g / cm^3
# Si number density = 18.304586 Si / 1000 Ang^3
#
#
#
# Elastic Constant Matrix: (Units=GPa)
#
#
# Indices 1 2 3 4 5 6 
#
# 1 96.7275 35.2005 79.0440 -3.1054 -0.6518 -15.2018
# 2 35.2005 51.7666 37.9268 2.0691 0.3146 -22.6085
# 3 79.0440 37.9268 170.1624 3.0682 -0.7340 -13.7508
# 4 -3.1054 2.0691 3.0682 24.9423 0.8329 1.2750
# 5 -0.6518 0.3146 -0.7340 0.8329 25.6761 -4.4904
# 6 -15.2018 -22.6085 -13.7508 1.2750 -4.4904 20.9897
#
#
#
# Elastic Compliance Matrix: (Units=1/GPa)
#
#
# Indices 1 2 3 4 5 6 
#
# 1 0.019305 -0.007536 -0.007279 0.003862 0.000415 0.000950
# 2 -0.007536 0.046292 -0.003079 -0.006904 0.007131 0.044332
# 3 -0.007279 -0.003079 0.009806 -0.001744 -0.000177 -0.002097
# 4 0.003862 -0.006904 -0.001744 0.041910 -0.002787 -0.008924
# 5 0.000415 0.007131 -0.000177 -0.002787 0.041929 0.017005
# 6 0.000950 0.044332 -0.002097 -0.008924 0.017005 0.098888
#
#
# Mechanical properties :
#
#
# Convention : Reuss Voigt Hill
#
# Bulk Modulus (GPa) = 25.24389 69.22212 47.23301
# Shear Modulus (GPa) = 16.28008 25.42065 20.85036
#
# Velocity S-wave (km/s) = 2.98551 3.73065 3.37869
# Velocity P-wave (km/s) = 5.07004 7.51371 6.40942
#
# Compressibility (1/GPa) = 0.03961355
#
# Stress axis : x y z
#
# Youngs Moduli (GPa) = 51.79933 21.60188 101.98246
#
# Poissons Ratio (x) = 0.16280 0.74234
# Poissons Ratio (y) = 0.39038 0.31405
# Poissons Ratio (z) = 0.37705 0.06652
#
# Static dielectric constant tensor:
#      x y z
#    x 1.638250 0.004180 0.007640 
#    y 0.004180 1.623200 -0.012930 
#    z 0.007640 -0.012930 1.621620 
# 
# From -- ./inp_files/202037.got.cif
#   From: 2010.05.17/outbox.cif.g08.bks.cpg/sg2_102_cif.got.tgz:202037.got - 2010.06.03 11:33:40.
