data_PCOD9100983
_publ_section_title
;
Structure prediction by ZEFSAII (Michael W. Deem and Ramdas Pophale) SiO2 
 PCOD9100983
Probable space group: P -1
;
_chemical_formula_sum "Si O2"
_cell_formula_units_Z 16
_cell_length_a 8.858326
_cell_length_b 13.941099
_cell_length_c 11.411828
_cell_angle_alpha 33.532286
_cell_angle_beta 85.394707
_cell_angle_gamma 98.621780
_cell_volume 713.288327
_symmetry_space_group_name_H-M "P -1"
_symmetry_group_IT_number 2
_symmetry_cell_setting 'triclinic'
loop_
_space_group_symop_operation_xyz
x,y,z
-x,-y,-z
loop_
_atom_site_type_symbol
_atom_site_label
_atom_site_fract_x
_atom_site_fract_y
_atom_site_fract_z
Si Si1 0.089329 0.386773 0.540780
Si Si2 0.808025 0.113223 0.663843
Si Si3 0.832071 0.737508 0.100523
Si Si4 0.615795 0.353089 0.371648
Si Si5 0.599241 0.220933 0.242455
Si Si6 0.913082 0.770519 0.657300
Si Si7 0.910920 0.160844 0.203012
Si Si8 0.350515 0.503701 0.216581
O O1 0.159311 0.291375 0.732970
O O2 0.241283 0.519215 0.316041
O O3 0.000000 0.500000 0.500000
O O4 0.949652 0.234962 0.623310
O O5 0.660815 0.184693 0.592922
O O6 0.908473 0.164613 0.482372
O O7 0.760172 0.894299 0.916451
O O8 0.738217 0.540187 0.240785
O O9 0.016445 0.818588 0.951697
O O10 0.623388 0.328918 0.254854
O O11 0.441279 0.368108 0.386696
O O12 0.767850 0.229560 0.164573
O O13 0.500000 0.000000 0.500000
O O14 0.528425 0.313409 0.049598
O O15 0.781720 0.603528 0.765423
O O16 0.938977 0.727705 0.832056
O O17 0.859915 0.946276 0.467637
#
# Coordination Sequence:
#
# PCOD9100983 Si02
#       8
#     2   2   2   2   2   2   2   2
#     4  11  22  46  72 100 132 177 236 280 330 396
#     4  10  22  42  69 100 134 174 228 279 328 402
#     4  11  24  41  73 100 135 181 231 280 326 396
#     4  12  25  43  68  99 140 179 221 277 347 401
#     4  12  26  41  67 101 140 178 221 279 348 405
#     4   9  19  39  63  95 131 171 220 274 331 401
#     4  10  20  37  68 100 129 171 226 272 331 401
#     4  11  26  42  65  96 139 179 221 279 339 404
#
# _framework density 22.431322999999999
#
# number of rings (size 3 to 8) (size 9 to 14) (size 15 to 20)
#    0.000    1.250    2.500    3.000    3.500    1.500 
#    0.000    1.875    0.000    0.000    0.000    0.000 
#    0.000    0.000    0.000    0.000    0.000    0.000 
#
# Total GULP energy -89408.903244 kJ/mol
# GULP energy per Si atom -5588.056453 kJ/mol
# Density = 2.238027 g / cm^3
# Si number density = 22.431323 Si / 1000 Ang^3
#
#
#
# Elastic Constant Matrix: (Units=GPa)
#
#
# Indices 1 2 3 4 5 6 
#
# 1 70.9594 19.6734 40.3988 -5.2384 25.6788 -21.0116
# 2 19.6734 104.5423 45.5794 8.7619 7.2448 -10.5419
# 3 40.3988 45.5794 99.3762 6.7349 19.2867 0.9058
# 4 -5.2384 8.7619 6.7349 40.2204 -5.4017 11.3839
# 5 25.6788 7.2448 19.2867 -5.4017 23.4699 -5.7696
# 6 -21.0116 -10.5419 0.9058 11.3839 -5.7696 33.4416
#
#
#
# Elastic Compliance Matrix: (Units=1/GPa)
#
#
# Indices 1 2 3 4 5 6 
#
# 1 0.033454 0.001678 -0.009356 -0.003100 -0.025612 0.018438
# 2 0.001678 0.013021 -0.006563 -0.003317 0.000380 0.006531
# 3 -0.009356 -0.006563 0.017977 -0.000922 -0.004927 -0.008971
# 4 -0.003100 -0.003317 -0.000922 0.029838 0.009204 -0.011538
# 5 -0.025612 0.000380 -0.004927 0.009204 0.075207 -0.005997
# 6 0.018438 0.006531 -0.008971 -0.011538 -0.005997 0.046682
#
#
# Mechanical properties :
#
#
# Convention : Reuss Voigt Hill
#
# Bulk Modulus (GPa) = 27.80177 54.02011 40.91094
# Shear Modulus (GPa) = 19.48167 30.70812 25.09490
#
# Velocity S-wave (km/s) = 2.95023 3.70399 3.34839
# Velocity P-wave (km/s) = 4.90166 6.51364 5.76427
#
# Compressibility (1/GPa) = 0.03596894
#
# Stress axis : x y z
#
# Youngs Moduli (GPa) = 29.89221 76.79671 55.62652
#
# Poissons Ratio (x) = -0.12885 0.52046
# Poissons Ratio (y) = -0.05015 0.36507
# Poissons Ratio (z) = 0.27968 0.50401
#
# Static dielectric constant tensor:
#      x y z
#    x 1.849610 0.021530 0.009990 
#    y 0.021530 1.818880 -0.026050 
#    z 0.009990 -0.026050 1.872730 
# 
# From -- ./inp_files/398138.got.cif
#   From: 2010.05.17/outbox.cif.g08.bks.cpg/sg2_200_cif.got.tgz:398138.got - 2010.06.03 11:33:40.
