data_PCOD9100364
_publ_section_title
;
Structure prediction by ZEFSAII (Michael W. Deem and Ramdas Pophale) SiO2 
 PCOD9100364
Probable space group: P -1
;
_chemical_formula_sum "Si O2"
_cell_formula_units_Z 11
_cell_length_a 10.707583
_cell_length_b 9.128185
_cell_length_c 5.432501
_cell_angle_alpha 74.234659
_cell_angle_beta 72.682873
_cell_angle_gamma 48.332417
_cell_volume 376.634537
_symmetry_space_group_name_H-M "P -1"
_symmetry_group_IT_number 2
_symmetry_cell_setting 'triclinic'
loop_
_space_group_symop_operation_xyz
x,y,z
-x,-y,-z
loop_
_atom_site_type_symbol
_atom_site_label
_atom_site_fract_x
_atom_site_fract_y
_atom_site_fract_z
Si Si1 0.029029 0.655584 0.849029
Si Si2 0.858148 0.474596 0.654113
Si Si3 0.728715 0.213109 0.108797
Si Si4 0.220965 0.910507 0.367477
Si Si5 0.500000 0.500000 0.500000
Si Si6 0.489576 0.105716 0.209713
O O1 0.168841 0.566723 0.590779
O O2 0.868260 0.864595 0.739288
O O3 0.000000 0.500000 0.000000
O O4 0.075532 0.675075 0.086849
O O5 0.687725 0.674773 0.763716
O O6 0.000000 0.500000 0.500000
O O7 0.851507 0.096775 0.325438
O O8 0.590880 0.428420 0.207780
O O9 0.642055 0.112978 0.144046
O O10 0.794411 0.191762 0.806032
O O11 0.418954 0.733718 0.394884
O O12 0.500000 0.000000 0.500000
O O13 0.500000 0.000000 0.000000
#
# Coordination Sequence:
#
# PCOD9100364 Si02
#       6
#     2   2   2   2   1   2
#     4  10  21  34  60  84 128 160 210 242 318 382
#     4  10  23  38  56  85 128 174 203 244 308 398
#     4  10  22  37  63  91 125 156 215 268 318 353
#     4  10  20  37  63  96 114 167 211 275 299 375
#     4   8  22  38  66  90 120 160 226 270 306 360
#     4  12  26  39  62  95 135 168 209 265 322 377
#
# _framework density 29.206030999999999
#
# number of rings (size 3 to 8) (size 9 to 14) (size 15 to 20)
#    1.091    0.727    0.000    3.818   15.273    0.000 
#    0.000    0.000    0.000    2.182    0.000    0.000 
#    0.000    0.000    0.000    0.000    0.000    0.000 
#
# Total GULP energy -61281.984031 kJ/mol
# GULP energy per Si atom -5571.089457 kJ/mol
# Density = 2.913956 g / cm^3
# Si number density = 29.206031 Si / 1000 Ang^3
#
#
#
# Elastic Constant Matrix: (Units=GPa)
#
#
# Indices 1 2 3 4 5 6 
#
# 1 93.4897 13.8796 50.9189 13.8434 16.5783 17.8624
# 2 13.8796 207.6719 77.9300 -2.1679 -5.0698 -11.8968
# 3 50.9189 77.9300 318.0219 5.8139 24.9654 13.6705
# 4 13.8434 -2.1679 5.8139 92.5695 14.5212 -2.0108
# 5 16.5783 -5.0698 24.9654 14.5212 54.0723 13.0170
# 6 17.8624 -11.8968 13.6705 -2.0108 13.0170 45.8036
#
#
#
# Elastic Compliance Matrix: (Units=1/GPa)
#
#
# Indices 1 2 3 4 5 6 
#
# 1 0.013044 -0.000587 -0.001585 -0.001671 -0.001834 -0.004319
# 2 -0.000587 0.005511 -0.001406 0.000213 0.000843 0.001850
# 3 -0.001585 -0.001406 0.003868 0.000162 -0.001353 -0.000510
# 4 -0.001671 0.000213 0.000162 0.011586 -0.003151 0.002063
# 5 -0.001834 0.000843 -0.001353 -0.003151 0.021809 -0.004998
# 6 -0.004319 0.001850 -0.000510 0.002063 -0.004998 0.025660
#
#
# Mechanical properties :
#
#
# Convention : Reuss Voigt Hill
#
# Bulk Modulus (GPa) = 65.49564 100.51560 83.00562
# Shear Modulus (GPa) = 53.34869 70.25274 61.80071
#
# Velocity S-wave (km/s) = 4.27855 4.90983 4.60502
# Velocity P-wave (km/s) = 6.84705 8.16288 7.53375
#
# Compressibility (1/GPa) = 0.01526819
#
# Stress axis : x y z
#
# Youngs Moduli (GPa) = 76.66162 181.45824 258.54221
#
# Poissons Ratio (x) = 0.10648 0.40968
# Poissons Ratio (y) = 0.04499 0.36353
# Poissons Ratio (z) = 0.12147 0.25514
#
# Static dielectric constant tensor:
#      x y z
#    x 5.464930 1.014870 0.654450 
#    y 1.014870 2.629360 0.170330 
#    z 0.654450 0.170330 2.636160 
# 
# From -- ./inp_files/108037.got.cif
#   From: 2010.05.17/outbox.cif.g08.bks.cpg/sg2_55_cif.got.tgz:108037.got - 2010.06.03 11:33:40.
