data_PCOD9100830
_publ_section_title
;
Structure prediction by ZEFSAII (Michael W. Deem and Ramdas Pophale) SiO2 
 PCOD9100830
Probable space group: P -1
;
_chemical_formula_sum "Si O2"
_cell_formula_units_Z 16
_cell_length_a 13.102398
_cell_length_b 8.640709
_cell_length_c 12.886959
_cell_angle_alpha 55.142337
_cell_angle_beta 136.279801
_cell_angle_gamma 91.474771
_cell_volume 604.401059
_symmetry_space_group_name_H-M "P -1"
_symmetry_group_IT_number 2
_symmetry_cell_setting 'triclinic'
loop_
_space_group_symop_operation_xyz
x,y,z
-x,-y,-z
loop_
_atom_site_type_symbol
_atom_site_label
_atom_site_fract_x
_atom_site_fract_y
_atom_site_fract_z
Si Si1 0.837937 0.568939 0.626258
Si Si2 0.350607 0.788384 0.018174
Si Si3 0.602665 0.600269 0.080522
Si Si4 0.482846 0.932781 0.673879
Si Si5 0.870338 0.941041 0.762192
Si Si6 0.960198 0.281856 0.621271
Si Si7 0.660759 0.362442 0.581019
Si Si8 0.834358 0.464495 0.011764
O O1 0.879976 0.507791 0.556866
O O2 0.843058 0.344252 0.749376
O O3 0.999725 0.578148 0.779898
O O4 0.630777 0.807240 0.442744
O O5 0.233633 0.689694 0.949091
O O6 0.448021 0.790008 0.986125
O O7 0.532742 0.562946 0.313755
O O8 0.196210 0.072203 0.845870
O O9 0.819383 0.397232 0.372150
O O10 0.500000 0.500000 0.000000
O O11 0.608340 0.727384 0.937274
O O12 0.298962 0.966782 0.482537
O O13 0.643862 0.770745 0.759682
O O14 0.935409 0.098130 0.725948
O O15 0.745157 0.083299 0.721328
O O16 0.060411 0.648363 0.980361
O O17 0.500000 0.500000 0.500000
#
# Coordination Sequence:
#
# PCOD9100830 Si02
#       8
#     2   2   2   2   2   2   2   2
#     4  10  24  41  61  96 134 158 206 275 314 370
#     4  11  22  41  68  88 128 171 215 260 306 377
#     4  12  20  37  64  97 127 174 222 250 293 382
#     4  11  21  38  66  91 131 175 205 247 324 365
#     4   9  18  39  61  90 125 158 212 259 293 380
#     4  10  21  37  59  89 132 164 212 255 307 362
#     4  11  22  46  73  90 119 170 213 264 328 381
#     4  10  20  37  66  89 128 166 202 258 319 361
#
# _framework density 26.472487000000001
#
# number of rings (size 3 to 8) (size 9 to 14) (size 15 to 20)
#    0.000    1.500    6.250    0.000    1.750    3.000 
#    0.000   10.000    0.000    0.000    0.000    0.000 
#    0.000    0.000    0.000    0.000    0.000    0.000 
#
# Total GULP energy -89352.324401 kJ/mol
# GULP energy per Si atom -5584.520275 kJ/mol
# Density = 2.641223 g / cm^3
# Si number density = 26.472487 Si / 1000 Ang^3
#
#
#
# Elastic Constant Matrix: (Units=GPa)
#
#
# Indices 1 2 3 4 5 6 
#
# 1 55.0923 41.7181 33.7736 -14.8465 21.7460 -26.9053
# 2 41.7181 174.5763 63.4129 -18.5416 18.4537 -39.7911
# 3 33.7736 63.4129 118.6794 -21.8081 31.9117 -36.0739
# 4 -14.8465 -18.5416 -21.8081 54.8383 -13.5581 19.3341
# 5 21.7460 18.4537 31.9117 -13.5581 41.1186 -13.0793
# 6 -26.9053 -39.7911 -36.0739 19.3341 -13.0793 55.0491
#
#
#
# Elastic Compliance Matrix: (Units=1/GPa)
#
#
# Indices 1 2 3 4 5 6 
#
# 1 0.030127 -0.003666 -0.001021 0.000889 -0.010464 0.008607
# 2 -0.003666 0.008073 -0.002874 0.000060 0.001349 0.002459
# 3 -0.001021 -0.002874 0.013648 0.000887 -0.007078 0.004374
# 4 0.000889 0.000060 0.000887 0.021878 0.004242 -0.005617
# 5 -0.010464 0.001349 -0.007078 0.004242 0.035562 -0.001818
# 6 0.008607 0.002459 0.004374 -0.005617 -0.001818 0.028556
#
#
# Mechanical properties :
#
#
# Convention : Reuss Voigt Hill
#
# Bulk Modulus (GPa) = 27.22983 69.57303 48.40143
# Shear Modulus (GPa) = 30.26463 44.16409 37.21436
#
# Velocity S-wave (km/s) = 3.38486 4.08892 3.75343
# Velocity P-wave (km/s) = 5.05814 6.97357 6.09161
#
# Compressibility (1/GPa) = 0.03672443
#
# Stress axis : x y z
#
# Youngs Moduli (GPa) = 33.19295 123.87619 73.26979
#
# Poissons Ratio (x) = 0.45414 0.07484
# Poissons Ratio (y) = 0.12169 0.21059
# Poissons Ratio (z) = 0.03390 0.35604
#
# Static dielectric constant tensor:
#      x y z
#    x 2.254960 -0.111290 -0.032160 
#    y -0.111290 2.137580 -0.000660 
#    z -0.032160 -0.000660 2.115910 
# 
# From -- ./inp_files/528289.got.cif
#   From: 2010.05.17/outbox.cif.g08.bks.cpg/sg2_265_cif.got.tgz:528289.got - 2010.06.03 11:33:40.
