data_PCOD9100724
_publ_section_title
;
Structure prediction by ZEFSAII (Michael W. Deem and Ramdas Pophale) SiO2 
 PCOD9100724
Probable space group: P -1
;
_chemical_formula_sum "Si O2"
_cell_formula_units_Z 16
_cell_length_a 26.517182
_cell_length_b 11.919463
_cell_length_c 18.568478
_cell_angle_alpha 27.836301
_cell_angle_beta 17.889606
_cell_angle_gamma 28.835808
_cell_volume 817.157252
_symmetry_space_group_name_H-M "P -1"
_symmetry_group_IT_number 2
_symmetry_cell_setting 'triclinic'
loop_
_space_group_symop_operation_xyz
x,y,z
-x,-y,-z
loop_
_atom_site_type_symbol
_atom_site_label
_atom_site_fract_x
_atom_site_fract_y
_atom_site_fract_z
Si Si1 0.025205 0.104592 0.734542
Si Si2 0.337068 0.512258 0.763522
Si Si3 0.494561 0.305846 0.055217
Si Si4 0.749928 0.581821 0.805486
Si Si5 0.036742 0.369929 0.854338
Si Si6 0.162956 0.849756 0.406377
Si Si7 0.782702 0.927443 0.361865
Si Si8 0.656070 0.842423 0.921686
O O1 0.884337 0.320586 0.766468
O O2 0.188927 0.167464 0.439243
O O3 0.071097 0.129773 0.742591
O O4 0.977134 0.841359 0.948570
O O5 0.500000 0.500000 0.500000
O O6 0.280265 0.777735 0.730307
O O7 0.392611 0.276463 0.872551
O O8 0.159536 0.507126 0.968963
O O9 0.398710 0.417937 0.048367
O O10 0.378586 0.144347 0.341680
O O11 0.500000 0.500000 0.000000
O O12 0.682007 0.187341 0.839751
O O13 0.722650 0.612125 0.909848
O O14 0.127406 0.587511 0.626892
O O15 0.141498 0.228366 0.723147
O O16 0.212945 0.999529 0.321077
O O17 0.000000 0.000000 0.500000
O O18 0.500000 0.000000 0.000000
#
# Coordination Sequence:
#
# PCOD9100724 Si02
#       8
#     2   2   2   2   2   2   2   2
#     4   9  20  36  64  92 124 162 213 275 324 386
#     4  11  23  39  67  96 130 173 223 270 322 393
#     4  11  22  41  64  96 127 171 222 271 325 400
#     4  10  21  39  65  94 125 168 218 269 335 386
#     4  11  21  39  63  92 128 169 222 267 322 392
#     4  12  25  41  63  95 134 178 216 269 332 391
#     4  10  20  37  65  93 124 165 223 268 318 388
#     4  12  24  41  65  94 134 174 216 266 330 393
#
# _framework density 19.580075000000001
#
# number of rings (size 3 to 8) (size 9 to 14) (size 15 to 20)
#    0.000    1.250    3.750    3.750    3.500    1.000 
#    0.000    2.500    0.000    0.000    0.000    0.000 
#    0.000    0.000    0.000    0.000    0.000    0.000 
#
# Total GULP energy -89126.585853 kJ/mol
# GULP energy per Si atom -5570.411616 kJ/mol
# Density = 1.953551 g / cm^3
# Si number density = 19.580075 Si / 1000 Ang^3
#
#
#
# Elastic Constant Matrix: (Units=GPa)
#
#
# Indices 1 2 3 4 5 6 
#
# 1 75.6977 37.0010 43.4004 -2.1420 -16.5529 -0.4368
# 2 37.0010 80.0202 47.9931 3.0088 -10.3980 -20.2792
# 3 43.4004 47.9931 123.7331 -4.4628 -5.8631 -16.3932
# 4 -2.1420 3.0088 -4.4628 49.3462 -2.0969 5.5410
# 5 -16.5529 -10.3980 -5.8631 -2.0969 33.8648 -4.9063
# 6 -0.4368 -20.2792 -16.3932 5.5410 -4.9063 28.1013
#
#
#
# Elastic Compliance Matrix: (Units=1/GPa)
#
#
# Indices 1 2 3 4 5 6 
#
# 1 0.021432 -0.008176 -0.005021 0.002115 0.006090 -0.007850
# 2 -0.008176 0.023502 -0.004043 -0.003757 0.004608 0.016020
# 3 -0.005021 -0.004043 0.011862 0.000650 -0.001079 0.003607
# 4 0.002115 -0.003757 0.000650 0.021385 0.000383 -0.006448
# 5 0.006090 0.004608 -0.001079 0.000383 0.035037 0.008832
# 6 -0.007850 0.016020 0.003607 -0.006448 0.008832 0.051942
#
#
# Mechanical properties :
#
#
# Convention : Reuss Voigt Hill
#
# Bulk Modulus (GPa) = 44.81248 59.58223 52.19736
# Shear Modulus (GPa) = 24.14540 32.33289 28.23915
#
# Velocity S-wave (km/s) = 3.51545 4.06805 3.80180
# Velocity P-wave (km/s) = 6.27808 7.24993 6.78144
#
# Compressibility (1/GPa) = 0.02231521
#
# Stress axis : x y z
#
# Youngs Moduli (GPa) = 46.65904 42.54954 84.30614
#
# Poissons Ratio (x) = 0.34789 0.42333
# Poissons Ratio (y) = 0.38149 0.34083
# Poissons Ratio (z) = 0.23429 0.17202
#
# Static dielectric constant tensor:
#      x y z
#    x 1.590060 -0.215670 -0.052990 
#    y -0.215670 1.157430 -0.110870 
#    z -0.052990 -0.110870 1.742400 
# 
# From -- ./inp_files/568735.got.cif
#   From: 2010.05.17/outbox.cif.g08.bks.cpg/sg2_285_cif.got.tgz:568735.got - 2010.06.03 11:33:40.
