data_PCOD9100550
_publ_section_title
;
Structure prediction by ZEFSAII (Michael W. Deem and Ramdas Pophale) SiO2 
 PCOD9100550
Probable space group: P -1
;
_chemical_formula_sum "Si O2"
_cell_formula_units_Z 14
_cell_length_a 8.644403
_cell_length_b 15.340845
_cell_length_c 11.261600
_cell_angle_alpha 153.252671
_cell_angle_beta 59.194789
_cell_angle_gamma 121.297444
_cell_volume 569.787397
_symmetry_space_group_name_H-M "P -1"
_symmetry_group_IT_number 2
_symmetry_cell_setting 'triclinic'
loop_
_space_group_symop_operation_xyz
x,y,z
-x,-y,-z
loop_
_atom_site_type_symbol
_atom_site_label
_atom_site_fract_x
_atom_site_fract_y
_atom_site_fract_z
Si Si1 0.740842 0.121250 0.833094
Si Si2 0.348501 0.911366 0.815058
Si Si3 0.155212 0.640576 0.360878
Si Si4 0.594370 0.212419 0.767002
Si Si5 0.328663 0.567916 0.586233
Si Si6 0.075032 0.078610 0.295306
Si Si7 0.785628 0.694640 0.894653
O O1 0.743812 0.174962 0.759982
O O2 0.860880 0.970052 0.656947
O O3 0.530409 0.028334 0.830096
O O4 0.772876 0.317239 0.137985
O O5 0.220920 0.807794 0.636504
O O6 0.394190 0.735496 0.666031
O O7 0.238005 0.041701 0.098647
O O8 0.310801 0.659263 0.221385
O O9 0.152259 0.443071 0.195488
O O10 0.984024 0.712713 0.451584
O O11 0.500000 0.000000 0.500000
O O12 0.429298 0.302937 0.000118
O O13 0.500000 0.500000 0.500000
O O14 0.202630 0.400085 0.355657
O O15 0.906752 0.906225 0.119793
#
# Coordination Sequence:
#
# PCOD9100550 Si02
#       7
#     2   2   2   2   2   2   2
#     4  11  23  43  67  99 127 175 219 263 333 385
#     4  10  22  42  64  97 128 172 221 260 331 393
#     4  11  24  42  68  97 127 179 214 267 326 388
#     4  12  22  44  72  88 132 178 220 265 316 397
#     4  10  20  37  64  94 126 161 212 274 315 374
#     4  11  23  43  65  98 137 167 211 281 327 380
#     4  11  24  44  68  99 130 170 224 265 329 388
#
# _framework density 24.570568000000002
#
# number of rings (size 3 to 8) (size 9 to 14) (size 15 to 20)
#    0.000    1.143    4.286    2.571    0.000    5.714 
#   12.857    0.714    0.000    0.000    0.000    0.000 
#    0.000    0.000    0.000    0.000    0.000    0.000 
#
# Total GULP energy -78460.721011 kJ/mol
# GULP energy per Si atom -5604.337215 kJ/mol
# Density = 2.451464 g / cm^3
# Si number density = 24.570568 Si / 1000 Ang^3
#
#
#
# Elastic Constant Matrix: (Units=GPa)
#
#
# Indices 1 2 3 4 5 6 
#
# 1 112.4055 59.8263 18.1034 10.6923 -35.6072 -34.4626
# 2 59.8263 94.3193 26.0824 21.8948 -3.3708 -31.1143
# 3 18.1034 26.0824 52.2346 12.9797 -19.1002 -15.2847
# 4 10.6923 21.8948 12.9797 38.9901 -12.5126 -4.8922
# 5 -35.6072 -3.3708 -19.1002 -12.5126 42.5924 4.5580
# 6 -34.4626 -31.1143 -15.2847 -4.8922 4.5580 56.1117
#
#
#
# Elastic Compliance Matrix: (Units=1/GPa)
#
#
# Indices 1 2 3 4 5 6 
#
# 1 0.028015 -0.019278 0.010184 0.009891 0.028529 0.007836
# 2 -0.019278 0.029387 -0.012639 -0.014462 -0.023888 0.001692
# 3 0.010184 -0.012639 0.031111 0.001540 0.021261 0.006128
# 4 0.009891 -0.014462 0.001540 0.036507 0.018523 0.000154
# 5 0.028529 -0.023888 0.021261 0.018523 0.059683 0.006834
# 6 0.007836 0.001692 0.006128 0.000154 0.006834 0.024700
#
#
# Mechanical properties :
#
#
# Convention : Reuss Voigt Hill
#
# Bulk Modulus (GPa) = 22.19903 51.88706 37.04304
# Shear Modulus (GPa) = 18.66479 37.86866 28.26672
#
# Velocity S-wave (km/s) = 2.75915 3.93010 3.39548
# Velocity P-wave (km/s) = 4.38234 6.46201 5.52099
#
# Compressibility (1/GPa) = 0.04504702
#
# Stress axis : x y z
#
# Youngs Moduli (GPa) = 35.69464 34.02915 32.14317
#
# Poissons Ratio (x) = 0.65601 -0.32733
# Poissons Ratio (y) = 0.68811 0.40625
# Poissons Ratio (z) = -0.36350 0.43008
#
# Static dielectric constant tensor:
#      x y z
#    x 1.977700 0.008900 -0.009840 
#    y 0.008900 1.937940 -0.011020 
#    z -0.009840 -0.011020 1.937940 
# 
# From -- ./inp_files/397926.got.cif
#   From: 2010.05.17/outbox.cif.g08.bks.cpg/sg2_199_cif.got.tgz:397926.got - 2010.06.03 11:33:40.
