data_PCOD9100335
_publ_section_title
;
Structure prediction by ZEFSAII (Michael W. Deem and Ramdas Pophale) SiO2 
 PCOD9100335
Probable space group: P -1
;
_chemical_formula_sum "Si O2"
_cell_formula_units_Z 14
_cell_length_a 20.550574
_cell_length_b 8.589376
_cell_length_c 11.820828
_cell_angle_alpha 144.169338
_cell_angle_beta 28.077589
_cell_angle_gamma 132.193568
_cell_volume 567.625517
_symmetry_space_group_name_H-M "P -1"
_symmetry_group_IT_number 2
_symmetry_cell_setting 'triclinic'
loop_
_space_group_symop_operation_xyz
x,y,z
-x,-y,-z
loop_
_atom_site_type_symbol
_atom_site_label
_atom_site_fract_x
_atom_site_fract_y
_atom_site_fract_z
Si Si1 0.936833 0.503922 0.786535
Si Si2 0.896107 0.331205 0.184993
Si Si3 0.624174 0.275929 0.719520
Si Si4 0.392566 0.796006 0.038368
Si Si5 0.638178 0.745396 0.279137
Si Si6 0.831945 0.954815 0.652652
Si Si7 0.187458 0.130414 0.110626
O O1 0.972956 0.696768 0.945907
O O2 0.077249 0.411083 0.442996
O O3 0.918844 0.204339 0.680602
O O4 0.795166 0.633567 0.019965
O O5 0.760592 0.306081 0.455157
O O6 0.884771 0.644440 0.350511
O O7 0.887726 0.104576 0.969715
O O8 0.655641 0.265061 0.797522
O O9 0.577907 0.991481 0.593563
O O10 0.500000 0.500000 0.000000
O O11 0.273808 0.929052 0.214620
O O12 0.449553 0.496582 0.729374
O O13 0.500000 0.000000 0.000000
O O14 0.674256 0.848862 0.161101
O O15 0.774665 0.925526 0.849899
#
# Coordination Sequence:
#
# PCOD9100335 Si02
#       7
#     2   2   2   2   2   2   2
#     4  10  21  37  60  98 132 161 205 256 311 371
#     4  10  21  39  66  93 125 171 208 248 312 373
#     4  11  25  45  66  91 123 165 218 265 310 372
#     4  11  24  43  66  90 122 166 213 263 316 374
#     4  10  24  42  66  95 125 165 211 265 316 365
#     4  10  22  38  59  94 131 162 204 256 311 371
#     4  10  20  37  63  93 130 166 201 251 311 377
#
# _framework density 24.664145999999999
#
# number of rings (size 3 to 8) (size 9 to 14) (size 15 to 20)
#    0.000    1.714    0.000    4.714    0.000   11.429 
#    0.000    4.286    0.000    0.000    0.000    0.000 
#    0.000    0.000    0.000    0.000    0.000    0.000 
#
# Total GULP energy -78290.105354 kJ/mol
# GULP energy per Si atom -5592.150382 kJ/mol
# Density = 2.460801 g / cm^3
# Si number density = 24.664146 Si / 1000 Ang^3
#
#
#
# Elastic Constant Matrix: (Units=GPa)
#
#
# Indices 1 2 3 4 5 6 
#
# 1 141.2106 36.8599 46.4806 13.8819 15.1105 -4.4469
# 2 36.8599 122.3777 22.4484 29.5378 5.9245 30.3468
# 3 46.4806 22.4484 52.9948 28.1195 12.7907 2.6053
# 4 13.8819 29.5378 28.1195 39.6953 15.7457 11.3937
# 5 15.1105 5.9245 12.7907 15.7457 28.3585 9.7113
# 6 -4.4469 30.3468 2.6053 11.3937 9.7113 55.2473
#
#
#
# Elastic Compliance Matrix: (Units=1/GPa)
#
#
# Indices 1 2 3 4 5 6 
#
# 1 0.012041 -0.003981 -0.012374 0.009074 -0.006045 0.002931
# 2 -0.003981 0.012733 0.002454 -0.010520 0.006381 -0.006383
# 3 -0.012374 0.002454 0.043930 -0.029974 0.002452 0.001335
# 4 0.009074 -0.010520 -0.029974 0.060078 -0.022287 -0.000550
# 5 -0.006045 0.006381 0.002452 -0.022287 0.051342 -0.008536
# 6 0.002931 -0.006383 0.001335 -0.000550 -0.008536 0.023393
#
#
# Mechanical properties :
#
#
# Convention : Reuss Voigt Hill
#
# Bulk Modulus (GPa) = 24.44900 58.68454 41.56677
# Shear Modulus (GPa) = 20.41184 38.71316 29.56250
#
# Velocity S-wave (km/s) = 2.87991 3.96613 3.46584
# Velocity P-wave (km/s) = 4.58179 6.69468 5.73635
#
# Compressibility (1/GPa) = 0.04090147
#
# Stress axis : x y z
#
# Youngs Moduli (GPa) = 83.04981 78.53308 22.76327
#
# Poissons Ratio (x) = 0.31264 0.28168
# Poissons Ratio (y) = 0.33062 -0.05585
# Poissons Ratio (z) = 1.02768 -0.19269
#
# Static dielectric constant tensor:
#      x y z
#    x 2.007900 0.040760 0.006070 
#    y 0.040760 2.012770 -0.024400 
#    z 0.006070 -0.024400 1.958610 
# 
# From -- ./inp_files/470178.got.cif
#   From: 2010.05.17/outbox.cif.g08.bks.cpg/sg2_236_cif.got.tgz:470178.got - 2010.06.03 11:33:40.
