data_PCOD9100535
_publ_section_title
;
Structure prediction by ZEFSAII (Michael W. Deem and Ramdas Pophale) SiO2 
 PCOD9100535
Probable space group: P -1
;
_chemical_formula_sum "Si O2"
_cell_formula_units_Z 16
_cell_length_a 14.729343
_cell_length_b 16.066295
_cell_length_c 11.864091
_cell_angle_alpha 65.184508
_cell_angle_beta 32.206861
_cell_angle_gamma 39.284012
_cell_volume 679.368197
_symmetry_space_group_name_H-M "P -1"
_symmetry_group_IT_number 2
_symmetry_cell_setting 'triclinic'
loop_
_space_group_symop_operation_xyz
x,y,z
-x,-y,-z
loop_
_atom_site_type_symbol
_atom_site_label
_atom_site_fract_x
_atom_site_fract_y
_atom_site_fract_z
Si Si1 0.229963 0.498287 0.158595
Si Si2 0.461958 0.107233 0.633077
Si Si3 0.638124 0.210245 0.300664
Si Si4 0.276225 0.145363 0.050125
Si Si5 0.519781 0.756050 0.798788
Si Si6 0.074374 0.737853 0.048956
Si Si7 0.568056 0.744503 0.087100
Si Si8 0.027300 0.078762 0.282339
O O1 0.496622 0.328101 0.060642
O O2 0.863795 0.654639 0.514771
O O3 0.271058 0.579197 0.018734
O O4 0.248317 0.421738 0.076739
O O5 0.476228 0.210802 0.552419
O O6 0.122195 0.228142 0.859689
O O7 0.773910 0.923054 0.335456
O O8 0.484510 0.061767 0.762737
O O9 0.454322 0.289505 0.328784
O O10 0.694770 0.288994 0.228073
O O11 0.000000 0.000000 0.000000
O O12 0.997685 0.199415 0.277021
O O13 0.194134 0.286446 0.096694
O O14 0.500000 0.000000 0.000000
O O15 0.208171 0.967623 0.038160
O O16 0.305001 0.911482 0.176931
O O17 0.319585 0.814033 0.399334
#
# Coordination Sequence:
#
# PCOD9100535 Si02
#       8
#     2   2   2   2   2   2   2   2
#     4  10  20  39  61  91 134 164 198 261 323 367
#     4  10  21  38  61  90 124 155 209 268 304 365
#     4  10  22  36  59  97 119 159 209 256 307 369
#     4  10  21  36  61  89 115 161 210 253 304 364
#     4  10  20  37  64  93 127 163 204 267 314 356
#     4  10  21  37  61  92 122 165 201 255 320 366
#     4   9  20  37  56  86 124 160 200 248 309 367
#     4   9  19  36  59  86 120 157 206 256 297 363
#
# _framework density 23.551292
#
# number of rings (size 3 to 8) (size 9 to 14) (size 15 to 20)
#    0.000    2.250    1.250    0.750    7.000    1.500 
#    2.250    0.625    0.000    1.500    0.000    0.000 
#    0.000    0.000    0.000    0.000    0.000    0.000 
#
# Total GULP energy -89314.487818 kJ/mol
# GULP energy per Si atom -5582.155489 kJ/mol
# Density = 2.349769 g / cm^3
# Si number density = 23.551292 Si / 1000 Ang^3
#
#
#
# Elastic Constant Matrix: (Units=GPa)
#
#
# Indices 1 2 3 4 5 6 
#
# 1 79.5762 32.5816 23.6954 -26.3600 5.1538 -2.0040
# 2 32.5816 102.5000 22.6862 -43.4518 -12.0166 9.7362
# 3 23.6954 22.6862 53.6754 -21.9246 3.1478 5.6021
# 4 -26.3600 -43.4518 -21.9246 40.2104 6.4883 -2.3789
# 5 5.1538 -12.0166 3.1478 6.4883 30.1018 -9.8475
# 6 -2.0040 9.7362 5.6021 -2.3789 -9.8475 32.9016
#
#
#
# Elastic Compliance Matrix: (Units=1/GPa)
#
#
# Indices 1 2 3 4 5 6 
#
# 1 0.017481 -0.001959 -0.003331 0.008380 -0.004779 0.001387
# 2 -0.001959 0.018869 0.000885 0.018969 0.002461 -0.003745
# 3 -0.003331 0.000885 0.026444 0.013935 -0.006807 -0.005997
# 4 0.008380 0.018969 0.013935 0.059742 -0.010231 -0.006218
# 5 -0.004779 0.002461 -0.006807 -0.010231 0.041839 0.011922
# 6 0.001387 -0.003745 -0.005997 -0.006218 0.011922 0.035726
#
#
# Mechanical properties :
#
#
# Convention : Reuss Voigt Hill
#
# Bulk Modulus (GPa) = 18.52423 43.74201 31.13312
# Shear Modulus (GPa) = 22.03567 31.09531 26.56549
#
# Velocity S-wave (km/s) = 3.06215 3.63757 3.36219
# Velocity P-wave (km/s) = 4.51497 6.02129 5.32169
#
# Compressibility (1/GPa) = 0.05398334
#
# Stress axis : x y z
#
# Youngs Moduli (GPa) = 57.20576 52.99762 37.81578
#
# Poissons Ratio (x) = 0.10383 0.12595
# Poissons Ratio (y) = 0.11208 -0.03346
# Poissons Ratio (z) = 0.19053 -0.04689
#
# Static dielectric constant tensor:
#      x y z
#    x 1.959440 -0.045140 -0.047180 
#    y -0.045140 1.938790 0.002900 
#    z -0.047180 0.002900 1.906670 
# 
# From -- ./inp_files/455605.got.cif
#   From: 2010.05.17/outbox.cif.g08.bks.cpg/sg2_228_cif.got.tgz:455605.got - 2010.06.03 11:33:40.
