data_PCOD9100099
_publ_section_title
;
Structure prediction by ZEFSAII (Michael W. Deem and Ramdas Pophale) SiO2 
 PCOD9100099
Probable space group: P -1
;
_chemical_formula_sum "Si O2"
_cell_formula_units_Z 14
_cell_length_a 10.466962
_cell_length_b 8.308399
_cell_length_c 22.604678
_cell_angle_alpha 143.299251
_cell_angle_beta 154.906542
_cell_angle_gamma 44.790267
_cell_volume 497.193503
_symmetry_space_group_name_H-M "P -1"
_symmetry_group_IT_number 2
_symmetry_cell_setting 'triclinic'
loop_
_space_group_symop_operation_xyz
x,y,z
-x,-y,-z
loop_
_atom_site_type_symbol
_atom_site_label
_atom_site_fract_x
_atom_site_fract_y
_atom_site_fract_z
Si Si1 0.832074 0.863827 0.767510
Si Si2 0.141572 0.481773 0.863335
Si Si3 0.261136 0.036269 0.706313
Si Si4 0.627158 0.317709 0.243855
Si Si5 0.239583 0.597781 0.481575
Si Si6 0.334472 0.259930 0.520198
Si Si7 0.302270 0.586495 0.085595
O O1 0.475765 0.773407 0.592369
O O2 0.937119 0.652579 0.699374
O O3 0.996990 0.750556 0.860415
O O4 0.861574 0.188267 0.878131
O O5 0.041621 0.223762 0.704925
O O6 0.500000 0.500000 0.000000
O O7 0.111709 0.445027 0.910309
O O8 0.442333 0.893134 0.793047
O O9 0.093758 0.806415 0.526943
O O10 0.462649 0.220496 0.798993
O O11 0.611225 0.604524 0.354201
O O12 0.449147 0.364659 0.122646
O O13 0.972966 0.252822 0.357873
O O14 0.453473 0.460272 0.577672
O O15 0.500000 0.000000 0.500000
#
# Coordination Sequence:
#
# PCOD9100099 Si02
#       7
#     2   2   2   2   2   2   2
#     4  10  20  37  62  94 121 161 212 254 314 371
#     4  10  22  37  61  88 125 168 206 255 304 366
#     4   9  21  40  59  91 125 155 206 257 308 368
#     4  10  22  40  61  92 128 164 205 259 315 370
#     4   9  20  36  59  92 121 157 202 258 317 365
#     4  10  21  37  58  90 133 160 201 261 316 376
#     4  10  21  41  64  87 123 169 209 250 307 373
#
# _framework density 28.158048999999998
#
# number of rings (size 3 to 8) (size 9 to 14) (size 15 to 20)
#    0.000    2.286    0.000    1.286    6.000    1.143 
#   10.286    0.000    0.000    7.714    0.000    0.000 
#    0.000    0.000    0.000    0.000    0.000    0.000 
#
# Total GULP energy -78176.450655 kJ/mol
# GULP energy per Si atom -5584.032190 kJ/mol
# Density = 2.809396 g / cm^3
# Si number density = 28.158049 Si / 1000 Ang^3
#
#
#
# Elastic Constant Matrix: (Units=GPa)
#
#
# Indices 1 2 3 4 5 6 
#
# 1 123.3584 34.5857 50.2429 1.2484 -3.8922 -2.3836
# 2 34.5857 172.4534 51.7511 -13.5616 -12.5025 -22.9757
# 3 50.2429 51.7511 114.1172 -10.8785 -29.9617 -15.6471
# 4 1.2484 -13.5616 -10.8785 62.2906 2.6542 -27.5020
# 5 -3.8922 -12.5025 -29.9617 2.6542 40.6938 4.8945
# 6 -2.3836 -22.9757 -15.6471 -27.5020 4.8945 46.1312
#
#
#
# Elastic Compliance Matrix: (Units=1/GPa)
#
#
# Indices 1 2 3 4 5 6 
#
# 1 0.010624 -0.001349 -0.005567 -0.002860 -0.002901 -0.003409
# 2 -0.001349 0.007605 -0.001759 0.003734 0.000026 0.005345
# 3 -0.005567 -0.001759 0.015784 0.004728 0.009519 0.005999
# 4 -0.002860 0.003734 0.004728 0.026030 0.000397 0.018792
# 5 -0.002901 0.000026 0.009519 0.000397 0.031286 0.000009
# 6 -0.003409 0.005345 0.005999 0.018792 0.000009 0.037400
#
#
# Mechanical properties :
#
#
# Convention : Reuss Voigt Hill
#
# Bulk Modulus (GPa) = 60.01869 75.89873 67.95871
# Shear Modulus (GPa) = 32.97444 48.04640 40.51042
#
# Velocity S-wave (km/s) = 3.42577 4.13523 3.79711
# Velocity P-wave (km/s) = 6.08351 7.05785 6.58872
#
# Compressibility (1/GPa) = 0.01666148
#
# Stress axis : x y z
#
# Youngs Moduli (GPa) = 94.12827 131.49729 63.35505
#
# Poissons Ratio (x) = 0.17744 0.35271
# Poissons Ratio (y) = 0.12702 0.11144
# Poissons Ratio (z) = 0.52403 0.23130
#
# Static dielectric constant tensor:
#      x y z
#    x 2.279260 0.047530 0.015650 
#    y 0.047530 2.244010 0.062730 
#    z 0.015650 0.062730 2.281330 
# 
# From -- ./inp_files/518680.got.cif
#   From: 2010.05.17/outbox.cif.g08.bks.cpg/sg2_260_cif.got.tgz:518680.got - 2010.06.03 11:33:40.
