data_PCOD9100163
_publ_section_title
;
Structure prediction by ZEFSAII (Michael W. Deem and Ramdas Pophale) SiO2 
 PCOD9100163
Probable space group: P -1
;
_chemical_formula_sum "Si O2"
_cell_formula_units_Z 13
_cell_length_a 8.117097
_cell_length_b 15.091795
_cell_length_c 9.318024
_cell_angle_alpha 61.717526
_cell_angle_beta 93.085500
_cell_angle_gamma 136.644506
_cell_volume 605.088359
_symmetry_space_group_name_H-M "P -1"
_symmetry_group_IT_number 2
_symmetry_cell_setting 'triclinic'
loop_
_space_group_symop_operation_xyz
x,y,z
-x,-y,-z
loop_
_atom_site_type_symbol
_atom_site_label
_atom_site_fract_x
_atom_site_fract_y
_atom_site_fract_z
Si Si1 0.816630 0.742359 0.003642
Si Si2 0.211013 0.863965 0.168982
Si Si3 0.904426 0.137646 0.364545
Si Si4 0.277670 0.613508 0.840779
Si Si5 0.810839 0.960687 0.749763
Si Si6 0.688859 0.207492 0.505536
Si Si7 0.500000 0.500000 0.000000
O O1 0.897244 0.898296 0.875823
O O2 0.858480 0.727792 0.845175
O O3 0.502235 0.561122 0.120592
O O4 0.985229 0.767378 0.110335
O O5 0.200506 0.766341 0.353479
O O6 0.200841 0.957452 0.197694
O O7 0.500000 0.000000 0.000000
O O8 0.822942 0.195571 0.406045
O O9 0.973253 0.084555 0.524464
O O10 0.637348 0.976257 0.382736
O O11 0.515064 0.791796 0.798361
O O12 0.259239 0.656128 0.651560
O O13 0.370549 0.544700 0.887021
O O14 0.000000 0.500000 0.000000
#
# Coordination Sequence:
#
# PCOD9100163 Si02
#       7
#     2   2   2   2   2   2   1
#     4  11  20  36  57  82 120 148 187 240 288 335
#     4  11  21  34  59  85 118 149 184 235 297 338
#     4   9  16  31  58  82 112 141 192 242 281 336
#     4  10  20  37  63  79 117 153 195 235 283 336
#     4   9  21  35  55  89 111 146 194 239 289 335
#     4   9  18  33  53  90 110 145 194 232 282 343
#     4  10  24  36  56  88 108 154 200 226 276 354
#
# _framework density 21.484466000000001
#
# number of rings (size 3 to 8) (size 9 to 14) (size 15 to 20)
#    0.000    2.154    1.538    2.769    2.154    0.000 
#    0.000    0.769    0.000    9.231    0.000    0.000 
#    0.000    0.000    0.000    0.000    0.000    0.000 
#
# Total GULP energy -72401.300618 kJ/mol
# GULP energy per Si atom -5569.330817 kJ/mol
# Density = 2.143557 g / cm^3
# Si number density = 21.484466 Si / 1000 Ang^3
#
#
#
# Elastic Constant Matrix: (Units=GPa)
#
#
# Indices 1 2 3 4 5 6 
#
# 1 100.1103 23.8305 70.2768 6.8398 34.3221 -0.0829
# 2 23.8305 77.9860 53.8367 14.3328 17.7655 7.4261
# 3 70.2768 53.8367 147.3156 12.6907 38.0876 13.2880
# 4 6.8398 14.3328 12.6907 37.1069 9.1081 7.1039
# 5 34.3221 17.7655 38.0876 9.1081 55.9038 6.3746
# 6 -0.0829 7.4261 13.2880 7.1039 6.3746 30.8287
#
#
#
# Elastic Compliance Matrix: (Units=1/GPa)
#
#
# Indices 1 2 3 4 5 6 
#
# 1 0.016976 0.000811 -0.007139 -0.000285 -0.006259 0.004287
# 2 0.000811 0.018037 -0.006243 -0.004625 -0.001184 -0.000341
# 3 -0.007139 -0.006243 0.013407 0.000479 -0.002400 -0.003908
# 4 -0.000285 -0.004625 0.000479 0.030413 -0.003012 -0.005479
# 5 -0.006259 -0.001184 -0.002400 -0.003012 0.024584 -0.003087
# 6 0.004287 -0.000341 -0.003908 -0.005479 -0.003087 0.036116
#
#
# Mechanical properties :
#
#
# Convention : Reuss Voigt Hill
#
# Bulk Modulus (GPa) = 42.95922 69.03329 55.99626
# Shear Modulus (GPa) = 28.99640 36.59906 32.79773
#
# Velocity S-wave (km/s) = 3.67774 4.13184 3.91138
# Velocity P-wave (km/s) = 6.17035 7.41379 6.82047
#
# Compressibility (1/GPa) = 0.02327789
#
# Stress axis : x y z
#
# Youngs Moduli (GPa) = 58.90618 55.44086 74.58841
#
# Poissons Ratio (x) = -0.04494 0.53246
# Poissons Ratio (y) = -0.04775 0.46567
# Poissons Ratio (z) = 0.42051 0.34613
#
# Static dielectric constant tensor:
#      x y z
#    x 1.809410 0.013120 0.006080 
#    y 0.013120 1.840360 -0.043030 
#    z 0.006080 -0.043030 1.850160 
# 
# From -- ./inp_files/149432.got.cif
#   From: 2010.05.17/outbox.cif.g08.bks.cpg/sg2_75_cif.got.tgz:149432.got - 2010.06.03 11:33:40.
