data_PCOD9100694
_publ_section_title
;
Structure prediction by ZEFSAII (Michael W. Deem and Ramdas Pophale) SiO2 
 PCOD9100694
Probable space group: P -1
;
_chemical_formula_sum "Si O2"
_cell_formula_units_Z 14
_cell_length_a 7.701226
_cell_length_b 23.227131
_cell_length_c 7.281675
_cell_angle_alpha 126.526494
_cell_angle_beta 53.990481
_cell_angle_gamma 144.050305
_cell_volume 598.744220
_symmetry_space_group_name_H-M "P -1"
_symmetry_group_IT_number 2
_symmetry_cell_setting 'triclinic'
loop_
_space_group_symop_operation_xyz
x,y,z
-x,-y,-z
loop_
_atom_site_type_symbol
_atom_site_label
_atom_site_fract_x
_atom_site_fract_y
_atom_site_fract_z
Si Si1 0.241584 0.059898 0.623665
Si Si2 0.775322 0.879695 0.818076
Si Si3 0.535532 0.257326 0.610650
Si Si4 0.892166 0.672427 0.750145
Si Si5 0.685582 0.393502 0.057267
Si Si6 0.134240 0.830362 0.617043
Si Si7 0.850787 0.279020 0.920038
O O1 0.424766 0.175278 0.679949
O O2 0.514305 0.067938 0.447073
O O3 0.000000 0.000000 0.500000
O O4 0.025092 0.994038 0.803835
O O5 0.647233 0.807431 0.578081
O O6 0.466601 0.830269 0.016296
O O7 0.936234 0.853941 0.776910
O O8 0.893232 0.338089 0.493786
O O9 0.497984 0.322677 0.859298
O O10 0.565223 0.606532 0.729740
O O11 0.088911 0.786269 0.763771
O O12 0.931739 0.669098 0.937525
O O13 0.770350 0.342446 0.028044
O O14 0.000000 0.500000 0.000000
O O15 0.040039 0.748898 0.364145
#
# Coordination Sequence:
#
# PCOD9100694 Si02
#       7
#     2   2   2   2   2   2   2
#     4   9  18  34  60  91 125 164 202 245 298 362
#     4  10  20  37  65  91 124 168 203 243 307 365
#     4   9  20  42  60  90 132 157 202 263 296 359
#     4  10  22  41  64  89 124 163 198 257 307 359
#     4  12  24  42  67  92 119 162 211 254 311 370
#     4  11  20  39  63  88 130 165 199 251 306 354
#     4  11  23  41  64  93 125 163 204 252 307 363
#
# _framework density 23.382272
#
# number of rings (size 3 to 8) (size 9 to 14) (size 15 to 20)
#    0.000    1.714    4.286    2.143    0.000    1.714 
#    0.000    2.857    0.000   16.286    0.000    0.000 
#    0.000    0.000    0.000    0.000    0.000    0.000 
#
# Total GULP energy -77964.940384 kJ/mol
# GULP energy per Si atom -5568.924313 kJ/mol
# Density = 2.332905 g / cm^3
# Si number density = 23.382272 Si / 1000 Ang^3
#
#
#
# Elastic Constant Matrix: (Units=GPa)
#
#
# Indices 1 2 3 4 5 6 
#
# 1 131.0884 18.3359 27.6993 -15.8954 -3.4320 -5.5500
# 2 18.3359 98.1314 4.2482 -22.0316 0.1104 4.5305
# 3 27.6993 4.2482 49.7370 -13.4746 7.7927 -4.1149
# 4 -15.8954 -22.0316 -13.4746 25.9584 -0.8594 -6.5816
# 5 -3.4320 0.1104 7.7927 -0.8594 33.0249 -8.1856
# 6 -5.5500 4.5305 -4.1149 -6.5816 -8.1856 22.6346
#
#
#
# Elastic Compliance Matrix: (Units=1/GPa)
#
#
# Indices 1 2 3 4 5 6 
#
# 1 0.009365 -0.000879 -0.004240 0.003887 0.003053 0.003936
# 2 -0.000879 0.012912 0.002812 0.012174 -0.000188 0.001183
# 3 -0.004240 0.002812 0.027752 0.015585 -0.005071 0.006140
# 4 0.003887 0.012174 0.015585 0.064918 0.003722 0.021572
# 5 0.003053 -0.000188 -0.005071 0.003722 0.035289 0.013709
# 6 0.003936 0.001183 0.006140 0.021572 0.013709 0.057255
#
#
# Mechanical properties :
#
#
# Convention : Reuss Voigt Hill
#
# Bulk Modulus (GPa) = 22.01951 42.16928 32.09440
# Shear Modulus (GPa) = 22.00284 31.56847 26.78565
#
# Velocity S-wave (km/s) = 3.07091 3.67836 3.38828
# Velocity P-wave (km/s) = 4.69165 6.00952 5.39101
#
# Compressibility (1/GPa) = 0.04541426
#
# Stress axis : x y z
#
# Youngs Moduli (GPa) = 106.77794 77.44950 36.03374
#
# Poissons Ratio (x) = 0.06807 0.15280
# Poissons Ratio (y) = 0.09384 -0.10133
# Poissons Ratio (z) = 0.45278 -0.21779
#
# Static dielectric constant tensor:
#      x y z
#    x 1.920450 0.029410 0.006550 
#    y 0.029410 1.874430 0.016750 
#    z 0.006550 0.016750 1.973720 
# 
# From -- ./inp_files/227483.got.cif
#   From: 2010.05.17/outbox.cif.g08.bks.cpg/sg2_114_cif.got.tgz:227483.got - 2010.06.03 11:33:40.
