data_PCOD9100877
_publ_section_title
;
Structure prediction by ZEFSAII (Michael W. Deem and Ramdas Pophale) SiO2 
 PCOD9100877
Probable space group: P -1
;
_chemical_formula_sum "Si O2"
_cell_formula_units_Z 14
_cell_length_a 8.348875
_cell_length_b 14.571445
_cell_length_c 5.109944
_cell_angle_alpha 68.500880
_cell_angle_beta 76.853782
_cell_angle_gamma 70.171868
_cell_volume 540.318062
_symmetry_space_group_name_H-M "P -1"
_symmetry_group_IT_number 2
_symmetry_cell_setting 'triclinic'
loop_
_space_group_symop_operation_xyz
x,y,z
-x,-y,-z
loop_
_atom_site_type_symbol
_atom_site_label
_atom_site_fract_x
_atom_site_fract_y
_atom_site_fract_z
Si Si1 0.943721 0.447118 0.825502
Si Si2 0.504058 0.320507 0.368136
Si Si3 0.052234 0.832799 0.208190
Si Si4 0.351560 0.618636 0.242472
Si Si5 0.223829 0.244592 0.850967
Si Si6 0.191928 0.891568 0.590072
Si Si7 0.611787 0.954797 0.755253
O O1 0.063164 0.330798 0.934541
O O2 0.000000 0.500000 0.500000
O O3 0.750148 0.448465 0.814277
O O4 0.000000 0.500000 0.000000
O O5 0.567541 0.392218 0.483691
O O6 0.336639 0.298600 0.576243
O O7 0.642219 0.207629 0.407603
O O8 0.506947 0.363721 0.030028
O O9 0.192840 0.721686 0.238149
O O10 0.060111 0.865922 0.465288
O O11 0.865202 0.825556 0.214224
O O12 0.123903 0.898735 0.902380
O O13 0.333987 0.167934 0.105164
O O14 0.237853 0.991347 0.370586
O O15 0.500000 0.000000 0.500000
O O16 0.500000 0.000000 0.000000
#
# Coordination Sequence:
#
# PCOD9100877 Si02
#       7
#     2   2   2   2   2   2   2
#     4  11  25  48  73  98 134 176 228 284 344 400
#     4  10  20  37  66  95 136 174 215 265 336 399
#     4   9  21  38  63  92 132 176 226 268 329 393
#     4   9  20  39  64  96 131 174 211 275 338 395
#     4  11  26  44  70 104 134 181 230 284 335 403
#     4  10  20  40  61  92 136 182 214 272 328 394
#     4  12  26  41  66 102 143 178 228 276 336 400
#
# _framework density 25.910664000000001
#
# number of rings (size 3 to 8) (size 9 to 14) (size 15 to 20)
#    0.000    1.714    1.429    1.714    4.000    9.143 
#    0.000    4.286    0.000    0.000    0.000    0.000 
#    0.000    0.000    0.000    0.000    0.000    0.000 
#
# Total GULP energy -78413.536509 kJ/mol
# GULP energy per Si atom -5600.966893 kJ/mol
# Density = 2.585169 g / cm^3
# Si number density = 25.910664 Si / 1000 Ang^3
#
#
#
# Elastic Constant Matrix: (Units=GPa)
#
#
# Indices 1 2 3 4 5 6 
#
# 1 92.3528 16.8753 19.3472 7.3083 -0.9048 7.6910
# 2 16.8753 90.6102 18.0955 7.2574 8.8993 -7.9747
# 3 19.3472 18.0955 119.6674 20.0948 17.1649 13.3394
# 4 7.3083 7.2574 20.0948 33.4007 3.8296 -1.5508
# 5 -0.9048 8.8993 17.1649 3.8296 42.7586 -7.3680
# 6 7.6910 -7.9747 13.3394 -1.5508 -7.3680 39.6607
#
#
#
# Elastic Compliance Matrix: (Units=1/GPa)
#
#
# Indices 1 2 3 4 5 6 
#
# 1 0.011785 -0.002111 -0.001207 -0.001603 0.000939 -0.002192
# 2 -0.002111 0.012210 -0.001483 -0.001000 -0.001372 0.003069
# 3 -0.001207 -0.001483 0.010893 -0.005684 -0.004402 -0.004768
# 4 -0.001603 -0.001000 -0.005684 0.034085 -0.000019 0.003351
# 5 0.000939 -0.001372 -0.004402 -0.000019 0.026486 0.005942
# 6 -0.002192 0.003069 -0.004768 0.003351 0.005942 0.029095
#
#
# Mechanical properties :
#
#
# Convention : Reuss Voigt Hill
#
# Bulk Modulus (GPa) = 39.54452 45.69623 42.62038
# Shear Modulus (GPa) = 35.06693 39.71816 37.39254
#
# Velocity S-wave (km/s) = 3.68282 3.91946 3.80298
# Velocity P-wave (km/s) = 5.77748 6.17715 5.98065
#
# Compressibility (1/GPa) = 0.02528795
#
# Stress axis : x y z
#
# Youngs Moduli (GPa) = 84.85193 81.89742 91.79927
#
# Poissons Ratio (x) = 0.17284 0.11084
# Poissons Ratio (y) = 0.17908 0.13610
# Poissons Ratio (z) = 0.10245 0.12142
#
# Static dielectric constant tensor:
#      x y z
#    x 2.110920 0.048990 0.041460 
#    y 0.048990 2.121010 -0.036480 
#    z 0.041460 -0.036480 1.944310 
# 
# From -- ./inp_files/34414.got.cif
#   From: 2010.05.17/outbox.cif.g08.bks.cpg/sg2_18_cif.got.tgz:34414.got - 2010.06.03 11:33:40.
