data_PCOD9100539
_publ_section_title
;
Structure prediction by ZEFSAII (Michael W. Deem and Ramdas Pophale) SiO2 
 PCOD9100539
Probable space group: P -1
;
_chemical_formula_sum "Si O2"
_cell_formula_units_Z 14
_cell_length_a 14.090281
_cell_length_b 20.381331
_cell_length_c 5.511281
_cell_angle_alpha 59.227092
_cell_angle_beta 56.901918
_cell_angle_gamma 25.775086
_cell_volume 575.695709
_symmetry_space_group_name_H-M "P -1"
_symmetry_group_IT_number 2
_symmetry_cell_setting 'triclinic'
loop_
_space_group_symop_operation_xyz
x,y,z
-x,-y,-z
loop_
_atom_site_type_symbol
_atom_site_label
_atom_site_fract_x
_atom_site_fract_y
_atom_site_fract_z
Si Si1 0.266561 0.837633 0.414610
Si Si2 0.122064 0.546698 0.314573
Si Si3 0.470503 0.788333 0.725048
Si Si4 0.566351 0.524414 0.666578
Si Si5 0.587906 0.037036 0.815032
Si Si6 0.970022 0.272497 0.288713
Si Si7 0.302801 0.170221 0.357809
O O1 0.354863 0.820695 0.580346
O O2 0.360083 0.696087 0.540598
O O3 0.358013 0.824516 0.063477
O O4 0.000000 0.000000 0.500000
O O5 0.273555 0.388829 0.316186
O O6 0.273287 0.505700 0.373043
O O7 0.874164 0.681905 0.509992
O O8 0.087178 0.622682 0.994236
O O9 0.445780 0.892514 0.508195
O O10 0.731364 0.386470 0.507094
O O11 0.500000 0.500000 0.000000
O O12 0.851523 0.884857 0.801907
O O13 0.419998 0.161210 0.026032
O O14 0.500000 0.000000 0.000000
O O15 0.132740 0.208453 0.394503
O O16 0.500000 0.000000 0.500000
#
# Coordination Sequence:
#
# PCOD9100539 Si02
#       7
#     2   2   2   2   2   2   2
#     4  11  25  47  69 100 138 180 232 282 348 415
#     4  10  21  41  64  92 136 174 223 281 338 413
#     4  11  25  46  69  98 141 183 224 291 348 408
#     4  10  23  40  65  97 130 175 225 284 342 406
#     4  10  23  41  65  99 131 177 232 281 340 409
#     4  10  20  39  62  91 130 168 224 276 334 408
#     4  10  20  37  64  93 130 170 221 279 334 401
#
# _framework density 24.318404000000001
#
# number of rings (size 3 to 8) (size 9 to 14) (size 15 to 20)
#    0.000    1.714    2.857    0.429    2.000    4.571 
#    0.000    2.857    0.000    0.000    0.000    0.000 
#    0.000    0.000    0.000    0.000    0.000    0.000 
#
# Total GULP energy -78152.218336 kJ/mol
# GULP energy per Si atom -5582.301310 kJ/mol
# Density = 2.426305 g / cm^3
# Si number density = 24.318404 Si / 1000 Ang^3
#
#
#
# Elastic Constant Matrix: (Units=GPa)
#
#
# Indices 1 2 3 4 5 6 
#
# 1 68.8462 38.1128 8.3512 9.3466 7.6801 4.5166
# 2 38.1128 248.1687 111.3745 18.5795 -19.8279 -21.5161
# 3 8.3512 111.3745 202.9261 21.1155 -8.0296 10.1580
# 4 9.3466 18.5795 21.1155 56.2262 -4.6583 0.5397
# 5 7.6801 -19.8279 -8.0296 -4.6583 29.8985 -8.4879
# 6 4.5166 -21.5161 10.1580 0.5397 -8.4879 32.7004
#
#
#
# Elastic Compliance Matrix: (Units=1/GPa)
#
#
# Indices 1 2 3 4 5 6 
#
# 1 0.019936 -0.005956 0.002853 -0.003295 -0.011820 -0.010573
# 2 -0.005956 0.008624 -0.004705 0.000553 0.008991 0.010283
# 3 0.002853 -0.004705 0.007800 -0.002118 -0.004056 -0.006930
# 4 -0.003295 0.000553 -0.002118 0.019280 0.004294 0.002274
# 5 -0.011820 0.008991 -0.004056 0.004294 0.048046 0.021209
# 6 -0.010573 0.010283 -0.006930 0.002274 0.021209 0.046428
#
#
# Mechanical properties :
#
#
# Convention : Reuss Voigt Hill
#
# Bulk Modulus (GPa) = 48.20789 92.84642 70.52716
# Shear Modulus (GPa) = 28.96137 47.90521 38.43329
#
# Velocity S-wave (km/s) = 3.45472 4.44319 3.97976
# Velocity P-wave (km/s) = 5.98165 8.03648 7.08396
#
# Compressibility (1/GPa) = 0.02074349
#
# Stress axis : x y z
#
# Youngs Moduli (GPa) = 50.16060 115.95210 128.21307
#
# Poissons Ratio (x) = 0.69066 -0.36581
# Poissons Ratio (y) = 0.29878 0.60322
# Poissons Ratio (z) = -0.14311 0.54553
#
# Static dielectric constant tensor:
#      x y z
#    x 2.238580 0.103630 0.142720 
#    y 0.103630 1.982360 0.085310 
#    z 0.142720 0.085310 1.966420 
# 
# From -- ./inp_files/112581.got.cif
#   From: 2010.05.17/outbox.cif.g08.bks.cpg/sg2_57_cif.got.tgz:112581.got - 2010.06.03 11:33:40.
