data_PCOD9100590
_publ_section_title
;
Structure prediction by ZEFSAII (Michael W. Deem and Ramdas Pophale) SiO2 
 PCOD9100590
Probable space group: P -1
;
_chemical_formula_sum "Si O2"
_cell_formula_units_Z 16
_cell_length_a 9.275139
_cell_length_b 7.163064
_cell_length_c 13.721601
_cell_angle_alpha 59.808267
_cell_angle_beta 73.420524
_cell_angle_gamma 102.958159
_cell_volume 676.727278
_symmetry_space_group_name_H-M "P -1"
_symmetry_group_IT_number 2
_symmetry_cell_setting 'triclinic'
loop_
_space_group_symop_operation_xyz
x,y,z
-x,-y,-z
loop_
_atom_site_type_symbol
_atom_site_label
_atom_site_fract_x
_atom_site_fract_y
_atom_site_fract_z
Si Si1 0.126576 0.846721 0.294226
Si Si2 0.525810 0.775165 0.935207
Si Si3 0.059095 0.338959 0.806509
Si Si4 0.700399 0.681626 0.077744
Si Si5 0.844022 0.444026 0.972601
Si Si6 0.578208 0.762383 0.636646
Si Si7 0.656341 0.305740 0.473620
Si Si8 0.165331 0.379381 0.457661
O O1 0.035958 0.848358 0.210494
O O2 0.123411 0.583654 0.365998
O O3 0.003240 0.832894 0.409490
O O4 0.317612 0.043750 0.205474
O O5 0.348240 0.770173 0.942466
O O6 0.500000 0.500000 0.000000
O O7 0.595672 0.820592 0.022014
O O8 0.160506 0.238915 0.884278
O O9 0.195517 0.576512 0.664821
O O10 0.929191 0.414368 0.865583
O O11 0.795464 0.644532 0.974839
O O12 0.560463 0.426661 0.215086
O O13 0.000000 0.500000 0.000000
O O14 0.502006 0.716654 0.552977
O O15 0.737691 0.709491 0.612284
O O16 0.623265 0.037531 0.577833
O O17 0.716318 0.479639 0.509557
#
# Coordination Sequence:
#
# PCOD9100590 Si02
#       8
#     2   2   2   2   2   2   2   2
#     4  10  23  41  60  93 131 174 216 275 323 384
#     4  10  22  38  62  88 123 164 216 266 316 388
#     4   9  19  39  60  86 133 165 215 264 328 382
#     4   9  20  37  58  94 127 165 215 268 311 397
#     4   9  19  37  61  84 122 162 202 265 321 378
#     4  10  20  37  64  96 128 170 222 261 336 377
#     4   9  20  38  64  93 128 170 216 281 310 392
#     4  10  22  41  64  91 134 171 217 270 325 388
#
# _framework density 23.643201999999999
#
# number of rings (size 3 to 8) (size 9 to 14) (size 15 to 20)
#    0.000    2.500    0.000    0.375    5.250    3.000 
#    0.000    6.875   11.000    0.000    0.000    0.000 
#    0.000    0.000    0.000    0.000    0.000    0.000 
#
# Total GULP energy -89128.278452 kJ/mol
# GULP energy per Si atom -5570.517403 kJ/mol
# Density = 2.358939 g / cm^3
# Si number density = 23.643202 Si / 1000 Ang^3
#
#
#
# Elastic Constant Matrix: (Units=GPa)
#
#
# Indices 1 2 3 4 5 6 
#
# 1 146.8940 36.0098 53.1752 -2.0127 -14.3168 17.1989
# 2 36.0098 49.5305 47.8785 -3.8262 -19.0869 8.4225
# 3 53.1752 47.8785 108.0669 -15.8117 -24.5333 6.1105
# 4 -2.0127 -3.8262 -15.8117 26.1638 10.3553 -8.3321
# 5 -14.3168 -19.0869 -24.5333 10.3553 42.7744 8.5195
# 6 17.1989 8.4225 6.1105 -8.3321 8.5195 40.1269
#
#
#
# Elastic Compliance Matrix: (Units=1/GPa)
#
#
# Indices 1 2 3 4 5 6 
#
# 1 0.009213 -0.002273 -0.003424 -0.003725 0.001826 -0.004111
# 2 -0.002273 0.044707 -0.016496 -0.013505 0.015380 -0.011967
# 3 -0.003424 -0.016496 0.019376 0.010787 -0.000883 0.004407
# 4 -0.003725 -0.013505 0.010787 0.055428 -0.018119 0.018145
# 5 0.001826 0.015380 -0.000883 -0.018119 0.037854 -0.015675
# 6 -0.004111 -0.011967 0.004407 0.018145 -0.015675 0.035620
#
#
# Mechanical properties :
#
#
# Convention : Reuss Voigt Hill
#
# Bulk Modulus (GPa) = 34.59249 64.29092 49.44170
# Shear Modulus (GPa) = 19.51454 32.97487 26.24471
#
# Velocity S-wave (km/s) = 2.87605 3.73860 3.33533
# Velocity P-wave (km/s) = 5.06870 6.77402 5.98244
#
# Compressibility (1/GPa) = 0.02890801
#
# Stress axis : x y z
#
# Youngs Moduli (GPa) = 108.54644 22.36808 51.61115
#
# Poissons Ratio (x) = 0.05084 0.17673
# Poissons Ratio (y) = 0.24669 0.85140
# Poissons Ratio (z) = 0.37169 0.36899
#
# Static dielectric constant tensor:
#      x y z
#    x 2.049800 0.083570 0.020130 
#    y 0.083570 2.084470 0.060780 
#    z 0.020130 0.060780 1.917450 
# 
# From -- ./inp_files/494363.got.cif
#   From: 2010.05.17/outbox.cif.g08.bks.cpg/sg2_248_cif.got.tgz:494363.got - 2010.06.03 11:33:40.
