data_PCOD9100644
_publ_section_title
;
Structure prediction by ZEFSAII (Michael W. Deem and Ramdas Pophale) SiO2 
 PCOD9100644
Probable space group: P -1
;
_chemical_formula_sum "Si O2"
_cell_formula_units_Z 16
_cell_length_a 5.386369
_cell_length_b 8.856342
_cell_length_c 19.981436
_cell_angle_alpha 60.233798
_cell_angle_beta 52.895285
_cell_angle_gamma 76.841472
_cell_volume 656.331902
_symmetry_space_group_name_H-M "P -1"
_symmetry_group_IT_number 2
_symmetry_cell_setting 'triclinic'
loop_
_space_group_symop_operation_xyz
x,y,z
-x,-y,-z
loop_
_atom_site_type_symbol
_atom_site_label
_atom_site_fract_x
_atom_site_fract_y
_atom_site_fract_z
Si Si1 0.841126 0.534432 0.681286
Si Si2 0.813795 0.019202 0.260522
Si Si3 0.714049 0.680969 0.414529
Si Si4 0.731223 0.888688 0.946588
Si Si5 0.914611 0.148014 0.351589
Si Si6 0.807939 0.832832 0.514837
Si Si7 0.759548 0.336273 0.018344
Si Si8 0.705480 0.404574 0.161536
O O1 0.891763 0.675680 0.582090
O O2 0.494264 0.498399 0.774155
O O3 0.993677 0.370045 0.665186
O O4 0.997828 0.649071 0.692111
O O5 0.029404 0.996483 0.166665
O O6 0.023506 0.073619 0.280464
O O7 0.662320 0.199158 0.232458
O O8 0.601389 0.842627 0.354959
O O9 0.500000 0.500000 0.500000
O O10 0.782849 0.751374 0.462010
O O11 0.961823 0.783207 0.978227
O O12 0.501041 0.765562 0.962776
O O13 0.500000 0.000000 0.000000
O O14 0.538154 0.128991 0.414558
O O15 0.995106 0.022152 0.427230
O O16 0.628838 0.402003 0.095609
O O17 0.944612 0.501280 0.914740
#
# Coordination Sequence:
#
# PCOD9100644 Si02
#       8
#     2   2   2   2   2   2   2   2
#     4  12  22  37  66  96 124 175 233 278 348 412
#     4  10  23  44  66  99 136 181 231 285 353 424
#     4  11  24  42  62  95 143 179 222 289 354 410
#     4  11  24  46  74 107 149 187 231 297 371 436
#     4  10  20  37  65  86 125 168 226 282 327 410
#     4  10  21  39  57  89 125 169 221 279 341 397
#     4  10  24  46  73 106 147 185 240 296 364 427
#     4  10  23  42  71 104 133 185 236 298 344 432
#
# _framework density 24.37791
#
# number of rings (size 3 to 8) (size 9 to 14) (size 15 to 20)
#    0.000    1.500    2.500    1.875    1.750    6.500 
#    2.250    2.500    0.000    0.000    0.000    0.000 
#    0.000    0.000    0.000    0.000    0.000    0.000 
#
# Total GULP energy -89384.900576 kJ/mol
# GULP energy per Si atom -5586.556286 kJ/mol
# Density = 2.432242 g / cm^3
# Si number density = 24.377910 Si / 1000 Ang^3
#
#
#
# Elastic Constant Matrix: (Units=GPa)
#
#
# Indices 1 2 3 4 5 6 
#
# 1 74.4341 12.6346 16.0502 -9.5934 3.0151 -17.4512
# 2 12.6346 103.3692 51.4243 19.3574 6.5668 -24.0810
# 3 16.0502 51.4243 128.2017 5.1202 0.6820 -7.7396
# 4 -9.5934 19.3574 5.1202 57.6882 3.2355 -9.0547
# 5 3.0151 6.5668 0.6820 3.2355 19.5950 -5.2972
# 6 -17.4512 -24.0810 -7.7396 -9.0547 -5.2972 38.0114
#
#
#
# Elastic Compliance Matrix: (Units=1/GPa)
#
#
# Indices 1 2 3 4 5 6 
#
# 1 0.016247 0.000008 -0.001717 0.004157 -0.000975 0.007969
# 2 0.000008 0.014752 -0.005344 -0.003220 -0.002288 0.007175
# 3 -0.001717 -0.005344 0.010027 0.000253 0.001148 -0.001912
# 4 0.004157 -0.003220 0.000253 0.019871 -0.001655 0.004423
# 5 -0.000975 -0.002288 0.001148 -0.001655 0.053648 0.005419
# 6 0.007969 0.007175 -0.001912 0.004423 0.005419 0.035932
#
#
# Mechanical properties :
#
#
# Convention : Reuss Voigt Hill
#
# Bulk Modulus (GPa) = 37.14724 51.80256 44.47490
# Shear Modulus (GPa) = 28.80914 38.11866 33.46390
#
# Velocity S-wave (km/s) = 3.44142 3.95860 3.70903
# Velocity P-wave (km/s) = 5.57336 6.49538 6.05195
#
# Compressibility (1/GPa) = 0.02691990
#
# Stress axis : x y z
#
# Youngs Moduli (GPa) = 61.54903 67.78963 99.72851
#
# Poissons Ratio (x) = -0.00057 0.17125
# Poissons Ratio (y) = -0.00052 0.53297
# Poissons Ratio (z) = 0.10569 0.36228
#
# Static dielectric constant tensor:
#      x y z
#    x 2.042350 -0.014670 0.006900 
#    y -0.014670 1.946620 -0.025960 
#    z 0.006900 -0.025960 1.980310 
# 
# From -- ./inp_files/107357.got.cif
#   From: 2010.05.17/outbox.cif.g08.bks.cpg/sg2_54_cif.got.tgz:107357.got - 2010.06.03 11:33:40.
