data_PCOD9100906
_publ_section_title
;
Structure prediction by ZEFSAII (Michael W. Deem and Ramdas Pophale) SiO2 
 PCOD9100906
Probable space group: P -1
;
_chemical_formula_sum "Si O2"
_cell_formula_units_Z 12
_cell_length_a 7.549688
_cell_length_b 7.882409
_cell_length_c 9.952682
_cell_angle_alpha 117.972473
_cell_angle_beta 95.240218
_cell_angle_gamma 102.851286
_cell_volume 496.643196
_symmetry_space_group_name_H-M "P -1"
_symmetry_group_IT_number 2
_symmetry_cell_setting 'triclinic'
loop_
_space_group_symop_operation_xyz
x,y,z
-x,-y,-z
loop_
_atom_site_type_symbol
_atom_site_label
_atom_site_fract_x
_atom_site_fract_y
_atom_site_fract_z
Si Si1 0.489528 0.808332 0.020820
Si Si2 0.385000 0.517398 0.372349
Si Si3 0.109778 0.760889 0.544298
Si Si4 0.119553 0.570622 0.762650
Si Si5 0.572365 0.874537 0.346394
Si Si6 0.143881 0.219977 0.072500
O O1 0.314389 0.641132 0.880954
O O2 0.692082 0.767664 0.018300
O O3 0.465392 0.862398 0.193246
O O4 0.500000 0.000000 0.000000
O O5 0.500000 0.500000 0.500000
O O6 0.245191 0.638075 0.452272
O O7 0.512496 0.649816 0.315343
O O8 0.274581 0.292748 0.237924
O O9 0.107427 0.714971 0.686778
O O10 0.931306 0.645571 0.397864
O O11 0.212349 0.994561 0.612483
O O12 0.970263 0.616155 0.874547
O O13 0.500000 0.000000 0.500000
O O14 0.000000 0.000000 0.000000
#
# Coordination Sequence:
#
# PCOD9100906 Si02
#       6
#     2   2   2   2   2   2
#     4  12  22  39  68  95 126 176 208 260 334 377
#     4  10  22  38  63  94 129 172 214 268 322 378
#     4   9  18  38  63  94 130 172 211 261 319 385
#     4  10  20  37  66  98 130 171 211 261 321 383
#     4  10  22  40  64  95 128 171 221 262 317 393
#     4  11  22  37  62  96 126 165 217 262 312 390
#
# _framework density 24.162216999999998
#
# number of rings (size 3 to 8) (size 9 to 14) (size 15 to 20)
#    0.000    1.667    3.333    1.000    2.333    0.667 
#    0.000    9.167    0.000   30.000    0.000    0.000 
#    0.000    0.000    0.000    0.000    0.000    0.000 
#
# Total GULP energy -66939.120384 kJ/mol
# GULP energy per Si atom -5578.260032 kJ/mol
# Density = 2.410722 g / cm^3
# Si number density = 24.162217 Si / 1000 Ang^3
#
#
#
# Elastic Constant Matrix: (Units=GPa)
#
#
# Indices 1 2 3 4 5 6 
#
# 1 101.9089 29.6261 53.4123 9.4438 6.4759 17.4361
# 2 29.6261 99.9556 60.1839 -5.8456 30.9559 17.5430
# 3 53.4123 60.1839 194.7977 10.3311 34.2855 13.3844
# 4 9.4438 -5.8456 10.3311 37.1853 12.9609 5.5905
# 5 6.4759 30.9559 34.2855 12.9609 51.8579 18.5123
# 6 17.4361 17.5430 13.3844 5.5905 18.5123 29.6635
#
#
#
# Elastic Compliance Matrix: (Units=1/GPa)
#
#
# Indices 1 2 3 4 5 6 
#
# 1 0.013599 -0.002787 -0.003147 -0.003865 0.005803 -0.007819
# 2 -0.002787 0.016041 -0.002962 0.007295 -0.008077 -0.002847
# 3 -0.003147 -0.002962 0.007383 -0.000916 -0.003409 0.002570
# 4 -0.003865 0.007295 -0.000916 0.033341 -0.011290 -0.000867
# 5 0.005803 -0.008077 -0.003409 -0.011290 0.034301 -0.016375
# 6 -0.007819 -0.002847 0.002570 -0.000867 -0.016375 0.049214
#
#
# Mechanical properties :
#
#
# Convention : Reuss Voigt Hill
#
# Bulk Modulus (GPa) = 51.99390 75.90075 63.94732
# Shear Modulus (GPa) = 28.07688 40.63734 34.35711
#
# Velocity S-wave (km/s) = 3.41253 4.10549 3.77495
# Velocity P-wave (km/s) = 6.09037 7.34538 6.74712
#
# Compressibility (1/GPa) = 0.01923303
#
# Stress axis : x y z
#
# Youngs Moduli (GPa) = 73.53255 62.33917 135.43750
#
# Poissons Ratio (x) = 0.17373 0.42623
# Poissons Ratio (y) = 0.20492 0.40112
# Poissons Ratio (z) = 0.23141 0.18463
#
# Static dielectric constant tensor:
#      x y z
#    x 2.055130 0.088050 -0.021620 
#    y 0.088050 1.944650 0.074790 
#    z -0.021620 0.074790 2.047590 
# 
# From -- ./inp_files/156171.got.cif
#   From: 2010.05.17/outbox.cif.g08.bks.cpg/sg2_79_cif.got.tgz:156171.got - 2010.06.03 11:33:40.
