data_PCOD9100702
_publ_section_title
;
Structure prediction by ZEFSAII (Michael W. Deem and Ramdas Pophale) SiO2 
 PCOD9100702
Probable space group: P -1
;
_chemical_formula_sum "Si O2"
_cell_formula_units_Z 14
_cell_length_a 14.602650
_cell_length_b 14.462468
_cell_length_c 14.382408
_cell_angle_alpha 39.566478
_cell_angle_beta 38.568285
_cell_angle_gamma 20.213934
_cell_volume 644.496939
_symmetry_space_group_name_H-M "P -1"
_symmetry_group_IT_number 2
_symmetry_cell_setting 'triclinic'
loop_
_space_group_symop_operation_xyz
x,y,z
-x,-y,-z
loop_
_atom_site_type_symbol
_atom_site_label
_atom_site_fract_x
_atom_site_fract_y
_atom_site_fract_z
Si Si1 0.286185 0.835782 0.087648
Si Si2 0.041069 0.098533 0.819214
Si Si3 0.127334 0.733041 0.598131
Si Si4 0.040829 0.322081 0.387823
Si Si5 0.557804 0.218900 0.404672
Si Si6 0.570995 0.482028 0.304396
Si Si7 0.115208 0.597944 0.124410
O O1 0.569986 0.622099 0.972675
O O2 0.079415 0.137413 0.990372
O O3 0.159820 0.787692 0.191545
O O4 0.376100 0.747000 0.192357
O O5 0.963883 0.301443 0.784071
O O6 0.342145 0.860672 0.719730
O O7 0.000000 0.000000 0.000000
O O8 0.959947 0.760327 0.647181
O O9 0.394869 0.534495 0.475884
O O10 0.212017 0.618794 0.723931
O O11 0.000000 0.000000 0.500000
O O12 0.756515 0.535010 0.505262
O O13 0.077557 0.461795 0.237243
O O14 0.281244 0.049098 0.468613
O O15 0.676928 0.269880 0.314788
#
# Coordination Sequence:
#
# PCOD9100702 Si02
#       7
#     2   2   2   2   2   2   2
#     4  11  23  41  65  90 126 166 212 256 304 368
#     4  10  22  40  65  94 123 164 214 255 303 366
#     4  10  20  37  65  92 120 159 205 262 311 364
#     4  11  24  42  61  92 132 162 207 251 316 375
#     4  11  22  38  64  93 125 161 205 262 306 362
#     4  10  21  37  62  97 118 155 211 264 307 358
#     4  11  25  42  62  89 130 174 202 254 310 366
#
# _framework density 21.722367999999999
#
# number of rings (size 3 to 8) (size 9 to 14) (size 15 to 20)
#    0.000    1.429    1.429    4.714    2.000    4.571 
#    0.000    1.429    0.000    0.000    0.000    0.000 
#    0.000    0.000    0.000    0.000    0.000    0.000 
#
# Total GULP energy -78198.941881 kJ/mol
# GULP energy per Si atom -5585.638706 kJ/mol
# Density = 2.167293 g / cm^3
# Si number density = 21.722368 Si / 1000 Ang^3
#
#
#
# Elastic Constant Matrix: (Units=GPa)
#
#
# Indices 1 2 3 4 5 6 
#
# 1 89.3024 21.1306 31.2129 -16.3634 -6.2380 14.4059
# 2 21.1306 106.6604 28.3513 -17.0380 -3.4972 -0.5447
# 3 31.2129 28.3513 62.3576 -24.4320 -0.9284 0.4644
# 4 -16.3634 -17.0380 -24.4320 41.1645 5.2349 3.5923
# 5 -6.2380 -3.4972 -0.9284 5.2349 31.7317 -11.9133
# 6 14.4059 -0.5447 0.4644 3.5923 -11.9133 28.7355
#
#
#
# Elastic Compliance Matrix: (Units=1/GPa)
#
#
# Indices 1 2 3 4 5 6 
#
# 1 0.015377 -0.001048 -0.006014 0.002955 -0.000900 -0.008374
# 2 -0.001048 0.010886 -0.003777 0.001634 0.000988 0.000998
# 3 -0.006014 -0.003777 0.025162 0.011330 -0.002737 -0.000014
# 4 0.002955 0.001634 0.011330 0.034720 -0.008146 -0.009351
# 5 -0.000900 0.000988 -0.002737 -0.008146 0.039421 0.017876
# 6 -0.008374 0.000998 -0.000014 -0.009351 0.017876 0.047598
#
#
# Mechanical properties :
#
#
# Convention : Reuss Voigt Hill
#
# Bulk Modulus (GPa) = 33.61621 46.63444 40.12533
# Shear Modulus (GPa) = 24.41897 32.16804 28.29350
#
# Velocity S-wave (km/s) = 3.35646 3.85238 3.61294
# Velocity P-wave (km/s) = 5.52540 6.42673 5.99303
#
# Compressibility (1/GPa) = 0.02974755
#
# Stress axis : x y z
#
# Youngs Moduli (GPa) = 65.03076 91.86324 39.74175
#
# Poissons Ratio (x) = 0.09629 0.23900
# Poissons Ratio (y) = 0.06816 0.15010
# Poissons Ratio (z) = 0.39109 0.34696
#
# Static dielectric constant tensor:
#      x y z
#    x 1.876210 -0.017370 0.055040 
#    y -0.017370 1.869580 0.007440 
#    z 0.055040 0.007440 1.786970 
# 
# From -- ./inp_files/485332.got.cif
#   From: 2010.05.17/outbox.cif.g08.bks.cpg/sg2_243_cif.got.tgz:485332.got - 2010.06.03 11:33:40.
