data_PCOD9100302
_publ_section_title
;
Structure prediction by ZEFSAII (Michael W. Deem and Ramdas Pophale) SiO2 
 PCOD9100302
Probable space group: P -1
;
_chemical_formula_sum "Si O2"
_cell_formula_units_Z 14
_cell_length_a 9.543869
_cell_length_b 24.180749
_cell_length_c 14.843024
_cell_angle_alpha 26.985203
_cell_angle_beta 150.984478
_cell_angle_gamma 152.191347
_cell_volume 662.163150
_symmetry_space_group_name_H-M "P -1"
_symmetry_group_IT_number 2
_symmetry_cell_setting 'triclinic'
loop_
_space_group_symop_operation_xyz
x,y,z
-x,-y,-z
loop_
_atom_site_type_symbol
_atom_site_label
_atom_site_fract_x
_atom_site_fract_y
_atom_site_fract_z
Si Si1 0.715847 0.602558 0.849323
Si Si2 0.781535 0.007287 0.217004
Si Si3 0.117181 0.823795 0.618973
Si Si4 0.816459 0.337767 0.612789
Si Si5 0.840642 0.070966 0.698937
Si Si6 0.799981 0.108073 0.823895
Si Si7 0.865644 0.688796 0.009065
O O1 0.471690 0.668416 0.602898
O O2 0.470510 0.436198 0.956807
O O3 0.970652 0.677883 0.801565
O O4 0.879349 0.648167 0.972834
O O5 0.585813 0.964940 0.262647
O O6 0.901006 0.898931 0.413420
O O7 0.093454 0.158629 0.180365
O O8 0.500000 0.000000 0.000000
O O9 0.118743 0.824887 0.509969
O O10 0.484278 0.934097 0.693872
O O11 0.955413 0.248985 0.766032
O O12 0.000000 0.500000 0.500000
O O13 0.817551 0.292414 0.782722
O O14 0.879382 0.138490 0.720008
O O15 0.081378 0.003579 0.921710
#
# Coordination Sequence:
#
# PCOD9100302 Si02
#       7
#     2   2   2   2   2   2   2
#     4  10  21  37  61  94 124 162 210 267 316 374
#     4  12  20  35  67  97 119 161 221 272 312 363
#     4  11  21  40  60  96 123 169 212 262 317 380
#     4  10  20  37  63  92 122 159 212 270 309 366
#     4  10  24  36  60  91 140 166 200 261 330 390
#     4  11  21  40  59  98 126 168 208 263 325 379
#     4  10  21  35  57  99 125 153 200 279 322 360
#
# _framework density 21.142825999999999
#
# number of rings (size 3 to 8) (size 9 to 14) (size 15 to 20)
#    0.000    1.429    4.286    0.857    2.000    1.143 
#    0.000    0.000    0.000   17.143    7.429    0.000 
#    0.000    0.000    0.000    0.000    0.000    0.000 
#
# Total GULP energy -77935.240702 kJ/mol
# GULP energy per Si atom -5566.802907 kJ/mol
# Density = 2.109470 g / cm^3
# Si number density = 21.142826 Si / 1000 Ang^3
#
#
#
# Elastic Constant Matrix: (Units=GPa)
#
#
# Indices 1 2 3 4 5 6 
#
# 1 116.1831 52.0118 33.3067 -6.5462 -22.8300 -1.5111
# 2 52.0118 118.8257 25.7311 -36.0230 -19.2891 2.0656
# 3 33.3067 25.7311 40.0607 3.2245 -14.0924 -5.4950
# 4 -6.5462 -36.0230 3.2245 37.5038 10.0946 -8.4431
# 5 -22.8300 -19.2891 -14.0924 10.0946 29.1859 0.1933
# 6 -1.5111 2.0656 -5.4950 -8.4431 0.1933 38.4060
#
#
#
# Elastic Compliance Matrix: (Units=1/GPa)
#
#
# Indices 1 2 3 4 5 6 
#
# 1 0.013279 -0.004586 -0.005973 -0.003270 0.005609 -0.000833
# 2 -0.004586 0.017439 -0.009659 0.017894 -0.002924 0.001448
# 3 -0.005973 -0.009659 0.043596 -0.017849 0.016151 0.002517
# 4 -0.003270 0.017894 -0.017849 0.051145 -0.017091 0.007685
# 5 0.005609 -0.002924 0.016151 -0.017091 0.050437 -0.001322
# 6 -0.000833 0.001448 0.002517 0.007685 -0.001322 0.027983
#
#
# Mechanical properties :
#
#
# Convention : Reuss Voigt Hill
#
# Bulk Modulus (GPa) = 29.51661 55.24099 42.37880
# Shear Modulus (GPa) = 19.56117 31.95379 25.75748
#
# Velocity S-wave (km/s) = 3.04500 3.89180 3.49415
# Velocity P-wave (km/s) = 5.13357 6.81022 6.03045
#
# Compressibility (1/GPa) = 0.03387923
#
# Stress axis : x y z
#
# Youngs Moduli (GPa) = 75.30470 57.34158 22.93815
#
# Poissons Ratio (x) = 0.26294 0.13701
# Poissons Ratio (y) = 0.34531 0.22156
# Poissons Ratio (z) = 0.44979 0.55386
#
# Static dielectric constant tensor:
#      x y z
#    x 1.778590 0.063670 -0.080010 
#    y 0.063670 1.888960 -0.002110 
#    z -0.080010 -0.002110 1.780900 
# 
# From -- ./inp_files/503115.got.cif
#   From: 2010.05.17/outbox.cif.g08.bks.cpg/sg2_252_cif.got.tgz:503115.got - 2010.06.03 11:33:40.
