data_PCOD9100195
_publ_section_title
;
Structure prediction by ZEFSAII (Michael W. Deem and Ramdas Pophale) SiO2 
 PCOD9100195
Probable space group: P -1
;
_chemical_formula_sum "Si O2"
_cell_formula_units_Z 16
_cell_length_a 9.586722
_cell_length_b 14.559794
_cell_length_c 11.279495
_cell_angle_alpha 80.526368
_cell_angle_beta 106.172044
_cell_angle_gamma 147.781864
_cell_volume 798.370401
_symmetry_space_group_name_H-M "P -1"
_symmetry_group_IT_number 2
_symmetry_cell_setting 'triclinic'
loop_
_space_group_symop_operation_xyz
x,y,z
-x,-y,-z
loop_
_atom_site_type_symbol
_atom_site_label
_atom_site_fract_x
_atom_site_fract_y
_atom_site_fract_z
Si Si1 0.003754 0.547596 0.662166
Si Si2 0.414298 0.059277 0.944279
Si Si3 0.444630 0.188862 0.164829
Si Si4 0.802135 0.744743 0.914094
Si Si5 0.368183 0.362000 0.838069
Si Si6 0.830988 0.095019 0.653556
Si Si7 0.249482 0.603850 0.121933
Si Si8 0.697397 0.221042 0.534725
O O1 0.868911 0.504760 0.762237
O O2 0.789997 0.367917 0.581307
O O3 0.263884 0.628650 0.749698
O O4 0.137268 0.692494 0.570642
O O5 0.579823 0.208374 0.854442
O O6 0.476823 0.155336 0.054879
O O7 0.091382 0.884856 0.893609
O O8 0.500000 0.000000 0.000000
O O9 0.264786 0.182824 0.119390
O O10 0.304292 0.037597 0.246790
O O11 0.572594 0.559062 0.836562
O O12 0.789507 0.711050 0.058014
O O13 0.549503 0.366626 0.887625
O O14 0.147574 0.240953 0.706441
O O15 0.796271 0.186734 0.640766
O O16 0.625590 0.960974 0.524880
O O17 0.000000 0.500000 0.000000
#
# Coordination Sequence:
#
# PCOD9100195 Si02
#       8
#     2   2   2   2   2   2   2   2
#     4  10  21  39  63  87 121 157 208 252 307 348
#     4  12  24  35  54  92 132 161 189 239 305 374
#     4  11  20  37  62  88 126 159 197 249 300 375
#     4  11  22  38  57  89 128 165 203 237 303 385
#     4  11  22  37  62  87 121 168 204 247 303 366
#     4  10  20  37  63  87 112 151 216 252 297 343
#     4  12  23  39  60  94 129 158 194 249 314 372
#     4   9  21  40  62  88 111 162 211 264 287 354
#
# _framework density 20.040823
#
# number of rings (size 3 to 8) (size 9 to 14) (size 15 to 20)
#    0.000    1.250    3.750    2.625    1.750    2.000 
#    0.000    1.250    0.000    0.000    0.000    0.000 
#    0.000    0.000    0.000    0.000    0.000    0.000 
#
# Total GULP energy -89223.555971 kJ/mol
# GULP energy per Si atom -5576.472248 kJ/mol
# Density = 1.999521 g / cm^3
# Si number density = 20.040823 Si / 1000 Ang^3
#
#
#
# Elastic Constant Matrix: (Units=GPa)
#
#
# Indices 1 2 3 4 5 6 
#
# 1 81.5379 30.5609 21.7887 4.2241 22.4005 -5.9540
# 2 30.5609 112.1971 28.0631 14.1437 12.5573 -1.4557
# 3 21.7887 28.0631 48.2288 10.2095 12.5233 0.6877
# 4 4.2241 14.1437 10.2095 38.6549 3.2739 7.5813
# 5 22.4005 12.5573 12.5233 3.2739 24.8004 -1.8937
# 6 -5.9540 -1.4557 0.6877 7.5813 -1.8937 31.4269
#
#
#
# Elastic Compliance Matrix: (Units=1/GPa)
#
#
# Indices 1 2 3 4 5 6 
#
# 1 0.017854 -0.002611 -0.003309 0.000504 -0.013014 0.002428
# 2 -0.002611 0.011193 -0.004630 -0.002685 -0.000560 0.000739
# 3 -0.003309 -0.004630 0.028039 -0.004475 -0.008302 -0.000876
# 4 0.000504 -0.002685 -0.004475 0.029483 -0.001272 -0.007120
# 5 -0.013014 -0.000560 -0.008302 -0.001272 0.056829 0.001421
# 6 0.002428 0.000739 -0.000876 -0.007120 0.001421 0.034136
#
#
# Mechanical properties :
#
#
# Convention : Reuss Voigt Hill
#
# Bulk Modulus (GPa) = 27.78848 44.75436 36.27142
# Shear Modulus (GPa) = 23.73845 29.74651 26.74248
#
# Velocity S-wave (km/s) = 3.44540 3.85684 3.65691
# Velocity P-wave (km/s) = 5.45195 6.49720 5.99739
#
# Compressibility (1/GPa) = 0.03598614
#
# Stress axis : x y z
#
# Youngs Moduli (GPa) = 56.01141 89.34249 35.66476
#
# Poissons Ratio (x) = 0.23327 0.11800
# Poissons Ratio (y) = 0.14624 0.16513
# Poissons Ratio (z) = 0.18532 0.41366
#
# Static dielectric constant tensor:
#      x y z
#    x 1.679310 0.017870 -0.013900 
#    y 0.017870 1.763740 0.001420 
#    z -0.013900 0.001420 1.754480 
# 
# From -- ./inp_files/214563.got.cif
#   From: 2010.05.17/outbox.cif.g08.bks.cpg/sg2_108_cif.got.tgz:214563.got - 2010.06.03 11:33:40.
