data_PCOD9100078
_publ_section_title
;
Structure prediction by ZEFSAII (Michael W. Deem and Ramdas Pophale) SiO2 
 PCOD9100078
Probable space group: P -1
;
_chemical_formula_sum "Si O2"
_cell_formula_units_Z 14
_cell_length_a 24.343538
_cell_length_b 5.086165
_cell_length_c 12.176024
_cell_angle_alpha 62.061772
_cell_angle_beta 155.621870
_cell_angle_gamma 118.321984
_cell_volume 545.020581
_symmetry_space_group_name_H-M "P -1"
_symmetry_group_IT_number 2
_symmetry_cell_setting 'triclinic'
loop_
_space_group_symop_operation_xyz
x,y,z
-x,-y,-z
loop_
_atom_site_type_symbol
_atom_site_label
_atom_site_fract_x
_atom_site_fract_y
_atom_site_fract_z
Si Si1 0.098598 0.847284 0.791815
Si Si2 0.116470 0.699395 0.469690
Si Si3 0.037274 0.848711 0.983908
Si Si4 0.387537 0.707880 0.841214
Si Si5 0.654316 0.157754 0.495428
Si Si6 0.497128 0.500698 0.695294
Si Si7 0.244526 0.469323 0.970553
O O1 0.212709 0.698257 0.961571
O O2 0.004178 0.563853 0.726894
O O3 0.170030 0.140607 0.924819
O O4 0.000000 0.000000 0.500000
O O5 0.238016 0.760352 0.593514
O O6 0.178414 0.604741 0.715674
O O7 0.051762 0.004580 0.296369
O O8 0.193240 0.894959 0.230648
O O9 0.000000 0.500000 0.000000
O O10 0.000000 0.000000 0.000000
O O11 0.376347 0.632160 0.706561
O O12 0.419828 0.485354 0.040663
O O13 0.500000 0.000000 0.000000
O O14 0.566561 0.837783 0.379511
O O15 0.617257 0.302706 0.514288
O O16 0.604494 0.574595 0.779910
#
# Coordination Sequence:
#
# PCOD9100078 Si02
#       7
#     2   2   2   2   2   2   2
#     4  10  20  37  62  93 123 152 197 258 313 362
#     4  10  21  39  60  91 122 162 200 248 307 358
#     4  12  26  41  59  85 126 173 206 243 286 364
#     4   9  19  35  59  86 120 153 198 247 300 360
#     4  11  21  39  57  83 123 161 203 240 293 363
#     4  10  21  37  61  87 117 158 195 254 309 350
#     4  10  21  39  64  95 120 150 200 261 316 357
#
# _framework density 25.687104000000001
#
# number of rings (size 3 to 8) (size 9 to 14) (size 15 to 20)
#    0.000    1.714    1.429    3.857    2.000    3.429 
#    2.571    0.000    0.000    5.143    0.000    0.000 
#    0.000    0.000    0.000    0.000    0.000    0.000 
#
# Total GULP energy -78363.465185 kJ/mol
# GULP energy per Si atom -5597.390370 kJ/mol
# Density = 2.562864 g / cm^3
# Si number density = 25.687104 Si / 1000 Ang^3
#
#
#
# Elastic Constant Matrix: (Units=GPa)
#
#
# Indices 1 2 3 4 5 6 
#
# 1 141.5337 46.5886 61.6396 -8.5935 28.7426 -6.5322
# 2 46.5886 125.4140 19.1358 -8.6714 8.1504 1.1836
# 3 61.6396 19.1358 81.8817 -1.1890 25.2839 19.6565
# 4 -8.5935 -8.6714 -1.1890 33.7523 5.3284 17.5320
# 5 28.7426 8.1504 25.2839 5.3284 55.0796 -4.2140
# 6 -6.5322 1.1836 19.6565 17.5320 -4.2140 42.6964
#
#
#
# Elastic Compliance Matrix: (Units=1/GPa)
#
#
# Indices 1 2 3 4 5 6 
#
# 1 0.013365 -0.003452 -0.010983 -0.001876 -0.000636 0.007904
# 2 -0.003452 0.009338 0.001339 0.003107 -0.000706 -0.002749
# 3 -0.010983 0.001339 0.028191 0.010494 -0.009952 -0.019987
# 4 -0.001876 0.003107 0.010494 0.044768 -0.010513 -0.024625
# 5 -0.000636 -0.000706 -0.009952 -0.010513 0.025041 0.011292
# 6 0.007904 -0.002749 -0.019987 -0.024625 0.011292 0.045134
#
#
# Mechanical properties :
#
#
# Convention : Reuss Voigt Hill
#
# Bulk Modulus (GPa) = 40.48007 67.06193 53.77100
# Shear Modulus (GPa) = 24.96723 41.07001 33.01862
#
# Velocity S-wave (km/s) = 3.12103 4.00291 3.58916
# Velocity P-wave (km/s) = 5.36479 6.89408 6.17694
#
# Compressibility (1/GPa) = 0.02470352
#
# Stress axis : x y z
#
# Youngs Moduli (GPa) = 74.82370 107.08683 35.47241
#
# Poissons Ratio (x) = 0.36966 0.38958
# Poissons Ratio (y) = 0.25829 -0.04751
# Poissons Ratio (z) = 0.82175 -0.14343
#
# Static dielectric constant tensor:
#      x y z
#    x 2.132940 0.043210 -0.026250 
#    y 0.043210 1.981290 -0.023430 
#    z -0.026250 -0.023430 2.035650 
# 
# From -- ./inp_files/524397.got.cif
#   From: 2010.05.17/outbox.cif.g08.bks.cpg/sg2_263_cif.got.tgz:524397.got - 2010.06.03 11:33:40.
