data_PCOD9100532
_publ_section_title
;
Structure prediction by ZEFSAII (Michael W. Deem and Ramdas Pophale) SiO2 
 PCOD9100532
Probable space group: P -1
;
_chemical_formula_sum "Si O2"
_cell_formula_units_Z 14
_cell_length_a 9.235536
_cell_length_b 10.997770
_cell_length_c 8.268108
_cell_angle_alpha 111.936592
_cell_angle_beta 115.091586
_cell_angle_gamma 56.652731
_cell_volume 624.276106
_symmetry_space_group_name_H-M "P -1"
_symmetry_group_IT_number 2
_symmetry_cell_setting 'triclinic'
loop_
_space_group_symop_operation_xyz
x,y,z
-x,-y,-z
loop_
_atom_site_type_symbol
_atom_site_label
_atom_site_fract_x
_atom_site_fract_y
_atom_site_fract_z
Si Si1 0.083979 0.181807 0.213285
Si Si2 0.814526 0.569755 0.542781
Si Si3 0.800150 0.540687 0.871948
Si Si4 0.708929 0.876367 0.036832
Si Si5 0.725276 0.945135 0.430435
Si Si6 0.692984 0.362107 0.982149
Si Si7 0.486764 0.788892 0.347629
O O1 0.186264 0.281285 0.322330
O O2 0.137336 0.102447 0.374491
O O3 0.174250 0.103886 0.046052
O O4 0.869199 0.286830 0.144378
O O5 0.802122 0.495389 0.663729
O O6 0.640825 0.623621 0.377099
O O7 0.000000 0.500000 0.500000
O O8 0.749105 0.436291 0.900962
O O9 0.703053 0.718055 0.947532
O O10 0.000000 0.500000 0.000000
O O11 0.793653 0.892798 0.256475
O O12 0.500000 0.000000 0.000000
O O13 0.588263 0.874333 0.359735
O O14 0.607719 0.120749 0.490206
O O15 0.654108 0.228648 0.842088
O O16 0.500000 0.500000 0.000000
#
# Coordination Sequence:
#
# PCOD9100532 Si02
#       7
#     2   2   2   2   2   2   2
#     4  10  23  39  62  96 129 170 228 270 322 411
#     4  10  20  37  64  93 125 174 221 274 327 400
#     4  11  23  41  66  98 131 176 226 269 335 408
#     4  11  21  40  70  98 126 175 228 274 323 400
#     4  10  21  42  67  91 126 184 221 268 337 399
#     4  12  24  41  63 100 140 173 217 288 340 386
#     4  10  22  38  62  94 131 167 229 273 326 405
#
# _framework density 22.425975999999999
#
# number of rings (size 3 to 8) (size 9 to 14) (size 15 to 20)
#    0.000    1.429    2.857    5.143    4.000    1.143 
#    0.000    2.143    0.000    0.000    0.000    0.000 
#    0.000    0.000    0.000    0.000    0.000    0.000 
#
# Total GULP energy -78008.350991 kJ/mol
# GULP energy per Si atom -5572.025071 kJ/mol
# Density = 2.237493 g / cm^3
# Si number density = 22.425976 Si / 1000 Ang^3
#
#
#
# Elastic Constant Matrix: (Units=GPa)
#
#
# Indices 1 2 3 4 5 6 
#
# 1 61.2309 29.7095 41.3113 -17.4856 -10.0667 -13.4283
# 2 29.7095 106.2258 41.7556 -15.4424 -6.5255 -17.7214
# 3 41.3113 41.7556 130.3502 -13.9593 -13.5691 -9.5721
# 4 -17.4856 -15.4424 -13.9593 34.6730 -3.6560 3.0214
# 5 -10.0667 -6.5255 -13.5691 -3.6560 43.6500 2.0260
# 6 -13.4283 -17.7214 -9.5721 3.0214 2.0260 23.2977
#
#
#
# Elastic Compliance Matrix: (Units=1/GPa)
#
#
# Indices 1 2 3 4 5 6 
#
# 1 0.026856 -0.001888 -0.005621 0.010043 0.004539 0.010036
# 2 -0.001888 0.012588 -0.002528 0.003090 0.000595 0.006996
# 3 -0.005621 -0.002528 0.010408 0.000500 0.001654 -0.001095
# 4 0.010043 0.003090 0.000500 0.035814 0.005785 0.003197
# 5 0.004539 0.000595 0.001654 0.005785 0.025006 0.000824
# 6 0.010036 0.006996 -0.001095 0.003197 0.000824 0.053093
#
#
# Mechanical properties :
#
#
# Convention : Reuss Voigt Hill
#
# Bulk Modulus (GPa) = 33.58183 58.15109 45.86646
# Shear Modulus (GPa) = 25.80441 32.65950 29.23195
#
# Velocity S-wave (km/s) = 3.39580 3.82032 3.61430
# Velocity P-wave (km/s) = 5.51202 6.74139 6.15746
#
# Compressibility (1/GPa) = 0.02977801
#
# Stress axis : x y z
#
# Youngs Moduli (GPa) = 37.23604 79.43810 96.07909
#
# Poissons Ratio (x) = 0.15000 0.54009
# Poissons Ratio (y) = 0.07031 0.24284
# Poissons Ratio (z) = 0.20932 0.20078
#
# Static dielectric constant tensor:
#      x y z
#    x 1.792090 -0.004530 -0.069660 
#    y -0.004530 1.983750 0.031180 
#    z -0.069660 0.031180 1.916770 
# 
# From -- ./inp_files/190328.got.cif
#   From: 2010.05.17/outbox.cif.g08.bks.cpg/sg2_96_cif.got.tgz:190328.got - 2010.06.03 11:33:40.
