data_PCOD9100421
_publ_section_title
;
Structure prediction by ZEFSAII (Michael W. Deem and Ramdas Pophale) SiO2 
 PCOD9100421
Probable space group: P -1
;
_chemical_formula_sum "Si O2"
_cell_formula_units_Z 13
_cell_length_a 11.436782
_cell_length_b 9.167892
_cell_length_c 13.657560
_cell_angle_alpha 133.740659
_cell_angle_beta 149.296397
_cell_angle_gamma 52.826467
_cell_volume 528.076233
_symmetry_space_group_name_H-M "P -1"
_symmetry_group_IT_number 2
_symmetry_cell_setting 'triclinic'
loop_
_space_group_symop_operation_xyz
x,y,z
-x,-y,-z
loop_
_atom_site_type_symbol
_atom_site_label
_atom_site_fract_x
_atom_site_fract_y
_atom_site_fract_z
Si Si1 0.441923 0.906394 0.517304
Si Si2 0.513797 0.549374 0.691460
Si Si3 0.000000 0.000000 0.000000
Si Si4 0.023264 0.427296 0.313626
Si Si5 0.725179 0.924706 0.907220
Si Si6 0.594348 0.190529 0.099942
Si Si7 0.873188 0.752075 0.482292
O O1 0.388201 0.672363 0.363857
O O2 0.687857 0.925617 0.762030
O O3 0.500000 0.000000 0.500000
O O4 0.277116 0.045233 0.528679
O O5 0.240072 0.531394 0.465763
O O6 0.627281 0.723743 0.789807
O O7 0.530834 0.619782 0.850313
O O8 0.938047 0.243812 0.103581
O O9 0.005340 0.063430 0.907726
O O10 0.132829 0.346297 0.459130
O O11 0.832581 0.587667 0.291678
O O12 0.605402 0.116081 0.961969
O O13 0.862647 0.198413 0.321007
O O14 0.500000 0.000000 0.000000
#
# Coordination Sequence:
#
# PCOD9100421 Si02
#       7
#     2   2   1   2   2   2   2
#     4  12  23  38  62  98 126 161 207 264 308 365
#     4  10  21  42  66  88 124 171 207 250 314 379
#     4  12  20  34  64  96 114 164 210 256 286 388
#     4  10  20  37  64  86 119 166 209 240 316 373
#     4  11  23  39  66  92 128 161 214 252 312 371
#     4   9  20  41  66  88 120 171 210 252 306 377
#     4  10  20  39  63  87 124 167 206 251 310 375
#
# _framework density 24.617659
#
# number of rings (size 3 to 8) (size 9 to 14) (size 15 to 20)
#    0.000    1.538    4.615    0.462    0.000    0.000 
#    0.000   14.615    0.000    0.000    0.000    0.000 
#    0.000    0.000    0.000    0.000    0.000    0.000 
#
# Total GULP energy -72379.858691 kJ/mol
# GULP energy per Si atom -5567.681438 kJ/mol
# Density = 2.456163 g / cm^3
# Si number density = 24.617659 Si / 1000 Ang^3
#
#
#
# Elastic Constant Matrix: (Units=GPa)
#
#
# Indices 1 2 3 4 5 6 
#
# 1 179.0830 57.8840 66.1655 36.7400 -8.1359 -11.7240
# 2 57.8840 114.0718 54.3553 47.3950 -18.5775 -46.9524
# 3 66.1655 54.3553 110.0992 56.5411 -12.9169 -1.8675
# 4 36.7400 47.3950 56.5411 48.7514 -6.3837 -15.0342
# 5 -8.1359 -18.5775 -12.9169 -6.3837 65.0280 20.1986
# 6 -11.7240 -46.9524 -1.8675 -15.0342 20.1986 40.7320
#
#
#
# Elastic Compliance Matrix: (Units=1/GPa)
#
#
# Indices 1 2 3 4 5 6 
#
# 1 0.007624 -0.002912 -0.003862 0.001306 -0.000296 -0.000710
# 2 -0.002912 0.031576 -0.011131 -0.005272 -0.005147 0.035657
# 3 -0.003862 -0.011131 0.036112 -0.036275 0.009367 -0.030321
# 4 0.001306 -0.005272 -0.036275 0.072950 -0.008822 0.023936
# 5 -0.000296 -0.005147 0.009367 -0.008822 0.020819 -0.019170
# 6 -0.000710 0.035657 -0.030321 0.023936 -0.019170 0.082399
#
#
# Mechanical properties :
#
#
# Convention : Reuss Voigt Hill
#
# Bulk Modulus (GPa) = 25.31412 84.45150 54.88281
# Shear Modulus (GPa) = 16.64125 45.89223 31.26674
#
# Velocity S-wave (km/s) = 2.60280 4.32232 3.56770
# Velocity P-wave (km/s) = 4.39750 7.69998 6.27007
#
# Compressibility (1/GPa) = 0.03950365
#
# Stress axis : x y z
#
# Youngs Moduli (GPa) = 131.16362 31.66933 27.69144
#
# Poissons Ratio (x) = 0.09221 0.10695
# Poissons Ratio (y) = 0.38190 0.30823
# Poissons Ratio (z) = 0.50656 0.35250
#
# Static dielectric constant tensor:
#      x y z
#    x 2.074500 0.010340 0.030490 
#    y 0.010340 2.075630 -0.046800 
#    z 0.030490 -0.046800 2.146220 
# 
# From -- ./inp_files/145838.got.cif
#   From: 2010.05.17/outbox.cif.g08.bks.cpg/sg2_73_cif.got.tgz:145838.got - 2010.06.03 11:33:40.
