data_PCOD9100700
_publ_section_title
;
Structure prediction by ZEFSAII (Michael W. Deem and Ramdas Pophale) SiO2 
 PCOD9100700
Probable space group: P -1
;
_chemical_formula_sum "Si O2"
_cell_formula_units_Z 16
_cell_length_a 7.907230
_cell_length_b 11.132900
_cell_length_c 20.132908
_cell_angle_alpha 36.579926
_cell_angle_beta 129.935756
_cell_angle_gamma 115.543449
_cell_volume 795.955997
_symmetry_space_group_name_H-M "P -1"
_symmetry_group_IT_number 2
_symmetry_cell_setting 'triclinic'
loop_
_space_group_symop_operation_xyz
x,y,z
-x,-y,-z
loop_
_atom_site_type_symbol
_atom_site_label
_atom_site_fract_x
_atom_site_fract_y
_atom_site_fract_z
Si Si1 0.759099 0.429887 0.614018
Si Si2 0.835422 0.135563 0.641529
Si Si3 0.813890 0.379391 0.390297
Si Si4 0.030036 0.760847 0.127681
Si Si5 0.464630 0.143986 0.362387
Si Si6 0.813039 0.252721 0.084006
Si Si7 0.592746 0.773105 0.097544
Si Si8 0.961618 0.483213 0.897521
O O1 0.500000 0.500000 0.500000
O O2 0.845004 0.255068 0.658946
O O3 0.934728 0.588498 0.580328
O O4 0.764126 0.340950 0.729322
O O5 0.812329 0.285179 0.505451
O O6 0.633240 0.003447 0.648834
O O7 0.066131 0.972591 0.765124
O O8 0.694527 0.234616 0.375417
O O9 0.644533 0.599570 0.244263
O O10 0.826471 0.750722 0.129839
O O11 0.024573 0.634019 0.115735
O O12 0.000000 0.000000 0.000000
O O13 0.261492 0.338628 0.234425
O O14 0.500000 0.000000 0.500000
O O15 0.834550 0.402614 0.083792
O O16 0.574731 0.270136 0.982811
O O17 0.952876 0.324495 0.025735
O O18 0.500000 0.000000 0.000000
#
# Coordination Sequence:
#
# PCOD9100700 Si02
#       8
#     2   2   2   2   2   2   2   2
#     4  11  25  39  59  89 126 165 203 259 320 364
#     4  10  21  39  62  93 121 158 214 255 305 379
#     4  10  21  40  61  91 120 161 210 254 309 373
#     4  11  25  40  59  88 127 163 206 256 316 367
#     4   9  19  35  67  88 114 162 210 250 306 374
#     4  10  20  37  65  92 116 159 210 250 305 372
#     4  11  22  38  63  93 123 166 210 249 309 376
#     4  10  20  38  63  88 125 158 203 259 310 363
#
# _framework density 20.101614000000001
#
# number of rings (size 3 to 8) (size 9 to 14) (size 15 to 20)
#    0.000    1.750    1.250    3.375    3.500    1.500 
#    0.000    0.625    5.500    0.000    0.000    0.000 
#    0.000    0.000    0.000    0.000    0.000    0.000 
#
# Total GULP energy -89184.848508 kJ/mol
# GULP energy per Si atom -5574.053032 kJ/mol
# Density = 2.005586 g / cm^3
# Si number density = 20.101614 Si / 1000 Ang^3
#
#
#
# Elastic Constant Matrix: (Units=GPa)
#
#
# Indices 1 2 3 4 5 6 
#
# 1 27.9466 38.2787 18.4257 -0.9626 -2.1780 5.5618
# 2 38.2787 128.9757 57.8048 13.1447 -4.5978 3.3658
# 3 18.4257 57.8048 153.5559 8.7166 -5.8399 -2.7493
# 4 -0.9626 13.1447 8.7166 32.0989 5.9250 -2.6352
# 5 -2.1780 -4.5978 -5.8399 5.9250 21.2516 12.8794
# 6 5.5618 3.3658 -2.7493 -2.6352 12.8794 36.3546
#
#
#
# Elastic Compliance Matrix: (Units=1/GPa)
#
#
# Indices 1 2 3 4 5 6 
#
# 1 0.065800 -0.019465 -0.000992 0.008319 0.005894 -0.009824
# 2 -0.019465 0.015682 -0.003101 -0.006613 0.002416 -0.000044
# 3 -0.000992 -0.003101 0.007927 -0.001146 0.001460 0.000438
# 4 0.008319 -0.006613 -0.001146 0.038048 -0.016197 0.007749
# 5 0.005894 0.002416 0.001460 -0.016197 0.069306 -0.026742
# 6 -0.009824 -0.000044 0.000438 0.007749 -0.026742 0.039083
#
#
# Mechanical properties :
#
#
# Convention : Reuss Voigt Hill
#
# Bulk Modulus (GPa) = 23.64541 59.94407 41.79474
# Shear Modulus (GPa) = 16.83168 31.00562 23.91865
#
# Velocity S-wave (km/s) = 2.89680 3.93166 3.45322
# Velocity P-wave (km/s) = 4.79344 7.10604 6.06106
#
# Compressibility (1/GPa) = 0.04229150
#
# Stress axis : x y z
#
# Youngs Moduli (GPa) = 15.19768 63.76915 126.15013
#
# Poissons Ratio (x) = 1.24129 0.12513
# Poissons Ratio (y) = 0.29583 0.39119
# Poissons Ratio (z) = 0.01507 0.19775
#
# Static dielectric constant tensor:
#      x y z
#    x 1.475260 -0.013070 0.125480 
#    y -0.013070 1.748090 0.054590 
#    z 0.125480 0.054590 1.731600 
# 
# From -- ./inp_files/588892.got.cif
#   From: 2010.05.17/outbox.cif.g08.bks.cpg/sg2_295_cif.got.tgz:588892.got - 2010.06.03 11:33:40.
