data_PCOD9100920
_publ_section_title
;
Structure prediction by ZEFSAII (Michael W. Deem and Ramdas Pophale) SiO2 
 PCOD9100920
Probable space group: P -1
;
_chemical_formula_sum "Si O2"
_cell_formula_units_Z 16
_cell_length_a 11.802029
_cell_length_b 9.111806
_cell_length_c 15.687635
_cell_angle_alpha 104.119518
_cell_angle_beta 156.133892
_cell_angle_gamma 77.842023
_cell_volume 661.611073
_symmetry_space_group_name_H-M "P -1"
_symmetry_group_IT_number 2
_symmetry_cell_setting 'triclinic'
loop_
_space_group_symop_operation_xyz
x,y,z
-x,-y,-z
loop_
_atom_site_type_symbol
_atom_site_label
_atom_site_fract_x
_atom_site_fract_y
_atom_site_fract_z
Si Si1 0.157852 0.494292 0.353744
Si Si2 0.505981 0.738117 0.550986
Si Si3 0.326473 0.580674 0.667572
Si Si4 0.175392 0.897204 0.670689
Si Si5 0.744302 0.075410 0.078088
Si Si6 0.851657 0.020796 0.808816
Si Si7 0.117813 0.337350 0.036435
Si Si8 0.546939 0.393971 0.936461
O O1 0.219179 0.656263 0.373854
O O2 0.377207 0.371597 0.456850
O O3 0.186316 0.517723 0.476753
O O4 0.855426 0.427585 0.116099
O O5 0.565058 0.916260 0.601627
O O6 0.708591 0.707784 0.766789
O O7 0.165464 0.724612 0.610261
O O8 0.640379 0.640267 0.864801
O O9 0.348067 0.450253 0.733615
O O10 0.102841 0.912756 0.723309
O O11 0.000000 0.000000 0.500000
O O12 0.504546 0.945282 0.899019
O O13 0.563073 0.223364 0.955521
O O14 0.957347 0.049348 0.143964
O O15 0.000000 0.000000 0.000000
O O16 0.882214 0.202894 0.840624
O O17 0.000000 0.500000 0.000000
O O18 0.500000 0.500000 0.000000
#
# Coordination Sequence:
#
# PCOD9100920 Si02
#       8
#     2   2   2   2   2   2   2   2
#     4  10  22  39  67  97 141 182 235 288 350 423
#     4   9  19  40  63  94 136 190 227 290 349 416
#     4  11  24  42  67 104 138 185 235 289 358 428
#     4  11  26  47  72 100 142 191 241 298 357 425
#     4  11  24  47  71 104 142 187 242 295 360 432
#     4  10  20  39  72 100 141 185 233 299 353 430
#     4  10  20  37  67 101 141 184 232 289 363 426
#     4  12  25  42  70 101 140 184 231 294 358 420
#
# _framework density 24.183391
#
# number of rings (size 3 to 8) (size 9 to 14) (size 15 to 20)
#    0.000    1.500    3.750    0.750    3.500    1.500 
#    2.250    0.000    0.000   12.750    0.000    0.000 
#    0.000    0.000    0.000    0.000    0.000    0.000 
#
# Total GULP energy -89529.398866 kJ/mol
# GULP energy per Si atom -5595.587429 kJ/mol
# Density = 2.412835 g / cm^3
# Si number density = 24.183391 Si / 1000 Ang^3
#
#
#
# Elastic Constant Matrix: (Units=GPa)
#
#
# Indices 1 2 3 4 5 6 
#
# 1 125.4327 42.4010 30.6464 -5.0400 -28.1193 -2.8609
# 2 42.4010 154.3903 39.2848 1.3723 -11.8461 20.2102
# 3 30.6464 39.2848 65.8267 1.4163 -15.1246 10.7123
# 4 -5.0400 1.3723 1.4163 50.3599 17.5302 -0.0958
# 5 -28.1193 -11.8461 -15.1246 17.5302 57.4536 2.4460
# 6 -2.8609 20.2102 10.7123 -0.0958 2.4460 43.1033
#
#
#
# Elastic Compliance Matrix: (Units=1/GPa)
#
#
# Indices 1 2 3 4 5 6 
#
# 1 0.010300 -0.002046 -0.003064 -0.000132 0.003760 0.002191
# 2 -0.002046 0.008352 -0.003495 -0.000356 0.000045 -0.003187
# 3 -0.003064 -0.003495 0.020280 -0.002161 0.003941 -0.003833
# 4 -0.000132 -0.000356 -0.002161 0.022578 -0.007646 0.001179
# 5 0.003760 0.000045 0.003941 -0.007646 0.022712 -0.002057
# 6 0.002191 -0.003187 -0.003833 0.001179 -0.002057 0.025912
#
#
# Mechanical properties :
#
#
# Convention : Reuss Voigt Hill
#
# Bulk Modulus (GPa) = 46.03928 63.36821 54.70374
# Shear Modulus (GPa) = 37.15099 45.73786 41.44443
#
# Velocity S-wave (km/s) = 3.92372 4.35362 4.14424
# Velocity P-wave (km/s) = 6.29335 7.17858 6.75049
#
# Compressibility (1/GPa) = 0.02172058
#
# Stress axis : x y z
#
# Youngs Moduli (GPa) = 97.08477 119.72888 49.31065
#
# Poissons Ratio (x) = 0.24500 0.15109
# Poissons Ratio (y) = 0.19867 0.17236
# Poissons Ratio (z) = 0.29747 0.41849
#
# Static dielectric constant tensor:
#      x y z
#    x 1.938670 0.054180 0.019460 
#    y 0.054180 1.900780 -0.007620 
#    z 0.019460 -0.007620 1.977910 
# 
# From -- ./inp_files/516020.got.cif
#   From: 2010.05.17/outbox.cif.g08.bks.cpg/sg2_259_cif.got.tgz:516020.got - 2010.06.03 11:33:40.
