data_PCOD9100068
_publ_section_title
;
Structure prediction by ZEFSAII (Michael W. Deem and Ramdas Pophale) SiO2 
 PCOD9100068
Probable space group: P -1
;
_chemical_formula_sum "Si O2"
_cell_formula_units_Z 16
_cell_length_a 15.894349
_cell_length_b 6.880674
_cell_length_c 19.242349
_cell_angle_alpha 111.982644
_cell_angle_beta 19.246862
_cell_angle_gamma 116.477961
_cell_volume 613.137585
_symmetry_space_group_name_H-M "P -1"
_symmetry_group_IT_number 2
_symmetry_cell_setting 'triclinic'
loop_
_space_group_symop_operation_xyz
x,y,z
-x,-y,-z
loop_
_atom_site_type_symbol
_atom_site_label
_atom_site_fract_x
_atom_site_fract_y
_atom_site_fract_z
Si Si1 0.991027 0.858107 0.081060
Si Si2 0.838901 0.390838 0.204001
Si Si3 0.349805 0.290085 0.469530
Si Si4 0.208930 0.814628 0.148460
Si Si5 0.036643 0.560712 0.390686
Si Si6 0.438825 0.870788 0.322164
Si Si7 0.266842 0.251904 0.249159
Si Si8 0.585672 0.244385 0.522543
O O1 0.985510 0.642456 0.101966
O O2 0.693745 0.877552 0.313948
O O3 0.037960 0.772617 0.956060
O O4 0.242465 0.069622 0.929369
O O5 0.544597 0.339169 0.390579
O O6 0.802260 0.334338 0.305692
O O7 0.440937 0.527000 0.393977
O O8 0.033963 0.221094 0.719787
O O9 0.386476 0.094554 0.367776
O O10 0.109640 0.648985 0.268755
O O11 0.250020 0.056550 0.181273
O O12 0.473989 0.758667 0.910902
O O13 0.027578 0.248964 0.488445
O O14 0.764732 0.352730 0.575840
O O15 0.260518 0.465646 0.237500
O O16 0.370712 0.876481 0.458795
#
# Coordination Sequence:
#
# PCOD9100068 Si02
#       8
#     2   2   2   2   2   2   2   2
#     4   9  19  37  61  91 125 173 221 267 314 380
#     4   9  20  39  64  89 129 179 219 262 322 375
#     4  10  20  37  62  92 130 168 210 266 318 378
#     4  11  21  43  68  97 128 167 213 265 330 399
#     4  11  22  44  67  97 132 165 213 271 330 393
#     4  11  22  38  66  97 132 172 217 273 321 382
#     4  10  24  42  72  94 123 169 215 265 335 400
#     4  11  21  41  64  88 131 182 214 268 321 374
#
# _framework density 26.095286000000002
#
# number of rings (size 3 to 8) (size 9 to 14) (size 15 to 20)
#    0.000    1.750    2.500    3.375    0.000    2.000 
#    2.250    7.500    8.250    0.000    0.000    0.000 
#    0.000    0.000    0.000    0.000    0.000    0.000 
#
# Total GULP energy -89390.500295 kJ/mol
# GULP energy per Si atom -5586.906268 kJ/mol
# Density = 2.603589 g / cm^3
# Si number density = 26.095286 Si / 1000 Ang^3
#
#
#
# Elastic Constant Matrix: (Units=GPa)
#
#
# Indices 1 2 3 4 5 6 
#
# 1 46.5878 5.5157 24.7775 6.3845 1.8051 -1.7610
# 2 5.5157 131.4268 22.6785 0.0855 -2.3352 -7.8787
# 3 24.7775 22.6785 104.7555 10.3066 -10.0696 -3.9479
# 4 6.3845 0.0855 10.3066 40.7057 -14.0643 -4.5276
# 5 1.8051 -2.3352 -10.0696 -14.0643 44.9344 1.7989
# 6 -1.7610 -7.8787 -3.9479 -4.5276 1.7989 23.2405
#
#
#
# Elastic Compliance Matrix: (Units=1/GPa)
#
#
# Indices 1 2 3 4 5 6 
#
# 1 0.025274 -0.000071 -0.005926 -0.003622 -0.003499 0.000450
# 2 -0.000071 0.008060 -0.001690 0.000771 0.000181 0.002576
# 3 -0.005926 -0.001690 0.011676 -0.001136 0.002389 0.000555
# 4 -0.003622 0.000771 -0.001136 0.028996 0.008816 0.004760
# 5 -0.003499 0.000181 0.002389 0.008816 0.025702 -0.000070
# 6 0.000450 0.002576 0.000555 0.004760 -0.000070 0.044963
#
#
# Mechanical properties :
#
#
# Convention : Reuss Voigt Hill
#
# Bulk Modulus (GPa) = 33.74088 43.19039 38.46564
# Shear Modulus (GPa) = 29.42513 37.09602 33.26058
#
# Velocity S-wave (km/s) = 3.36162 3.77445 3.57400
# Velocity P-wave (km/s) = 5.29389 5.96509 5.63948
#
# Compressibility (1/GPa) = 0.02963763
#
# Stress axis : x y z
#
# Youngs Moduli (GPa) = 39.56687 124.06185 85.64795
#
# Poissons Ratio (x) = 0.00882 0.50751
# Poissons Ratio (y) = 0.00281 0.14471
# Poissons Ratio (z) = 0.23445 0.20961
#
# Static dielectric constant tensor:
#      x y z
#    x 2.082810 0.016090 -0.038300 
#    y 0.016090 2.121420 0.040720 
#    z -0.038300 0.040720 2.098790 
# 
# From -- ./inp_files/599235.got.cif
#   From: 2010.05.17/outbox.cif.g08.bks.cpg/sg2_300_cif.got.tgz:599235.got - 2010.06.03 11:33:40.
