data_PCOD9100448
_publ_section_title
;
Structure prediction by ZEFSAII (Michael W. Deem and Ramdas Pophale) SiO2 
 PCOD9100448
Probable space group: P -1
;
_chemical_formula_sum "Si O2"
_cell_formula_units_Z 14
_cell_length_a 14.875012
_cell_length_b 29.694691
_cell_length_c 5.340995
_cell_angle_alpha 49.852453
_cell_angle_beta 135.351852
_cell_angle_gamma 160.077119
_cell_volume 562.071559
_symmetry_space_group_name_H-M "P -1"
_symmetry_group_IT_number 2
_symmetry_cell_setting 'triclinic'
loop_
_space_group_symop_operation_xyz
x,y,z
-x,-y,-z
loop_
_atom_site_type_symbol
_atom_site_label
_atom_site_fract_x
_atom_site_fract_y
_atom_site_fract_z
Si Si1 0.587269 0.444806 0.679554
Si Si2 0.798978 0.619462 0.834374
Si Si3 0.836058 0.314182 0.325118
Si Si4 0.709090 0.364291 0.252526
Si Si5 0.816581 0.936115 0.609627
Si Si6 0.378660 0.043943 0.547780
Si Si7 0.742315 0.112970 0.367244
O O1 0.581959 0.480444 0.795645
O O2 0.357628 0.392722 0.272773
O O3 0.926446 0.587542 0.770031
O O4 0.541491 0.356472 0.903006
O O5 0.993830 0.734852 0.599695
O O6 0.005386 0.661222 0.246235
O O7 0.793657 0.362136 0.179519
O O8 0.531706 0.154906 0.272128
O O9 0.476289 0.223460 0.417645
O O10 0.000000 0.500000 0.500000
O O11 0.733053 0.968758 0.384178
O O12 0.000000 0.000000 0.500000
O O13 0.000000 0.000000 0.000000
O O14 0.160181 0.911499 0.444126
O O15 0.610117 0.094047 0.938130
O O16 0.500000 0.000000 0.500000
#
# Coordination Sequence:
#
# PCOD9100448 Si02
#       7
#     2   2   2   2   2   2   2
#     4  11  22  37  62  91 127 169 217 285 342 402
#     4  10  22  37  57  92 126 160 222 276 345 402
#     4  10  20  41  61  87 127 170 220 279 341 410
#     4  11  24  45  70 103 133 181 241 279 347 429
#     4  11  28  49  73 106 147 187 233 299 360 418
#     4   9  22  39  61  95 125 176 234 277 349 421
#     4  10  20  37  64  88 126 175 227 283 341 421
#
# _framework density 24.907861
#
# number of rings (size 3 to 8) (size 9 to 14) (size 15 to 20)
#    0.000    1.714    1.429    1.714    4.000    3.429 
#    0.000    1.429    0.000    0.000    0.000    0.000 
#    0.000    0.000    0.000    0.000    0.000    0.000 
#
# Total GULP energy -78005.134023 kJ/mol
# GULP energy per Si atom -5571.795287 kJ/mol
# Density = 2.485117 g / cm^3
# Si number density = 24.907861 Si / 1000 Ang^3
#
#
#
# Elastic Constant Matrix: (Units=GPa)
#
#
# Indices 1 2 3 4 5 6 
#
# 1 120.8262 68.8933 -33.0635 -76.9536 17.4771 -20.4167
# 2 68.8933 77.1413 63.3505 27.4903 17.8715 2.9682
# 3 -33.0635 63.3505 -35.5648 -92.4777 -10.7161 -25.6932
# 4 -76.9536 27.4903 -92.4777 -35.4482 -30.5748 -6.9972
# 5 17.4771 17.8715 -10.7161 -30.5748 39.4596 -17.4872
# 6 -20.4167 2.9682 -25.6932 -6.9972 -17.4872 44.0705
#
#
#
# Elastic Compliance Matrix: (Units=1/GPa)
#
#
# Indices 1 2 3 4 5 6 
#
# 1 0.007762 -0.001472 -0.004624 -0.001018 -0.005393 -0.001303
# 2 -0.001472 0.010521 0.001022 0.006826 0.001919 0.001051
# 3 -0.004624 0.001022 0.010288 -0.011858 -0.004811 -0.000005
# 4 -0.001018 0.006826 -0.011858 0.011240 0.000197 -0.005982
# 5 -0.005393 0.001919 -0.004811 0.000197 0.028289 0.005824
# 6 -0.001303 0.001051 -0.000005 -0.005982 0.005824 0.023375
#
#
# Mechanical properties :
#
#
# Convention : Reuss Voigt Hill
#
# Bulk Modulus (GPa) = 54.28439 40.08481 47.18460
# Shear Modulus (GPa) = 46.39760 13.83118 30.11439
#
# Velocity S-wave (km/s) = 4.32066 2.35902 3.48089
# Velocity P-wave (km/s) = 6.83610 4.85265 5.92792
#
# Compressibility (1/GPa) = 0.01842150
#
# Stress axis : x y z
#
# Youngs Moduli (GPa) = 128.83725 95.04806 97.19986
#
# Poissons Ratio (x) = 0.13989 0.44950
# Poissons Ratio (y) = 0.18962 -0.09930
# Poissons Ratio (z) = 0.59580 -0.09710
#
# Static dielectric constant tensor:
#      x y z
#    x 1.899490 0.010480 -0.096100 
#    y 0.010480 2.298840 0.129480 
#    z -0.096100 0.129480 2.008650 
# 
# From -- ./inp_files/101745.got.cif
#   From: 2010.05.17/outbox.cif.g08.bks.cpg/sg2_51_cif.got.tgz:101745.got - 2010.06.03 11:33:40.
