data_PCOD9100797
_publ_section_title
;
Structure prediction by ZEFSAII (Michael W. Deem and Ramdas Pophale) SiO2 
 PCOD9100797
Probable space group: P -1
;
_chemical_formula_sum "Si O2"
_cell_formula_units_Z 16
_cell_length_a 9.847468
_cell_length_b 14.525501
_cell_length_c 5.867634
_cell_angle_alpha 60.816055
_cell_angle_beta 119.052790
_cell_angle_gamma 121.459281
_cell_volume 594.187870
_symmetry_space_group_name_H-M "P -1"
_symmetry_group_IT_number 2
_symmetry_cell_setting 'triclinic'
loop_
_space_group_symop_operation_xyz
x,y,z
-x,-y,-z
loop_
_atom_site_type_symbol
_atom_site_label
_atom_site_fract_x
_atom_site_fract_y
_atom_site_fract_z
Si Si1 0.590803 0.550153 0.260010
Si Si2 0.831455 0.525104 0.799707
Si Si3 0.572035 0.857941 0.213540
Si Si4 0.314032 0.709592 0.823416
Si Si5 0.970526 0.234501 0.248540
Si Si6 0.385786 0.243968 0.251258
Si Si7 0.720005 0.090712 0.869525
Si Si8 0.129989 0.984349 0.301213
O O1 0.500000 0.500000 0.500000
O O2 0.760722 0.527184 0.485422
O O3 0.500000 0.500000 0.000000
O O4 0.653950 0.682857 0.067774
O O5 0.705354 0.415438 0.959819
O O6 0.869118 0.649835 0.787278
O O7 0.000000 0.500000 0.000000
O O8 0.451924 0.806293 0.966646
O O9 0.615578 0.754595 0.476177
O O10 0.718336 0.974186 0.124253
O O11 0.456795 0.902595 0.227547
O O12 0.141501 0.724768 0.714374
O O13 0.413357 0.724373 0.653728
O O14 0.865499 0.196794 0.974737
O O15 0.973558 0.115685 0.486617
O O16 0.255648 0.113245 0.293274
O O17 0.751495 0.071462 0.659293
O O18 0.000000 0.000000 0.000000
#
# Coordination Sequence:
#
# PCOD9100797 Si02
#       8
#     2   2   2   2   2   2   2   2
#     4  12  27  50  77 110 149 198 256 316 376 452
#     4  10  22  47  73 104 147 196 249 308 381 455
#     4  10  20  37  66 101 129 173 238 308 366 431
#     4  10  20  39  69  97 131 176 235 302 362 439
#     4  10  22  42  63  96 139 178 235 290 375 439
#     4  12  23  39  70  99 137 181 241 303 371 441
#     4  10  21  39  64  95 136 182 233 301 365 444
#     4  12  25  40  57  93 135 181 231 285 374 440
#
# _framework density 26.927510000000002
#
# number of rings (size 3 to 8) (size 9 to 14) (size 15 to 20)
#    0.000    1.250    3.750    2.250    0.000    1.500 
#    4.500    0.625    0.000    0.000    0.000    0.000 
#    0.000    0.000    0.000    0.000    0.000    0.000 
#
# Total GULP energy -89079.226372 kJ/mol
# GULP energy per Si atom -5567.451648 kJ/mol
# Density = 2.686622 g / cm^3
# Si number density = 26.927510 Si / 1000 Ang^3
#
#
#
# Elastic Constant Matrix: (Units=GPa)
#
#
# Indices 1 2 3 4 5 6 
#
# 1 60.1138 1.3701 19.5495 -9.4378 13.8589 -6.8361
# 2 1.3701 162.2050 57.6139 -29.5004 -4.8053 20.5376
# 3 19.5495 57.6139 187.8219 -42.1513 10.7707 7.4639
# 4 -9.4378 -29.5004 -42.1513 60.4796 9.0534 1.4669
# 5 13.8589 -4.8053 10.7707 9.0534 24.8968 -2.5896
# 6 -6.8361 20.5376 7.4639 1.4669 -2.5896 14.6131
#
#
#
# Elastic Compliance Matrix: (Units=1/GPa)
#
#
# Indices 1 2 3 4 5 6 
#
# 1 0.021360 -0.000623 -0.000741 0.004144 -0.012297 0.008652
# 2 -0.000623 0.008880 -0.001367 0.003574 0.000061 -0.012422
# 3 -0.000741 -0.001367 0.007475 0.005328 -0.005412 -0.003737
# 4 0.004144 0.003574 0.005328 0.025018 -0.014145 -0.010824
# 5 -0.012297 0.000061 -0.005412 -0.014145 0.055356 0.008156
# 6 0.008652 -0.012422 -0.003737 -0.010824 0.008156 0.094378
#
#
# Mechanical properties :
#
#
# Convention : Reuss Voigt Hill
#
# Bulk Modulus (GPa) = 31.00471 63.02308 47.01390
# Shear Modulus (GPa) = 21.86458 42.10505 31.98481
#
# Velocity S-wave (km/s) = 2.85262 3.95858 3.45020
# Velocity P-wave (km/s) = 4.73170 6.65953 5.77661
#
# Compressibility (1/GPa) = 0.03225316
#
# Stress axis : x y z
#
# Youngs Moduli (GPa) = 46.81748 112.60671 133.77521
#
# Poissons Ratio (x) = 0.07020 0.09908
# Poissons Ratio (y) = 0.02919 0.18286
# Poissons Ratio (z) = 0.03468 0.15393
#
# Static dielectric constant tensor:
#      x y z
#    x 2.470070 -0.101410 -0.036560 
#    y -0.101410 2.205850 0.007280 
#    z -0.036560 0.007280 2.324000 
# 
# From -- ./inp_files/81155.got.cif
#   From: 2010.05.17/outbox.cif.g08.bks.cpg/sg2_41_cif.got.tgz:81155.got - 2010.06.03 11:33:40.
