data_PCOD9100502
_publ_section_title
;
Structure prediction by ZEFSAII (Michael W. Deem and Ramdas Pophale) SiO2 
 PCOD9100502
Probable space group: P -1
;
_chemical_formula_sum "Si O2"
_cell_formula_units_Z 16
_cell_length_a 11.086411
_cell_length_b 8.074003
_cell_length_c 25.083597
_cell_angle_alpha 141.831650
_cell_angle_beta 29.042960
_cell_angle_gamma 137.919642
_cell_volume 662.233111
_symmetry_space_group_name_H-M "P -1"
_symmetry_group_IT_number 2
_symmetry_cell_setting 'triclinic'
loop_
_space_group_symop_operation_xyz
x,y,z
-x,-y,-z
loop_
_atom_site_type_symbol
_atom_site_label
_atom_site_fract_x
_atom_site_fract_y
_atom_site_fract_z
Si Si1 0.104392 0.482236 0.747885
Si Si2 0.779417 0.097207 0.865660
Si Si3 0.757507 0.837154 0.228787
Si Si4 0.397617 0.459430 0.088882
Si Si5 0.310202 0.415600 0.304757
Si Si6 0.454271 0.787607 0.512448
Si Si7 0.888776 0.733528 0.539080
Si Si8 0.528484 0.969763 0.241472
O O1 0.284481 0.314345 0.603631
O O2 0.953441 0.287343 0.801969
O O3 0.903329 0.580971 0.811250
O O4 0.290786 0.740222 0.766606
O O5 0.952301 0.130841 0.859633
O O6 0.729010 0.798348 0.782587
O O7 0.526930 0.220659 0.001810
O O8 0.601190 0.545290 0.234208
O O9 0.668320 0.861629 0.209590
O O10 0.656883 0.071738 0.360308
O O11 0.500332 0.740126 0.149957
O O12 0.500000 0.500000 0.000000
O O13 0.190431 0.275749 0.369981
O O14 0.172394 0.675945 0.414428
O O15 0.257195 0.534744 0.502319
O O16 0.500000 0.000000 0.500000
O O17 0.757061 0.970282 0.625238
#
# Coordination Sequence:
#
# PCOD9100502 Si02
#       8
#     2   2   2   2   2   2   2   2
#     4  10  22  41  69  94 126 166 214 265 309 373
#     4  11  23  43  66  94 123 165 225 260 310 369
#     4  12  25  39  62  98 135 170 198 262 322 383
#     4  10  24  44  69  91 122 167 219 270 303 372
#     4  11  22  38  66  96 122 170 216 260 308 369
#     4  11  18  38  64  95 130 166 213 253 312 376
#     4  10  20  37  64  91 129 164 214 263 300 379
#     4  11  26  42  60 101 132 164 207 256 333 375
#
# _framework density 24.160675000000001
#
# number of rings (size 3 to 8) (size 9 to 14) (size 15 to 20)
#    0.000    1.250    3.750    2.250    3.500    7.000 
#    0.000    1.250    0.000    0.000    0.000    0.000 
#    0.000    0.000    0.000    0.000    0.000    0.000 
#
# Total GULP energy -89567.337550 kJ/mol
# GULP energy per Si atom -5597.958597 kJ/mol
# Density = 2.410568 g / cm^3
# Si number density = 24.160675 Si / 1000 Ang^3
#
#
#
# Elastic Constant Matrix: (Units=GPa)
#
#
# Indices 1 2 3 4 5 6 
#
# 1 149.8871 25.3080 61.1282 9.8608 -27.3292 23.5744
# 2 25.3080 63.9598 34.1452 1.5867 -0.0446 16.7508
# 3 61.1282 34.1452 110.9050 17.3037 -28.2198 27.2565
# 4 9.8608 1.5867 17.3037 30.9956 14.7072 -3.2009
# 5 -27.3292 -0.0446 -28.2198 14.7072 57.1428 5.1834
# 6 23.5744 16.7508 27.2565 -3.2009 5.1834 41.8610
#
#
#
# Elastic Compliance Matrix: (Units=1/GPa)
#
#
# Indices 1 2 3 4 5 6 
#
# 1 0.009734 -0.001756 -0.001037 -0.005890 0.006140 -0.005314
# 2 -0.001756 0.020562 -0.007859 0.006843 -0.006393 -0.000808
# 3 -0.001037 -0.007859 0.024818 -0.024082 0.019466 -0.016682
# 4 -0.005890 0.006843 -0.024082 0.066001 -0.034006 0.025516
# 5 0.006140 -0.006393 0.019466 -0.034006 0.040721 -0.021216
# 6 -0.005314 -0.000808 -0.016682 0.025516 -0.021216 0.042645
#
#
# Mechanical properties :
#
#
# Convention : Reuss Voigt Hill
#
# Bulk Modulus (GPa) = 29.57621 62.87941 46.22781
# Shear Modulus (GPa) = 21.09212 39.61124 30.35168
#
# Velocity S-wave (km/s) = 2.95785 4.05346 3.54820
# Velocity P-wave (km/s) = 4.89216 6.92744 5.99677
#
# Compressibility (1/GPa) = 0.03381096
#
# Stress axis : x y z
#
# Youngs Moduli (GPa) = 102.73300 48.63283 40.29287
#
# Poissons Ratio (x) = 0.08538 0.04180
# Poissons Ratio (y) = 0.18036 0.31666
# Poissons Ratio (z) = 0.10657 0.38220
#
# Static dielectric constant tensor:
#      x y z
#    x 1.950790 -0.062550 -0.055320 
#    y -0.062550 1.937110 -0.025640 
#    z -0.055320 -0.025640 1.892160 
# 
# From -- ./inp_files/308810.got.cif
#   From: 2010.05.17/outbox.cif.g08.bks.cpg/sg2_155_cif.got.tgz:308810.got - 2010.06.03 11:33:40.
