data_PCOD9100288
_publ_section_title
;
Structure prediction by ZEFSAII (Michael W. Deem and Ramdas Pophale) SiO2 
 PCOD9100288
Probable space group: P -1
;
_chemical_formula_sum "Si O2"
_cell_formula_units_Z 16
_cell_length_a 5.573029
_cell_length_b 12.491040
_cell_length_c 11.627743
_cell_angle_alpha 66.484655
_cell_angle_beta 97.858494
_cell_angle_gamma 104.964441
_cell_volume 716.529319
_symmetry_space_group_name_H-M "P -1"
_symmetry_group_IT_number 2
_symmetry_cell_setting 'triclinic'
loop_
_space_group_symop_operation_xyz
x,y,z
-x,-y,-z
loop_
_atom_site_type_symbol
_atom_site_label
_atom_site_fract_x
_atom_site_fract_y
_atom_site_fract_z
Si Si1 0.317520 0.657221 0.491336
Si Si2 0.324870 0.000888 0.772247
Si Si3 0.144449 0.411343 0.649251
Si Si4 0.729201 0.601785 0.930326
Si Si5 0.231226 0.129069 0.218143
Si Si6 0.136458 0.568911 0.153451
Si Si7 0.460922 0.244360 0.784093
Si Si8 0.617480 0.890645 0.515209
O O1 0.360698 0.528017 0.586726
O O2 0.433237 0.701542 0.356188
O O3 0.418090 0.765165 0.538021
O O4 0.023157 0.628864 0.456498
O O5 0.554928 0.938171 0.783946
O O6 0.053066 0.921636 0.820572
O O7 0.416765 0.102992 0.830401
O O8 0.276480 0.071082 0.621113
O O9 0.212301 0.292917 0.754885
O O10 0.996346 0.455734 0.723105
O O11 0.679083 0.732420 0.867375
O O12 0.790615 0.551331 0.833224
O O13 0.500000 0.500000 0.000000
O O14 0.954154 0.601122 0.032071
O O15 0.214452 0.123779 0.359067
O O16 0.360006 0.684087 0.138489
O O17 0.500000 0.000000 0.500000
#
# Coordination Sequence:
#
# PCOD9100288 Si02
#       8
#     2   2   2   2   2   2   2   2
#     4   9  20  35  55  98 131 172 224 265 330 409
#     4  10  24  43  68  99 138 176 226 272 336 409
#     4  10  20  37  63  91 133 173 221 274 336 399
#     4  11  26  46  69  94 134 169 228 289 340 395
#     4  11  25  44  69  98 133 184 226 278 336 401
#     4  10  24  41  67  95 126 172 223 279 350 387
#     4  10  21  39  66  93 135 176 216 280 339 397
#     4   9  20  37  62  93 137 174 221 265 335 399
#
# _framework density 22.329861000000001
#
# number of rings (size 3 to 8) (size 9 to 14) (size 15 to 20)
#    0.000    2.000    0.000    1.500   14.000    1.000 
#    6.750    1.250    0.000    0.000    0.000    0.000 
#    0.000    0.000    0.000    0.000    0.000    0.000 
#
# Total GULP energy -89267.424036 kJ/mol
# GULP energy per Si atom -5579.214002 kJ/mol
# Density = 2.227904 g / cm^3
# Si number density = 22.329861 Si / 1000 Ang^3
#
#
#
# Elastic Constant Matrix: (Units=GPa)
#
#
# Indices 1 2 3 4 5 6 
#
# 1 82.0510 60.9624 17.7909 1.5583 5.2923 -1.9155
# 2 60.9624 190.7794 30.4212 2.2248 11.1439 5.0624
# 3 17.7909 30.4212 27.3908 2.5818 4.3991 -3.7543
# 4 1.5583 2.2248 2.5818 40.0834 5.8506 4.3495
# 5 5.2923 11.1439 4.3991 5.8506 23.1777 0.7821
# 6 -1.9155 5.0624 -3.7543 4.3495 0.7821 27.7794
#
#
#
# Elastic Compliance Matrix: (Units=1/GPa)
#
#
# Indices 1 2 3 4 5 6 
#
# 1 0.016803 -0.004458 -0.005685 -0.000081 -0.000636 0.001233
# 2 -0.004458 0.007760 -0.005867 0.000644 -0.001676 -0.002568
# 3 -0.005685 -0.005867 0.048808 -0.002760 -0.004713 0.007838
# 4 -0.000081 0.000644 -0.002760 0.026498 -0.006305 -0.004467
# 5 -0.000636 -0.001676 -0.004713 -0.006305 0.046605 -0.000700
# 6 0.001233 -0.002568 0.007838 -0.004467 -0.000700 0.038329
#
#
# Mechanical properties :
#
#
# Convention : Reuss Voigt Hill
#
# Bulk Modulus (GPa) = 24.18172 57.61894 40.90033
# Shear Modulus (GPa) = 21.68185 30.94454 26.31320
#
# Velocity S-wave (km/s) = 3.11944 3.72666 3.43649
# Velocity P-wave (km/s) = 4.88133 6.66160 5.83970
#
# Compressibility (1/GPa) = 0.04135355
#
# Stress axis : x y z
#
# Youngs Moduli (GPa) = 59.51184 128.86453 20.48830
#
# Poissons Ratio (x) = 0.57443 0.11647
# Poissons Ratio (y) = 0.26528 0.12020
# Poissons Ratio (z) = 0.33830 0.75603
#
# Static dielectric constant tensor:
#      x y z
#    x 2.151010 -0.058500 -0.058700 
#    y -0.058500 1.827900 0.009790 
#    z -0.058700 0.009790 1.893520 
# 
# From -- ./inp_files/98662.got.cif
#   From: 2010.05.17/outbox.cif.g08.bks.cpg/sg2_50_cif.got.tgz:98662.got - 2010.06.03 11:33:40.
