data_PCOD9100847
_publ_section_title
;
Structure prediction by ZEFSAII (Michael W. Deem and Ramdas Pophale) SiO2 
 PCOD9100847
Probable space group: P -1
;
_chemical_formula_sum "Si O2"
_cell_formula_units_Z 16
_cell_length_a 14.677665
_cell_length_b 8.057637
_cell_length_c 9.519648
_cell_angle_alpha 92.596090
_cell_angle_beta 109.522347
_cell_angle_gamma 41.064652
_cell_volume 657.094726
_symmetry_space_group_name_H-M "P -1"
_symmetry_group_IT_number 2
_symmetry_cell_setting 'triclinic'
loop_
_space_group_symop_operation_xyz
x,y,z
-x,-y,-z
loop_
_atom_site_type_symbol
_atom_site_label
_atom_site_fract_x
_atom_site_fract_y
_atom_site_fract_z
Si Si1 0.219585 0.602719 0.954354
Si Si2 0.672646 0.634081 0.710969
Si Si3 0.661700 0.074445 0.168890
Si Si4 0.308456 0.318277 0.703023
Si Si5 0.920630 0.051357 0.687942
Si Si6 0.041900 0.178746 0.566044
Si Si7 0.566482 0.116923 0.613691
Si Si8 0.391505 0.691891 0.132465
O O1 0.288611 0.462610 0.833859
O O2 0.295489 0.396430 0.109772
O O3 0.261094 0.734122 0.024143
O O4 0.035664 0.821922 0.853939
O O5 0.792701 0.339523 0.700459
O O6 0.509059 0.781234 0.574820
O O7 0.686221 0.802699 0.666315
O O8 0.552176 0.370339 0.185971
O O9 0.630491 0.936934 0.212418
O O10 0.843012 0.859649 0.290496
O O11 0.626962 0.139564 0.987688
O O12 0.424525 0.245887 0.648211
O O13 0.134839 0.531181 0.554077
O O14 0.024980 0.038238 0.648235
O O15 0.873681 0.980501 0.544412
O O16 0.623666 0.207783 0.717901
#
# Coordination Sequence:
#
# PCOD9100847 Si02
#       8
#     2   2   2   2   2   2   2   2
#     4  11  23  40  65  91 121 160 200 251 299 358
#     4  11  23  41  63  87 122 163 199 244 306 361
#     4  11  21  35  61  96 124 151 199 256 297 351
#     4  11  22  40  65  93 120 157 204 248 302 354
#     4  10  20  39  65  89 120 159 201 245 304 355
#     4  10  20  37  66  92 119 155 201 253 296 355
#     4  11  24  41  62  88 124 163 199 248 300 357
#     4  11  23  37  59  90 125 158 201 246 299 356
#
# _framework density 24.349610999999999
#
# number of rings (size 3 to 8) (size 9 to 14) (size 15 to 20)
#    0.000    1.250    2.500    4.500    1.750    2.000 
#    0.000    3.125    2.750    0.000    0.000    0.000 
#    0.000    0.000    0.000    0.000    0.000    0.000 
#
# Total GULP energy -89504.436342 kJ/mol
# GULP energy per Si atom -5594.027271 kJ/mol
# Density = 2.429419 g / cm^3
# Si number density = 24.349611 Si / 1000 Ang^3
#
#
#
# Elastic Constant Matrix: (Units=GPa)
#
#
# Indices 1 2 3 4 5 6 
#
# 1 29.8127 10.1338 18.3783 -7.1542 -1.2559 7.1645
# 2 10.1338 98.8320 40.0097 -1.2059 -3.5754 3.7617
# 3 18.3783 40.0097 145.1031 -16.3789 1.3197 7.7479
# 4 -7.1542 -1.2059 -16.3789 36.8926 0.9432 -0.0637
# 5 -1.2559 -3.5754 1.3197 0.9432 31.7305 1.4068
# 6 7.1645 3.7617 7.7479 -0.0637 1.4068 26.9076
#
#
#
# Elastic Compliance Matrix: (Units=1/GPa)
#
#
# Indices 1 2 3 4 5 6 
#
# 1 0.040183 -0.002300 -0.003262 0.006209 0.001704 -0.009513
# 2 -0.002300 0.011644 -0.003088 -0.001472 0.001402 -0.000203
# 3 -0.003262 -0.003088 0.008573 0.003093 -0.000876 -0.001115
# 4 0.006209 -0.001472 0.003093 0.029652 -0.000832 -0.002224
# 5 0.001704 0.001402 -0.000876 -0.000832 0.031894 -0.002067
# 6 -0.009513 -0.000203 -0.001115 -0.002224 -0.002067 0.040150
#
#
# Mechanical properties :
#
#
# Convention : Reuss Voigt Hill
#
# Bulk Modulus (GPa) = 23.20122 45.64351 34.42236
# Shear Modulus (GPa) = 25.80480 32.78787 29.29633
#
# Velocity S-wave (km/s) = 3.25893 3.67351 3.47241
# Velocity P-wave (km/s) = 4.86928 6.06454 5.49948
#
# Compressibility (1/GPa) = 0.04310118
#
# Stress axis : x y z
#
# Youngs Moduli (GPa) = 24.88592 85.87793 116.64843
#
# Poissons Ratio (x) = 0.19754 0.38050
# Poissons Ratio (y) = 0.05724 0.36015
# Poissons Ratio (z) = 0.08118 0.26515
#
# Static dielectric constant tensor:
#      x y z
#    x 1.974480 -0.032070 -0.031620 
#    y -0.032070 1.967350 -0.001160 
#    z -0.031620 -0.001160 1.945950 
# 
# From -- ./inp_files/329197.got.cif
#   From: 2010.05.17/outbox.cif.g08.bks.cpg/sg2_165_cif.got.tgz:329197.got - 2010.06.03 11:33:40.
