data_PCOD9100869
_publ_section_title
;
Structure prediction by ZEFSAII (Michael W. Deem and Ramdas Pophale) SiO2 
 PCOD9100869
Probable space group: P -1
;
_chemical_formula_sum "Si O2"
_cell_formula_units_Z 16
_cell_length_a 9.614332
_cell_length_b 11.833914
_cell_length_c 9.155753
_cell_angle_alpha 117.290502
_cell_angle_beta 97.278109
_cell_angle_gamma 55.158425
_cell_volume 746.615809
_symmetry_space_group_name_H-M "P -1"
_symmetry_group_IT_number 2
_symmetry_cell_setting 'triclinic'
loop_
_space_group_symop_operation_xyz
x,y,z
-x,-y,-z
loop_
_atom_site_type_symbol
_atom_site_label
_atom_site_fract_x
_atom_site_fract_y
_atom_site_fract_z
Si Si1 0.182549 0.338103 0.967555
Si Si2 0.064229 0.319866 0.427373
Si Si3 0.931869 0.814957 0.346521
Si Si4 0.628372 0.842885 0.832406
Si Si5 0.447619 0.693335 0.627795
Si Si6 0.240533 0.827295 0.385611
Si Si7 0.432434 0.398002 0.879137
Si Si8 0.730172 0.412135 0.312549
O O1 0.172127 0.209091 0.803095
O O2 0.330534 0.358109 0.947589
O O3 0.229208 0.285474 0.109975
O O4 0.000000 0.500000 0.000000
O O5 0.049457 0.290677 0.577617
O O6 0.252343 0.187798 0.309747
O O7 0.000000 0.500000 0.500000
O O8 0.927890 0.304836 0.314153
O O9 0.113751 0.778566 0.294100
O O10 0.845350 0.990029 0.498315
O O11 0.497164 0.808431 0.734720
O O12 0.500000 0.000000 0.000000
O O13 0.317155 0.750372 0.508936
O O14 0.625517 0.535035 0.503858
O O15 0.363949 0.673528 0.746906
O O16 0.398085 0.757149 0.254968
O O17 0.306339 0.492708 0.782016
O O18 0.500000 0.500000 0.000000
#
# Coordination Sequence:
#
# PCOD9100869 Si02
#       8
#     2   2   2   2   2   2   2   2
#     4  12  26  43  67  98 138 179 223 280 337 404
#     4  12  23  42  69  98 127 176 229 271 326 407
#     4  11  24  43  68  96 133 175 227 270 338 400
#     4  12  27  43  64  98 141 173 215 281 344 394
#     4  10  20  40  65  93 130 165 221 268 331 381
#     4  10  23  42  67  96 130 176 221 281 326 403
#     4  11  23  39  65  97 133 173 221 272 340 394
#     4  10  20  37  66  95 118 169 225 271 310 394
#
# _framework density 21.430029000000001
#
# number of rings (size 3 to 8) (size 9 to 14) (size 15 to 20)
#    0.000    1.000    2.500    4.500    3.500    0.500 
#    0.000    0.625    0.000    0.000    0.000    0.000 
#    0.000    0.000    0.000    0.000    0.000    0.000 
#
# Total GULP energy -89335.853962 kJ/mol
# GULP energy per Si atom -5583.490873 kJ/mol
# Density = 2.138125 g / cm^3
# Si number density = 21.430029 Si / 1000 Ang^3
#
#
#
# Elastic Constant Matrix: (Units=GPa)
#
#
# Indices 1 2 3 4 5 6 
#
# 1 102.1869 -2.2614 20.2627 9.0689 10.7956 9.7078
# 2 -2.2614 47.7190 -7.8953 3.0639 -7.4955 3.2656
# 3 20.2627 -7.8953 35.3649 4.8517 10.8454 2.4050
# 4 9.0689 3.0639 4.8517 29.7575 0.3247 -3.3487
# 5 10.7956 -7.4955 10.8454 0.3247 33.5740 0.3853
# 6 9.7078 3.2656 2.4050 -3.3487 0.3853 27.7436
#
#
#
# Elastic Compliance Matrix: (Units=1/GPa)
#
#
# Indices 1 2 3 4 5 6 
#
# 1 0.011722 -0.000189 -0.005462 -0.003086 -0.001972 -0.003951
# 2 -0.000189 0.022781 0.004786 -0.003503 0.003675 -0.003504
# 3 -0.005462 0.004786 0.035966 -0.004849 -0.008721 -0.002234
# 4 -0.003086 -0.003503 -0.004849 0.036389 0.001352 0.006286
# 5 -0.001972 0.003675 -0.008721 0.001352 0.034035 0.000704
# 6 -0.003951 -0.003504 -0.002234 0.006286 0.000704 0.038782
#
#
# Mechanical properties :
#
#
# Convention : Reuss Voigt Hill
#
# Bulk Modulus (GPa) = 14.54774 22.83141 18.68958
# Shear Modulus (GPa) = 24.47152 29.89266 27.18209
#
# Velocity S-wave (km/s) = 3.38291 3.73888 3.56534
# Velocity P-wave (km/s) = 4.69702 5.41443 5.06843
#
# Compressibility (1/GPa) = 0.06873921
#
# Stress axis : x y z
#
# Youngs Moduli (GPa) = 85.30692 43.89649 27.80387
#
# Poissons Ratio (x) = 0.00832 0.15186
# Poissons Ratio (y) = 0.01616 -0.13308
# Poissons Ratio (z) = 0.46594 -0.21010
#
# Static dielectric constant tensor:
#      x y z
#    x 1.850980 0.038670 -0.028040 
#    y 0.038670 1.853500 0.036960 
#    z -0.028040 0.036960 1.819950 
# 
# From -- ./inp_files/190172.got.cif
#   From: 2010.05.17/outbox.cif.g08.bks.cpg/sg2_96_cif.got.tgz:190172.got - 2010.06.03 11:33:40.
