data_PCOD9100217
_publ_section_title
;
Structure prediction by ZEFSAII (Michael W. Deem and Ramdas Pophale) SiO2 
 PCOD9100217
Probable space group: P -1
;
_chemical_formula_sum "Si O2"
_cell_formula_units_Z 14
_cell_length_a 15.119334
_cell_length_b 13.703545
_cell_length_c 8.709493
_cell_angle_alpha 30.122303
_cell_angle_beta 136.952095
_cell_angle_gamma 136.228460
_cell_volume 596.442971
_symmetry_space_group_name_H-M "P -1"
_symmetry_group_IT_number 2
_symmetry_cell_setting 'triclinic'
loop_
_space_group_symop_operation_xyz
x,y,z
-x,-y,-z
loop_
_atom_site_type_symbol
_atom_site_label
_atom_site_fract_x
_atom_site_fract_y
_atom_site_fract_z
Si Si1 0.592059 0.785351 0.130627
Si Si2 0.972663 0.989367 0.164690
Si Si3 0.647568 0.517789 0.104541
Si Si4 0.226992 0.225368 0.352441
Si Si5 0.218514 0.441793 0.462999
Si Si6 0.719431 0.128953 0.603827
Si Si7 0.721672 0.335981 0.035481
O O1 0.691816 0.861203 0.297701
O O2 0.648035 0.609059 0.368496
O O3 0.440566 0.714144 0.093108
O O4 0.615597 0.943315 0.806278
O O5 0.092295 0.085186 0.302172
O O6 0.903161 0.757340 0.438071
O O7 0.860151 0.113468 0.872902
O O8 0.000000 0.000000 0.000000
O O9 0.752533 0.539919 0.346088
O O10 0.664843 0.319396 0.313990
O O11 0.500000 0.500000 0.000000
O O12 0.681760 0.700640 0.781046
O O13 0.212665 0.439951 0.113470
O O14 0.216961 0.636681 0.095199
O O15 0.746731 0.158311 0.415801
#
# Coordination Sequence:
#
# PCOD9100217 Si02
#       7
#     2   2   2   2   2   2   2
#     4  10  20  40  65  95 126 164 211 259 320 379
#     4  11  23  45  64  90 127 171 224 252 304 377
#     4  11  21  39  63  98 127 163 206 262 324 376
#     4  10  21  39  67  89 126 171 206 262 314 369
#     4  10  20  37  63  88 125 165 208 256 311 373
#     4  10  24  40  66  93 131 168 207 262 317 368
#     4  10  20  38  63  97 125 163 208 259 323 378
#
# _framework density 23.472487000000001
#
# number of rings (size 3 to 8) (size 9 to 14) (size 15 to 20)
#    0.000    1.714    1.429    4.714    0.000    8.571 
#    2.571    2.143    0.000    0.000    0.000    0.000 
#    0.000    0.000    0.000    0.000    0.000    0.000 
#
# Total GULP energy -78143.668211 kJ/mol
# GULP energy per Si atom -5581.690587 kJ/mol
# Density = 2.341906 g / cm^3
# Si number density = 23.472487 Si / 1000 Ang^3
#
#
#
# Elastic Constant Matrix: (Units=GPa)
#
#
# Indices 1 2 3 4 5 6 
#
# 1 49.0446 16.2107 35.5667 6.6097 -15.7659 9.3559
# 2 16.2107 126.4414 48.3734 28.8842 -8.0896 7.9718
# 3 35.5667 48.3734 123.8889 4.8954 -43.4862 9.3245
# 4 6.6097 28.8842 4.8954 30.8794 -1.3766 -9.0034
# 5 -15.7659 -8.0896 -43.4862 -1.3766 55.5254 -1.5375
# 6 9.3559 7.9718 9.3245 -9.0034 -1.5375 30.6496
#
#
#
# Elastic Compliance Matrix: (Units=1/GPa)
#
#
# Indices 1 2 3 4 5 6 
#
# 1 0.028839 0.002011 -0.007088 -0.009709 0.002416 -0.009901
# 2 0.002011 0.013209 -0.005514 -0.013936 -0.002350 -0.006584
# 3 -0.007088 -0.005514 0.015256 0.004922 0.009279 0.000868
# 4 -0.009709 -0.013936 0.004922 0.052778 0.000948 0.020642
# 5 0.002416 -0.002350 0.009279 0.000948 0.025605 -0.001386
# 6 -0.009901 -0.006584 0.000868 0.020642 -0.001386 0.043092
#
#
# Mechanical properties :
#
#
# Convention : Reuss Voigt Hill
#
# Bulk Modulus (GPa) = 27.68293 55.51963 41.60128
# Shear Modulus (GPa) = 23.58488 36.69248 30.13868
#
# Velocity S-wave (km/s) = 3.17328 3.95804 3.58718
# Velocity P-wave (km/s) = 5.02450 6.67776 5.90924
#
# Compressibility (1/GPa) = 0.03612334
#
# Stress axis : x y z
#
# Youngs Moduli (GPa) = 34.67577 75.70875 65.54612
#
# Poissons Ratio (x) = -0.15225 0.46456
# Poissons Ratio (y) = -0.06973 0.36139
# Poissons Ratio (z) = 0.24577 0.41743
#
# Static dielectric constant tensor:
#      x y z
#    x 1.971780 -0.045760 -0.097080 
#    y -0.045760 1.909660 0.036440 
#    z -0.097080 0.036440 2.035570 
# 
# From -- ./inp_files/169260.got.cif
#   From: 2010.05.17/outbox.cif.g08.bks.cpg/sg2_85_cif.got.tgz:169260.got - 2010.06.03 11:33:40.
