data_PCOD9100741
_publ_section_title
;
Structure prediction by ZEFSAII (Michael W. Deem and Ramdas Pophale) SiO2 
 PCOD9100741
Probable space group: P -1
;
_chemical_formula_sum "Si O2"
_cell_formula_units_Z 16
_cell_length_a 8.193962
_cell_length_b 8.368020
_cell_length_c 15.137035
_cell_angle_alpha 112.663411
_cell_angle_beta 50.150956
_cell_angle_gamma 89.871432
_cell_volume 688.339276
_symmetry_space_group_name_H-M "P -1"
_symmetry_group_IT_number 2
_symmetry_cell_setting 'triclinic'
loop_
_space_group_symop_operation_xyz
x,y,z
-x,-y,-z
loop_
_atom_site_type_symbol
_atom_site_label
_atom_site_fract_x
_atom_site_fract_y
_atom_site_fract_z
Si Si1 0.402018 0.138805 0.457403
Si Si2 0.089704 0.609378 0.061253
Si Si3 0.832840 0.709714 0.599065
Si Si4 0.837811 0.039781 0.889090
Si Si5 0.027661 0.964349 0.356630
Si Si6 0.686936 0.738223 0.854712
Si Si7 0.631164 0.723578 0.318196
Si Si8 0.425417 0.609934 0.196787
O O1 0.344862 0.251862 0.411164
O O2 0.461634 0.243205 0.542493
O O3 0.176354 0.097363 0.555611
O O4 0.576888 0.930696 0.341889
O O5 0.083747 0.803201 0.060541
O O6 0.904741 0.637762 0.208000
O O7 0.349297 0.481631 0.960565
O O8 0.000000 0.500000 0.000000
O O9 0.708437 0.773267 0.749606
O O10 0.000000 0.500000 0.500000
O O11 0.981789 0.840281 0.559541
O O12 0.962464 0.018631 0.747965
O O13 0.847355 0.834053 0.868034
O O14 0.567328 0.153243 0.999850
O O15 0.268099 0.813428 0.268336
O O16 0.719557 0.523004 0.795935
O O17 0.520568 0.618758 0.265462
#
# Coordination Sequence:
#
# PCOD9100741 Si02
#       8
#     2   2   2   2   2   2   2   2
#     4  11  22  38  64  90 124 168 210 261 307 375
#     4   9  18  35  60  93 125 160 204 258 314 366
#     4  11  23  38  59  90 128 165 205 258 318 373
#     4   9  18  37  58  89 120 159 206 260 312 359
#     4  11  21  37  65  95 119 159 216 274 309 350
#     4   9  20  35  58  85 123 161 195 259 315 361
#     4  10  21  38  61  93 126 163 212 257 310 375
#     4  10  20  37  65  94 123 158 212 271 310 366
#
# _framework density 23.244350000000001
#
# number of rings (size 3 to 8) (size 9 to 14) (size 15 to 20)
#    0.000    2.000    2.500    1.125    1.750    2.000 
#    2.250    0.625    0.000    3.000    0.000    0.000 
#    0.000    0.000    0.000    0.000    0.000    0.000 
#
# Total GULP energy -89227.565280 kJ/mol
# GULP energy per Si atom -5576.722830 kJ/mol
# Density = 2.319145 g / cm^3
# Si number density = 23.244350 Si / 1000 Ang^3
#
#
#
# Elastic Constant Matrix: (Units=GPa)
#
#
# Indices 1 2 3 4 5 6 
#
# 1 83.5623 39.5785 20.2781 19.5633 10.2921 17.6461
# 2 39.5785 79.7652 21.9769 31.7145 7.7713 26.6453
# 3 20.2781 21.9769 94.2931 8.2451 -5.4945 3.4268
# 4 19.5633 31.7145 8.2451 37.9342 11.6488 6.7149
# 5 10.2921 7.7713 -5.4945 11.6488 37.5524 11.1807
# 6 17.6461 26.6453 3.4268 6.7149 11.1807 42.3722
#
#
#
# Elastic Compliance Matrix: (Units=1/GPa)
#
#
# Indices 1 2 3 4 5 6 
#
# 1 0.016445 -0.005868 -0.002053 -0.002045 -0.002349 -0.002049
# 2 -0.005868 0.027441 -0.002732 -0.018608 0.005175 -0.013008
# 3 -0.002053 -0.002732 0.011820 -0.000205 0.002637 0.000954
# 4 -0.002045 -0.018608 -0.000205 0.045244 -0.012221 0.008625
# 5 -0.002349 0.005175 0.002637 -0.012221 0.033148 -0.009299
# 6 -0.002049 -0.013008 0.000954 0.008625 -0.009299 0.033643
#
#
# Mechanical properties :
#
#
# Convention : Reuss Voigt Hill
#
# Bulk Modulus (GPa) = 29.06924 46.80974 37.93949
# Shear Modulus (GPa) = 24.93590 35.29090 30.11340
#
# Velocity S-wave (km/s) = 3.27887 3.90071 3.60323
# Velocity P-wave (km/s) = 5.18341 6.36154 5.80246
#
# Compressibility (1/GPa) = 0.03440063
#
# Stress axis : x y z
#
# Youngs Moduli (GPa) = 60.80756 36.44220 84.59955
#
# Poissons Ratio (x) = 0.21385 0.17364
# Poissons Ratio (y) = 0.35682 0.23115
# Poissons Ratio (z) = 0.12481 0.09957
#
# Static dielectric constant tensor:
#      x y z
#    x 1.926120 0.029170 0.021340 
#    y 0.029170 1.918720 0.001170 
#    z 0.021340 0.001170 1.945000 
# 
# From -- ./inp_files/557429.got.cif
#   From: 2010.05.17/outbox.cif.g08.bks.cpg/sg2_279_cif.got.tgz:557429.got - 2010.06.03 11:33:40.
