data_PCOD9100139
_publ_section_title
;
Structure prediction by ZEFSAII (Michael W. Deem and Ramdas Pophale) SiO2 
 PCOD9100139
Probable space group: P -1
;
_chemical_formula_sum "Si O2"
_cell_formula_units_Z 16
_cell_length_a 15.007052
_cell_length_b 14.642195
_cell_length_c 9.018447
_cell_angle_alpha 40.298491
_cell_angle_beta 39.194518
_cell_angle_gamma 47.413767
_cell_volume 792.002481
_symmetry_space_group_name_H-M "P -1"
_symmetry_group_IT_number 2
_symmetry_cell_setting 'triclinic'
loop_
_space_group_symop_operation_xyz
x,y,z
-x,-y,-z
loop_
_atom_site_type_symbol
_atom_site_label
_atom_site_fract_x
_atom_site_fract_y
_atom_site_fract_z
Si Si1 0.941109 0.892627 0.093617
Si Si2 0.532513 0.693878 0.078070
Si Si3 0.611522 0.306518 0.177039
Si Si4 0.173533 0.368624 0.395083
Si Si5 0.695694 0.495565 0.349944
Si Si6 0.288790 0.433119 0.449973
Si Si7 0.632925 0.069632 0.193733
Si Si8 0.163386 0.675640 0.896471
O O1 0.911050 0.752430 0.396204
O O2 0.789180 0.964940 0.123681
O O3 0.050325 0.818775 0.914870
O O4 0.000000 0.000000 0.000000
O O5 0.624339 0.642814 0.171915
O O6 0.437132 0.572925 0.337034
O O7 0.659322 0.677792 0.813997
O O8 0.421584 0.841886 0.996605
O O9 0.442761 0.326498 0.401426
O O10 0.650973 0.177784 0.169833
O O11 0.693787 0.298757 0.235288
O O12 0.663850 0.436176 0.862379
O O13 0.183935 0.370872 0.555937
O O14 0.123830 0.531061 0.198931
O O15 0.776333 0.523457 0.359659
O O16 0.789699 0.379767 0.260521
O O17 0.500000 0.000000 0.500000
#
# Coordination Sequence:
#
# PCOD9100139 Si02
#       8
#     2   2   2   2   2   2   2   2
#     4  12  24  40  61  90 127 168 207 253 310 369
#     4  10  18  35  58  97 119 158 201 263 308 350
#     4  10  17  31  56  90 120 152 207 255 304 350
#     4  10  20  37  64  92 120 152 220 265 298 351
#     4  10  19  33  61  93 132 153 201 259 319 364
#     4  10  16  31  61  93 117 152 200 267 304 346
#     4  12  21  36  61  89 125 160 206 256 308 361
#     4  10  22  37  58  93 123 163 206 255 306 374
#
# _framework density 20.201958000000001
#
# number of rings (size 3 to 8) (size 9 to 14) (size 15 to 20)
#    0.000    1.500    5.000    3.375    0.000    0.000 
#    0.000    1.250    0.000   16.500    0.000    2.625 
#    0.000    0.000    0.000    0.000    0.000    0.000 
#
# Total GULP energy -89141.138140 kJ/mol
# GULP energy per Si atom -5571.321134 kJ/mol
# Density = 2.015598 g / cm^3
# Si number density = 20.201958 Si / 1000 Ang^3
#
#
#
# Elastic Constant Matrix: (Units=GPa)
#
#
# Indices 1 2 3 4 5 6 
#
# 1 80.5465 36.9836 36.0153 11.4194 -6.2775 6.7680
# 2 36.9836 110.3309 21.6977 14.8605 -12.4332 -8.5716
# 3 36.0153 21.6977 51.6481 -2.9065 -7.2435 7.0799
# 4 11.4194 14.8605 -2.9065 33.2942 6.7518 -1.9432
# 5 -6.2775 -12.4332 -7.2435 6.7518 29.2550 2.9770
# 6 6.7680 -8.5716 7.0799 -1.9432 2.9770 44.4869
#
#
#
# Elastic Compliance Matrix: (Units=1/GPa)
#
#
# Indices 1 2 3 4 5 6 
#
# 1 0.021335 -0.003531 -0.013258 -0.007381 0.001728 -0.002254
# 2 -0.003531 0.012235 -0.002695 -0.005278 0.004710 0.002778
# 3 -0.013258 -0.002695 0.030929 0.007817 0.002192 -0.003230
# 4 -0.007381 -0.005278 0.007817 0.037858 -0.010755 0.001235
# 5 0.001728 0.004710 0.002192 -0.010755 0.039869 -0.002842
# 6 -0.002254 0.002778 -0.003230 0.001235 -0.002842 0.024115
#
#
# Mechanical properties :
#
#
# Convention : Reuss Voigt Hill
#
# Bulk Modulus (GPa) = 39.16761 47.99094 43.57928
# Shear Modulus (GPa) = 23.38424 31.26247 27.32335
#
# Velocity S-wave (km/s) = 3.40593 3.93809 3.68164
# Velocity P-wave (km/s) = 5.90739 6.66973 6.30010
#
# Compressibility (1/GPa) = 0.02553130
#
# Stress axis : x y z
#
# Youngs Moduli (GPa) = 46.87129 81.73507 32.33171
#
# Poissons Ratio (x) = 0.28857 0.42866
# Poissons Ratio (y) = 0.16548 0.08714
# Poissons Ratio (z) = 0.62143 0.22029
#
# Static dielectric constant tensor:
#      x y z
#    x 1.755170 -0.032540 0.010590 
#    y -0.032540 1.789250 0.001550 
#    z 0.010590 0.001550 1.734290 
# 
# From -- ./inp_files/312294.got.cif
#   From: 2010.05.17/outbox.cif.g08.bks.cpg/sg2_157_cif.got.tgz:312294.got - 2010.06.03 11:33:40.
