data_PCOD9100129
_publ_section_title
;
Structure prediction by ZEFSAII (Michael W. Deem and Ramdas Pophale) SiO2 
 PCOD9100129
Probable space group: P -1
;
_chemical_formula_sum "Si O2"
_cell_formula_units_Z 16
_cell_length_a 9.529092
_cell_length_b 13.711425
_cell_length_c 8.840732
_cell_angle_alpha 123.678826
_cell_angle_beta 68.342231
_cell_angle_gamma 72.773624
_cell_volume 680.788923
_symmetry_space_group_name_H-M "P -1"
_symmetry_group_IT_number 2
_symmetry_cell_setting 'triclinic'
loop_
_space_group_symop_operation_xyz
x,y,z
-x,-y,-z
loop_
_atom_site_type_symbol
_atom_site_label
_atom_site_fract_x
_atom_site_fract_y
_atom_site_fract_z
Si Si1 0.820140 0.816011 0.311822
Si Si2 0.844109 0.371081 0.746132
Si Si3 0.029296 0.089331 0.900425
Si Si4 0.475881 0.873314 0.939222
Si Si5 0.937180 0.880928 0.770563
Si Si6 0.555026 0.850885 0.213136
Si Si7 0.572858 0.338625 0.399476
Si Si8 0.442543 0.684829 0.255456
O O1 0.756992 0.770079 0.153696
O O2 0.977339 0.691171 0.263368
O O3 0.599662 0.962106 0.582645
O O4 0.933058 0.867367 0.233225
O O5 0.721306 0.310042 0.762956
O O6 0.952305 0.289947 0.474356
O O7 0.661291 0.549615 0.982084
O O8 0.801893 0.220457 0.154263
O O9 0.144364 0.083994 0.996223
O O10 0.070646 0.930443 0.749255
O O11 0.513099 0.743645 0.700539
O O12 0.586164 0.791549 0.980565
O O13 0.500000 0.000000 0.000000
O O14 0.238735 0.994998 0.164610
O O15 0.425966 0.828897 0.349703
O O16 0.500000 0.500000 0.500000
O O17 0.544892 0.353986 0.605488
#
# Coordination Sequence:
#
# PCOD9100129 Si02
#       8
#     2   2   2   2   2   2   2   2
#     4  11  24  41  66  94 143 178 232 285 352 410
#     4  11  23  42  66  96 137 178 232 284 354 410
#     4  10  21  37  63  93 133 174 232 285 342 401
#     4  11  25  43  71 101 141 185 235 287 353 422
#     4  10  20  37  62  96 127 178 229 288 336 407
#     4  11  26  42  66 104 138 183 234 286 352 421
#     4  11  25  44  70 101 140 182 233 291 357 415
#     4  11  26  42  70 101 139 183 231 295 352 420
#
# _framework density 23.502143
#
# number of rings (size 3 to 8) (size 9 to 14) (size 15 to 20)
#    0.000    1.250    2.500    2.250   14.000    1.500 
#    0.000    1.250    0.000    3.750    0.000    0.000 
#    0.000    0.000    0.000    0.000    0.000    0.000 
#
# Total GULP energy -89159.915319 kJ/mol
# GULP energy per Si atom -5572.494707 kJ/mol
# Density = 2.344865 g / cm^3
# Si number density = 23.502143 Si / 1000 Ang^3
#
#
#
# Elastic Constant Matrix: (Units=GPa)
#
#
# Indices 1 2 3 4 5 6 
#
# 1 116.3373 35.0619 13.5635 2.3478 18.3272 -23.9502
# 2 35.0619 79.9643 11.6802 -3.2223 13.7076 3.1411
# 3 13.5635 11.6802 80.0606 6.8018 12.1677 -10.7839
# 4 2.3478 -3.2223 6.8018 31.5947 -5.3382 0.7328
# 5 18.3272 13.7076 12.1677 -5.3382 28.0935 -3.4551
# 6 -23.9502 3.1411 -10.7839 0.7328 -3.4551 41.9343
#
#
#
# Elastic Compliance Matrix: (Units=1/GPa)
#
#
# Indices 1 2 3 4 5 6 
#
# 1 0.012448 -0.004990 0.000674 -0.002693 -0.005599 0.007243
# 2 -0.004990 0.015889 -0.001662 0.001780 -0.004034 -0.004831
# 3 0.000674 -0.001662 0.014464 -0.004482 -0.006280 0.003790
# 4 -0.002693 0.001780 -0.004482 0.034593 0.009073 -0.002681
# 5 -0.005599 -0.004034 -0.006280 0.009073 0.045548 -0.000916
# 6 0.007243 -0.004831 0.003790 -0.002681 -0.000916 0.029291
#
#
# Mechanical properties :
#
#
# Convention : Reuss Voigt Hill
#
# Bulk Modulus (GPa) = 32.41723 44.10817 38.26270
# Shear Modulus (GPa) = 28.65816 34.72828 31.69322
#
# Velocity S-wave (km/s) = 3.49576 3.84821 3.67621
# Velocity P-wave (km/s) = 5.48790 6.20914 5.85963
#
# Compressibility (1/GPa) = 0.03084780
#
# Stress axis : x y z
#
# Youngs Moduli (GPa) = 80.33154 62.93587 69.13517
#
# Poissons Ratio (x) = 0.31405 -0.04662
# Poissons Ratio (y) = 0.40085 0.11487
# Poissons Ratio (z) = -0.05417 0.10457
#
# Static dielectric constant tensor:
#      x y z
#    x 2.046600 -0.033920 0.037320 
#    y -0.033920 1.902170 -0.026450 
#    z 0.037320 -0.026450 1.967790 
# 
# From -- ./inp_files/208954.got.cif
#   From: 2010.05.17/outbox.cif.g08.bks.cpg/sg2_105_cif.got.tgz:208954.got - 2010.06.03 11:33:40.
