data_PCOD9100278
_publ_section_title
;
Structure prediction by ZEFSAII (Michael W. Deem and Ramdas Pophale) SiO2 
 PCOD9100278
Probable space group: P -1
;
_chemical_formula_sum "Si O2"
_cell_formula_units_Z 16
_cell_length_a 5.921184
_cell_length_b 15.257029
_cell_length_c 7.334709
_cell_angle_alpha 112.971932
_cell_angle_beta 88.969704
_cell_angle_gamma 73.258424
_cell_volume 577.783455
_symmetry_space_group_name_H-M "P -1"
_symmetry_group_IT_number 2
_symmetry_cell_setting 'triclinic'
loop_
_space_group_symop_operation_xyz
x,y,z
-x,-y,-z
loop_
_atom_site_type_symbol
_atom_site_label
_atom_site_fract_x
_atom_site_fract_y
_atom_site_fract_z
Si Si1 0.704007 0.585129 0.639859
Si Si2 0.844917 0.755954 0.929291
Si Si3 0.703224 0.412871 0.771107
Si Si4 0.627637 0.085176 0.070539
Si Si5 0.212959 0.396017 0.757820
Si Si6 0.241276 0.755986 0.638338
Si Si7 0.690860 0.831256 0.367490
Si Si8 0.795502 0.011302 0.655193
O O1 0.661370 0.493894 0.674190
O O2 0.819675 0.563375 0.417995
O O3 0.453020 0.668413 0.662417
O O4 0.841800 0.642374 0.812544
O O5 0.580805 0.821743 0.931237
O O6 0.869831 0.795795 0.162771
O O7 0.024417 0.772280 0.793143
O O8 0.439107 0.422739 0.862340
O O9 0.790905 0.300203 0.590101
O O10 0.947874 0.418362 0.863430
O O11 0.832062 0.047980 0.884986
O O12 0.708510 0.137298 0.283707
O O13 0.500000 0.000000 0.000000
O O14 0.317794 0.274145 0.642287
O O15 0.443996 0.905934 0.350248
O O16 0.762319 0.901590 0.568106
O O17 0.000000 0.000000 0.500000
#
# Coordination Sequence:
#
# PCOD9100278 Si02
#       8
#     2   2   2   2   2   2   2   2
#     4  10  22  40  66  94 131 168 221 270 334 388
#     4  10  21  41  62  89 128 173 211 273 334 391
#     4  11  24  40  70  98 133 174 219 277 332 391
#     4  10  23  38  60  97 129 163 226 283 331 396
#     4  11  23  41  65 101 127 170 221 274 321 395
#     4  10  20  37  63  91 124 173 213 267 337 388
#     4  10  24  41  62  94 127 172 224 266 332 400
#     4  10  22  42  66  86 130 182 217 271 342 407
#
# _framework density 27.692035000000001
#
# number of rings (size 3 to 8) (size 9 to 14) (size 15 to 20)
#    0.000    1.750    1.250    2.625    8.750    0.500 
#    2.250    1.250    0.000    0.000    0.000    0.000 
#    0.000    0.000    0.000    0.000    0.000    0.000 
#
# Total GULP energy -89555.180908 kJ/mol
# GULP energy per Si atom -5597.198807 kJ/mol
# Density = 2.762901 g / cm^3
# Si number density = 27.692035 Si / 1000 Ang^3
#
#
#
# Elastic Constant Matrix: (Units=GPa)
#
#
# Indices 1 2 3 4 5 6 
#
# 1 156.3750 37.7285 73.1514 18.8431 -12.1524 20.1440
# 2 37.7285 151.4742 20.9379 27.6212 12.4149 14.3272
# 3 73.1514 20.9379 114.3360 15.6099 -1.6754 1.8460
# 4 18.8431 27.6212 15.6099 49.6645 6.9678 10.5837
# 5 -12.1524 12.4149 -1.6754 6.9678 66.5502 8.9249
# 6 20.1440 14.3272 1.8460 10.5837 8.9249 51.5802
#
#
#
# Elastic Compliance Matrix: (Units=1/GPa)
#
#
# Indices 1 2 3 4 5 6 
#
# 1 0.010422 -0.001460 -0.006198 -0.000763 0.002600 -0.003736
# 2 -0.001460 0.007762 -0.000026 -0.003436 -0.001267 -0.000661
# 3 -0.006198 -0.000026 0.012951 -0.002120 -0.000922 0.002559
# 4 -0.000763 -0.003436 -0.002120 0.023932 -0.001614 -0.003303
# 5 0.002600 -0.001267 -0.000922 -0.001614 0.016302 -0.003120
# 6 -0.003736 -0.000661 0.002559 -0.003303 -0.003120 0.022156
#
#
# Mechanical properties :
#
#
# Convention : Reuss Voigt Hill
#
# Bulk Modulus (GPa) = 63.42383 76.20232 69.81307
# Shear Modulus (GPa) = 43.80284 52.91680 48.35982
#
# Velocity S-wave (km/s) = 3.98148 4.37613 4.18346
# Velocity P-wave (km/s) = 6.63997 7.28777 6.97140
#
# Compressibility (1/GPa) = 0.01576695
#
# Stress axis : x y z
#
# Youngs Moduli (GPa) = 95.95393 128.83436 77.21427
#
# Poissons Ratio (x) = 0.18806 0.47856
# Poissons Ratio (y) = 0.14006 0.00203
# Poissons Ratio (z) = 0.59471 0.00338
#
# Static dielectric constant tensor:
#      x y z
#    x 2.271440 0.050190 0.026230 
#    y 0.050190 2.153670 0.041620 
#    z 0.026230 0.041620 2.170930 
# 
# From -- ./inp_files/135655.got.cif
#   From: 2010.05.17/outbox.cif.g08.bks.cpg/sg2_68_cif.got.tgz:135655.got - 2010.06.03 11:33:40.
