data_PCOD9100771
_publ_section_title
;
Structure prediction by ZEFSAII (Michael W. Deem and Ramdas Pophale) SiO2 
 PCOD9100771
Probable space group: P -1
;
_chemical_formula_sum "Si O2"
_cell_formula_units_Z 14
_cell_length_a 16.501376
_cell_length_b 9.304808
_cell_length_c 9.917605
_cell_angle_alpha 70.646313
_cell_angle_beta 141.744061
_cell_angle_gamma 80.374370
_cell_volume 606.375061
_symmetry_space_group_name_H-M "P -1"
_symmetry_group_IT_number 2
_symmetry_cell_setting 'triclinic'
loop_
_space_group_symop_operation_xyz
x,y,z
-x,-y,-z
loop_
_atom_site_type_symbol
_atom_site_label
_atom_site_fract_x
_atom_site_fract_y
_atom_site_fract_z
Si Si1 0.820127 0.262225 0.221671
Si Si2 0.438207 0.475478 0.784834
Si Si3 0.241164 0.374878 0.444987
Si Si4 0.145475 0.147169 0.312182
Si Si5 0.074485 0.863747 0.315498
Si Si6 0.712514 0.979464 0.733692
Si Si7 0.692464 0.655008 0.775173
O O1 0.858156 0.284204 0.417585
O O2 0.605200 0.370961 0.927203
O O3 0.807889 0.412433 0.056079
O O4 0.000000 0.000000 0.500000
O O5 0.385919 0.341130 0.741920
O O6 0.218855 0.724536 0.420458
O O7 0.500000 0.500000 0.000000
O O8 0.205242 0.226735 0.470162
O O9 0.312016 0.332360 0.396166
O O10 0.030045 0.631075 0.073154
O O11 0.314597 0.983430 0.474689
O O12 0.085848 0.031726 0.317817
O O13 0.873299 0.961213 0.990595
O O14 0.762384 0.759021 0.890495
O O15 0.520913 0.180067 0.499126
#
# Coordination Sequence:
#
# PCOD9100771 Si02
#       7
#     2   2   2   2   2   2   2
#     4  11  25  42  59  90 137 172 211 259 323 393
#     4  10  23  42  63  92 127 168 216 262 321 384
#     4  10  21  38  64  95 128 161 214 272 319 376
#     4  10  20  37  65  97 123 164 215 271 320 375
#     4  11  22  40  67  93 126 171 216 263 326 385
#     4  10  21  39  67  99 125 168 219 270 323 378
#     4  10  23  40  63  97 134 167 216 264 324 385
#
# _framework density 23.08802
#
# number of rings (size 3 to 8) (size 9 to 14) (size 15 to 20)
#    0.000    1.714    1.429    2.143    4.000    1.143 
#    0.000    2.857    3.143    0.000    0.000    0.000 
#    0.000    0.000    0.000    0.000    0.000    0.000 
#
# Total GULP energy -78047.324010 kJ/mol
# GULP energy per Si atom -5574.808858 kJ/mol
# Density = 2.303547 g / cm^3
# Si number density = 23.088020 Si / 1000 Ang^3
#
#
#
# Elastic Constant Matrix: (Units=GPa)
#
#
# Indices 1 2 3 4 5 6 
#
# 1 79.1091 49.4118 52.7857 -7.1669 33.6449 -1.3616
# 2 49.4118 161.6508 63.7397 17.0966 13.9737 29.8720
# 3 52.7857 63.7397 72.0262 11.0491 28.0642 14.2220
# 4 -7.1669 17.0966 11.0491 50.4609 -7.2883 13.1004
# 5 33.6449 13.9737 28.0642 -7.2883 39.4717 -2.6768
# 6 -1.3616 29.8720 14.2220 13.1004 -2.6768 40.0608
#
#
#
# Elastic Compliance Matrix: (Units=1/GPa)
#
#
# Indices 1 2 3 4 5 6 
#
# 1 0.033609 -0.003841 -0.019123 0.006491 -0.011960 0.007873
# 2 -0.003841 0.010925 -0.007342 -0.000700 0.004147 -0.005165
# 3 -0.019123 -0.007342 0.042898 -0.009494 -0.013912 -0.008229
# 4 0.006491 -0.000700 -0.009494 0.024833 0.005806 -0.003620
# 5 -0.011960 0.004147 -0.013912 0.005806 0.045198 0.002562
# 6 0.007873 -0.005165 -0.008229 -0.003620 0.002562 0.033357
#
#
# Mechanical properties :
#
#
# Convention : Reuss Voigt Hill
#
# Bulk Modulus (GPa) = 37.28391 71.62895 54.45643
# Shear Modulus (GPa) = 19.20327 35.78860 27.49593
#
# Velocity S-wave (km/s) = 2.88712 3.94139 3.45471
# Velocity P-wave (km/s) = 5.22471 7.19753 6.28896
#
# Compressibility (1/GPa) = 0.02682122
#
# Stress axis : x y z
#
# Youngs Moduli (GPa) = 29.75366 91.53214 23.31125
#
# Poissons Ratio (x) = 0.35155 0.44577
# Poissons Ratio (y) = 0.11428 0.17115
# Poissons Ratio (z) = 0.56897 0.67204
#
# Static dielectric constant tensor:
#      x y z
#    x 1.899020 -0.003230 0.015640 
#    y -0.003230 1.939190 -0.046300 
#    z 0.015640 -0.046300 1.940880 
# 
# From -- ./inp_files/326387.got.cif
#   From: 2010.05.17/outbox.cif.g08.bks.cpg/sg2_164_cif.got.tgz:326387.got - 2010.06.03 11:33:40.
