data_PCOD9100849
_publ_section_title
;
Structure prediction by ZEFSAII (Michael W. Deem and Ramdas Pophale) SiO2 
 PCOD9100849
Probable space group: P -1
;
_chemical_formula_sum "Si O2"
_cell_formula_units_Z 16
_cell_length_a 8.086130
_cell_length_b 9.506272
_cell_length_c 16.292388
_cell_angle_alpha 48.107760
_cell_angle_beta 106.193684
_cell_angle_gamma 71.749812
_cell_volume 640.610534
_symmetry_space_group_name_H-M "P -1"
_symmetry_group_IT_number 2
_symmetry_cell_setting 'triclinic'
loop_
_space_group_symop_operation_xyz
x,y,z
-x,-y,-z
loop_
_atom_site_type_symbol
_atom_site_label
_atom_site_fract_x
_atom_site_fract_y
_atom_site_fract_z
Si Si1 0.748522 0.205961 0.773554
Si Si2 0.146277 0.540927 0.393052
Si Si3 0.801629 0.320113 0.239455
Si Si4 0.166508 0.112719 0.629028
Si Si5 0.279559 0.649334 0.098743
Si Si6 0.259823 0.278971 0.822329
Si Si7 0.458381 0.003983 0.179306
Si Si8 0.977842 0.532221 0.886297
O O1 0.667212 0.452320 0.617284
O O2 0.632472 0.115832 0.745339
O O3 0.682256 0.289647 0.828446
O O4 0.031364 0.928244 0.921791
O O5 0.197115 0.283304 0.516684
O O6 0.025700 0.713979 0.391933
O O7 0.968262 0.680327 0.233815
O O8 0.824634 0.454883 0.262006
O O9 0.971182 0.292988 0.204742
O O10 0.878237 0.044632 0.363980
O O11 0.505684 0.529494 0.118070
O O12 0.427746 0.910792 0.789604
O O13 0.228783 0.459438 0.171402
O O14 0.330280 0.238566 0.752462
O O15 0.500000 0.000000 0.000000
O O16 0.229378 0.247337 0.000940
O O17 0.000000 0.500000 0.000000
#
# Coordination Sequence:
#
# PCOD9100849 Si02
#       8
#     2   2   2   2   2   2   2   2
#     4  10  20  37  66  92 123 165 210 278 318 371
#     4  10  23  43  64  86 130 168 222 265 310 386
#     4  12  23  40  67  92 134 170 208 272 326 373
#     4  10  25  42  59  92 124 180 218 250 319 396
#     4  10  22  38  61 104 127 155 217 268 332 384
#     4  11  20  39  66  96 118 162 213 266 321 383
#     4  10  21  38  61  89 129 160 213 257 320 387
#     4  11  24  36  58  99 136 163 206 268 326 386
#
# _framework density 24.976175999999999
#
# number of rings (size 3 to 8) (size 9 to 14) (size 15 to 20)
#    0.000    1.500    2.500    2.250    7.000    2.000 
#    0.000    0.625    0.000    0.000    0.000    0.000 
#    0.000    0.000    0.000    0.000    0.000    0.000 
#
# Total GULP energy -89097.456106 kJ/mol
# GULP energy per Si atom -5568.591007 kJ/mol
# Density = 2.491933 g / cm^3
# Si number density = 24.976176 Si / 1000 Ang^3
#
#
#
# Elastic Constant Matrix: (Units=GPa)
#
#
# Indices 1 2 3 4 5 6 
#
# 1 98.1875 20.1911 8.1407 -7.3418 -25.5740 16.4187
# 2 20.1911 127.0742 11.9462 -19.1637 -15.5872 11.1151
# 3 8.1407 11.9462 43.1981 -6.8415 -21.4871 11.0992
# 4 -7.3418 -19.1637 -6.8415 29.1647 16.2082 -8.9702
# 5 -25.5740 -15.5872 -21.4871 16.2082 36.6379 -11.0485
# 6 16.4187 11.1151 11.0992 -8.9702 -11.0485 41.4304
#
#
#
# Elastic Compliance Matrix: (Units=1/GPa)
#
#
# Indices 1 2 3 4 5 6 
#
# 1 0.013601 -0.001396 0.004146 -0.004452 0.012139 -0.003853
# 2 -0.001396 0.009019 -0.001543 0.005389 -0.000558 -0.000435
# 3 0.004146 -0.001543 0.035219 -0.006933 0.024240 -0.005701
# 4 -0.004452 0.005389 -0.006933 0.051313 -0.025637 0.006449
# 5 0.012139 -0.000558 0.024240 -0.025637 0.060952 -0.000451
# 6 -0.003853 -0.000435 -0.005701 0.006449 -0.000451 0.028584
#
#
# Mechanical properties :
#
#
# Convention : Reuss Voigt Hill
#
# Bulk Modulus (GPa) = 16.59727 38.77954 27.68840
# Shear Modulus (GPa) = 23.10994 36.65873 29.88433
#
# Velocity S-wave (km/s) = 3.04514 3.83528 3.46282
# Velocity P-wave (km/s) = 4.36159 5.93066 5.20559
#
# Compressibility (1/GPa) = 0.06025089
#
# Stress axis : x y z
#
# Youngs Moduli (GPa) = 73.52351 110.88165 28.39415
#
# Poissons Ratio (x) = 0.15482 -0.11772
# Poissons Ratio (y) = 0.10266 0.04382
# Poissons Ratio (z) = -0.30482 0.17112
#
# Static dielectric constant tensor:
#      x y z
#    x 2.146960 -0.023590 0.028380 
#    y -0.023590 2.050060 0.073450 
#    z 0.028380 0.073450 2.139210 
# 
# From -- ./inp_files/556891.got.cif
#   From: 2010.05.17/outbox.cif.g08.bks.cpg/sg2_279_cif.got.tgz:556891.got - 2010.06.03 11:33:40.
