data_PCOD9100720
_publ_section_title
;
Structure prediction by ZEFSAII (Michael W. Deem and Ramdas Pophale) SiO2 
 PCOD9100720
Probable space group: P -1
;
_chemical_formula_sum "Si O2"
_cell_formula_units_Z 16
_cell_length_a 20.101264
_cell_length_b 22.867861
_cell_length_c 9.084071
_cell_angle_alpha 40.366955
_cell_angle_beta 150.032601
_cell_angle_gamma 162.694317
_cell_volume 557.575388
_symmetry_space_group_name_H-M "P -1"
_symmetry_group_IT_number 2
_symmetry_cell_setting 'triclinic'
loop_
_space_group_symop_operation_xyz
x,y,z
-x,-y,-z
loop_
_atom_site_type_symbol
_atom_site_label
_atom_site_fract_x
_atom_site_fract_y
_atom_site_fract_z
Si Si1 0.185204 0.811410 0.477141
Si Si2 0.560814 0.246763 0.605199
Si Si3 0.168799 0.695423 0.241598
Si Si4 0.254569 0.431083 0.624445
Si Si5 0.125988 0.055531 0.893419
Si Si6 0.739494 0.422232 0.194763
Si Si7 0.854048 0.751343 0.744528
Si Si8 0.855128 0.073300 0.344515
O O1 0.027802 0.737516 0.472447
O O2 0.033738 0.626803 0.477808
O O3 0.568198 0.061899 0.726644
O O4 0.016577 0.774313 0.109465
O O5 0.820983 0.350508 0.806958
O O6 0.615172 0.386227 0.478605
O O7 0.475630 0.133758 0.800851
O O8 0.276481 0.081400 0.253059
O O9 0.317111 0.717074 0.606269
O O10 0.835512 0.506180 0.052185
O O11 0.084091 0.295724 0.407573
O O12 0.500000 0.500000 0.000000
O O13 0.998699 0.067821 0.696562
O O14 0.420068 0.269339 0.941493
O O15 0.870694 0.847401 0.700734
O O16 0.500000 0.500000 0.500000
O O17 0.093355 0.910765 0.758692
#
# Coordination Sequence:
#
# PCOD9100720 Si02
#       8
#     2   2   2   2   2   2   2   2
#     4  12  21  40  62  94 125 160 209 256 309 363
#     4  11  22  39  65  92 123 161 208 257 310 362
#     4  10  20  38  63  98 119 153 211 268 309 348
#     4  12  22  36  60  92 125 161 203 251 308 367
#     4  11  21  43  61  91 122 166 209 254 305 360
#     4  10  20  37  65  93 120 156 208 271 307 347
#     4  12  26  40  58  91 133 170 205 246 304 382
#     4  12  25  38  61  90 132 167 198 246 311 382
#
# _framework density 28.69567
#
# number of rings (size 3 to 8) (size 9 to 14) (size 15 to 20)
#    0.000    0.750    7.500    2.625    3.500    0.000 
#    0.000    0.000    0.000    1.500    0.000    0.000 
#    0.000    0.000    0.000    0.000    0.000    0.000 
#
# Total GULP energy -89696.666280 kJ/mol
# GULP energy per Si atom -5606.041642 kJ/mol
# Density = 2.863036 g / cm^3
# Si number density = 28.695670 Si / 1000 Ang^3
#
#
#
# Elastic Constant Matrix: (Units=GPa)
#
#
# Indices 1 2 3 4 5 6 
#
# 1 165.8631 48.5538 22.0571 21.1118 -5.0425 12.2885
# 2 48.5538 178.6759 25.0491 20.2677 -21.9009 6.9843
# 3 22.0571 25.0491 116.2509 19.6722 -16.1677 1.5715
# 4 21.1118 20.2677 19.6722 38.0526 7.3551 -15.8065
# 5 -5.0425 -21.9009 -16.1677 7.3551 33.6118 9.4213
# 6 12.2885 6.9843 1.5715 -15.8065 9.4213 71.1286
#
#
#
# Elastic Compliance Matrix: (Units=1/GPa)
#
#
# Indices 1 2 3 4 5 6 
#
# 1 0.007213 -0.001031 0.000036 -0.004958 0.002226 -0.002542
# 2 -0.001031 0.007529 0.000735 -0.006485 0.007363 -0.002994
# 3 0.000036 0.000735 0.011364 -0.009557 0.009067 -0.003654
# 4 -0.004958 -0.006485 -0.009557 0.048759 -0.024667 0.015807
# 5 0.002226 0.007363 0.009067 -0.024667 0.048340 -0.013192
# 6 -0.002542 -0.002994 -0.003654 0.015807 -0.013192 0.020133
#
#
# Mechanical properties :
#
#
# Convention : Reuss Voigt Hill
#
# Bulk Modulus (GPa) = 39.08063 72.45665 55.76864
# Shear Modulus (GPa) = 32.81159 52.90060 42.85610
#
# Velocity S-wave (km/s) = 3.38514 4.29826 3.86874
# Velocity P-wave (km/s) = 5.37842 7.06670 6.27956
#
# Compressibility (1/GPa) = 0.02558812
#
# Stress axis : x y z
#
# Youngs Moduli (GPa) = 138.63851 132.82186 87.99413
#
# Poissons Ratio (x) = 0.13689 -0.00320
# Poissons Ratio (y) = 0.14288 -0.06469
# Poissons Ratio (z) = -0.00504 -0.09765
#
# Static dielectric constant tensor:
#      x y z
#    x 2.214210 -0.021600 0.061800 
#    y -0.021600 2.314850 -0.007700 
#    z 0.061800 -0.007700 2.234650 
# 
# From -- ./inp_files/337687.got.cif
#   From: 2010.05.17/outbox.cif.g08.bks.cpg/sg2_169_cif.got.tgz:337687.got - 2010.06.03 11:33:40.
