data_PCOD9100483
_publ_section_title
;
Structure prediction by ZEFSAII (Michael W. Deem and Ramdas Pophale) SiO2 
 PCOD9100483
Probable space group: P -1
;
_chemical_formula_sum "Si O2"
_cell_formula_units_Z 16
_cell_length_a 13.130021
_cell_length_b 11.296068
_cell_length_c 14.658572
_cell_angle_alpha 51.453701
_cell_angle_beta 69.986786
_cell_angle_gamma 31.949224
_cell_volume 803.239106
_symmetry_space_group_name_H-M "P -1"
_symmetry_group_IT_number 2
_symmetry_cell_setting 'triclinic'
loop_
_space_group_symop_operation_xyz
x,y,z
-x,-y,-z
loop_
_atom_site_type_symbol
_atom_site_label
_atom_site_fract_x
_atom_site_fract_y
_atom_site_fract_z
Si Si1 0.227249 0.911988 0.462310
Si Si2 0.035687 0.779731 0.074986
Si Si3 0.203022 0.483811 0.776568
Si Si4 0.992447 0.325702 0.068213
Si Si5 0.253749 0.133330 0.478085
Si Si6 0.181194 0.233186 0.775638
Si Si7 0.565904 0.234234 0.706691
Si Si8 0.486691 0.105105 0.313506
O O1 0.388194 0.579074 0.582851
O O2 0.326662 0.906345 0.358251
O O3 0.223590 0.000537 0.516487
O O4 0.984568 0.183959 0.369770
O O5 0.262337 0.463889 0.204058
O O6 0.846188 0.905968 0.117236
O O7 0.055945 0.687563 0.009460
O O8 0.000000 0.000000 0.000000
O O9 0.155489 0.374649 0.802912
O O10 0.434445 0.254599 0.779217
O O11 0.173997 0.526755 0.873094
O O12 0.230753 0.977976 0.189459
O O13 0.000000 0.500000 0.000000
O O14 0.421969 0.020101 0.415483
O O15 0.022059 0.488664 0.361823
O O16 0.348576 0.026115 0.600508
O O17 0.393863 0.026641 0.756178
#
# Coordination Sequence:
#
# PCOD9100483 Si02
#       8
#     2   2   2   2   2   2   2   2
#     4   9  19  36  56  89 126 146 188 248 302 354
#     4  11  26  44  59  85 124 159 200 252 295 342
#     4  10  20  37  64  91 116 152 200 245 297 357
#     4  11  24  42  61  87 119 156 209 248 284 354
#     4   9  19  36  58  89 119 151 194 243 295 360
#     4  10  20  38  64  90 116 152 201 248 292 358
#     4  10  21  35  61  87 121 155 193 244 307 338
#     4  10  21  37  63  83 118 159 201 235 302 349
#
# _framework density 19.919349
#
# number of rings (size 3 to 8) (size 9 to 14) (size 15 to 20)
#    0.000    2.000    1.250    1.500    5.250    2.000 
#    2.250    0.000    0.000    0.000    0.000    0.000 
#    0.000    0.000    0.000    0.000    0.000    0.000 
#
# Total GULP energy -89155.250596 kJ/mol
# GULP energy per Si atom -5572.203162 kJ/mol
# Density = 1.987401 g / cm^3
# Si number density = 19.919349 Si / 1000 Ang^3
#
#
#
# Elastic Constant Matrix: (Units=GPa)
#
#
# Indices 1 2 3 4 5 6 
#
# 1 49.1814 27.7512 20.1170 13.4011 -1.4135 -0.0193
# 2 27.7512 73.4395 14.6232 13.1564 -10.9843 -6.8224
# 3 20.1170 14.6232 26.8642 14.9007 -3.6640 13.2509
# 4 13.4011 13.1564 14.9007 18.8855 -0.8554 0.5932
# 5 -1.4135 -10.9843 -3.6640 -0.8554 22.7133 4.0706
# 6 -0.0193 -6.8224 13.2509 0.5932 4.0706 39.8691
#
#
#
# Elastic Compliance Matrix: (Units=1/GPa)
#
#
# Indices 1 2 3 4 5 6 
#
# 1 0.036452 -0.008758 -0.030124 0.003330 -0.008374 0.009337
# 2 -0.008758 0.019769 -0.000920 -0.006558 0.008090 0.002956
# 3 -0.030124 -0.000920 0.126942 -0.075724 0.023120 -0.043596
# 4 0.003330 -0.006558 -0.075724 0.113463 -0.015192 0.023910
# 5 -0.008374 0.008090 0.023120 -0.015192 0.052628 -0.011451
# 6 0.009337 0.002956 -0.043596 0.023910 -0.011451 0.040895
#
#
# Mechanical properties :
#
#
# Convention : Reuss Voigt Hill
#
# Bulk Modulus (GPa) = 9.65627 30.49641 20.07634
# Shear Modulus (GPa) = 9.91526 22.09317 16.00422
#
# Velocity S-wave (km/s) = 2.23350 3.33398 2.83760
# Velocity P-wave (km/s) = 3.39257 5.49215 4.56472
#
# Compressibility (1/GPa) = 0.10355964
#
# Stress axis : x y z
#
# Youngs Moduli (GPa) = 27.43320 50.58514 7.87759
#
# Poissons Ratio (x) = 0.44302 0.23731
# Poissons Ratio (y) = 0.24026 0.00724
# Poissons Ratio (z) = 0.82640 0.04652
#
# Static dielectric constant tensor:
#      x y z
#    x 1.729060 -0.004330 -0.014800 
#    y -0.004330 1.698920 0.021330 
#    z -0.014800 0.021330 1.721330 
# 
# From -- ./inp_files/514097.got.cif
#   From: 2010.05.17/outbox.cif.g08.bks.cpg/sg2_258_cif.got.tgz:514097.got - 2010.06.03 11:33:40.
