data_PCOD9100816
_publ_section_title
;
Structure prediction by ZEFSAII (Michael W. Deem and Ramdas Pophale) SiO2 
 PCOD9100816
Probable space group: P -1
;
_chemical_formula_sum "Si O2"
_cell_formula_units_Z 14
_cell_length_a 13.972298
_cell_length_b 7.251275
_cell_length_c 9.675857
_cell_angle_alpha 68.927890
_cell_angle_beta 73.906606
_cell_angle_gamma 40.287837
_cell_volume 591.510468
_symmetry_space_group_name_H-M "P -1"
_symmetry_group_IT_number 2
_symmetry_cell_setting 'triclinic'
loop_
_space_group_symop_operation_xyz
x,y,z
-x,-y,-z
loop_
_atom_site_type_symbol
_atom_site_label
_atom_site_fract_x
_atom_site_fract_y
_atom_site_fract_z
Si Si1 0.596743 0.709494 0.361777
Si Si2 0.194466 0.231219 0.759459
Si Si3 0.979765 0.078364 0.650302
Si Si4 0.324384 0.368158 0.330006
Si Si5 0.336048 0.758899 0.058663
Si Si6 0.859296 0.844439 0.742242
Si Si7 0.265235 0.877307 0.586369
O O1 0.724445 0.675970 0.266841
O O2 0.624362 0.646018 0.532643
O O3 0.605855 0.473401 0.365648
O O4 0.438254 0.041341 0.317055
O O5 0.015334 0.501214 0.752368
O O6 0.273636 0.053689 0.631606
O O7 0.239917 0.992087 0.910554
O O8 0.848265 0.425642 0.635031
O O9 0.928895 0.940677 0.759435
O O10 0.000000 0.000000 0.500000
O O11 0.128001 0.951253 0.680629
O O12 0.324370 0.554795 0.178710
O O13 0.278980 0.988992 0.144204
O O14 0.500000 0.500000 0.000000
O O15 0.787094 0.992207 0.582160
#
# Coordination Sequence:
#
# PCOD9100816 Si02
#       7
#     2   2   2   2   2   2   2
#     4  11  20  40  67  91 126 170 208 261 322 374
#     4  12  24  38  70 101 124 166 217 261 323 379
#     4   9  15  34  63  83 121 161 200 257 311 358
#     4  10  20  37  66  87 122 179 206 249 326 377
#     4  11  22  42  62  94 133 173 208 261 322 387
#     4  10  20  40  64  90 131 171 208 259 322 374
#     4  11  21  40  67 101 127 157 222 272 302 378
#
# _framework density 23.668220000000002
#
# number of rings (size 3 to 8) (size 9 to 14) (size 15 to 20)
#    0.000    1.429    7.143    1.714    0.000    0.000 
#    0.000   11.429    3.143    0.000    0.000    0.000 
#    0.000    0.000    0.000    0.000    0.000    0.000 
#
# Total GULP energy -78042.108249 kJ/mol
# GULP energy per Si atom -5574.436303 kJ/mol
# Density = 2.361435 g / cm^3
# Si number density = 23.668220 Si / 1000 Ang^3
#
#
#
# Elastic Constant Matrix: (Units=GPa)
#
#
# Indices 1 2 3 4 5 6 
#
# 1 49.5849 21.3103 10.6619 2.6555 -10.1047 2.4694
# 2 21.3103 239.7406 59.9357 -5.0154 -8.4176 -19.3417
# 3 10.6619 59.9357 102.6514 -11.0880 -10.7330 -5.0132
# 4 2.6555 -5.0154 -11.0880 43.5255 0.2059 -9.2473
# 5 -10.1047 -8.4176 -10.7330 0.2059 19.4671 6.7978
# 6 2.4694 -19.3417 -5.0132 -9.2473 6.7978 31.2403
#
#
#
# Elastic Compliance Matrix: (Units=1/GPa)
#
#
# Indices 1 2 3 4 5 6 
#
# 1 0.024725 -0.002255 -0.000518 -0.003582 0.014264 -0.007598
# 2 -0.002255 0.005318 -0.002780 0.000822 -0.001682 0.003634
# 3 -0.000518 -0.002780 0.012272 0.002807 0.005275 -0.000028
# 4 -0.003582 0.000822 0.002807 0.026094 -0.003640 0.009759
# 5 0.014264 -0.001682 0.005275 -0.003640 0.066915 -0.016960
# 6 -0.007598 0.003634 -0.000028 0.009759 -0.016960 0.041435
#
#
# Mechanical properties :
#
#
# Convention : Reuss Voigt Hill
#
# Bulk Modulus (GPa) = 32.04267 63.97697 48.00982
# Shear Modulus (GPa) = 25.21823 38.85119 32.03471
#
# Velocity S-wave (km/s) = 3.26772 4.05593 3.68297
# Velocity P-wave (km/s) = 5.27305 7.00168 6.19792
#
# Compressibility (1/GPa) = 0.03120838
#
# Stress axis : x y z
#
# Youngs Moduli (GPa) = 40.44455 188.03694 81.48465
#
# Poissons Ratio (x) = 0.42411 0.04218
# Poissons Ratio (y) = 0.09122 0.22656
# Poissons Ratio (z) = 0.02094 0.52282
#
# Static dielectric constant tensor:
#      x y z
#    x 2.010160 0.004860 -0.056220 
#    y 0.004860 1.995760 0.061940 
#    z -0.056220 0.061940 1.925700 
# 
# From -- ./inp_files/341809.got.cif
#   From: 2010.05.17/outbox.cif.g08.bks.cpg/sg2_171_cif.got.tgz:341809.got - 2010.06.03 11:33:40.
