data_PCOD9100959
_publ_section_title
;
Structure prediction by ZEFSAII (Michael W. Deem and Ramdas Pophale) SiO2 
 PCOD9100959
Probable space group: P -1
;
_chemical_formula_sum "Si O2"
_cell_formula_units_Z 12
_cell_length_a 5.042729
_cell_length_b 5.389728
_cell_length_c 17.934298
_cell_angle_alpha 96.806234
_cell_angle_beta 84.023087
_cell_angle_gamma 88.044642
_cell_volume 480.835946
_symmetry_space_group_name_H-M "P -1"
_symmetry_group_IT_number 2
_symmetry_cell_setting 'triclinic'
loop_
_space_group_symop_operation_xyz
x,y,z
-x,-y,-z
loop_
_atom_site_type_symbol
_atom_site_label
_atom_site_fract_x
_atom_site_fract_y
_atom_site_fract_z
Si Si1 0.293721 0.434143 0.205273
Si Si2 0.773022 0.475027 0.444516
Si Si3 0.455163 0.009046 0.089050
Si Si4 0.408273 0.033681 0.589632
Si Si5 0.921507 0.791814 0.166440
Si Si6 0.792583 0.033762 0.709305
O O1 0.458758 0.291428 0.130741
O O2 0.007352 0.508661 0.177472
O O3 0.290575 0.229307 0.263052
O O4 0.357403 0.703344 0.247149
O O5 0.500000 0.500000 0.500000
O O6 0.762196 0.703565 0.395148
O O7 0.000000 0.500000 0.500000
O O8 0.769905 0.203464 0.397586
O O9 0.173050 0.901834 0.118261
O O10 0.677774 0.848019 0.122052
O O11 0.500000 0.000000 0.000000
O O12 0.500000 0.000000 0.500000
O O13 0.677546 0.031468 0.629428
O O14 0.928838 0.930333 0.252141
#
# Coordination Sequence:
#
# PCOD9100959 Si02
#       6
#     2   2   2   2   2   2
#     4   9  21  41  63  94 133 177 223 267 339 393
#     4  10  21  38  59  89 126 157 203 267 326 383
#     4  11  22  42  69 101 133 175 223 275 329 398
#     4  10  20  37  67  95 128 170 225 274 334 385
#     4   9  23  40  65  95 136 176 219 270 339 389
#     4   9  19  42  63  92 133 176 223 275 332 403
#
# _framework density 24.956534999999999
#
# number of rings (size 3 to 8) (size 9 to 14) (size 15 to 20)
#    1.000    1.333    0.000    2.000    0.000    4.000 
#    0.000   16.667    0.000    0.000    0.000    0.000 
#    0.000    0.000    0.000    0.000    0.000    0.000 
#
# Total GULP energy -66947.932993 kJ/mol
# GULP energy per Si atom -5578.994416 kJ/mol
# Density = 2.489973 g / cm^3
# Si number density = 24.956535 Si / 1000 Ang^3
#
#
#
# Elastic Constant Matrix: (Units=GPa)
#
#
# Indices 1 2 3 4 5 6 
#
# 1 121.0446 22.9771 28.0726 -11.3308 34.3368 -9.0895
# 2 22.9771 200.3430 31.6586 -16.9218 16.1980 -6.2252
# 3 28.0726 31.6586 153.3926 -23.8760 31.9764 -17.4944
# 4 -11.3308 -16.9218 -23.8760 22.9001 -11.6594 9.3287
# 5 34.3368 16.1980 31.9764 -11.6594 31.9227 -9.2808
# 6 -9.0895 -6.2252 -17.4944 9.3287 -9.2808 34.3651
#
#
#
# Elastic Compliance Matrix: (Units=1/GPa)
#
#
# Indices 1 2 3 4 5 6 
#
# 1 0.011973 -0.000431 0.000612 -0.000604 -0.013519 -0.000087
# 2 -0.000431 0.005425 -0.000431 0.003082 -0.000854 -0.000418
# 3 0.000612 -0.000431 0.008931 0.005131 -0.007130 0.001312
# 4 -0.000604 0.003082 0.005131 0.062094 0.013673 -0.010153
# 5 -0.013519 -0.000854 -0.007130 0.013673 0.059922 0.005111
# 6 -0.000087 -0.000418 0.001312 -0.010153 0.005111 0.033805
#
#
# Mechanical properties :
#
#
# Convention : Reuss Voigt Hill
#
# Bulk Modulus (GPa) = 38.71422 71.13295 54.92358
# Shear Modulus (GPa) = 26.14261 43.97571 35.05916
#
# Velocity S-wave (km/s) = 3.24006 4.20228 3.75214
# Velocity P-wave (km/s) = 5.43541 7.21874 6.38959
#
# Compressibility (1/GPa) = 0.02583030
#
# Stress axis : x y z
#
# Youngs Moduli (GPa) = 83.52072 184.32198 111.97256
#
# Poissons Ratio (x) = 0.07936 -0.06852
# Poissons Ratio (y) = 0.03596 0.04824
# Poissons Ratio (z) = -0.05111 0.07941
#
# Static dielectric constant tensor:
#      x y z
#    x 2.309720 -0.069930 -0.142780 
#    y -0.069930 2.146110 0.074220 
#    z -0.142780 0.074220 1.963750 
# 
# From -- ./inp_files/546019.got.cif
#   From: 2010.05.17/outbox.cif.g08.bks.cpg/sg2_274_cif.got.tgz:546019.got - 2010.06.03 11:33:40.
