data_PCOD9100994
_publ_section_title
;
Structure prediction by ZEFSAII (Michael W. Deem and Ramdas Pophale) SiO2 
 PCOD9100994
Probable space group: P -1
;
_chemical_formula_sum "Si O2"
_cell_formula_units_Z 14
_cell_length_a 14.712402
_cell_length_b 8.105070
_cell_length_c 15.269107
_cell_angle_alpha 111.007943
_cell_angle_beta 27.516179
_cell_angle_gamma 127.284344
_cell_volume 584.823288
_symmetry_space_group_name_H-M "P -1"
_symmetry_group_IT_number 2
_symmetry_cell_setting 'triclinic'
loop_
_space_group_symop_operation_xyz
x,y,z
-x,-y,-z
loop_
_atom_site_type_symbol
_atom_site_label
_atom_site_fract_x
_atom_site_fract_y
_atom_site_fract_z
Si Si1 0.492400 0.618351 0.253218
Si Si2 0.752760 0.456121 0.088539
Si Si3 0.452579 0.968845 0.931180
Si Si4 0.842603 0.854030 0.835820
Si Si5 0.771152 0.013136 0.213266
Si Si6 0.970556 0.790390 0.533434
Si Si7 0.575187 0.745989 0.509461
O O1 0.550894 0.498170 0.249529
O O2 0.571646 0.850715 0.273699
O O3 0.202386 0.431205 0.426167
O O4 0.693804 0.691390 0.016637
O O5 0.714741 0.293890 0.013140
O O6 0.648015 0.322872 0.245418
O O7 0.048712 0.706300 0.885810
O O8 0.745611 0.119985 0.672300
O O9 0.500000 0.000000 0.000000
O O10 0.308365 0.057233 0.041243
O O11 0.832386 0.732119 0.733904
O O12 0.143081 0.075121 0.647905
O O13 0.623116 0.885964 0.406497
O O14 0.000000 0.000000 0.000000
O O15 0.000000 0.000000 0.500000
O O16 0.500000 0.500000 0.500000
#
# Coordination Sequence:
#
# PCOD9100994 Si02
#       7
#     2   2   2   2   2   2   2
#     4  11  21  41  69  99 136 178 228 281 343 407
#     4  11  21  42  68  97 138 177 226 278 337 409
#     4  12  26  42  68 103 137 180 230 285 340 405
#     4  12  24  42  69 103 135 179 229 285 346 397
#     4  10  20  37  68 104 129 177 233 273 335 416
#     4  12  23  43  70  97 131 183 231 275 346 406
#     4  12  20  38  74  99 132 183 225 272 342 406
#
# _framework density 23.938853999999999
#
# number of rings (size 3 to 8) (size 9 to 14) (size 15 to 20)
#    0.000    0.571   10.000    0.429    0.000    0.571 
#    0.000    4.286    0.000    2.571    0.000    0.000 
#    0.000    0.000    0.000    0.000    0.000    0.000 
#
# Total GULP energy -78430.912258 kJ/mol
# GULP energy per Si atom -5602.208018 kJ/mol
# Density = 2.388437 g / cm^3
# Si number density = 23.938854 Si / 1000 Ang^3
#
#
#
# Elastic Constant Matrix: (Units=GPa)
#
#
# Indices 1 2 3 4 5 6 
#
# 1 117.7913 52.1166 49.9950 -11.1758 9.8278 24.9208
# 2 52.1166 125.1841 46.7321 -18.6873 -10.7942 45.6109
# 3 49.9950 46.7321 107.1395 -20.9737 21.1523 8.0835
# 4 -11.1758 -18.6873 -20.9737 38.7757 8.9387 -6.7343
# 5 9.8278 -10.7942 21.1523 8.9387 55.2761 -0.0159
# 6 24.9208 45.6109 8.0835 -6.7343 -0.0159 43.4040
#
#
#
# Elastic Compliance Matrix: (Units=1/GPa)
#
#
# Indices 1 2 3 4 5 6 
#
# 1 0.012153 -0.002094 -0.004360 -0.000369 -0.000843 -0.004023
# 2 -0.002094 0.017981 -0.006926 -0.000040 0.006536 -0.016407
# 3 -0.004360 -0.006926 0.016989 0.007881 -0.008351 0.007837
# 4 -0.000369 -0.000040 0.007881 0.032483 -0.008210 0.003823
# 5 -0.000843 0.006536 -0.008351 -0.008210 0.024039 -0.006094
# 6 -0.004023 -0.016407 0.007837 0.003823 -0.006094 0.041722
#
#
# Mechanical properties :
#
#
# Convention : Reuss Voigt Hill
#
# Bulk Modulus (GPa) = 49.10863 71.97805 60.54334
# Shear Modulus (GPa) = 27.94627 40.90926 34.42776
#
# Velocity S-wave (km/s) = 3.42043 4.13838 3.79641
# Velocity P-wave (km/s) = 6.01314 7.27789 6.67553
#
# Compressibility (1/GPa) = 0.02036302
#
# Stress axis : x y z
#
# Youngs Moduli (GPa) = 82.28408 55.61431 58.85995
#
# Poissons Ratio (x) = 0.11645 0.25664
# Poissons Ratio (y) = 0.17229 0.40768
# Poissons Ratio (z) = 0.35877 0.38520
#
# Static dielectric constant tensor:
#      x y z
#    x 1.689360 -0.104750 -0.015360 
#    y -0.104750 1.919630 0.007130 
#    z -0.015360 0.007130 1.929250 
# 
# From -- ./inp_files/315538.got.cif
#   From: 2010.05.17/outbox.cif.g08.bks.cpg/sg2_158_cif.got.tgz:315538.got - 2010.06.03 11:33:40.
