data_PCOD9100660
_publ_section_title
;
Structure prediction by ZEFSAII (Michael W. Deem and Ramdas Pophale) SiO2 
 PCOD9100660
Probable space group: P -1
;
_chemical_formula_sum "Si O2"
_cell_formula_units_Z 12
_cell_length_a 9.802724
_cell_length_b 9.617294
_cell_length_c 7.612590
_cell_angle_alpha 100.689734
_cell_angle_beta 89.799370
_cell_angle_gamma 135.238618
_cell_volume 487.991499
_symmetry_space_group_name_H-M "P -1"
_symmetry_group_IT_number 2
_symmetry_cell_setting 'triclinic'
loop_
_space_group_symop_operation_xyz
x,y,z
-x,-y,-z
loop_
_atom_site_type_symbol
_atom_site_label
_atom_site_fract_x
_atom_site_fract_y
_atom_site_fract_z
Si Si1 0.544442 0.342840 0.789087
Si Si2 0.940965 0.110262 0.867040
Si Si3 0.969598 0.564138 0.832714
Si Si4 0.099987 0.980876 0.651734
Si Si5 0.884584 0.584423 0.389399
Si Si6 0.529207 0.662011 0.801061
O O1 0.736310 0.396768 0.752465
O O2 0.570505 0.525678 0.775017
O O3 0.333664 0.134461 0.668570
O O4 0.532620 0.337943 0.001279
O O5 0.013348 0.261589 0.741741
O O6 0.719832 0.890685 0.796931
O O7 0.075333 0.069847 0.838118
O O8 0.960843 0.227243 0.060759
O O9 0.081921 0.554796 0.685160
O O10 0.000000 0.500000 0.000000
O O11 0.984611 0.746723 0.584247
O O12 0.000000 0.000000 0.500000
O O13 0.654383 0.446351 0.349292
#
# Coordination Sequence:
#
# PCOD9100660 Si02
#       6
#     2   2   2   2   2   2
#     4  11  20  37  62  88 116 156 194 244 290 338
#     4  10  20  37  65  89 111 156 200 237 292 343
#     4  10  20  39  59  87 121 152 191 243 293 340
#     4  10  20  39  59  87 121 152 191 243 293 340
#     4  10  21  43  57  87 128 149 187 249 293 342
#     4  11  21  36  66  88 112 154 206 240 284 343
#
# _framework density 24.590592000000001
#
# number of rings (size 3 to 8) (size 9 to 14) (size 15 to 20)
#    0.000    1.667    6.667    1.000    0.000    4.667 
#    0.000    0.000    0.000    4.000    0.000    0.000 
#    0.000    0.000    0.000    0.000    0.000    0.000 
#
# Total GULP energy -67174.700760 kJ/mol
# GULP energy per Si atom -5597.891730 kJ/mol
# Density = 2.453462 g / cm^3
# Si number density = 24.590592 Si / 1000 Ang^3
#
#
#
# Elastic Constant Matrix: (Units=GPa)
#
#
# Indices 1 2 3 4 5 6 
#
# 1 126.1916 42.7863 22.6811 23.2510 13.3799 -2.8173
# 2 42.7863 123.1370 24.1750 36.7690 15.3593 12.4656
# 3 22.6811 24.1750 117.9878 24.5654 4.3799 0.5558
# 4 23.2510 36.7690 24.5654 46.3917 7.4376 6.4883
# 5 13.3799 15.3593 4.3799 7.4376 46.5502 18.8420
# 6 -2.8173 12.4656 0.5558 6.4883 18.8420 53.0312
#
#
#
# Elastic Compliance Matrix: (Units=1/GPa)
#
#
# Indices 1 2 3 4 5 6 
#
# 1 0.009632 -0.002388 -0.000773 -0.002450 -0.002424 0.002242
# 2 -0.002388 0.011520 -0.000315 -0.007351 -0.001318 -0.001464
# 3 -0.000773 -0.000315 0.009630 -0.004523 -0.000063 0.000508
# 4 -0.002450 -0.007351 -0.004523 0.031386 -0.000667 -0.001958
# 5 -0.002424 -0.001318 -0.000063 -0.000667 0.026419 -0.009123
# 6 0.002242 -0.001464 0.000508 -0.001958 -0.009123 0.022796
#
#
# Mechanical properties :
#
#
# Convention : Reuss Voigt Hill
#
# Bulk Modulus (GPa) = 41.96238 60.73346 51.34792
# Shear Modulus (GPa) = 39.59528 47.70620 43.65074
#
# Velocity S-wave (km/s) = 4.01706 4.40934 4.21776
# Velocity P-wave (km/s) = 6.21427 7.11860 6.68175
#
# Compressibility (1/GPa) = 0.02383087
#
# Stress axis : x y z
#
# Youngs Moduli (GPa) = 103.82591 86.80372 103.83928
#
# Poissons Ratio (x) = 0.20728 0.08023
# Poissons Ratio (y) = 0.24793 0.03272
# Poissons Ratio (z) = 0.08022 0.02735
#
# Static dielectric constant tensor:
#      x y z
#    x 1.790320 0.036220 -0.110930 
#    y 0.036220 1.910430 -0.038140 
#    z -0.110930 -0.038140 2.006420 
# 
# From -- ./inp_files/159300.got.cif
#   From: 2010.05.17/outbox.cif.g08.bks.cpg/sg2_80_cif.got.tgz:159300.got - 2010.06.03 11:33:40.
