data_PCOD9100519
_publ_section_title
;
Structure prediction by ZEFSAII (Michael W. Deem and Ramdas Pophale) SiO2 
 PCOD9100519
Probable space group: P -1
;
_chemical_formula_sum "Si O2"
_cell_formula_units_Z 14
_cell_length_a 17.393367
_cell_length_b 7.459737
_cell_length_c 11.389296
_cell_angle_alpha 122.310984
_cell_angle_beta 147.431196
_cell_angle_gamma 54.660914
_cell_volume 645.183742
_symmetry_space_group_name_H-M "P -1"
_symmetry_group_IT_number 2
_symmetry_cell_setting 'triclinic'
loop_
_space_group_symop_operation_xyz
x,y,z
-x,-y,-z
loop_
_atom_site_type_symbol
_atom_site_label
_atom_site_fract_x
_atom_site_fract_y
_atom_site_fract_z
Si Si1 0.945176 0.559515 0.816763
Si Si2 0.320193 0.070477 0.802121
Si Si3 0.699935 0.826075 0.440773
Si Si4 0.469610 0.636455 0.317978
Si Si5 0.610178 0.938189 0.759883
Si Si6 0.767977 0.583145 0.000295
Si Si7 0.290882 0.627680 0.646267
O O1 0.077129 0.566562 0.900066
O O2 0.812329 0.776838 0.679827
O O3 0.866190 0.372285 0.612815
O O4 0.000000 0.500000 0.000000
O O5 0.287594 0.870773 0.763138
O O6 0.257700 0.079231 0.592156
O O7 0.251820 0.306109 0.858291
O O8 0.500000 0.000000 0.000000
O O9 0.681242 0.580608 0.302598
O O10 0.541681 0.978518 0.331792
O O11 0.574066 0.764736 0.561418
O O12 0.577551 0.457034 0.310184
O O13 0.363666 0.841178 0.181474
O O14 0.366295 0.528900 0.224532
O O15 0.740148 0.793964 0.953904
#
# Coordination Sequence:
#
# PCOD9100519 Si02
#       7
#     2   2   2   2   2   2   2
#     4  10  24  46  64  90 136 166 202 265 333 368
#     4  12  22  40  66  96 127 165 224 252 308 377
#     4   9  22  42  63  91 129 167 203 261 316 374
#     4  10  20  37  64  93 124 161 220 264 308 367
#     4  10  20  37  64  92 125 164 214 261 315 369
#     4  12  24  38  65  97 123 168 213 261 307 375
#     4   9  21  42  63  91 131 171 199 269 314 368
#
# _framework density 21.699245000000001
#
# number of rings (size 3 to 8) (size 9 to 14) (size 15 to 20)
#    0.857    0.857    2.857    1.286    2.000    4.000 
#    2.571    1.429    0.000    0.000    0.000    0.000 
#    0.000    0.000    0.000    0.000    0.000    0.000 
#
# Total GULP energy -77961.567518 kJ/mol
# GULP energy per Si atom -5568.683394 kJ/mol
# Density = 2.164986 g / cm^3
# Si number density = 21.699245 Si / 1000 Ang^3
#
#
#
# Elastic Constant Matrix: (Units=GPa)
#
#
# Indices 1 2 3 4 5 6 
#
# 1 63.6539 9.6347 2.8407 -1.9316 9.8824 -4.5436
# 2 9.6347 51.1248 2.5564 6.4095 -1.3077 1.4622
# 3 2.8407 2.5564 36.3734 -0.1162 7.9554 -3.9507
# 4 -1.9316 6.4095 -0.1162 30.9310 4.7945 -1.0662
# 5 9.8824 -1.3077 7.9554 4.7945 32.7622 -4.5116
# 6 -4.5436 1.4622 -3.9507 -1.0662 -4.5116 27.6324
#
#
#
# Elastic Compliance Matrix: (Units=1/GPa)
#
#
# Indices 1 2 3 4 5 6 
#
# 1 0.017397 -0.003863 0.000397 0.002835 -0.005594 0.002318
# 2 -0.003863 0.021166 -0.002054 -0.005164 0.003023 -0.001755
# 3 0.000397 -0.002054 0.029540 0.001788 -0.007183 0.003294
# 4 0.002835 -0.005164 0.001788 0.034618 -0.006384 0.001289
# 5 -0.005594 0.003023 -0.007183 -0.006384 0.035483 0.003440
# 6 0.002318 -0.001755 0.003294 0.001289 0.003440 0.037746
#
#
# Mechanical properties :
#
#
# Convention : Reuss Voigt Hill
#
# Bulk Modulus (GPa) = 17.52460 20.13508 18.82984
# Shear Modulus (GPa) = 24.27052 27.33981 25.80517
#
# Velocity S-wave (km/s) = 3.34802 3.55342 3.45225
# Velocity P-wave (km/s) = 4.79993 5.11224 4.95854
#
# Compressibility (1/GPa) = 0.05706266
#
# Stress axis : x y z
#
# Youngs Moduli (GPa) = 57.48140 47.24640 33.85187
#
# Poissons Ratio (x) = 0.18252 -0.01344
# Poissons Ratio (y) = 0.22206 0.06954
# Poissons Ratio (z) = -0.02283 0.09705
#
# Static dielectric constant tensor:
#      x y z
#    x 1.831480 -0.010180 -0.053180 
#    y -0.010180 1.786840 -0.000560 
#    z -0.053180 -0.000560 1.837570 
# 
# From -- ./inp_files/462504.got.cif
#   From: 2010.05.17/outbox.cif.g08.bks.cpg/sg2_232_cif.got.tgz:462504.got - 2010.06.03 11:33:40.
