data_PCOD9100028
_publ_section_title
;
Structure prediction by ZEFSAII (Michael W. Deem and Ramdas Pophale) SiO2 
 PCOD9100028
Probable space group: P -1
;
_chemical_formula_sum "Si O2"
_cell_formula_units_Z 16
_cell_length_a 7.552614
_cell_length_b 16.839824
_cell_length_c 9.429098
_cell_angle_alpha 125.187669
_cell_angle_beta 98.659649
_cell_angle_gamma 44.902414
_cell_volume 619.051411
_symmetry_space_group_name_H-M "P -1"
_symmetry_group_IT_number 2
_symmetry_cell_setting 'triclinic'
loop_
_space_group_symop_operation_xyz
x,y,z
-x,-y,-z
loop_
_atom_site_type_symbol
_atom_site_label
_atom_site_fract_x
_atom_site_fract_y
_atom_site_fract_z
Si Si1 0.124546 0.489769 0.283324
Si Si2 0.593813 0.620885 0.499082
Si Si3 0.588219 0.561648 0.987768
Si Si4 0.570962 0.165403 0.656164
Si Si5 0.769517 0.948069 0.927305
Si Si6 0.126525 0.952562 0.699042
Si Si7 0.655966 0.812863 0.095772
Si Si8 0.839605 0.316151 0.141580
O O1 0.336951 0.420562 0.368562
O O2 0.149022 0.546416 0.202804
O O3 0.825905 0.599715 0.440257
O O4 0.220767 0.344348 0.088562
O O5 0.286696 0.787250 0.595776
O O6 0.665549 0.487043 0.305244
O O7 0.350634 0.678035 0.959863
O O8 0.500000 0.500000 0.000000
O O9 0.569209 0.667300 0.189417
O O10 0.657603 0.093839 0.439261
O O11 0.382634 0.169084 0.723705
O O12 0.850092 0.056708 0.677071
O O13 0.029707 0.765784 0.775578
O O14 0.640863 0.049537 0.877603
O O15 0.500000 0.000000 0.000000
O O16 0.865067 0.987062 0.095513
O O17 0.892716 0.782208 0.029360
#
# Coordination Sequence:
#
# PCOD9100028 Si02
#       8
#     2   2   2   2   2   2   2   2
#     4   9  20  36  61  90 118 158 213 251 297 370
#     4  10  20  38  63  89 121 160 205 254 302 364
#     4  11  22  39  59  87 126 165 202 253 309 361
#     4  10  23  39  62  90 121 161 214 245 297 381
#     4  10  20  37  62  91 118 154 199 251 314 352
#     4  11  21  39  64  87 121 162 201 251 306 360
#     4   9  19  39  62  91 114 162 210 247 304 370
#     4  10  21  37  61  87 126 157 197 260 307 358
#
# _framework density 25.845996
#
# number of rings (size 3 to 8) (size 9 to 14) (size 15 to 20)
#    0.000    2.000    2.500    0.750    1.750    3.000 
#    0.000    8.750    0.000    0.000    0.000    0.000 
#    0.000    0.000    0.000    0.000    0.000    0.000 
#
# Total GULP energy -89349.740913 kJ/mol
# GULP energy per Si atom -5584.358807 kJ/mol
# Density = 2.578717 g / cm^3
# Si number density = 25.845996 Si / 1000 Ang^3
#
#
#
# Elastic Constant Matrix: (Units=GPa)
#
#
# Indices 1 2 3 4 5 6 
#
# 1 62.3691 22.0243 16.7295 -10.5753 -21.4371 14.3451
# 2 22.0243 161.2679 18.1590 9.6262 -8.2037 -4.3562
# 3 16.7295 18.1590 53.7182 -12.2437 -11.7859 19.7457
# 4 -10.5753 9.6262 -12.2437 42.7624 14.0514 -4.7139
# 5 -21.4371 -8.2037 -11.7859 14.0514 28.7616 -17.4936
# 6 14.3451 -4.3562 19.7457 -4.7139 -17.4936 44.6208
#
#
#
# Elastic Compliance Matrix: (Units=1/GPa)
#
#
# Indices 1 2 3 4 5 6 
#
# 1 0.022776 -0.002062 -0.002926 0.000362 0.014768 -0.000401
# 2 -0.002062 0.007362 -0.003373 -0.003815 0.003346 0.003783
# 3 -0.002926 -0.003373 0.025765 0.007118 -0.002847 -0.011154
# 4 0.000362 -0.003815 0.007118 0.031366 -0.017626 -0.007236
# 5 0.014768 0.003346 -0.002847 -0.017626 0.067126 0.021293
# 6 -0.000401 0.003783 -0.011154 -0.007236 0.021293 0.035429
#
#
# Mechanical properties :
#
#
# Convention : Reuss Voigt Hill
#
# Bulk Modulus (GPa) = 25.52216 43.46454 34.49335
# Shear Modulus (GPa) = 22.76802 37.92514 30.34658
#
# Velocity S-wave (km/s) = 2.97123 3.83476 3.43028
# Velocity P-wave (km/s) = 4.65480 6.03824 5.39108
#
# Compressibility (1/GPa) = 0.03918164
#
# Stress axis : x y z
#
# Youngs Moduli (GPa) = 43.90528 135.82551 38.81247
#
# Poissons Ratio (x) = 0.28011 0.11357
# Poissons Ratio (y) = 0.09054 0.13090
# Poissons Ratio (z) = 0.12847 0.45808
#
# Static dielectric constant tensor:
#      x y z
#    x 2.127030 0.033360 -0.098270 
#    y 0.033360 2.123040 0.026290 
#    z -0.098270 0.026290 2.057820 
# 
# From -- ./inp_files/218337.got.cif
#   From: 2010.05.17/outbox.cif.g08.bks.cpg/sg2_110_cif.got.tgz:218337.got - 2010.06.03 11:33:40.
