data_PCOD9100359
_publ_section_title
;
Structure prediction by ZEFSAII (Michael W. Deem and Ramdas Pophale) SiO2 
 PCOD9100359
Probable space group: P -1
;
_chemical_formula_sum "Si O2"
_cell_formula_units_Z 16
_cell_length_a 13.835713
_cell_length_b 9.805975
_cell_length_c 14.499724
_cell_angle_alpha 154.967221
_cell_angle_beta 130.342274
_cell_angle_gamma 54.342181
_cell_volume 634.409160
_symmetry_space_group_name_H-M "P -1"
_symmetry_group_IT_number 2
_symmetry_cell_setting 'triclinic'
loop_
_space_group_symop_operation_xyz
x,y,z
-x,-y,-z
loop_
_atom_site_type_symbol
_atom_site_label
_atom_site_fract_x
_atom_site_fract_y
_atom_site_fract_z
Si Si1 0.237250 0.748044 0.567630
Si Si2 0.379565 0.162101 0.308961
Si Si3 0.119654 0.082458 0.349832
Si Si4 0.786958 0.346727 0.164939
Si Si5 0.370037 0.824596 0.282353
Si Si6 0.990383 0.362131 0.139438
Si Si7 0.358402 0.185491 0.772566
Si Si8 0.951833 0.801571 0.214554
O O1 0.363687 0.544016 0.536563
O O2 0.128147 0.473417 0.326471
O O3 0.259075 0.930805 0.596635
O O4 0.183534 0.023956 0.770672
O O5 0.327465 0.022886 0.287605
O O6 0.519143 0.020068 0.301639
O O7 0.294802 0.974602 0.065235
O O8 0.160278 0.454930 0.593972
O O9 0.246747 0.864079 0.294527
O O10 0.050541 0.061000 0.392955
O O11 0.027618 0.937243 0.125893
O O12 0.894686 0.296048 0.123178
O O13 0.690833 0.601548 0.212230
O O14 0.500000 0.000000 0.500000
O O15 0.388090 0.457052 0.035832
O O16 0.955312 0.663879 0.235824
O O17 0.000000 0.500000 0.000000
#
# Coordination Sequence:
#
# PCOD9100359 Si02
#       8
#     2   2   2   2   2   2   2   2
#     4  12  23  41  65  95 140 170 212 284 329 392
#     4  11  25  41  63  97 133 175 218 272 343 377
#     4  11  20  37  64  99 126 164 222 274 318 377
#     4  11  20  41  69  95 128 172 229 268 320 391
#     4  11  22  43  68  95 129 172 231 271 314 397
#     4  11  21  39  66  98 127 174 222 269 324 387
#     4  11  21  42  68  93 126 179 225 265 324 396
#     4  10  20  37  63  95 124 167 221 261 319 390
#
# _framework density 25.220316
#
# number of rings (size 3 to 8) (size 9 to 14) (size 15 to 20)
#    0.000    1.000    5.000    5.250    0.000    0.500 
#    0.000    6.875    0.000    0.000    0.000    0.000 
#    0.000    0.000    0.000    0.000    0.000    0.000 
#
# Total GULP energy -89383.477442 kJ/mol
# GULP energy per Si atom -5586.467340 kJ/mol
# Density = 2.516291 g / cm^3
# Si number density = 25.220316 Si / 1000 Ang^3
#
#
#
# Elastic Constant Matrix: (Units=GPa)
#
#
# Indices 1 2 3 4 5 6 
#
# 1 110.5812 23.8102 10.6306 15.2332 -13.7620 -17.2179
# 2 23.8102 70.2654 29.6246 26.8054 -12.9378 -9.4397
# 3 10.6306 29.6246 111.0441 2.3523 -16.9926 -11.5207
# 4 15.2332 26.8054 2.3523 51.8807 -16.4557 -7.3805
# 5 -13.7620 -12.9378 -16.9926 -16.4557 41.7829 7.6421
# 6 -17.2179 -9.4397 -11.5207 -7.3805 7.6421 26.2315
#
#
#
# Elastic Compliance Matrix: (Units=1/GPa)
#
#
# Indices 1 2 3 4 5 6 
#
# 1 0.010717 -0.002591 0.000529 -0.000478 0.001712 0.005701
# 2 -0.002591 0.021109 -0.005147 -0.009931 -0.000502 0.000987
# 3 0.000529 -0.005147 0.011204 0.003736 0.004005 0.003300
# 4 -0.000478 -0.009931 0.003736 0.027525 0.008579 0.002998
# 5 0.001712 -0.000502 0.004005 0.008579 0.030012 -0.003628
# 6 0.005701 0.000987 0.003300 0.002998 -0.003628 0.045569
#
#
# Mechanical properties :
#
#
# Convention : Reuss Voigt Hill
#
# Bulk Modulus (GPa) = 34.95277 46.66905 40.81091
# Shear Modulus (GPa) = 29.39593 39.16740 34.28166
#
# Velocity S-wave (km/s) = 3.41774 3.94510 3.69085
# Velocity P-wave (km/s) = 5.42804 6.26869 5.86345
#
# Compressibility (1/GPa) = 0.02861004
#
# Stress axis : x y z
#
# Youngs Moduli (GPa) = 93.31229 47.37401 89.25308
#
# Poissons Ratio (x) = 0.12275 -0.04720
# Poissons Ratio (y) = 0.24177 0.45943
# Poissons Ratio (z) = -0.04934 0.24386
#
# Static dielectric constant tensor:
#      x y z
#    x 2.002410 -0.011560 0.002350 
#    y -0.011560 2.055160 -0.001560 
#    z 0.002350 -0.001560 2.125780 
# 
# From -- ./inp_files/573542.got.cif
#   From: 2010.05.17/outbox.cif.g08.bks.cpg/sg2_287_cif.got.tgz:573542.got - 2010.06.03 11:33:40.
