data_PCOD9100728
_publ_section_title
;
Structure prediction by ZEFSAII (Michael W. Deem and Ramdas Pophale) SiO2 
 PCOD9100728
Probable space group: P -1
;
_chemical_formula_sum "Si O2"
_cell_formula_units_Z 16
_cell_length_a 18.809941
_cell_length_b 6.304397
_cell_length_c 8.525415
_cell_angle_alpha 129.403539
_cell_angle_beta 66.933896
_cell_angle_gamma 91.954009
_cell_volume 685.203396
_symmetry_space_group_name_H-M "P -1"
_symmetry_group_IT_number 2
_symmetry_cell_setting 'triclinic'
loop_
_space_group_symop_operation_xyz
x,y,z
-x,-y,-z
loop_
_atom_site_type_symbol
_atom_site_label
_atom_site_fract_x
_atom_site_fract_y
_atom_site_fract_z
Si Si1 0.053652 0.020068 0.223312
Si Si2 0.846095 0.496777 0.949107
Si Si3 0.294006 0.715663 0.889062
Si Si4 0.184782 0.879935 0.771582
Si Si5 0.522902 0.648833 0.707479
Si Si6 0.882057 0.472403 0.544812
Si Si7 0.429023 0.292697 0.744294
Si Si8 0.380460 0.188561 0.067866
O O1 0.089232 0.251033 0.391663
O O2 0.961620 0.194473 0.348827
O O3 0.070014 0.722586 0.163233
O O4 0.105723 0.944554 0.983420
O O5 0.849536 0.520306 0.771358
O O6 0.781145 0.341131 0.984130
O O7 0.824211 0.826926 0.179428
O O8 0.365722 0.419061 0.716220
O O9 0.261305 0.805723 0.785480
O O10 0.324680 0.981003 0.044657
O O11 0.183164 0.608112 0.542991
O O12 0.500000 0.500000 0.500000
O O13 0.478658 0.520512 0.821162
O O14 0.472218 0.974021 0.870096
O O15 0.608835 0.629568 0.704033
O O16 0.372577 0.310714 0.955139
O O17 0.500000 0.000000 0.500000
#
# Coordination Sequence:
#
# PCOD9100728 Si02
#       8
#     2   2   2   2   2   2   2   2
#     4   9  20  37  61  96 127 161 211 264 309 359
#     4  10  21  39  61  86 130 167 210 257 302 378
#     4  10  23  41  60  85 128 167 202 256 314 372
#     4  10  21  39  62  87 132 167 209 256 313 371
#     4  10  20  38  63  91 117 143 188 256 311 372
#     4  10  20  37  65  93 126 166 210 260 309 363
#     4  11  21  39  69  89 119 154 209 262 316 374
#     4  10  21  39  62  85 119 153 195 248 312 368
#
# _framework density 23.350733000000002
#
# number of rings (size 3 to 8) (size 9 to 14) (size 15 to 20)
#    0.000    2.000    1.250    1.875    0.000    2.500 
#    0.000   13.750    2.750    0.000    0.000    0.000 
#    0.000    0.000    0.000    0.000    0.000    0.000 
#
# Total GULP energy -89178.252385 kJ/mol
# GULP energy per Si atom -5573.640774 kJ/mol
# Density = 2.329759 g / cm^3
# Si number density = 23.350733 Si / 1000 Ang^3
#
#
#
# Elastic Constant Matrix: (Units=GPa)
#
#
# Indices 1 2 3 4 5 6 
#
# 1 80.1060 19.3456 17.5252 16.7907 17.2182 -11.0027
# 2 19.3456 93.5159 16.2372 14.9638 10.7896 -7.2296
# 3 17.5252 16.2372 63.6156 6.9056 7.9225 -8.2796
# 4 16.7907 14.9638 6.9056 25.5573 -2.9808 -13.6256
# 5 17.2182 10.7896 7.9225 -2.9808 47.1200 4.5937
# 6 -11.0027 -7.2296 -8.2796 -13.6256 4.5937 38.3086
#
#
#
# Elastic Compliance Matrix: (Units=1/GPa)
#
#
# Indices 1 2 3 4 5 6 
#
# 1 0.016826 -0.000611 -0.002414 -0.010049 -0.006373 0.001386
# 2 -0.000611 0.012560 -0.001995 -0.006930 -0.002719 -0.000375
# 3 -0.002414 -0.001995 0.017568 -0.000790 -0.001926 0.002677
# 4 -0.010049 -0.006930 -0.000790 0.059324 0.007602 0.015824
# 5 -0.006373 -0.002719 -0.001926 0.007602 0.025279 -0.003087
# 6 0.001386 -0.000375 0.002677 0.015824 -0.003087 0.033008
#
#
# Mechanical properties :
#
#
# Convention : Reuss Voigt Hill
#
# Bulk Modulus (GPa) = 27.09183 38.16149 32.62666
# Shear Modulus (GPa) = 26.75082 34.47248 30.61165
#
# Velocity S-wave (km/s) = 3.38836 3.84642 3.62463
# Velocity P-wave (km/s) = 5.18992 6.00873 5.61427
#
# Compressibility (1/GPa) = 0.03691150
#
# Stress axis : x y z
#
# Youngs Moduli (GPa) = 59.43284 79.61850 56.92241
#
# Poissons Ratio (x) = 0.04866 0.13744
# Poissons Ratio (y) = 0.03632 0.11358
# Poissons Ratio (z) = 0.14350 0.15887
#
# Static dielectric constant tensor:
#      x y z
#    x 1.952280 -0.042620 -0.011200 
#    y -0.042620 1.958170 -0.016140 
#    z -0.011200 -0.016140 2.052460 
# 
# From -- ./inp_files/324224.got.cif
#   From: 2010.05.17/outbox.cif.g08.bks.cpg/sg2_163_cif.got.tgz:324224.got - 2010.06.03 11:33:40.
