data_PCOD9100559
_publ_section_title
;
Structure prediction by ZEFSAII (Michael W. Deem and Ramdas Pophale) SiO2 
 PCOD9100559
Probable space group: P -1
;
_chemical_formula_sum "Si O2"
_cell_formula_units_Z 16
_cell_length_a 14.149905
_cell_length_b 5.372959
_cell_length_c 13.138863
_cell_angle_alpha 60.486126
_cell_angle_beta 133.865188
_cell_angle_gamma 119.309077
_cell_volume 609.009435
_symmetry_space_group_name_H-M "P -1"
_symmetry_group_IT_number 2
_symmetry_cell_setting 'triclinic'
loop_
_space_group_symop_operation_xyz
x,y,z
-x,-y,-z
loop_
_atom_site_type_symbol
_atom_site_label
_atom_site_fract_x
_atom_site_fract_y
_atom_site_fract_z
Si Si1 0.806750 0.713981 0.158715
Si Si2 0.442609 0.106701 0.116859
Si Si3 0.956370 0.799865 0.674011
Si Si4 0.688392 0.397667 0.748295
Si Si5 0.152419 0.871583 0.625350
Si Si6 0.428346 0.664996 0.531443
Si Si7 0.610239 0.662111 0.234821
Si Si8 0.916760 0.667341 0.030723
O O1 0.787726 0.414497 0.268316
O O2 0.820360 0.647777 0.061610
O O3 0.944168 0.939394 0.243491
O O4 0.684608 0.869245 0.048754
O O5 0.520017 0.435717 0.135879
O O6 0.369788 0.940782 0.196378
O O7 0.525937 0.896297 0.167160
O O8 0.016327 0.756796 0.613870
O O9 0.977632 0.523250 0.813543
O O10 0.847928 0.979483 0.515559
O O11 0.557002 0.523050 0.647412
O O12 0.690764 0.431488 0.621302
O O13 0.817705 0.535957 0.887696
O O14 0.242928 0.127722 0.708183
O O15 0.369429 0.568277 0.616007
O O16 0.500000 0.000000 0.500000
O O17 0.000000 0.000000 0.000000
#
# Coordination Sequence:
#
# PCOD9100559 Si02
#       8
#     2   2   2   2   2   2   2   2
#     4  11  23  44  73  93 141 185 230 291 367 422
#     4  11  23  43  70 101 143 186 229 291 365 420
#     4  10  23  48  69  94 139 188 233 290 365 416
#     4  10  21  40  62  94 138 178 224 282 355 420
#     4  10  25  44  68 102 134 184 239 295 351 419
#     4  10  20  37  64  94 132 188 221 278 357 415
#     4  11  25  42  68 108 143 180 245 292 343 436
#     4  11  25  43  68 106 136 184 242 292 349 428
#
# _framework density 26.272169999999999
#
# number of rings (size 3 to 8) (size 9 to 14) (size 15 to 20)
#    0.000    1.500    2.500    1.875    3.500    3.500 
#    0.000    0.000    0.000    0.000    0.000    0.000 
#    0.000    0.000    0.000    0.000    0.000    0.000 
#
# Total GULP energy -89338.456161 kJ/mol
# GULP energy per Si atom -5583.653510 kJ/mol
# Density = 2.621237 g / cm^3
# Si number density = 26.272170 Si / 1000 Ang^3
#
#
#
# Elastic Constant Matrix: (Units=GPa)
#
#
# Indices 1 2 3 4 5 6 
#
# 1 38.5011 8.6024 29.0353 0.4547 5.3362 0.8459
# 2 8.6024 150.8767 69.6121 -23.5128 -6.7348 -2.9341
# 3 29.0353 69.6121 218.5933 -11.6807 -17.3214 3.6902
# 4 0.4547 -23.5128 -11.6807 58.4345 -3.6007 -7.4430
# 5 5.3362 -6.7348 -17.3214 -3.6007 33.1076 -3.4291
# 6 0.8459 -2.9341 3.6902 -7.4430 -3.4291 25.4488
#
#
#
# Elastic Compliance Matrix: (Units=1/GPa)
#
#
# Indices 1 2 3 4 5 6 
#
# 1 0.030740 -0.000300 -0.004688 -0.002044 -0.007902 -0.002039
# 2 -0.000300 0.008357 -0.002401 0.003262 0.001098 0.002424
# 3 -0.004688 -0.002401 0.006278 0.000493 0.003563 -0.000407
# 4 -0.002044 0.003262 0.000493 0.019640 0.004077 0.006666
# 5 -0.007902 0.001098 0.003563 0.004077 0.034602 0.005728
# 6 -0.002039 0.002424 -0.000407 0.006666 0.005728 0.042422
#
#
# Mechanical properties :
#
#
# Convention : Reuss Voigt Hill
#
# Bulk Modulus (GPa) = 32.68483 69.16342 50.92412
# Shear Modulus (GPa) = 29.93677 43.44627 36.69152
#
# Velocity S-wave (km/s) = 3.37929 4.07098 3.74116
# Velocity P-wave (km/s) = 5.26251 6.96276 6.17147
#
# Compressibility (1/GPa) = 0.03059523
#
# Stress axis : x y z
#
# Youngs Moduli (GPa) = 32.53055 119.65530 159.29467
#
# Poissons Ratio (x) = 0.03595 0.74685
# Poissons Ratio (y) = 0.00977 0.38249
# Poissons Ratio (z) = 0.15252 0.28731
#
# Static dielectric constant tensor:
#      x y z
#    x 2.426400 0.005910 -0.103010 
#    y 0.005910 2.056480 -0.064140 
#    z -0.103010 -0.064140 2.231450 
# 
# From -- ./inp_files/66429.got.cif
#   From: 2010.05.17/outbox.cif.g08.bks.cpg/sg2_34_cif.got.tgz:66429.got - 2010.06.03 11:33:40.
