data_PCOD9100274
_publ_section_title
;
Structure prediction by ZEFSAII (Michael W. Deem and Ramdas Pophale) SiO2 
 PCOD9100274
Probable space group: P -1
;
_chemical_formula_sum "Si O2"
_cell_formula_units_Z 16
_cell_length_a 8.261534
_cell_length_b 15.355096
_cell_length_c 11.668460
_cell_angle_alpha 56.075307
_cell_angle_beta 75.773765
_cell_angle_gamma 121.548285
_cell_volume 679.691957
_symmetry_space_group_name_H-M "P -1"
_symmetry_group_IT_number 2
_symmetry_cell_setting 'triclinic'
loop_
_space_group_symop_operation_xyz
x,y,z
-x,-y,-z
loop_
_atom_site_type_symbol
_atom_site_label
_atom_site_fract_x
_atom_site_fract_y
_atom_site_fract_z
Si Si1 0.339977 0.247565 0.006126
Si Si2 0.821566 0.126183 0.211000
Si Si3 0.950971 0.092288 0.577748
Si Si4 0.398748 0.059191 0.849101
Si Si5 0.485289 0.617368 0.889680
Si Si6 0.428369 0.809485 0.696456
Si Si7 0.304830 0.596769 0.400983
Si Si8 0.971549 0.229595 0.696643
O O1 0.565433 0.368417 0.982388
O O2 0.148579 0.253803 0.040561
O O3 0.110594 0.040005 0.235292
O O4 0.503232 0.308568 0.816982
O O5 0.823291 0.235256 0.201238
O O6 0.687526 0.054443 0.160743
O O7 0.613131 0.942435 0.456865
O O8 0.038407 0.224847 0.559435
O O9 0.195245 0.204469 0.356381
O O10 0.653251 0.949716 0.660604
O O11 0.501836 0.230599 0.675944
O O12 0.683078 0.152523 0.786841
O O13 0.133161 0.914614 0.092008
O O14 0.340317 0.642291 0.829200
O O15 0.500000 0.500000 0.000000
O O16 0.000000 0.500000 0.500000
O O17 0.213727 0.430163 0.563280
#
# Coordination Sequence:
#
# PCOD9100274 Si02
#       8
#     2   2   2   2   2   2   2   2
#     4  11  21  39  63  95 128 167 223 269 325 386
#     4  11  21  39  66  92 133 173 216 258 336 405
#     4  11  18  39  65  93 119 169 223 266 316 384
#     4  10  21  38  63  90 124 176 216 263 331 383
#     4  11  22  38  63  98 130 167 222 273 319 384
#     4  10  21  38  64  93 126 173 215 260 325 398
#     4  10  22  39  61  93 123 165 227 276 313 375
#     4  10  20  37  63  91 121 166 224 272 314 381
#
# _framework density 23.540075999999999
#
# number of rings (size 3 to 8) (size 9 to 14) (size 15 to 20)
#    0.000    1.500    5.000    1.500    0.000    0.500 
#    0.000    2.500    0.000    0.000    0.000    0.000 
#    0.000    0.000    0.000    0.000    0.000    0.000 
#
# Total GULP energy -89097.985971 kJ/mol
# GULP energy per Si atom -5568.624123 kJ/mol
# Density = 2.348650 g / cm^3
# Si number density = 23.540076 Si / 1000 Ang^3
#
#
#
# Elastic Constant Matrix: (Units=GPa)
#
#
# Indices 1 2 3 4 5 6 
#
# 1 53.5797 -22.6175 34.8195 4.7558 4.3184 -18.6025
# 2 -22.6175 45.9260 26.8580 4.4268 13.9695 -10.6391
# 3 34.8195 26.8580 93.7309 4.4546 2.7285 -9.7909
# 4 4.7558 4.4268 4.4546 34.2466 -22.5756 -0.9302
# 5 4.3184 13.9695 2.7285 -22.5756 30.9851 1.6609
# 6 -18.6025 -10.6391 -9.7909 -0.9302 1.6609 21.7237
#
#
#
# Elastic Compliance Matrix: (Units=1/GPa)
#
#
# Indices 1 2 3 4 5 6 
#
# 1 -0.012262 -0.029429 0.008316 0.026941 0.035090 -0.022695
# 2 -0.029429 -0.017497 0.010774 0.023999 0.030145 -0.030191
# 3 0.008316 0.010774 0.007509 -0.015512 -0.018867 0.016560
# 4 0.026941 0.023999 -0.015512 0.029697 0.006897 0.028576
# 5 0.035090 0.030145 -0.018867 0.006897 0.018593 0.035182
# 6 -0.022695 -0.030191 0.016560 0.028576 0.035182 0.017810
#
#
# Mechanical properties :
#
#
# Convention : Reuss Voigt Hill
#
# Bulk Modulus (GPa) = -23.29424 30.15076 3.42826
# Shear Modulus (GPa) = 99.56237 27.66951 63.61594
#
# Velocity S-wave (km/s) = 6.51050 3.43216 5.20415
# Velocity P-wave (km/s) = 6.82631 5.34251 6.12947
#
# Compressibility (1/GPa) = -0.04292906
#
# Stress axis : x y z
#
# Youngs Moduli (GPa) = -81.55226 -57.15429 133.17960
#
# Poissons Ratio (x) = -1.68202 -1.10746
# Poissons Ratio (y) = -2.40004 -1.43493
# Poissons Ratio (z) = 0.67815 0.61580
#
# Static dielectric constant tensor:
#      x y z
#    x 2.026640 -0.016910 -0.066940 
#    y -0.016910 1.969250 -0.135080 
#    z -0.066940 -0.135080 2.065060 
# 
# From -- ./inp_files/332894.got.cif
#   From: 2010.05.17/outbox.cif.g08.bks.cpg/sg2_167_cif.got.tgz:332894.got - 2010.06.03 11:33:40.
