data_PCOD9100657
_publ_section_title
;
Structure prediction by ZEFSAII (Michael W. Deem and Ramdas Pophale) SiO2 
 PCOD9100657
Probable space group: P -1
;
_chemical_formula_sum "Si O2"
_cell_formula_units_Z 14
_cell_length_a 12.027076
_cell_length_b 12.617327
_cell_length_c 8.755218
_cell_angle_alpha 44.796362
_cell_angle_beta 142.055790
_cell_angle_gamma 122.402587
_cell_volume 574.747727
_symmetry_space_group_name_H-M "P -1"
_symmetry_group_IT_number 2
_symmetry_cell_setting 'triclinic'
loop_
_space_group_symop_operation_xyz
x,y,z
-x,-y,-z
loop_
_atom_site_type_symbol
_atom_site_label
_atom_site_fract_x
_atom_site_fract_y
_atom_site_fract_z
Si Si1 0.173622 0.075286 0.531971
Si Si2 0.999921 0.958419 0.218587
Si Si3 0.713093 0.464581 0.744692
Si Si4 0.107468 0.383330 0.953017
Si Si5 0.762560 0.251687 0.751513
Si Si6 0.423531 0.337236 0.107636
Si Si7 0.731570 0.756815 0.265775
O O1 0.136096 0.239400 0.245640
O O2 0.307528 0.119373 0.767988
O O3 0.000000 0.000000 0.500000
O O4 0.188549 0.974389 0.497855
O O5 0.912759 0.805767 0.327516
O O6 0.856783 0.090008 0.988828
O O7 0.000000 0.000000 0.000000
O O8 0.500000 0.500000 0.500000
O O9 0.820331 0.484336 0.998212
O O10 0.746191 0.307696 0.851752
O O11 0.762922 0.596396 0.546383
O O12 0.233771 0.355691 0.972408
O O13 0.896443 0.370930 0.697746
O O14 0.567049 0.256006 0.459923
O O15 0.500000 0.500000 0.000000
O O16 0.408000 0.258248 0.007776
#
# Coordination Sequence:
#
# PCOD9100657 Si02
#       7
#     2   2   2   2   2   2   2
#     4   8  17  35  64  89 120 165 209 253 316 374
#     4  10  21  42  66  95 129 165 216 269 315 385
#     4  11  20  41  66  92 130 170 211 270 318 377
#     4  10  21  38  65  92 128 168 209 266 326 367
#     4  11  23  40  67  95 126 170 220 259 327 384
#     4  12  23  41  63  96 135 165 218 268 311 386
#     4  10  20  37  65  88 129 174 201 265 325 365
#
# _framework density 24.358512999999999
#
# number of rings (size 3 to 8) (size 9 to 14) (size 15 to 20)
#    0.000    1.714    2.857    2.143    0.000    1.143 
#    2.571    0.714   18.857    0.000    0.000    0.000 
#    0.000    0.000    0.000    0.000    0.000    0.000 
#
# Total GULP energy -78070.634205 kJ/mol
# GULP energy per Si atom -5576.473872 kJ/mol
# Density = 2.430307 g / cm^3
# Si number density = 24.358513 Si / 1000 Ang^3
#
#
#
# Elastic Constant Matrix: (Units=GPa)
#
#
# Indices 1 2 3 4 5 6 
#
# 1 103.0244 34.1469 24.1683 -2.5978 -8.1974 -9.6292
# 2 34.1469 120.9253 30.9176 29.2554 -14.6035 -16.9627
# 3 24.1683 30.9176 40.7765 15.0044 -9.1422 -14.4176
# 4 -2.5978 29.2554 15.0044 49.0380 -5.6604 -13.4371
# 5 -8.1974 -14.6035 -9.1422 -5.6604 41.9265 7.9573
# 6 -9.6292 -16.9627 -14.4176 -13.4371 7.9573 34.0673
#
#
#
# Elastic Compliance Matrix: (Units=1/GPa)
#
#
# Indices 1 2 3 4 5 6 
#
# 1 0.012395 -0.002757 -0.006464 0.004639 0.000468 0.001116
# 2 -0.002757 0.011867 -0.004789 -0.005407 0.001712 0.000571
# 3 -0.006464 -0.004789 0.038063 -0.006419 0.002850 0.008699
# 4 0.004639 -0.005407 -0.006419 0.027703 0.000071 0.006813
# 5 0.000468 0.001712 0.002850 0.000071 0.025897 -0.003830
# 6 0.001116 0.000571 0.008699 0.006813 -0.003830 0.037216
#
#
# Mechanical properties :
#
#
# Convention : Reuss Voigt Hill
#
# Bulk Modulus (GPa) = 29.14925 49.24354 39.19639
# Shear Modulus (GPa) = 25.96106 36.70590 31.33348
#
# Velocity S-wave (km/s) = 3.26819 3.88610 3.59046
# Velocity P-wave (km/s) = 5.12193 6.35576 5.77191
#
# Compressibility (1/GPa) = 0.03430620
#
# Stress axis : x y z
#
# Youngs Moduli (GPa) = 80.67797 84.26562 26.27208
#
# Poissons Ratio (x) = 0.23229 0.16982
# Poissons Ratio (y) = 0.22240 0.12582
# Poissons Ratio (z) = 0.52149 0.40356
#
# Static dielectric constant tensor:
#      x y z
#    x 2.019560 -0.034790 -0.084900 
#    y -0.034790 2.040990 0.054410 
#    z -0.084900 0.054410 2.142120 
# 
# From -- ./inp_files/261856.got.cif
#   From: 2010.05.17/outbox.cif.g08.bks.cpg/sg2_131_cif.got.tgz:261856.got - 2010.06.03 11:33:40.
