data_PCOD9100321
_publ_section_title
;
Structure prediction by ZEFSAII (Michael W. Deem and Ramdas Pophale) SiO2 
 PCOD9100321
Probable space group: P -1
;
_chemical_formula_sum "Si O2"
_cell_formula_units_Z 12
_cell_length_a 27.781623
_cell_length_b 27.195145
_cell_length_c 11.099050
_cell_angle_alpha 156.719827
_cell_angle_beta 155.845221
_cell_angle_gamma 10.166572
_cell_volume 580.857541
_symmetry_space_group_name_H-M "P -1"
_symmetry_group_IT_number 2
_symmetry_cell_setting 'triclinic'
loop_
_space_group_symop_operation_xyz
x,y,z
-x,-y,-z
loop_
_atom_site_type_symbol
_atom_site_label
_atom_site_fract_x
_atom_site_fract_y
_atom_site_fract_z
Si Si1 0.210947 0.844784 0.918939
Si Si2 0.000013 0.268445 0.268435
Si Si3 0.211065 0.596642 0.671228
Si Si4 0.499969 0.128121 0.627980
Si Si5 0.761539 0.884821 0.939120
Si Si6 0.304347 0.469079 0.320189
O O1 0.247506 0.663726 0.585580
O O2 0.499928 0.630565 0.130360
O O3 0.088499 0.038402 0.961562
O O4 0.999910 0.086815 0.086514
O O5 0.911470 0.380586 0.457215
O O6 0.737153 0.546346 0.211708
O O7 0.262913 0.092362 0.427144
O O8 0.247600 0.515832 0.438127
O O9 0.654447 0.002845 0.824583
O O10 0.345494 0.144434 0.322320
O O11 0.611083 0.134049 0.235341
O O12 0.087485 0.586882 0.023109
#
# Coordination Sequence:
#
# PCOD9100321 Si02
#       6
#     2   2   2   2   2   2
#     4  10  20  37  63  93 119 159 182 237 305 352
#     4  10  20  38  68  84 114 164 192 236 294 366
#     4  10  20  37  63  93 119 159 182 237 305 352
#     4  11  22  46  60  81 116 162 210 233 296 344
#     4  11  26  39  64  83 116 163 198 255 278 341
#     4  12  22  40  60  97 120 145 206 238 294 350
#
# _framework density 20.659109000000001
#
# number of rings (size 3 to 8) (size 9 to 14) (size 15 to 20)
#    1.000    0.333    1.667    5.000    0.000    2.667 
#    0.000   10.000    0.000    0.000    0.000    0.000 
#    0.000    0.000    0.000    0.000    0.000    0.000 
#
# Total GULP energy -66968.830371 kJ/mol
# GULP energy per Si atom -5580.735864 kJ/mol
# Density = 2.061209 g / cm^3
# Si number density = 20.659109 Si / 1000 Ang^3
#
#
#
# Elastic Constant Matrix: (Units=GPa)
#
#
# Indices 1 2 3 4 5 6 
#
# 1 126.3975 8.9985 29.1296 -19.9356 30.1611 -43.4424
# 2 8.9985 119.6494 2.7080 2.9271 11.1368 43.4012
# 3 29.1296 2.7080 30.1470 -5.5304 -6.1185 12.6281
# 4 -19.9356 2.9271 -5.5304 43.2780 -5.6723 38.7122
# 5 30.1611 11.1368 -6.1185 -5.6723 -1.5137 8.2097
# 6 -43.4424 43.4012 12.6281 38.7122 8.2097 162.1289
#
#
#
# Elastic Compliance Matrix: (Units=1/GPa)
#
#
# Indices 1 2 3 4 5 6 
#
# 1 0.003418 -0.001864 0.002225 0.005450 0.019343 -0.001039
# 2 -0.001864 0.009893 0.002484 0.001896 -0.001631 -0.003712
# 3 0.002225 0.002484 0.023961 -0.000363 -0.033655 -0.000144
# 4 0.005450 0.001896 -0.000363 0.028609 -0.011715 -0.005257
# 5 0.019343 -0.001631 -0.033655 -0.011715 -0.037201 0.012922
# 6 -0.001039 -0.003712 -0.000144 -0.005257 0.012922 0.007495
#
#
# Mechanical properties :
#
#
# Convention : Reuss Voigt Hill
#
# Bulk Modulus (GPa) = 23.27613 39.76292 31.51952
# Shear Modulus (GPa) = 111.59185 56.46917 84.03051
#
# Velocity S-wave (km/s) = 7.35752 5.23384 6.38460
# Velocity P-wave (km/s) = 9.13612 7.47082 8.34511
#
# Compressibility (1/GPa) = 0.04296248
#
# Stress axis : x y z
#
# Youngs Moduli (GPa) = 292.54631 101.07684 41.73510
#
# Poissons Ratio (x) = 0.18843 -0.09287
# Poissons Ratio (y) = 0.54538 -0.10367
# Poissons Ratio (z) = -0.65099 -0.25108
#
# Static dielectric constant tensor:
#      x y z
#    x 1.762970 0.000810 0.010540 
#    y 0.000810 1.747660 0.008120 
#    z 0.010540 0.008120 1.722990 
# 
# From -- ./inp_files/63182.got.cif
#   From: 2010.05.17/outbox.cif.g08.bks.cpg/sg2_32_cif.got.tgz:63182.got - 2010.06.03 11:33:40.
