data_PCOD9100041
_publ_section_title
;
Structure prediction by ZEFSAII (Michael W. Deem and Ramdas Pophale) SiO2 
 PCOD9100041
Probable space group: P -1
;
_chemical_formula_sum "Si O2"
_cell_formula_units_Z 16
_cell_length_a 5.146540
_cell_length_b 23.245845
_cell_length_c 23.283773
_cell_angle_alpha 161.346459
_cell_angle_beta 47.904479
_cell_angle_gamma 125.887279
_cell_volume 646.889075
_symmetry_space_group_name_H-M "P -1"
_symmetry_group_IT_number 2
_symmetry_cell_setting 'triclinic'
loop_
_space_group_symop_operation_xyz
x,y,z
-x,-y,-z
loop_
_atom_site_type_symbol
_atom_site_label
_atom_site_fract_x
_atom_site_fract_y
_atom_site_fract_z
Si Si1 0.158316 0.650486 0.551048
Si Si2 0.577473 0.699417 0.162331
Si Si3 0.453652 0.612449 0.671906
Si Si4 0.266214 0.574144 0.339525
Si Si5 0.088394 0.980267 0.035520
Si Si6 0.009074 0.008066 0.596316
Si Si7 0.199278 0.964746 0.660273
Si Si8 0.987573 0.642142 0.929631
O O1 0.488657 0.508009 0.393312
O O2 0.062812 0.586529 0.442441
O O3 0.843598 0.672462 0.665866
O O4 0.192736 0.861400 0.740748
O O5 0.232986 0.859263 0.378648
O O6 0.883917 0.791045 0.235334
O O7 0.500000 0.500000 0.000000
O O8 0.710162 0.675819 0.055288
O O9 0.500000 0.500000 0.500000
O O10 0.123795 0.781339 0.871503
O O11 0.178580 0.776564 0.516817
O O12 0.185765 0.434422 0.171686
O O13 0.673669 0.502961 0.233229
O O14 0.500000 0.000000 0.000000
O O15 0.000000 0.000000 0.000000
O O16 0.135266 0.947320 0.585213
O O17 0.598711 0.997000 0.642486
O O18 0.937373 0.153332 0.898891
#
# Coordination Sequence:
#
# PCOD9100041 Si02
#       8
#     2   2   2   2   2   2   2   2
#     4  10  24  40  61  98 126 169 214 263 324 395
#     4  10  20  39  66  99 130 169 221 276 335 388
#     4  10  20  40  68  93 131 159 201 277 326 371
#     4  12  26  44  66  93 133 180 227 265 324 400
#     4  10  20  37  62  91 123 158 199 249 320 379
#     4  10  23  39  66  97 129 170 221 279 339 390
#     4  11  23  46  65  92 136 177 221 282 332 383
#     4  11  26  43  66  96 133 177 225 271 326 400
#
# _framework density 24.733761000000001
#
# number of rings (size 3 to 8) (size 9 to 14) (size 15 to 20)
#    0.000    1.500    1.250    3.750    1.750    6.500 
#    0.000    7.500    0.000    0.000    0.000    0.000 
#    0.000    0.000    0.000    0.000    0.000    0.000 
#
# Total GULP energy -89384.528423 kJ/mol
# GULP energy per Si atom -5586.533026 kJ/mol
# Density = 2.467747 g / cm^3
# Si number density = 24.733761 Si / 1000 Ang^3
#
#
#
# Elastic Constant Matrix: (Units=GPa)
#
#
# Indices 1 2 3 4 5 6 
#
# 1 140.0802 36.0454 33.7265 2.1057 5.5309 -33.4772
# 2 36.0454 89.6011 62.1388 13.0335 3.3510 -23.8401
# 3 33.7265 62.1388 143.5388 39.6224 16.2318 -30.2152
# 4 2.1057 13.0335 39.6224 36.7478 -11.9172 -2.1522
# 5 5.5309 3.3510 16.2318 -11.9172 46.7756 -0.1126
# 6 -33.4772 -23.8401 -30.2152 -2.1522 -0.1126 37.3690
#
#
#
# Elastic Compliance Matrix: (Units=1/GPa)
#
#
# Indices 1 2 3 4 5 6 
#
# 1 0.009383 -0.002013 0.000426 -0.000220 -0.001151 0.007450
# 2 -0.002013 0.017571 -0.007423 0.002838 0.002287 0.003575
# 3 0.000426 -0.007423 0.019543 -0.021696 -0.011804 0.010162
# 4 -0.000220 0.002838 -0.021696 0.055861 0.021553 -0.012647
# 5 -0.001151 0.002287 -0.011804 0.021553 0.030919 -0.007782
# 6 0.007450 0.003575 0.010162 -0.012647 -0.007782 0.043180
#
#
# Mechanical properties :
#
#
# Convention : Reuss Voigt Hill
#
# Bulk Modulus (GPa) = 35.11602 70.78238 52.94920
# Shear Modulus (GPa) = 24.51326 40.26579 32.38952
#
# Velocity S-wave (km/s) = 3.15157 4.03919 3.62266
# Velocity P-wave (km/s) = 5.24133 7.10163 6.24119
#
# Compressibility (1/GPa) = 0.02847703
#
# Stress axis : x y z
#
# Youngs Moduli (GPa) = 106.57062 56.91153 51.16829
#
# Poissons Ratio (x) = 0.11455 -0.02178
# Poissons Ratio (y) = 0.21450 0.37984
# Poissons Ratio (z) = -0.04536 0.42247
#
# Static dielectric constant tensor:
#      x y z
#    x 1.976370 0.117260 0.017670 
#    y 0.117260 2.156330 0.154590 
#    z 0.017670 0.154590 2.085090 
# 
# From -- ./inp_files/605210.got.cif
#   From: 2010.05.17/outbox.cif.g08.bks.cpg/sg2_303_cif.got.tgz:605210.got - 2010.06.03 11:33:40.
