data_PCOD9100595
_publ_section_title
;
Structure prediction by ZEFSAII (Michael W. Deem and Ramdas Pophale) SiO2 
 PCOD9100595
Probable space group: P -1
;
_chemical_formula_sum "Si O2"
_cell_formula_units_Z 14
_cell_length_a 5.018422
_cell_length_b 9.915949
_cell_length_c 17.787647
_cell_angle_alpha 120.944355
_cell_angle_beta 72.200746
_cell_angle_gamma 83.530183
_cell_volume 682.220228
_symmetry_space_group_name_H-M "P -1"
_symmetry_group_IT_number 2
_symmetry_cell_setting 'triclinic'
loop_
_space_group_symop_operation_xyz
x,y,z
-x,-y,-z
loop_
_atom_site_type_symbol
_atom_site_label
_atom_site_fract_x
_atom_site_fract_y
_atom_site_fract_z
Si Si1 0.411948 0.206989 0.830886
Si Si2 0.987448 0.475734 0.716878
Si Si3 0.716055 0.838139 0.641777
Si Si4 0.282359 0.679283 0.040710
Si Si5 0.198227 0.118245 0.525476
Si Si6 0.633905 0.475997 0.167459
Si Si7 0.695594 0.362911 0.385840
O O1 0.570258 0.199424 0.896133
O O2 0.485891 0.344505 0.812543
O O3 0.056431 0.274054 0.889849
O O4 0.538900 0.028588 0.730707
O O5 0.072843 0.279666 0.635075
O O6 0.104189 0.513842 0.798489
O O7 0.151112 0.552977 0.663823
O O8 0.633126 0.547003 0.768318
O O9 0.753389 0.819513 0.543579
O O10 0.039657 0.773697 0.632168
O O11 0.525034 0.725725 0.653943
O O12 0.500000 0.500000 0.000000
O O13 0.278466 0.659360 0.945567
O O14 0.500000 0.000000 0.500000
O O15 0.000000 0.000000 0.500000
O O16 0.500000 0.500000 0.500000
#
# Coordination Sequence:
#
# PCOD9100595 Si02
#       7
#     2   2   2   2   2   2   2
#     4  11  21  39  65  98 130 161 206 257 329 383
#     4  12  24  40  63  89 127 164 214 259 302 377
#     4  12  25  42  67  90 129 169 215 266 306 379
#     4  10  20  37  64  96 131 165 201 253 318 399
#     4  12  25  39  61  95 129 159 194 259 333 377
#     4  11  22  39  64  97 127 160 202 260 324 376
#     4  12  26  45  65  86 123 179 232 253 302 366
#
# _framework density 20.521229999999999
#
# number of rings (size 3 to 8) (size 9 to 14) (size 15 to 20)
#    0.000    0.571    1.429    9.857    2.000    0.000 
#    0.000    0.000    0.000   17.143    0.000    0.000 
#    0.000    0.000    0.000    0.000    0.000    0.000 
#
# Total GULP energy -78290.901628 kJ/mol
# GULP energy per Si atom -5592.207259 kJ/mol
# Density = 2.047452 g / cm^3
# Si number density = 20.521230 Si / 1000 Ang^3
#
#
#
# Elastic Constant Matrix: (Units=GPa)
#
#
# Indices 1 2 3 4 5 6 
#
# 1 105.4149 9.3257 30.7505 -8.3820 4.5390 22.2157
# 2 9.3257 54.8167 -7.5618 -5.6622 -7.5673 14.0304
# 3 30.7505 -7.5618 63.7038 -3.3059 -0.3262 0.5598
# 4 -8.3820 -5.6622 -3.3059 22.1387 9.6463 5.9261
# 5 4.5390 -7.5673 -0.3262 9.6463 38.8075 -3.5030
# 6 22.2157 14.0304 0.5598 5.9261 -3.5030 33.3391
#
#
#
# Elastic Compliance Matrix: (Units=1/GPa)
#
#
# Indices 1 2 3 4 5 6 
#
# 1 0.015118 -0.000003 -0.006675 0.010463 -0.005545 -0.012403
# 2 -0.000003 0.022557 0.003229 0.008613 0.001298 -0.010940
# 3 -0.006675 0.003229 0.019260 -0.000505 0.001974 0.003063
# 4 0.010463 0.008613 -0.000505 0.065575 -0.018027 -0.024139
# 5 -0.005545 0.001298 0.001974 -0.018027 0.032042 0.009687
# 6 -0.012403 -0.010940 0.003063 -0.024139 0.009687 0.048121
#
#
# Mechanical properties :
#
#
# Convention : Reuss Voigt Hill
#
# Bulk Modulus (GPa) = 19.98469 32.10713 26.04591
# Shear Modulus (GPa) = 22.09950 31.61847 26.85898
#
# Velocity S-wave (km/s) = 3.28519 3.92952 3.62171
# Velocity P-wave (km/s) = 4.91423 6.02229 5.49625
#
# Compressibility (1/GPa) = 0.05003830
#
# Stress axis : x y z
#
# Youngs Moduli (GPa) = 66.14525 44.33125 51.92176
#
# Poissons Ratio (x) = 0.00013 0.34655
# Poissons Ratio (y) = 0.00019 -0.16764
# Poissons Ratio (z) = 0.44149 -0.14314
#
# Static dielectric constant tensor:
#      x y z
#    x 1.593450 -0.102910 -0.082130 
#    y -0.102910 1.607830 -0.134410 
#    z -0.082130 -0.134410 1.634350 
# 
# From -- ./inp_files/583075.got.cif
#   From: 2010.05.17/outbox.cif.g08.bks.cpg/sg2_292_cif.got.tgz:583075.got - 2010.06.03 11:33:40.
