data_PCOD9100537
_publ_section_title
;
Structure prediction by ZEFSAII (Michael W. Deem and Ramdas Pophale) SiO2 
 PCOD9100537
Probable space group: P -1
;
_chemical_formula_sum "Si O2"
_cell_formula_units_Z 14
_cell_length_a 5.565711
_cell_length_b 15.676171
_cell_length_c 9.309023
_cell_angle_alpha 72.584263
_cell_angle_beta 93.306534
_cell_angle_gamma 132.572457
_cell_volume 558.455059
_symmetry_space_group_name_H-M "P -1"
_symmetry_group_IT_number 2
_symmetry_cell_setting 'triclinic'
loop_
_space_group_symop_operation_xyz
x,y,z
-x,-y,-z
loop_
_atom_site_type_symbol
_atom_site_label
_atom_site_fract_x
_atom_site_fract_y
_atom_site_fract_z
Si Si1 0.521149 0.235328 0.771488
Si Si2 0.821563 0.013775 0.835678
Si Si3 0.864696 0.236259 0.022240
Si Si4 0.603848 0.114728 0.583191
Si Si5 0.103030 0.145493 0.266852
Si Si6 0.286823 0.523999 0.403457
Si Si7 0.199994 0.694978 0.715779
O O1 0.550101 0.186443 0.650466
O O2 0.498477 0.335450 0.705807
O O3 0.162556 0.112634 0.884813
O O4 0.840334 0.288272 0.851289
O O5 0.811523 0.096850 0.689132
O O6 0.455879 0.911334 0.941324
O O7 0.829434 0.928886 0.778843
O O8 0.843237 0.302611 0.117477
O O9 0.104234 0.225074 0.108844
O O10 0.783664 0.202825 0.407769
O O11 0.249495 0.974629 0.613594
O O12 0.424892 0.245183 0.326191
O O13 0.500000 0.500000 0.500000
O O14 0.000000 0.500000 0.500000
O O15 0.090704 0.432647 0.307317
#
# Coordination Sequence:
#
# PCOD9100537 Si02
#       7
#     2   2   2   2   2   2   2
#     4  11  23  41  66  94 132 176 225 274 338 399
#     4   9  20  38  63  96 132 174 219 273 335 404
#     4  10  23  39  62  98 135 173 215 278 341 408
#     4  10  20  37  64  93 129 173 221 272 333 400
#     4   9  21  37  60  96 134 169 217 271 341 399
#     4  12  28  50  74 102 130 179 235 289 334 403
#     4  11  23  41  64  92 132 171 226 278 337 393
#
# _framework density 25.069158999999999
#
# number of rings (size 3 to 8) (size 9 to 14) (size 15 to 20)
#    0.000    1.714    1.429    1.714    2.000   15.429 
#    0.000    0.714    0.000    0.000    0.000    0.000 
#    0.000    0.000    0.000    0.000    0.000    0.000 
#
# Total GULP energy -78199.813999 kJ/mol
# GULP energy per Si atom -5585.701000 kJ/mol
# Density = 2.501210 g / cm^3
# Si number density = 25.069159 Si / 1000 Ang^3
#
#
#
# Elastic Constant Matrix: (Units=GPa)
#
#
# Indices 1 2 3 4 5 6 
#
# 1 63.2299 35.3713 16.6219 4.4342 31.6753 -8.1803
# 2 35.3713 165.2091 31.4345 12.0651 14.6599 -1.9528
# 3 16.6219 31.4345 97.3320 8.0568 37.8011 -5.4488
# 4 4.4342 12.0651 8.0568 43.6533 -5.6135 9.8668
# 5 31.6753 14.6599 37.8011 -5.6135 51.0057 3.8648
# 6 -8.1803 -1.9528 -5.4488 9.8668 3.8648 31.0603
#
#
#
# Elastic Compliance Matrix: (Units=1/GPa)
#
#
# Indices 1 2 3 4 5 6 
#
# 1 0.033861 -0.005393 0.008996 -0.011206 -0.028689 0.017287
# 2 -0.005393 0.007440 -0.002952 -0.000084 0.003532 -0.001883
# 3 0.008996 -0.002952 0.019030 -0.008716 -0.020624 0.010857
# 4 -0.011206 -0.000084 -0.008716 0.031833 0.018224 -0.016866
# 5 -0.028689 0.003532 -0.020624 0.018224 0.055489 -0.023645
# 6 0.017287 -0.001883 0.010857 -0.016866 -0.023645 0.046834
#
#
# Mechanical properties :
#
#
# Convention : Reuss Voigt Hill
#
# Bulk Modulus (GPa) = 16.22486 54.73624 35.48055
# Shear Modulus (GPa) = 23.39401 41.30008 32.34705
#
# Velocity S-wave (km/s) = 3.05811 4.06328 3.59599
# Velocity P-wave (km/s) = 4.35379 6.62534 5.60583
#
# Compressibility (1/GPa) = 0.06163380
#
# Stress axis : x y z
#
# Youngs Moduli (GPa) = 29.53219 134.41416 52.54781
#
# Poissons Ratio (x) = 0.72490 -0.47274
# Poissons Ratio (y) = 0.15927 0.15512
# Poissons Ratio (z) = -0.26568 0.39680
#
# Static dielectric constant tensor:
#      x y z
#    x 2.137440 0.037100 -0.056250 
#    y 0.037100 1.937460 -0.057380 
#    z -0.056250 -0.057380 2.125620 
# 
# From -- ./inp_files/71107.got.cif
#   From: 2010.05.17/outbox.cif.g08.bks.cpg/sg2_36_cif.got.tgz:71107.got - 2010.06.03 11:33:40.
