data_PCOD9100908
_publ_section_title
;
Structure prediction by ZEFSAII (Michael W. Deem and Ramdas Pophale) SiO2 
 PCOD9100908
Probable space group: P -1
;
_chemical_formula_sum "Si O2"
_cell_formula_units_Z 16
_cell_length_a 7.871178
_cell_length_b 13.443334
_cell_length_c 11.359756
_cell_angle_alpha 92.877446
_cell_angle_beta 41.564437
_cell_angle_gamma 109.192254
_cell_volume 715.473415
_symmetry_space_group_name_H-M "P -1"
_symmetry_group_IT_number 2
_symmetry_cell_setting 'triclinic'
loop_
_space_group_symop_operation_xyz
x,y,z
-x,-y,-z
loop_
_atom_site_type_symbol
_atom_site_label
_atom_site_fract_x
_atom_site_fract_y
_atom_site_fract_z
Si Si1 0.249968 0.625451 0.397390
Si Si2 0.823415 0.211645 0.363425
Si Si3 0.684218 0.019301 0.025847
Si Si4 0.654379 0.791571 0.003044
Si Si5 0.378594 0.222202 0.440672
Si Si6 0.862670 0.082733 0.551791
Si Si7 0.673186 0.607599 0.342822
Si Si8 0.265185 0.748161 0.974922
O O1 0.163987 0.690410 0.548746
O O2 0.398475 0.715038 0.220101
O O3 0.511618 0.604974 0.307510
O O4 0.000000 0.500000 0.500000
O O5 0.527437 0.161743 0.440695
O O6 0.862375 0.125352 0.425083
O O7 0.095411 0.247466 0.138422
O O8 0.797160 0.925062 0.963487
O O9 0.457658 0.978049 0.244842
O O10 0.838673 0.152511 0.968292
O O11 0.500000 0.000000 0.000000
O O12 0.503917 0.778993 0.953491
O O13 0.355922 0.303665 0.552010
O O14 0.066653 0.176225 0.540834
O O15 0.592868 0.261589 0.220994
O O16 0.000000 0.000000 0.500000
O O17 0.500000 0.500000 0.500000
O O18 0.996599 0.638306 0.147551
#
# Coordination Sequence:
#
# PCOD9100908 Si02
#       8
#     2   2   2   2   2   2   2   2
#     4  11  25  44  68  97 132 176 228 287 340 399
#     4  11  25  42  66 100 135 178 226 277 337 401
#     4  10  20  37  66  98 131 181 222 264 336 401
#     4  11  21  41  68  96 138 177 220 277 334 400
#     4  11  24  43  67  98 138 173 225 279 330 405
#     4  12  21  42  67  97 139 180 222 270 334 398
#     4  11  26  44  68  99 128 175 229 283 343 400
#     4  11  22  42  67  97 134 176 220 275 336 398
#
# _framework density 22.362815999999999
#
# number of rings (size 3 to 8) (size 9 to 14) (size 15 to 20)
#    0.000    1.000    3.750    3.750    1.750    1.500 
#    0.000    3.750    0.000    0.000    0.000    0.000 
#    0.000    0.000    0.000    0.000    0.000    0.000 
#
# Total GULP energy -89189.087482 kJ/mol
# GULP energy per Si atom -5574.317968 kJ/mol
# Density = 2.231192 g / cm^3
# Si number density = 22.362816 Si / 1000 Ang^3
#
#
#
# Elastic Constant Matrix: (Units=GPa)
#
#
# Indices 1 2 3 4 5 6 
#
# 1 73.3969 -22.2224 5.3991 -7.3855 11.3426 -5.2400
# 2 -22.2224 -20.1183 39.5610 -4.2152 -0.6077 0.4439
# 3 5.3991 39.5610 88.1891 -7.8405 9.3794 -2.3605
# 4 -7.3855 -4.2152 -7.8405 31.4918 -4.4241 0.6069
# 5 11.3426 -0.6077 9.3794 -4.4241 28.8739 3.8881
# 6 -5.2400 0.4439 -2.3605 0.6069 3.8881 24.9189
#
#
#
# Elastic Compliance Matrix: (Units=1/GPa)
#
#
# Indices 1 2 3 4 5 6 
#
# 1 0.012652 -0.007278 0.003458 0.001860 -0.006512 0.004088
# 2 -0.007278 -0.021477 0.010008 -0.002259 -0.001195 0.000042
# 3 0.003458 0.010008 0.007336 0.003493 -0.003219 0.001661
# 4 0.001860 -0.002259 0.003493 0.033225 0.003253 -0.000554
# 5 -0.006512 -0.001195 -0.003219 0.003253 0.039780 -0.007939
# 6 0.004088 0.000042 0.001661 -0.000554 -0.007939 0.042399
#
#
# Mechanical properties :
#
#
# Convention : Reuss Voigt Hill
#
# Bulk Modulus (GPa) = 91.87433 20.77146 56.32289
# Shear Modulus (GPa) = 47.54282 24.97223 36.25752
#
# Velocity S-wave (km/s) = 4.61583 3.34531 4.03094
# Velocity P-wave (km/s) = 8.34150 4.92240 6.84875
#
# Compressibility (1/GPa) = 0.01088443
#
# Stress axis : x y z
#
# Youngs Moduli (GPa) = 79.03932 -46.56122 136.32117
#
# Poissons Ratio (x) = -0.33889 -0.47138
# Poissons Ratio (y) = 0.57528 -1.36424
# Poissons Ratio (z) = -0.27331 0.46596
#
# Static dielectric constant tensor:
#      x y z
#    x 1.920960 -0.380160 0.416930 
#    y -0.380160 2.519520 -0.878350 
#    z 0.416930 -0.878350 2.945420 
# 
# From -- ./inp_files/399171.got.cif
#   From: 2010.05.17/outbox.cif.g08.bks.cpg/sg2_200_cif.got.tgz:399171.got - 2010.06.03 11:33:40.
