data_PCOD9100782
_publ_section_title
;
Structure prediction by ZEFSAII (Michael W. Deem and Ramdas Pophale) SiO2 
 PCOD9100782
Probable space group: P -1
;
_chemical_formula_sum "Si O2"
_cell_formula_units_Z 16
_cell_length_a 9.363490
_cell_length_b 14.186188
_cell_length_c 9.639151
_cell_angle_alpha 139.929287
_cell_angle_beta 95.175546
_cell_angle_gamma 67.226215
_cell_volume 712.725157
_symmetry_space_group_name_H-M "P -1"
_symmetry_group_IT_number 2
_symmetry_cell_setting 'triclinic'
loop_
_space_group_symop_operation_xyz
x,y,z
-x,-y,-z
loop_
_atom_site_type_symbol
_atom_site_label
_atom_site_fract_x
_atom_site_fract_y
_atom_site_fract_z
Si Si1 0.833205 0.825905 0.094815
Si Si2 0.644210 0.082221 0.574947
Si Si3 0.103418 0.771627 0.286624
Si Si4 0.392706 0.443614 0.018137
Si Si5 0.057013 0.533368 0.395270
Si Si6 0.355008 0.594976 0.485185
Si Si7 0.160870 0.136811 0.409647
Si Si8 0.822403 0.023424 0.048659
O O1 0.980755 0.805502 0.186264
O O2 0.669136 0.974773 0.318219
O O3 0.846643 0.888436 0.014729
O O4 0.850396 0.643412 0.877535
O O5 0.773965 0.155037 0.651720
O O6 0.705161 0.947783 0.553519
O O7 0.471284 0.246324 0.777287
O O8 0.207165 0.571294 0.097648
O O9 0.000224 0.848737 0.506864
O O10 0.408621 0.496281 0.234111
O O11 0.500000 0.500000 0.000000
O O12 0.187749 0.594259 0.507995
O O13 0.000000 0.500000 0.500000
O O14 0.909434 0.676833 0.451385
O O15 0.500000 0.500000 0.500000
O O16 0.301945 0.791081 0.696158
O O17 0.231034 0.014272 0.146270
O O18 0.000000 0.000000 0.000000
#
# Coordination Sequence:
#
# PCOD9100782 Si02
#       8
#     2   2   2   2   2   2   2   2
#     4  11  23  38  64  93 132 171 221 272 331 385
#     4  10  21  36  65  96 130 171 227 270 321 399
#     4  10  20  37  65  98 129 170 220 277 325 391
#     4  10  20  40  62  96 136 166 214 277 330 386
#     4  12  25  44  66 101 141 173 221 283 337 393
#     4  12  26  44  71  97 133 177 226 276 338 398
#     4  11  20  37  64  91 129 168 223 272 326 384
#     4  12  19  37  68  96 122 173 229 272 316 392
#
# _framework density 22.449045999999999
#
# number of rings (size 3 to 8) (size 9 to 14) (size 15 to 20)
#    0.000    1.000    3.750    5.250    0.000    5.000 
#    0.000    1.250    2.750    0.000    0.000    0.000 
#    0.000    0.000    0.000    0.000    0.000    0.000 
#
# Total GULP energy -89437.564877 kJ/mol
# GULP energy per Si atom -5589.847805 kJ/mol
# Density = 2.239795 g / cm^3
# Si number density = 22.449046 Si / 1000 Ang^3
#
#
#
# Elastic Constant Matrix: (Units=GPa)
#
#
# Indices 1 2 3 4 5 6 
#
# 1 39.0724 27.1405 23.9181 0.5296 -2.1889 8.3508
# 2 27.1405 144.5476 45.3843 11.4653 -10.2586 10.2504
# 3 23.9181 45.3843 149.2091 21.1264 -15.6819 3.5915
# 4 0.5296 11.4653 21.1264 59.3594 2.0989 -12.7046
# 5 -2.1889 -10.2586 -15.6819 2.0989 29.0858 4.9519
# 6 8.3508 10.2504 3.5915 -12.7046 4.9519 27.8674
#
#
#
# Elastic Compliance Matrix: (Units=1/GPa)
#
#
# Indices 1 2 3 4 5 6 
#
# 1 0.032558 -0.004421 -0.003713 0.000261 0.000158 -0.007561
# 2 -0.004421 0.008723 -0.001314 -0.001931 0.002699 -0.003075
# 3 -0.003713 -0.001314 0.008691 -0.003363 0.004502 -0.001857
# 4 0.000261 -0.001931 -0.003363 0.021146 -0.006005 0.011773
# 5 0.000158 0.002699 0.004502 -0.006005 0.040162 -0.011494
# 6 -0.007561 -0.003075 -0.001857 0.011773 -0.011494 0.046930
#
#
# Mechanical properties :
#
#
# Convention : Reuss Voigt Hill
#
# Bulk Modulus (GPa) = 32.17708 58.41276 45.29492
# Shear Modulus (GPa) = 26.67165 39.02160 32.84663
#
# Velocity S-wave (km/s) = 3.45062 4.17373 3.82928
# Velocity P-wave (km/s) = 5.49911 7.02163 6.30649
#
# Compressibility (1/GPa) = 0.03107802
#
# Stress axis : x y z
#
# Youngs Moduli (GPa) = 30.71410 114.63415 115.06511
#
# Poissons Ratio (x) = 0.50678 0.42722
# Poissons Ratio (y) = 0.13578 0.15115
# Poissons Ratio (z) = 0.11404 0.15058
#
# Static dielectric constant tensor:
#      x y z
#    x 1.851600 -0.000010 -0.017410 
#    y -0.000010 1.826540 0.041190 
#    z -0.017410 0.041190 1.861650 
# 
# From -- ./inp_files/274681.got.cif
#   From: 2010.05.17/outbox.cif.g08.bks.cpg/sg2_138_cif.got.tgz:274681.got - 2010.06.03 11:33:40.
