data_PCOD9100697
_publ_section_title
;
Structure prediction by ZEFSAII (Michael W. Deem and Ramdas Pophale) SiO2 
 PCOD9100697
Probable space group: P -1
;
_chemical_formula_sum "Si O2"
_cell_formula_units_Z 16
_cell_length_a 19.808616
_cell_length_b 8.610290
_cell_length_c 11.414702
_cell_angle_alpha 82.447567
_cell_angle_beta 125.824084
_cell_angle_gamma 143.369129
_cell_volume 673.344388
_symmetry_space_group_name_H-M "P -1"
_symmetry_group_IT_number 2
_symmetry_cell_setting 'triclinic'
loop_
_space_group_symop_operation_xyz
x,y,z
-x,-y,-z
loop_
_atom_site_type_symbol
_atom_site_label
_atom_site_fract_x
_atom_site_fract_y
_atom_site_fract_z
Si Si1 0.278892 0.621954 0.348021
Si Si2 0.835411 0.516924 0.084998
Si Si3 0.896203 0.316167 0.287195
Si Si4 0.254927 0.263711 0.796921
Si Si5 0.866752 0.766802 0.533210
Si Si6 0.853100 0.943714 0.835337
Si Si7 0.617564 0.445067 0.851871
Si Si8 0.767256 0.129878 0.623054
O O1 0.249252 0.528225 0.462445
O O2 0.201073 0.324020 0.240091
O O3 0.500000 0.000000 0.500000
O O4 0.212005 0.693141 0.279710
O O5 0.786861 0.282923 0.132793
O O6 0.659736 0.333027 0.902941
O O7 0.000373 0.880961 0.297296
O O8 0.935383 0.667513 0.044724
O O9 0.000000 0.500000 0.500000
O O10 0.746474 0.923160 0.190978
O O11 0.056585 0.566385 0.321952
O O12 0.028201 0.927653 0.624559
O O13 0.278239 0.395479 0.687347
O O14 0.378267 0.514651 0.010483
O O15 0.800882 0.837252 0.930440
O O16 0.752072 0.930301 0.685395
O O17 0.429280 0.176335 0.618619
#
# Coordination Sequence:
#
# PCOD9100697 Si02
#       8
#     2   2   2   2   2   2   2   2
#     4  11  21  38  68  96 124 175 222 259 318 402
#     4   9  20  37  64  91 124 169 216 266 320 383
#     4  11  21  42  68  92 123 177 230 258 319 411
#     4  10  20  37  65  91 127 168 215 268 321 385
#     4   9  18  37  63  88 121 170 218 254 320 388
#     4  10  22  42  66  90 134 177 218 261 328 399
#     4  11  22  40  61  98 134 166 206 282 336 367
#     4  11  24  43  66  97 129 175 221 272 328 393
#
# _framework density 23.761984999999999
#
# number of rings (size 3 to 8) (size 9 to 14) (size 15 to 20)
#    0.000    1.750    3.750    0.750    0.000    0.000 
#    4.500    4.375    0.000    0.000    0.000    0.000 
#    0.000    0.000    0.000    0.000    0.000    0.000 
#
# Total GULP energy -89283.813044 kJ/mol
# GULP energy per Si atom -5580.238315 kJ/mol
# Density = 2.370790 g / cm^3
# Si number density = 23.761985 Si / 1000 Ang^3
#
#
#
# Elastic Constant Matrix: (Units=GPa)
#
#
# Indices 1 2 3 4 5 6 
#
# 1 75.4142 19.5690 40.7077 -13.7554 5.5831 -21.7168
# 2 19.5690 79.7215 30.6304 -28.9237 13.6098 -29.8707
# 3 40.7077 30.6304 111.5176 -24.6103 3.1308 -33.8249
# 4 -13.7554 -28.9237 -24.6103 40.3595 -11.9959 14.5344
# 5 5.5831 13.6098 3.1308 -11.9959 32.5350 -8.7788
# 6 -21.7168 -29.8707 -33.8249 14.5344 -8.7788 38.8948
#
#
#
# Elastic Compliance Matrix: (Units=1/GPa)
#
#
# Indices 1 2 3 4 5 6 
#
# 1 0.017466 -0.000107 -0.004526 0.001031 -0.000739 0.005182
# 2 -0.000107 0.021039 0.000246 0.010331 -0.001744 0.012059
# 3 -0.004526 0.000246 0.014329 0.005215 0.003645 0.008998
# 4 0.001031 0.010331 0.005215 0.038160 0.009309 0.000886
# 5 -0.000739 -0.001744 0.003645 0.009309 0.036330 0.006140
# 6 0.005182 0.012059 0.008998 0.000886 0.006140 0.046744
#
#
# Mechanical properties :
#
#
# Convention : Reuss Voigt Hill
#
# Bulk Modulus (GPa) = 22.69556 49.82972 36.26264
# Shear Modulus (GPa) = 25.31271 34.07429 29.69350
#
# Velocity S-wave (km/s) = 3.26737 3.79091 3.53883
# Velocity P-wave (km/s) = 4.87917 6.33855 5.65612
#
# Compressibility (1/GPa) = 0.04406147
#
# Stress axis : x y z
#
# Youngs Moduli (GPa) = 57.25419 47.53041 69.78651
#
# Poissons Ratio (x) = 0.00506 0.31589
# Poissons Ratio (y) = 0.00610 -0.01720
# Poissons Ratio (z) = 0.25916 -0.01172
#
# Static dielectric constant tensor:
#      x y z
#    x 2.002820 -0.008350 -0.030440 
#    y -0.008350 1.876380 -0.004410 
#    z -0.030440 -0.004410 2.080650 
# 
# From -- ./inp_files/215975.got.cif
#   From: 2010.05.17/outbox.cif.g08.bks.cpg/sg2_108_cif.got.tgz:215975.got - 2010.06.03 11:33:40.
