data_PCOD9100409
_publ_section_title
;
Structure prediction by ZEFSAII (Michael W. Deem and Ramdas Pophale) SiO2 
 PCOD9100409
Probable space group: P -1
;
_chemical_formula_sum "Si O2"
_cell_formula_units_Z 16
_cell_length_a 21.594153
_cell_length_b 9.357079
_cell_length_c 8.115055
_cell_angle_alpha 133.697680
_cell_angle_beta 50.636941
_cell_angle_gamma 140.823905
_cell_volume 731.202305
_symmetry_space_group_name_H-M "P -1"
_symmetry_group_IT_number 2
_symmetry_cell_setting 'triclinic'
loop_
_space_group_symop_operation_xyz
x,y,z
-x,-y,-z
loop_
_atom_site_type_symbol
_atom_site_label
_atom_site_fract_x
_atom_site_fract_y
_atom_site_fract_z
Si Si1 0.226117 0.674256 0.128887
Si Si2 0.622453 0.989059 0.359472
Si Si3 0.250107 0.041102 0.120604
Si Si4 0.589829 0.384468 0.714377
Si Si5 0.913789 0.389449 0.419025
Si Si6 0.984226 0.256366 0.751129
Si Si7 0.595849 0.186307 0.877152
Si Si8 0.018084 0.179761 0.966036
O O1 0.184741 0.714823 0.396966
O O2 0.310046 0.648767 0.029195
O O3 0.054992 0.386555 0.576161
O O4 0.268576 0.902277 0.116956
O O5 0.520218 0.735013 0.266051
O O6 0.619800 0.207928 0.461157
O O7 0.614035 0.026140 0.595900
O O8 0.717944 0.014503 0.150472
O O9 0.324701 0.334662 0.251024
O O10 0.133652 0.927712 0.237279
O O11 0.583756 0.343883 0.890499
O O12 0.926600 0.199569 0.157773
O O13 0.871899 0.565897 0.981896
O O14 0.000000 0.500000 0.500000
O O15 0.015599 0.142152 0.743871
O O16 0.000000 0.500000 0.000000
O O17 0.500000 0.000000 0.000000
O O18 0.000000 0.000000 0.000000
#
# Coordination Sequence:
#
# PCOD9100409 Si02
#       8
#     2   2   2   2   2   2   2   2
#     4  11  23  38  62  89 129 168 206 273 317 374
#     4   9  22  42  66  89 126 164 210 270 323 383
#     4  12  21  40  67  94 122 177 214 256 330 380
#     4   9  22  42  65  90 125 165 216 267 313 403
#     4   9  18  41  55  83 123 163 207 253 314 370
#     4  10  20  37  64  84 128 169 213 257 313 386
#     4  10  22  42  64  91 127 162 206 277 326 375
#     4  10  22  38  58  88 126 164 213 265 309 378
#
# _framework density 21.881767
#
# number of rings (size 3 to 8) (size 9 to 14) (size 15 to 20)
#    0.750    1.250    3.750    1.125    5.250    0.000 
#    2.250    5.000    0.000    0.000    0.000    0.000 
#    0.000    0.000    0.000    0.000    0.000    0.000 
#
# Total GULP energy -89228.569966 kJ/mol
# GULP energy per Si atom -5576.785623 kJ/mol
# Density = 2.183196 g / cm^3
# Si number density = 21.881767 Si / 1000 Ang^3
#
#
#
# Elastic Constant Matrix: (Units=GPa)
#
#
# Indices 1 2 3 4 5 6 
#
# 1 101.3143 34.4080 7.0398 -3.6718 18.7891 -6.9348
# 2 34.4080 130.7598 25.4298 4.4578 10.2990 -20.2076
# 3 7.0398 25.4298 49.6550 -15.7200 5.2221 -4.6003
# 4 -3.6718 4.4578 -15.7200 35.5028 -3.5279 -0.2068
# 5 18.7891 10.2990 5.2221 -3.5279 29.0314 -8.5454
# 6 -6.9348 -20.2076 -4.6003 -0.2068 -8.5454 44.0248
#
#
#
# Elastic Compliance Matrix: (Units=1/GPa)
#
#
# Indices 1 2 3 4 5 6 
#
# 1 0.012112 -0.002964 0.000888 0.001319 -0.006996 -0.000712
# 2 -0.002964 0.010264 -0.005806 -0.004158 -0.000126 0.003594
# 3 0.000888 -0.005806 0.027198 0.012679 -0.001862 0.000015
# 4 0.001319 -0.004158 0.012679 0.034704 0.002647 0.000301
# 5 -0.006996 -0.000126 -0.001862 0.002647 0.041660 0.006744
# 6 -0.000712 0.003594 0.000015 0.000301 0.006744 0.025564
#
#
# Mechanical properties :
#
#
# Convention : Reuss Voigt Hill
#
# Bulk Modulus (GPa) = 29.57782 46.16493 37.87137
# Shear Modulus (GPa) = 28.00580 36.03522 32.02051
#
# Velocity S-wave (km/s) = 3.58141 4.06250 3.82952
# Velocity P-wave (km/s) = 5.53610 6.56875 6.07441
#
# Compressibility (1/GPa) = 0.03380912
#
# Stress axis : x y z
#
# Youngs Moduli (GPa) = 82.56545 97.43114 36.76775
#
# Poissons Ratio (x) = 0.28875 -0.03265
# Poissons Ratio (y) = 0.24469 0.21348
# Poissons Ratio (z) = -0.07331 0.56571
#
# Static dielectric constant tensor:
#      x y z
#    x 1.891340 0.027910 -0.013340 
#    y 0.027910 1.805770 -0.003460 
#    z -0.013340 -0.003460 1.968620 
# 
# From -- ./inp_files/343855.got.cif
#   From: 2010.05.17/outbox.cif.g08.bks.cpg/sg2_172_cif.got.tgz:343855.got - 2010.06.03 11:33:40.
