data_PCOD9100949
_publ_section_title
;
Structure prediction by ZEFSAII (Michael W. Deem and Ramdas Pophale) SiO2 
 PCOD9100949
Probable space group: P -1
;
_chemical_formula_sum "Si O2"
_cell_formula_units_Z 16
_cell_length_a 10.862882
_cell_length_b 18.006882
_cell_length_c 13.663449
_cell_angle_alpha 23.836077
_cell_angle_beta 70.652990
_cell_angle_gamma 86.134323
_cell_volume 801.246157
_symmetry_space_group_name_H-M "P -1"
_symmetry_group_IT_number 2
_symmetry_cell_setting 'triclinic'
loop_
_space_group_symop_operation_xyz
x,y,z
-x,-y,-z
loop_
_atom_site_type_symbol
_atom_site_label
_atom_site_fract_x
_atom_site_fract_y
_atom_site_fract_z
Si Si1 0.931826 0.801464 0.675007
Si Si2 0.957521 0.419331 0.955245
Si Si3 0.701203 0.066836 0.762058
Si Si4 0.675969 0.814241 0.471940
Si Si5 0.661658 0.643730 0.218486
Si Si6 0.336105 0.562480 0.946205
Si Si7 0.005999 0.830859 0.931268
Si Si8 0.476571 0.218342 0.647954
O O1 0.741113 0.589881 0.951047
O O2 0.978525 0.954272 0.381465
O O3 0.008670 0.679484 0.840194
O O4 0.000000 0.000000 0.500000
O O5 0.114939 0.690506 0.574103
O O6 0.788957 0.385263 0.054420
O O7 0.956098 0.286201 0.020955
O O8 0.574849 0.121604 0.704804
O O9 0.694929 0.889748 0.902841
O O10 0.637540 0.937375 0.040877
O O11 0.667991 0.599375 0.774844
O O12 0.633664 0.796148 0.391664
O O13 0.854742 0.053703 0.162261
O O14 0.525194 0.780116 0.612067
O O15 0.500000 0.500000 0.500000
O O16 0.613633 0.485187 0.327078
O O17 0.811339 0.664623 0.206854
#
# Coordination Sequence:
#
# PCOD9100949 Si02
#       8
#     2   2   2   2   2   2   2   2
#     4   9  19  33  59  91 115 156 202 254 303 352
#     4  11  20  37  61  90 123 157 211 258 295 364
#     4  10  20  37  67  93 117 157 209 257 305 355
#     4  10  22  40  57  85 128 166 196 250 311 368
#     4  10  21  40  66  92 119 157 206 259 301 357
#     4  10  21  36  57  83 125 165 202 246 309 362
#     4  10  21  39  60  89 127 160 198 256 310 362
#     4  10  21  40  64  93 123 158 205 257 305 362
#
# _framework density 19.968893000000001
#
# number of rings (size 3 to 8) (size 9 to 14) (size 15 to 20)
#    0.000    2.000    1.250    2.625    1.750    1.500 
#    2.250    6.250    0.000    0.000    0.000    0.000 
#    0.000    0.000    0.000    0.000    0.000    0.000 
#
# Total GULP energy -89181.398268 kJ/mol
# GULP energy per Si atom -5573.837392 kJ/mol
# Density = 1.992344 g / cm^3
# Si number density = 19.968893 Si / 1000 Ang^3
#
#
#
# Elastic Constant Matrix: (Units=GPa)
#
#
# Indices 1 2 3 4 5 6 
#
# 1 154.4152 59.2716 45.6565 -9.1448 -8.6576 6.6975
# 2 59.2716 70.4964 35.5499 -23.8962 3.6479 7.1361
# 3 45.6565 35.5499 71.4351 -15.9210 -1.2650 -1.2355
# 4 -9.1448 -23.8962 -15.9210 30.8259 -0.2596 0.7219
# 5 -8.6576 3.6479 -1.2650 -0.2596 40.6772 0.5073
# 6 6.6975 7.1361 -1.2355 0.7219 0.5073 40.8691
#
#
#
# Elastic Compliance Matrix: (Units=1/GPa)
#
#
# Indices 1 2 3 4 5 6 
#
# 1 0.011075 -0.009722 -0.003536 -0.006048 0.003082 -0.000156
# 2 -0.009722 0.032624 -0.005855 0.019446 -0.004996 -0.004562
# 3 -0.003536 -0.005855 0.020297 0.004849 0.000408 0.002125
# 4 -0.006048 0.019446 0.004849 0.048276 -0.002534 -0.003079
# 5 0.003082 -0.004996 0.000408 -0.002534 0.025683 0.000105
# 6 -0.000156 -0.004562 0.002125 -0.003079 0.000105 0.025408
#
#
# Mechanical properties :
#
#
# Convention : Reuss Voigt Hill
#
# Bulk Modulus (GPa) = 38.80519 64.14475 51.47497
# Shear Modulus (GPa) = 23.78936 32.86568 28.32752
#
# Velocity S-wave (km/s) = 3.45530 4.06130 3.77049
# Velocity P-wave (km/s) = 5.94927 7.36100 6.69246
#
# Compressibility (1/GPa) = 0.02576975
#
# Stress axis : x y z
#
# Youngs Moduli (GPa) = 90.29600 30.65270 49.26806
#
# Poissons Ratio (x) = 0.29800 0.17421
# Poissons Ratio (y) = 0.87785 0.28846
# Poissons Ratio (z) = 0.31929 0.17947
#
# Static dielectric constant tensor:
#      x y z
#    x 1.733170 -0.030340 -0.068070 
#    y -0.030340 1.756260 -0.008720 
#    z -0.068070 -0.008720 1.803710 
# 
# From -- ./inp_files/346159.got.cif
#   From: 2010.05.17/outbox.cif.g08.bks.cpg/sg2_174_cif.got.tgz:346159.got - 2010.06.03 11:33:40.
