data_PCOD9100135
_publ_section_title
;
Structure prediction by ZEFSAII (Michael W. Deem and Ramdas Pophale) SiO2 
 PCOD9100135
Probable space group: P -1
;
_chemical_formula_sum "Si O2"
_cell_formula_units_Z 16
_cell_length_a 16.385126
_cell_length_b 11.365507
_cell_length_c 14.739513
_cell_angle_alpha 133.451096
_cell_angle_beta 159.806310
_cell_angle_gamma 46.145206
_cell_volume 675.457345
_symmetry_space_group_name_H-M "P -1"
_symmetry_group_IT_number 2
_symmetry_cell_setting 'triclinic'
loop_
_space_group_symop_operation_xyz
x,y,z
-x,-y,-z
loop_
_atom_site_type_symbol
_atom_site_label
_atom_site_fract_x
_atom_site_fract_y
_atom_site_fract_z
Si Si1 0.567657 0.335992 0.752294
Si Si2 0.103982 0.980964 0.817199
Si Si3 0.907254 0.481598 0.743272
Si Si4 0.529653 0.309667 0.904233
Si Si5 0.690014 0.678876 0.024729
Si Si6 0.857608 0.204124 0.826529
Si Si7 0.402037 0.071557 0.781986
Si Si8 0.609288 0.330827 0.476117
O O1 0.335046 0.402738 0.483535
O O2 0.499179 0.283870 0.751948
O O3 0.753077 0.200042 0.816451
O O4 0.667218 0.506404 0.957740
O O5 0.842875 0.003002 0.508637
O O6 0.206117 0.788839 0.843692
O O7 0.325339 0.021727 0.009207
O O8 0.064173 0.075677 0.923180
O O9 0.859316 0.367919 0.715984
O O10 0.030082 0.354182 0.727491
O O11 0.072605 0.614752 0.006419
O O12 0.360728 0.210854 0.733098
O O13 0.500000 0.500000 0.000000
O O14 0.591599 0.830404 0.066064
O O15 0.541945 0.694867 0.784209
O O16 0.641540 0.209273 0.531213
O O17 0.500000 0.500000 0.500000
#
# Coordination Sequence:
#
# PCOD9100135 Si02
#       8
#     2   2   2   2   2   2   2   2
#     4  10  20  37  62  97 122 162 205 268 322 369
#     4  10  26  44  64  92 130 178 208 257 323 378
#     4  10  21  34  65  93 127 157 213 261 326 364
#     4  10  22  41  66  94 124 165 218 264 311 380
#     4  10  21  36  61  95 124 159 210 274 313 372
#     4  11  23  40  62  89 134 167 206 263 319 387
#     4  10  24  44  65  89 131 166 218 258 317 373
#     4  11  20  37  60  98 124 160 215 260 321 373
#
# _framework density 23.687653000000001
#
# number of rings (size 3 to 8) (size 9 to 14) (size 15 to 20)
#    0.750    1.000    5.000    0.375    7.000    3.000 
#    0.000    2.500    0.000    0.000    0.000    0.000 
#    0.000    0.000    0.000    0.000    0.000    0.000 
#
# Total GULP energy -89147.129470 kJ/mol
# GULP energy per Si atom -5571.695592 kJ/mol
# Density = 2.363374 g / cm^3
# Si number density = 23.687653 Si / 1000 Ang^3
#
#
#
# Elastic Constant Matrix: (Units=GPa)
#
#
# Indices 1 2 3 4 5 6 
#
# 1 135.0696 35.2083 35.1446 14.6546 -6.7918 -32.6451
# 2 35.2083 92.0701 14.0866 0.5475 6.0486 -38.1331
# 3 35.1446 14.0866 69.4150 8.9774 10.8916 -21.1556
# 4 14.6546 0.5475 8.9774 26.1327 -6.8624 0.0859
# 5 -6.7918 6.0486 10.8916 -6.8624 35.0093 0.2122
# 6 -32.6451 -38.1331 -21.1556 0.0859 0.2122 52.2577
#
#
#
# Elastic Compliance Matrix: (Units=1/GPa)
#
#
# Indices 1 2 3 4 5 6 
#
# 1 0.010278 -0.002130 -0.003696 -0.003736 0.002759 0.003365
# 2 -0.002130 0.016394 0.002020 -0.000966 -0.004133 0.011468
# 3 -0.003696 0.002020 0.020519 -0.007392 -0.008944 0.007521
# 4 -0.003736 -0.000966 -0.007392 0.045764 0.010750 -0.006150
# 5 0.002759 -0.004133 -0.008944 0.010750 0.034733 -0.005072
# 6 0.003365 0.011468 0.007521 -0.006150 -0.005072 0.032682
#
#
# Mechanical properties :
#
#
# Convention : Reuss Voigt Hill
#
# Bulk Modulus (GPa) = 25.26563 51.71486 38.49025
# Shear Modulus (GPa) = 27.59777 36.82095 32.20936
#
# Velocity S-wave (km/s) = 3.41701 3.94691 3.69148
# Velocity P-wave (km/s) = 5.12419 6.53071 5.86973
#
# Compressibility (1/GPa) = 0.03957946
#
# Stress axis : x y z
#
# Youngs Moduli (GPa) = 97.29744 60.99787 48.73616
#
# Poissons Ratio (x) = 0.12994 0.18011
# Poissons Ratio (y) = 0.20727 -0.09846
# Poissons Ratio (z) = 0.35956 -0.12324
#
# Static dielectric constant tensor:
#      x y z
#    x 1.930950 -0.010280 0.040330 
#    y -0.010280 2.002030 0.003140 
#    z 0.040330 0.003140 1.935120 
# 
# From -- ./inp_files/100622.got.cif
#   From: 2010.05.17/outbox.cif.g08.bks.cpg/sg2_51_cif.got.tgz:100622.got - 2010.06.03 11:33:40.
