data_PCOD9100280
_publ_section_title
;
Structure prediction by ZEFSAII (Michael W. Deem and Ramdas Pophale) SiO2 
 PCOD9100280
Probable space group: P -1
;
_chemical_formula_sum "Si O2"
_cell_formula_units_Z 16
_cell_length_a 7.449136
_cell_length_b 18.988036
_cell_length_c 7.895850
_cell_angle_alpha 118.546819
_cell_angle_beta 51.789748
_cell_angle_gamma 133.813675
_cell_volume 630.796733
_symmetry_space_group_name_H-M "P -1"
_symmetry_group_IT_number 2
_symmetry_cell_setting 'triclinic'
loop_
_space_group_symop_operation_xyz
x,y,z
-x,-y,-z
loop_
_atom_site_type_symbol
_atom_site_label
_atom_site_fract_x
_atom_site_fract_y
_atom_site_fract_z
Si Si1 0.512225 0.202004 0.341532
Si Si2 0.112535 0.698058 0.054497
Si Si3 0.731609 0.397101 0.581983
Si Si4 0.183481 0.133287 0.781915
Si Si5 0.311093 0.871084 0.384705
Si Si6 0.318918 0.938252 0.808262
Si Si7 0.591562 0.528740 0.290923
Si Si8 0.326434 0.336805 0.015731
O O1 0.719762 0.301603 0.441400
O O2 0.236718 0.155738 0.572760
O O3 0.594852 0.126213 0.222727
O O4 0.587372 0.247283 0.157843
O O5 0.145881 0.769199 0.266004
O O6 0.919357 0.588250 0.118980
O O7 0.910582 0.685792 0.005995
O O8 0.493259 0.396494 0.616785
O O9 0.635904 0.390266 0.818930
O O10 0.000000 0.500000 0.500000
O O11 0.408776 0.114002 0.686624
O O12 0.247807 0.228104 0.958907
O O13 0.878597 0.052075 0.938113
O O14 0.181687 0.885473 0.644813
O O15 0.416828 0.956912 0.285660
O O16 0.500000 0.500000 0.500000
O O17 0.386459 0.424313 0.198694
#
# Coordination Sequence:
#
# PCOD9100280 Si02
#       8
#     2   2   2   2   2   2   2   2
#     4  10  21  38  65  93 123 174 210 259 318 369
#     4  11  22  42  62  94 133 161 220 263 317 387
#     4  10  20  37  63  91 125 164 217 257 310 388
#     4  10  21  40  68  93 126 172 217 258 318 385
#     4  10  24  40  67  99 126 174 209 268 324 374
#     4  10  21  44  68  90 135 168 216 264 323 375
#     4  11  25  39  65  96 129 172 209 264 330 380
#     4  10  21  40  63  90 127 173 203 263 320 371
#
# _framework density 25.364747999999999
#
# number of rings (size 3 to 8) (size 9 to 14) (size 15 to 20)
#    0.000    1.750    1.250    3.375    1.750    3.500 
#    4.500    2.500    0.000    0.000    0.000    0.000 
#    0.000    0.000    0.000    0.000    0.000    0.000 
#
# Total GULP energy -89180.024039 kJ/mol
# GULP energy per Si atom -5573.751502 kJ/mol
# Density = 2.530702 g / cm^3
# Si number density = 25.364748 Si / 1000 Ang^3
#
#
#
# Elastic Constant Matrix: (Units=GPa)
#
#
# Indices 1 2 3 4 5 6 
#
# 1 41.7799 17.8924 26.7049 0.7047 -2.7724 -0.6132
# 2 17.8924 71.3454 15.2676 -11.5141 6.0400 0.0143
# 3 26.7049 15.2676 108.8121 -36.4225 2.3265 11.4483
# 4 0.7047 -11.5141 -36.4225 56.7369 3.3570 5.7156
# 5 -2.7724 6.0400 2.3265 3.3570 24.0291 6.2556
# 6 -0.6132 0.0143 11.4483 5.7156 6.2556 32.2595
#
#
#
# Elastic Compliance Matrix: (Units=1/GPa)
#
#
# Indices 1 2 3 4 5 6 
#
# 1 0.036256 -0.008943 -0.012067 -0.011015 0.007725 0.005429
# 2 -0.008943 0.017242 0.001659 0.005085 -0.006111 -0.000482
# 3 -0.012067 0.001659 0.016936 0.012332 -0.003137 -0.007817
# 4 -0.011015 0.005085 0.012332 0.027886 -0.005433 -0.008475
# 5 0.007725 -0.006111 -0.003137 -0.005433 0.046894 -0.006868
# 6 0.005429 -0.000482 -0.007817 -0.008475 -0.006868 0.036710
#
#
# Mechanical properties :
#
#
# Convention : Reuss Voigt Hill
#
# Bulk Modulus (GPa) = 31.51279 37.96302 34.73791
# Shear Modulus (GPa) = 21.62606 33.40991 27.51798
#
# Velocity S-wave (km/s) = 2.92310 3.63323 3.29734
# Velocity P-wave (km/s) = 4.88298 5.70963 5.31241
#
# Compressibility (1/GPa) = 0.03173315
#
# Stress axis : x y z
#
# Youngs Moduli (GPa) = 27.58187 57.99720 59.04533
#
# Poissons Ratio (x) = 0.51867 0.71248
# Poissons Ratio (y) = 0.24666 -0.09797
# Poissons Ratio (z) = 0.33282 -0.09623
#
# Static dielectric constant tensor:
#      x y z
#    x 2.091570 0.043900 0.068290 
#    y 0.043900 1.906300 -0.113240 
#    z 0.068290 -0.113240 2.518700 
# 
# From -- ./inp_files/222297.got.cif
#   From: 2010.05.17/outbox.cif.g08.bks.cpg/sg2_112_cif.got.tgz:222297.got - 2010.06.03 11:33:40.
