data_PCOD9100798
_publ_section_title
;
Structure prediction by ZEFSAII (Michael W. Deem and Ramdas Pophale) SiO2 
 PCOD9100798
Probable space group: P -1
;
_chemical_formula_sum "Si O2"
_cell_formula_units_Z 14
_cell_length_a 5.642193
_cell_length_b 8.549217
_cell_length_c 17.934021
_cell_angle_alpha 51.200081
_cell_angle_beta 65.619186
_cell_angle_gamma 86.193826
_cell_volume 591.103838
_symmetry_space_group_name_H-M "P -1"
_symmetry_group_IT_number 2
_symmetry_cell_setting 'triclinic'
loop_
_space_group_symop_operation_xyz
x,y,z
-x,-y,-z
loop_
_atom_site_type_symbol
_atom_site_label
_atom_site_fract_x
_atom_site_fract_y
_atom_site_fract_z
Si Si1 0.817955 0.558491 0.226841
Si Si2 0.332848 0.611371 0.545707
Si Si3 0.628820 0.928277 0.096741
Si Si4 0.597209 0.921458 0.320512
Si Si5 0.617204 0.334040 0.924183
Si Si6 0.129887 0.754313 0.312282
Si Si7 0.261105 0.603291 0.884757
O O1 0.649030 0.443767 0.353139
O O2 0.796686 0.796933 0.158956
O O3 0.743313 0.467582 0.180985
O O4 0.128188 0.557730 0.192009
O O5 0.500000 0.500000 0.500000
O O6 0.455218 0.854995 0.439313
O O7 0.022191 0.490790 0.602635
O O8 0.608451 0.832740 0.044617
O O9 0.329239 0.853729 0.190224
O O10 0.717841 0.177334 0.012332
O O11 0.340553 0.798177 0.339874
O O12 0.882151 0.861436 0.309068
O O13 0.672140 0.150047 0.207083
O O14 0.497099 0.514370 0.914667
O O15 0.000000 0.500000 0.000000
#
# Coordination Sequence:
#
# PCOD9100798 Si02
#       7
#     2   2   2   2   2   2   2
#     4  11  23  42  69 100 143 180 237 292 356 418
#     4  10  22  45  72 105 139 178 235 301 357 417
#     4  10  20  37  66 101 135 172 228 297 366 403
#     4  11  26  43  70 104 142 194 235 285 352 423
#     4  10  22  39  64  99 135 180 231 295 348 420
#     4  11  22  42  72 105 138 179 239 299 357 413
#     4  11  27  46  66  99 145 195 238 285 345 434
#
# _framework density 23.684498000000001
#
# number of rings (size 3 to 8) (size 9 to 14) (size 15 to 20)
#    0.000    1.429    1.429    3.429    4.000    2.286 
#    0.000    0.714    0.000    0.000    0.000    0.000 
#    0.000    0.000    0.000    0.000    0.000    0.000 
#
# Total GULP energy -78009.037008 kJ/mol
# GULP energy per Si atom -5572.074072 kJ/mol
# Density = 2.363059 g / cm^3
# Si number density = 23.684498 Si / 1000 Ang^3
#
#
#
# Elastic Constant Matrix: (Units=GPa)
#
#
# Indices 1 2 3 4 5 6 
#
# 1 117.7150 44.7098 46.0460 4.9166 -1.8884 -18.8051
# 2 44.7098 48.5422 53.7895 -3.5127 4.2590 -19.3047
# 3 46.0460 53.7895 213.6270 1.6908 -3.8911 -19.3980
# 4 4.9166 -3.5127 1.6908 41.8080 2.2998 10.6095
# 5 -1.8884 4.2590 -3.8911 2.2998 44.6921 8.6580
# 6 -18.8051 -19.3047 -19.3980 10.6095 8.6580 42.5414
#
#
#
# Elastic Compliance Matrix: (Units=1/GPa)
#
#
# Indices 1 2 3 4 5 6 
#
# 1 0.013560 -0.013211 0.000515 -0.002980 0.001916 0.000587
# 2 -0.013211 0.048154 -0.008256 0.003047 -0.008587 0.013235
# 3 0.000515 -0.008256 0.006633 -0.000963 0.001546 -0.000569
# 4 -0.002980 0.003047 -0.000963 0.026327 -0.000532 -0.006831
# 5 0.001916 -0.008587 0.001546 -0.000532 0.024845 -0.007268
# 6 0.000587 0.013235 -0.000569 -0.006831 -0.007268 0.032696
#
#
# Mechanical properties :
#
#
# Convention : Reuss Voigt Hill
#
# Bulk Modulus (GPa) = 37.81524 74.33053 56.07288
# Shear Modulus (GPa) = 24.63869 41.49757 33.06813
#
# Velocity S-wave (km/s) = 3.22885 4.19035 3.74062
# Velocity P-wave (km/s) = 5.46823 7.40701 6.51020
#
# Compressibility (1/GPa) = 0.02644437
#
# Stress axis : x y z
#
# Youngs Moduli (GPa) = 73.74513 20.76656 150.76313
#
# Poissons Ratio (x) = 0.27435 -0.07770
# Poissons Ratio (y) = 0.97424 1.24471
# Poissons Ratio (z) = -0.03801 0.17145
#
# Static dielectric constant tensor:
#      x y z
#    x 1.993690 0.038840 0.103910 
#    y 0.038840 2.005630 0.019450 
#    z 0.103910 0.019450 1.984180 
# 
# From -- ./inp_files/547716.got.cif
#   From: 2010.05.17/outbox.cif.g08.bks.cpg/sg2_274_cif.got.tgz:547716.got - 2010.06.03 11:33:40.
