data_PCOD9100218
_publ_section_title
;
Structure prediction by ZEFSAII (Michael W. Deem and Ramdas Pophale) SiO2 
 PCOD9100218
Probable space group: P -1
;
_chemical_formula_sum "Si O2"
_cell_formula_units_Z 12
_cell_length_a 16.320855
_cell_length_b 8.441941
_cell_length_c 14.594261
_cell_angle_alpha 67.219145
_cell_angle_beta 22.157906
_cell_angle_gamma 55.293769
_cell_volume 556.171648
_symmetry_space_group_name_H-M "P -1"
_symmetry_group_IT_number 2
_symmetry_cell_setting 'triclinic'
loop_
_space_group_symop_operation_xyz
x,y,z
-x,-y,-z
loop_
_atom_site_type_symbol
_atom_site_label
_atom_site_fract_x
_atom_site_fract_y
_atom_site_fract_z
Si Si1 0.760664 0.923908 0.686042
Si Si2 0.311946 0.056860 0.449228
Si Si3 0.137638 0.385519 0.058686
Si Si4 0.398928 0.216991 0.505559
Si Si5 0.810929 0.312134 0.556675
Si Si6 0.729076 0.324233 0.047594
O O1 0.031286 0.733708 0.501473
O O2 0.715894 0.871266 0.642985
O O3 0.782662 0.120980 0.612906
O O4 0.500000 0.000000 0.000000
O O5 0.351148 0.182190 0.457253
O O6 0.583131 0.812661 0.230283
O O7 0.017932 0.112392 0.762250
O O8 0.220226 0.507279 0.008350
O O9 0.891414 0.570806 0.208505
O O10 0.999594 0.304675 0.283105
O O11 0.500000 0.000000 0.500000
O O12 0.617856 0.263129 0.260199
O O13 0.511894 0.539318 0.807468
#
# Coordination Sequence:
#
# PCOD9100218 Si02
#       6
#     2   2   2   2   2   2
#     4  11  21  36  64  93 128 163 208 248 299 364
#     4  11  23  38  66  93 122 166 206 252 306 363
#     4  10  21  42  64  90 128 161 203 258 304 362
#     4  10  25  44  64  92 123 159 207 259 313 369
#     4  10  20  37  63  88 128 169 198 253 299 358
#     4  10  22  41  63  90 126 162 204 257 302 364
#
# _framework density 21.576073000000001
#
# number of rings (size 3 to 8) (size 9 to 14) (size 15 to 20)
#    0.000    1.667    3.333    0.000    2.333    4.000 
#    0.000   13.333    0.000    0.000    0.000    0.000 
#    0.000    0.000    0.000    0.000    0.000    0.000 
#
# Total GULP energy -66974.833988 kJ/mol
# GULP energy per Si atom -5581.236166 kJ/mol
# Density = 2.152696 g / cm^3
# Si number density = 21.576073 Si / 1000 Ang^3
#
#
#
# Elastic Constant Matrix: (Units=GPa)
#
#
# Indices 1 2 3 4 5 6 
#
# 1 35.0347 12.3710 19.7248 -16.5796 0.4682 15.2995
# 2 12.3710 111.5815 66.1942 -2.4401 -19.8002 -15.9417
# 3 19.7248 66.1942 160.6394 25.4964 -29.2129 -8.6958
# 4 -16.5796 -2.4401 25.4964 44.5222 1.8185 -3.3051
# 5 0.4682 -19.8002 -29.2129 1.8185 22.5823 7.9818
# 6 15.2995 -15.9417 -8.6958 -3.3051 7.9818 17.6053
#
#
#
# Elastic Compliance Matrix: (Units=1/GPa)
#
#
# Indices 1 2 3 4 5 6 
#
# 1 0.131522 -0.018220 -0.026281 0.053978 -0.011683 -0.128346
# 2 -0.018220 0.016757 -0.002325 -0.002521 0.002238 0.028371
# 3 -0.026281 -0.002325 0.017349 -0.019129 0.015959 0.018476
# 4 0.053978 -0.002521 -0.019129 0.051054 -0.017681 -0.041039
# 5 -0.011683 0.002238 0.015959 -0.017681 0.074591 -0.017075
# 6 -0.128346 0.028371 0.018476 -0.041039 -0.017075 0.203191
#
#
# Mechanical properties :
#
#
# Convention : Reuss Voigt Hill
#
# Bulk Modulus (GPa) = 13.89377 55.98172 34.93774
# Shear Modulus (GPa) = 8.16852 30.87301 19.52076
#
# Velocity S-wave (km/s) = 1.94785 3.78682 3.01115
# Velocity P-wave (km/s) = 3.39297 6.71733 5.32141
#
# Compressibility (1/GPa) = 0.07197470
#
# Stress axis : x y z
#
# Youngs Moduli (GPa) = 7.60331 59.67764 57.64120
#
# Poissons Ratio (x) = 1.08735 1.51486
# Poissons Ratio (y) = 0.13854 0.13400
# Poissons Ratio (z) = 0.19982 0.13874
#
# Static dielectric constant tensor:
#      x y z
#    x 1.798740 -0.013480 -0.018950 
#    y -0.013480 1.806620 0.028680 
#    z -0.018950 0.028680 1.828510 
# 
# From -- ./inp_files/29312.got.cif
#   From: 2010.05.17/outbox.cif.g08.bks.cpg/sg2_15_cif.got.tgz:29312.got - 2010.06.03 11:33:40.
