data_PCOD9100737
_publ_section_title
;
Structure prediction by ZEFSAII (Michael W. Deem and Ramdas Pophale) SiO2 
 PCOD9100737
Probable space group: P -1
;
_chemical_formula_sum "Si O2"
_cell_formula_units_Z 14
_cell_length_a 14.660737
_cell_length_b 22.155043
_cell_length_c 5.352129
_cell_angle_alpha 100.504184
_cell_angle_beta 80.656953
_cell_angle_gamma 160.964263
_cell_volume 557.226931
_symmetry_space_group_name_H-M "P -1"
_symmetry_group_IT_number 2
_symmetry_cell_setting 'triclinic'
loop_
_space_group_symop_operation_xyz
x,y,z
-x,-y,-z
loop_
_atom_site_type_symbol
_atom_site_label
_atom_site_fract_x
_atom_site_fract_y
_atom_site_fract_z
Si Si1 0.333844 0.725347 0.049051
Si Si2 0.090090 0.745128 0.406450
Si Si3 0.223925 0.242512 0.402105
Si Si4 0.601625 0.154184 0.382132
Si Si5 0.701415 0.591517 0.755936
Si Si6 0.666760 0.466913 0.036367
Si Si7 0.253865 0.121816 0.840830
O O1 0.393169 0.800041 0.336651
O O2 0.550848 0.803557 0.034413
O O3 0.405299 0.810533 0.837325
O O4 0.000000 0.500000 0.000000
O O5 0.136493 0.726724 0.596150
O O6 0.890076 0.672408 0.541025
O O7 0.947692 0.618844 0.149099
O O8 0.355109 0.949221 0.347665
O O9 0.381806 0.379238 0.649269
O O10 0.198920 0.276790 0.214991
O O11 0.446563 0.334049 0.261963
O O12 0.921045 0.023335 0.405141
O O13 0.736369 0.577671 0.985785
O O14 0.488670 0.317868 0.801080
O O15 0.000000 0.000000 0.000000
#
# Coordination Sequence:
#
# PCOD9100737 Si02
#       7
#     2   2   2   2   2   2   2
#     4  12  27  50  75 106 148 195 243 297 364 434
#     4  10  24  40  68  99 137 181 241 302 362 423
#     4   9  20  39  57  96 134 177 242 286 366 427
#     4  11  27  46  73 106 141 191 248 297 358 437
#     4  10  20  37  65  93 135 180 234 301 361 425
#     4  10  21  38  64  95 135 183 230 302 361 429
#     4  10  23  45  67 104 143 188 244 295 368 428
#
# _framework density 25.124413000000001
#
# number of rings (size 3 to 8) (size 9 to 14) (size 15 to 20)
#    0.000    1.714    0.000    2.571    8.000    1.714 
#   15.429    0.000    0.000    0.000    0.000    0.000 
#    0.000    0.000    0.000    0.000    0.000    0.000 
#
# Total GULP energy -78120.466096 kJ/mol
# GULP energy per Si atom -5580.033293 kJ/mol
# Density = 2.506723 g / cm^3
# Si number density = 25.124413 Si / 1000 Ang^3
#
#
#
# Elastic Constant Matrix: (Units=GPa)
#
#
# Indices 1 2 3 4 5 6 
#
# 1 129.6181 27.5023 26.1523 -7.7073 18.3401 3.4525
# 2 27.5023 108.2713 19.1216 20.3477 1.1802 1.9143
# 3 26.1523 19.1216 91.7687 -13.3461 15.3904 -0.8804
# 4 -7.7073 20.3477 -13.3461 28.3172 -10.6488 5.2724
# 5 18.3401 1.1802 15.3904 -10.6488 29.2632 3.1244
# 6 3.4525 1.9143 -0.8804 5.2724 3.1244 32.2071
#
#
#
# Elastic Compliance Matrix: (Units=1/GPa)
#
#
# Indices 1 2 3 4 5 6 
#
# 1 0.009225 -0.002559 -0.001053 0.002459 -0.004137 -0.000867
# 2 -0.002559 0.012845 -0.003447 -0.012552 -0.001845 0.001650
# 3 -0.001053 -0.003447 0.013586 0.007227 -0.003702 -0.000135
# 4 0.002459 -0.012552 0.007227 0.056660 0.016875 -0.010233
# 5 -0.004137 -0.001845 -0.003702 0.016875 0.045648 -0.006739
# 6 -0.000867 0.001650 -0.000135 -0.010233 -0.006739 0.033369
#
#
# Mechanical properties :
#
#
# Convention : Reuss Voigt Hill
#
# Bulk Modulus (GPa) = 46.43025 52.80117 49.61571
# Shear Modulus (GPa) = 25.95646 35.08296 30.51971
#
# Velocity S-wave (km/s) = 3.21770 3.74086 3.48910
# Velocity P-wave (km/s) = 5.68551 6.30239 6.00188
#
# Compressibility (1/GPa) = 0.02153768
#
# Stress axis : x y z
#
# Youngs Moduli (GPa) = 108.40042 77.85212 73.60603
#
# Poissons Ratio (x) = 0.19923 0.07747
# Poissons Ratio (y) = 0.27741 0.25375
# Poissons Ratio (z) = 0.11409 0.26839
#
# Static dielectric constant tensor:
#      x y z
#    x 2.069680 0.019900 -0.039070 
#    y 0.019900 2.022600 0.060200 
#    z -0.039070 0.060200 2.024290 
# 
# From -- ./inp_files/67727.got.cif
#   From: 2010.05.17/outbox.cif.g08.bks.cpg/sg2_34_cif.got.tgz:67727.got - 2010.06.03 11:33:40.
