data_PCOD9100620
_publ_section_title
;
Structure prediction by ZEFSAII (Michael W. Deem and Ramdas Pophale) SiO2 
 PCOD9100620
Probable space group: P -1
;
_chemical_formula_sum "Si O2"
_cell_formula_units_Z 16
_cell_length_a 26.018698
_cell_length_b 15.185491
_cell_length_c 8.517306
_cell_angle_alpha 53.580293
_cell_angle_beta 138.128140
_cell_angle_gamma 159.908973
_cell_volume 684.832900
_symmetry_space_group_name_H-M "P -1"
_symmetry_group_IT_number 2
_symmetry_cell_setting 'triclinic'
loop_
_space_group_symop_operation_xyz
x,y,z
-x,-y,-z
loop_
_atom_site_type_symbol
_atom_site_label
_atom_site_fract_x
_atom_site_fract_y
_atom_site_fract_z
Si Si1 0.710974 0.279412 0.011330
Si Si2 0.093177 0.510724 0.438480
Si Si3 0.143376 0.824465 0.245475
Si Si4 0.619682 0.359777 0.517815
Si Si5 0.316270 0.307785 0.679658
Si Si6 0.382083 0.061004 0.987153
Si Si7 0.599679 0.723945 0.382911
Si Si8 0.992200 0.779134 0.704759
O O1 0.779387 0.366285 0.254459
O O2 0.917035 0.535834 0.107142
O O3 0.589460 0.010470 0.974059
O O4 0.612975 0.261478 0.743745
O O5 0.167107 0.731738 0.340635
O O6 0.100578 0.436502 0.390830
O O7 0.854717 0.212899 0.259752
O O8 0.285235 0.047330 0.474159
O O9 0.154262 0.926553 0.024046
O O10 0.632942 0.501747 0.453062
O O11 0.821750 0.602988 0.616398
O O12 0.442687 0.116710 0.244135
O O13 0.283396 0.192948 0.570255
O O14 0.112846 0.026545 0.616715
O O15 0.500000 0.500000 0.000000
O O16 0.511190 0.331437 0.921178
O O17 0.500000 0.500000 0.500000
#
# Coordination Sequence:
#
# PCOD9100620 Si02
#       8
#     2   2   2   2   2   2   2   2
#     4  10  20  40  67  96 131 172 217 277 330 375
#     4  11  19  41  72  95 128 173 224 270 317 391
#     4  10  20  37  65 100 124 170 222 268 317 388
#     4  11  25  41  63  99 139 174 212 269 335 391
#     4  12  23  45  66  93 130 182 225 265 319 397
#     4  11  20  42  69  94 130 175 222 268 323 387
#     4  12  23  40  68 100 125 164 228 275 314 381
#     4  11  23  40  64  99 136 172 214 271 332 386
#
# _framework density 23.363363
#
# number of rings (size 3 to 8) (size 9 to 14) (size 15 to 20)
#    0.000    1.000    5.000    2.625    0.000    0.000 
#    2.250    5.000    0.000    0.000    0.000    0.000 
#    0.000    0.000    0.000    0.000    0.000    0.000 
#
# Total GULP energy -89518.937617 kJ/mol
# GULP energy per Si atom -5594.933601 kJ/mol
# Density = 2.331019 g / cm^3
# Si number density = 23.363363 Si / 1000 Ang^3
#
#
#
# Elastic Constant Matrix: (Units=GPa)
#
#
# Indices 1 2 3 4 5 6 
#
# 1 72.9487 17.3631 25.0702 2.7743 6.9997 -14.7754
# 2 17.3631 57.5992 22.6694 -15.8474 21.3575 -5.6404
# 3 25.0702 22.6694 125.1525 -24.8087 -5.9537 -12.0993
# 4 2.7743 -15.8474 -24.8087 39.3692 -5.4525 0.8928
# 5 6.9997 21.3575 -5.9537 -5.4525 33.4469 -4.1603
# 6 -14.7754 -5.6404 -12.0993 0.8928 -4.1603 47.4603
#
#
#
# Elastic Compliance Matrix: (Units=1/GPa)
#
#
# Indices 1 2 3 4 5 6 
#
# 1 0.017064 -0.004188 -0.003450 -0.005415 -0.001913 0.003869
# 2 -0.004188 0.028144 -0.003716 0.006983 -0.016680 -0.000500
# 3 -0.003450 -0.003716 0.011138 0.006608 0.006374 0.001758
# 4 -0.005415 0.006983 0.006608 0.033207 0.003326 0.000496
# 5 -0.001913 -0.016680 0.006374 0.003326 0.042968 0.002751
# 6 0.003869 -0.000500 0.001758 0.000496 0.002751 0.022895
#
#
# Mechanical properties :
#
#
# Convention : Reuss Voigt Hill
#
# Bulk Modulus (GPa) = 29.72936 42.87842 36.30389
# Shear Modulus (GPa) = 26.40805 36.76178 31.58492
#
# Velocity S-wave (km/s) = 3.36567 3.97101 3.68081
# Velocity P-wave (km/s) = 5.27788 6.27837 5.79974
#
# Compressibility (1/GPa) = 0.03363678
#
# Stress axis : x y z
#
# Youngs Moduli (GPa) = 58.60356 35.53200 89.78555
#
# Poissons Ratio (x) = 0.14880 0.30975
# Poissons Ratio (y) = 0.24542 0.33369
# Poissons Ratio (z) = 0.20218 0.13205
#
# Static dielectric constant tensor:
#      x y z
#    x 1.856100 0.033260 0.017360 
#    y 0.033260 1.914260 0.010850 
#    z 0.017360 0.010850 1.885950 
# 
# From -- ./inp_files/227376.got.cif
#   From: 2010.05.17/outbox.cif.g08.bks.cpg/sg2_114_cif.got.tgz:227376.got - 2010.06.03 11:33:40.
