data_PCOD9100432
_publ_section_title
;
Structure prediction by ZEFSAII (Michael W. Deem and Ramdas Pophale) SiO2 
 PCOD9100432
Probable space group: P -1
;
_chemical_formula_sum "Si O2"
_cell_formula_units_Z 14
_cell_length_a 14.923964
_cell_length_b 7.104750
_cell_length_c 5.760335
_cell_angle_alpha 110.647786
_cell_angle_beta 82.499658
_cell_angle_gamma 81.769796
_cell_volume 554.746064
_symmetry_space_group_name_H-M "P -1"
_symmetry_group_IT_number 2
_symmetry_cell_setting 'triclinic'
loop_
_space_group_symop_operation_xyz
x,y,z
-x,-y,-z
loop_
_atom_site_type_symbol
_atom_site_label
_atom_site_fract_x
_atom_site_fract_y
_atom_site_fract_z
Si Si1 0.865760 0.427201 0.181707
Si Si2 0.407243 0.671964 0.614873
Si Si3 0.351848 0.088476 0.940849
Si Si4 0.220183 0.168271 0.398886
Si Si5 0.830920 0.025898 0.269887
Si Si6 0.388975 0.536316 0.059408
Si Si7 0.926063 0.635094 0.850337
O O1 0.788612 0.628838 0.352730
O O2 0.844031 0.224933 0.215800
O O3 0.966207 0.437501 0.261871
O O4 0.886188 0.455857 0.914956
O O5 0.500000 0.500000 0.500000
O O6 0.360746 0.646999 0.367694
O O7 0.429458 0.897936 0.748492
O O8 0.357467 0.638294 0.863492
O O9 0.262916 0.033967 0.818813
O O10 0.320546 0.097442 0.224028
O O11 0.366027 0.311923 0.975669
O O12 0.144018 0.263244 0.276684
O O13 0.185591 0.982029 0.453712
O O14 0.915279 0.833314 0.112619
O O15 0.500000 0.500000 0.000000
#
# Coordination Sequence:
#
# PCOD9100432 Si02
#       7
#     2   2   2   2   2   2   2
#     4  10  20  37  64  87 134 176 230 277 347 401
#     4  10  25  45  72 103 133 180 227 281 353 416
#     4  11  26  41  68  96 141 172 228 286 344 420
#     4  10  23  38  59  94 132 176 226 279 346 404
#     4  10  23  38  60  94 131 178 226 281 343 411
#     4  10  25  46  73 103 135 179 229 283 352 417
#     4   9  20  39  58  92 127 180 224 290 327 406
#
# _framework density 25.236771000000001
#
# number of rings (size 3 to 8) (size 9 to 14) (size 15 to 20)
#    0.000    2.000    0.000    0.857    6.000    9.714 
#    0.000    0.000    0.000    0.000    0.000    0.000 
#    0.000    0.000    0.000    0.000    0.000    0.000 
#
# Total GULP energy -78138.285964 kJ/mol
# GULP energy per Si atom -5581.306140 kJ/mol
# Density = 2.517933 g / cm^3
# Si number density = 25.236771 Si / 1000 Ang^3
#
#
#
# Elastic Constant Matrix: (Units=GPa)
#
#
# Indices 1 2 3 4 5 6 
#
# 1 59.6780 37.6525 33.5034 -5.1233 -2.7763 3.8745
# 2 37.6525 193.4187 71.7837 -21.5515 -6.2449 30.2863
# 3 33.5034 71.7837 117.9771 -12.4256 -4.4309 13.1401
# 4 -5.1233 -21.5515 -12.4256 57.1566 -14.6744 -9.9213
# 5 -2.7763 -6.2449 -4.4309 -14.6744 26.9186 2.6364
# 6 3.8745 30.2863 13.1401 -9.9213 2.6364 49.1579
#
#
#
# Elastic Compliance Matrix: (Units=1/GPa)
#
#
# Indices 1 2 3 4 5 6 
#
# 1 0.020837 -0.002510 -0.004438 0.000392 0.000940 0.001119
# 2 -0.002510 0.007717 -0.003303 0.001995 0.002408 -0.003400
# 3 -0.004438 -0.003303 0.012005 0.001235 0.001490 -0.000655
# 4 0.000392 0.001995 0.001235 0.022163 0.012572 0.002209
# 5 0.000940 0.002408 0.001490 0.012572 0.045083 -0.001836
# 6 0.001119 -0.003400 -0.000655 0.002209 -0.001836 0.023069
#
#
# Mechanical properties :
#
#
# Convention : Reuss Voigt Hill
#
# Bulk Modulus (GPa) = 49.86046 72.99477 61.42761
# Shear Modulus (GPa) = 31.63300 41.85557 36.74429
#
# Velocity S-wave (km/s) = 3.54425 4.07691 3.81987
# Velocity P-wave (km/s) = 6.04557 7.15180 6.62183
#
# Compressibility (1/GPa) = 0.02005597
#
# Stress axis : x y z
#
# Youngs Moduli (GPa) = 47.99237 129.57908 83.29562
#
# Poissons Ratio (x) = 0.32530 0.36965
# Poissons Ratio (y) = 0.12048 0.27516
# Poissons Ratio (z) = 0.21298 0.42806
#
# Static dielectric constant tensor:
#      x y z
#    x 1.965920 -0.013310 0.024790 
#    y -0.013310 1.996180 -0.026710 
#    z 0.024790 -0.026710 2.256900 
# 
# From -- ./inp_files/7733.got.cif
#   From: 2010.05.17/outbox.cif.g08.bks.cpg/sg2_4_cif.got.tgz:7733.got - 2010.06.03 11:33:40.
