data_PCOD9100377
_publ_section_title
;
Structure prediction by ZEFSAII (Michael W. Deem and Ramdas Pophale) SiO2 
 PCOD9100377
Probable space group: P -1
;
_chemical_formula_sum "Si O2"
_cell_formula_units_Z 12
_cell_length_a 8.103303
_cell_length_b 9.528918
_cell_length_c 13.224803
_cell_angle_alpha 145.451955
_cell_angle_beta 76.493865
_cell_angle_gamma 124.059327
_cell_volume 419.625848
_symmetry_space_group_name_H-M "P -1"
_symmetry_group_IT_number 2
_symmetry_cell_setting 'triclinic'
loop_
_space_group_symop_operation_xyz
x,y,z
-x,-y,-z
loop_
_atom_site_type_symbol
_atom_site_label
_atom_site_fract_x
_atom_site_fract_y
_atom_site_fract_z
Si Si1 0.662849 0.135951 0.923597
Si Si2 0.976369 0.198201 0.473375
Si Si3 0.027123 0.293565 0.120655
Si Si4 0.636090 0.610453 0.317498
Si Si5 0.429279 0.703493 0.160592
Si Si6 0.679442 0.411091 0.498836
O O1 0.434904 0.727716 0.916281
O O2 0.483179 0.767766 0.684077
O O3 0.734119 0.343283 0.932795
O O4 0.853330 0.190611 0.994191
O O5 0.158685 0.229291 0.537507
O O6 0.079505 0.262865 0.384316
O O7 0.009064 0.519921 0.684630
O O8 0.743546 0.870037 0.362645
O O9 0.277948 0.564554 0.198616
O O10 0.000000 0.000000 0.000000
O O11 0.439140 0.556149 0.374772
O O12 0.648158 0.095995 0.353606
O O13 0.500000 0.500000 0.000000
#
# Coordination Sequence:
#
# PCOD9100377 Si02
#       6
#     2   2   2   2   2   2
#     4   9  23  41  71 100 129 180 231 268 339 410
#     4  10  20  37  63  96 133 176 217 276 338 391
#     4  11  21  38  66  99 135 178 221 279 337 396
#     4  10  20  39  64  99 137 171 220 284 333 398
#     4  10  21  41  65  97 136 172 223 281 329 398
#     4  10  21  40  67  98 135 174 224 276 338 395
#
# _framework density 28.596903999999999
#
# number of rings (size 3 to 8) (size 9 to 14) (size 15 to 20)
#    1.000    1.000    1.667    2.000    0.000    2.667 
#    0.000    4.167    0.000   10.000    0.000    0.000 
#    0.000    0.000    0.000    0.000    0.000    0.000 
#
# Total GULP energy -67307.362530 kJ/mol
# GULP energy per Si atom -5608.946877 kJ/mol
# Density = 2.853182 g / cm^3
# Si number density = 28.596904 Si / 1000 Ang^3
#
#
#
# Elastic Constant Matrix: (Units=GPa)
#
#
# Indices 1 2 3 4 5 6 
#
# 1 146.2882 91.9466 67.5513 2.0981 -6.7446 0.7076
# 2 91.9466 275.3205 79.3251 23.7718 -24.1113 25.5509
# 3 67.5513 79.3251 129.0343 -0.9657 -22.2785 14.3824
# 4 2.0981 23.7718 -0.9657 52.4488 -8.7111 -14.3360
# 5 -6.7446 -24.1113 -22.2785 -8.7111 64.8982 -2.2493
# 6 0.7076 25.5509 14.3824 -14.3360 -2.2493 67.7509
#
#
#
# Elastic Compliance Matrix: (Units=1/GPa)
#
#
# Indices 1 2 3 4 5 6 
#
# 1 0.010348 -0.002611 -0.004218 0.001037 -0.001136 0.001954
# 2 -0.002611 0.005513 -0.001662 -0.002930 0.000734 -0.002295
# 3 -0.004218 -0.001662 0.011680 0.001253 0.003072 -0.001442
# 4 0.001037 -0.002930 0.001253 0.022359 0.002646 0.005647
# 5 -0.001136 0.000734 0.003072 0.002646 0.016980 0.000207
# 6 0.001954 -0.002295 -0.001442 0.005647 0.000207 0.017113
#
#
# Mechanical properties :
#
#
# Convention : Reuss Voigt Hill
#
# Bulk Modulus (GPa) = 94.70359 114.25432 104.47896
# Shear Modulus (GPa) = 47.84886 57.80757 52.82822
#
# Velocity S-wave (km/s) = 4.09494 4.50095 4.30273
# Velocity P-wave (km/s) = 7.45296 8.18850 7.82937
#
# Compressibility (1/GPa) = 0.01055926
#
# Stress axis : x y z
#
# Youngs Moduli (GPa) = 96.63683 181.38695 85.61292
#
# Poissons Ratio (x) = 0.47356 0.36115
# Poissons Ratio (y) = 0.25229 0.14228
# Poissons Ratio (z) = 0.40766 0.30146
#
# Static dielectric constant tensor:
#      x y z
#    x 2.399410 -0.043490 0.073530 
#    y -0.043490 2.190350 -0.001180 
#    z 0.073530 -0.001180 2.190460 
# 
# From -- ./inp_files/494075.got.cif
#   From: 2010.05.17/outbox.cif.g08.bks.cpg/sg2_248_cif.got.tgz:494075.got - 2010.06.03 11:33:40.
