data_PCOD9100283
_publ_section_title
;
Structure prediction by ZEFSAII (Michael W. Deem and Ramdas Pophale) SiO2 
 PCOD9100283
Probable space group: P -1
;
_chemical_formula_sum "Si O2"
_cell_formula_units_Z 15
_cell_length_a 7.811906
_cell_length_b 20.562679
_cell_length_c 6.057602
_cell_angle_alpha 66.995437
_cell_angle_beta 139.667018
_cell_angle_gamma 117.400525
_cell_volume 557.778208
_symmetry_space_group_name_H-M "P -1"
_symmetry_group_IT_number 2
_symmetry_cell_setting 'triclinic'
loop_
_space_group_symop_operation_xyz
x,y,z
-x,-y,-z
loop_
_atom_site_type_symbol
_atom_site_label
_atom_site_fract_x
_atom_site_fract_y
_atom_site_fract_z
Si Si1 0.249026 0.444773 0.447428
Si Si2 0.104936 0.311939 0.198161
Si Si3 0.304067 0.953511 0.680770
Si Si4 0.315290 0.217066 0.860264
Si Si5 0.000000 0.500000 0.500000
Si Si6 0.461526 0.644636 0.810128
Si Si7 0.308303 0.084493 0.268333
Si Si8 0.308991 0.822769 0.100367
O O1 0.500000 0.500000 0.500000
O O2 0.073087 0.383198 0.195005
O O3 0.087109 0.493969 0.343054
O O4 0.387533 0.406208 0.828454
O O5 0.377231 0.336689 0.286377
O O6 0.127914 0.259219 0.494460
O O7 0.880124 0.255763 0.905605
O O8 0.499941 0.935225 0.707637
O O9 0.153378 0.009421 0.343987
O O10 0.155162 0.879729 0.764588
O O11 0.500000 0.000000 0.000000
O O12 0.499228 0.280015 0.117082
O O13 0.164768 0.142935 0.943929
O O14 0.500235 0.195134 0.881273
O O15 0.836453 0.409603 0.449932
O O16 0.508770 0.133839 0.581416
#
# Coordination Sequence:
#
# PCOD9100283 Si02
#       8
#     2   2   2   2   1   2   2   2
#     4  11  25  47  65  98 131 168 221 280 328 405
#     4  11  24  42  63  92 135 166 219 276 325 399
#     4   8  16  32  59  93 127 167 214 267 319 392
#     4  10  22  40  60  91 127 171 214 269 330 390
#     4  12  24  44  72  92 126 174 214 272 348 386
#     4  11  25  43  64  93 127 169 219 272 334 402
#     4   9  17  34  62  92 125 168 222 262 323 394
#     4  10  20  37  63  91 126 173 215 268 336 384
#
# _framework density 26.892408
#
# number of rings (size 3 to 8) (size 9 to 14) (size 15 to 20)
#    0.000    1.867    1.333    2.000    0.000    6.933 
#    0.000    0.667    0.000   32.800    0.000    0.000 
#    0.000    0.000    0.000    0.000    0.000    0.000 
#
# Total GULP energy -83759.559704 kJ/mol
# GULP energy per Si atom -5583.970647 kJ/mol
# Density = 2.683120 g / cm^3
# Si number density = 26.892408 Si / 1000 Ang^3
#
#
#
# Elastic Constant Matrix: (Units=GPa)
#
#
# Indices 1 2 3 4 5 6 
#
# 1 88.6313 42.9150 14.7597 23.2035 -24.3170 -9.3316
# 2 42.9150 200.2183 45.0977 3.1610 -16.9013 -7.7167
# 3 14.7597 45.0977 110.7025 -22.6895 -21.3476 -16.5200
# 4 23.2035 3.1610 -22.6895 58.6907 -8.1999 -19.4189
# 5 -24.3170 -16.9013 -21.3476 -8.1999 31.7567 13.7983
# 6 -9.3316 -7.7167 -16.5200 -19.4189 13.7983 50.4744
#
#
#
# Elastic Compliance Matrix: (Units=1/GPa)
#
#
# Indices 1 2 3 4 5 6 
#
# 1 0.016950 -0.002539 -0.000927 -0.006407 0.010622 -0.002927
# 2 -0.002539 0.006028 -0.002285 -0.000358 -0.000201 -0.000379
# 3 -0.000927 -0.002285 0.014153 0.008812 0.007494 0.005453
# 4 -0.006407 -0.000358 0.008812 0.027141 0.002932 0.011286
# 5 0.010622 -0.000201 0.007494 0.002932 0.048699 -0.007799
# 6 -0.002927 -0.000379 0.005453 0.011286 -0.007799 0.027472
#
#
# Mechanical properties :
#
#
# Convention : Reuss Voigt Hill
#
# Bulk Modulus (GPa) = 39.02173 67.23297 53.12735
# Shear Modulus (GPa) = 31.15475 47.96969 39.56222
#
# Velocity S-wave (km/s) = 3.40736 4.22804 3.83969
# Velocity P-wave (km/s) = 5.47923 6.99215 6.28141
#
# Compressibility (1/GPa) = 0.02562675
#
# Stress axis : x y z
#
# Youngs Moduli (GPa) = 58.99685 165.89997 70.65714
#
# Poissons Ratio (x) = 0.42127 0.06551
# Poissons Ratio (y) = 0.14981 0.16149
# Poissons Ratio (z) = 0.05470 0.37916
#
# Static dielectric constant tensor:
#      x y z
#    x 2.019540 -0.005870 0.054260 
#    y -0.005870 2.118510 -0.050360 
#    z 0.054260 -0.050360 2.259220 
# 
# From -- ./inp_files/10536.got.cif
#   From: 2010.05.17/outbox.cif.g08.bks.cpg/sg2_6_cif.got.tgz:10536.got - 2010.06.03 11:33:40.
