data_PCOD9100134
_publ_section_title
;
Structure prediction by ZEFSAII (Michael W. Deem and Ramdas Pophale) SiO2 
 PCOD9100134
Probable space group: P -1
;
_chemical_formula_sum "Si O2"
_cell_formula_units_Z 14
_cell_length_a 9.121177
_cell_length_b 8.761475
_cell_length_c 12.107745
_cell_angle_alpha 44.705953
_cell_angle_beta 53.824159
_cell_angle_gamma 74.949295
_cell_volume 527.225179
_symmetry_space_group_name_H-M "P -1"
_symmetry_group_IT_number 2
_symmetry_cell_setting 'triclinic'
loop_
_space_group_symop_operation_xyz
x,y,z
-x,-y,-z
loop_
_atom_site_type_symbol
_atom_site_label
_atom_site_fract_x
_atom_site_fract_y
_atom_site_fract_z
Si Si1 0.488745 0.123778 0.281680
Si Si2 0.445414 0.776727 0.061456
Si Si3 0.724237 0.842761 0.275265
Si Si4 0.892157 0.773740 0.601628
Si Si5 0.256030 0.321754 0.888810
Si Si6 0.877680 0.359903 0.977351
Si Si7 0.942569 0.202690 0.710673
O O1 0.300345 0.173478 0.380794
O O2 0.680949 0.277253 0.173508
O O3 0.530903 0.879093 0.392889
O O4 0.498904 0.178226 0.115307
O O5 0.559804 0.621461 0.146317
O O6 0.220564 0.701296 0.216249
O O7 0.500000 0.000000 0.000000
O O8 0.683336 0.713920 0.244835
O O9 0.858316 0.741115 0.342819
O O10 0.850564 0.109152 0.061100
O O11 0.021640 0.737610 0.463051
O O12 0.855123 0.565669 0.808574
O O13 0.000000 0.000000 0.500000
O O14 0.086073 0.435946 0.896605
O O15 0.138503 0.069925 0.112272
#
# Coordination Sequence:
#
# PCOD9100134 Si02
#       7
#     2   2   2   2   2   2   2
#     4  10  20  38  63  83 119 158 200 228 290 359
#     4  10  16  31  61  90 113 150 195 232 288 350
#     4   9  18  36  64  86 113 153 201 234 284 351
#     4  12  25  38  58  88 125 153 192 251 302 334
#     4  10  17  36  64  92 113 154 199 243 283 354
#     4   9  20  39  61  82 118 161 197 234 287 361
#     4  10  19  34  58  89 113 150 196 244 290 339
#
# _framework density 26.554119
#
# number of rings (size 3 to 8) (size 9 to 14) (size 15 to 20)
#    0.857    1.143    2.857    4.714    0.000    0.571 
#    0.000   13.571    3.143    0.000    0.000    0.000 
#    0.000    0.000    0.000    0.000    0.000    0.000 
#
# Total GULP energy -78217.421671 kJ/mol
# GULP energy per Si atom -5586.958691 kJ/mol
# Density = 2.649368 g / cm^3
# Si number density = 26.554119 Si / 1000 Ang^3
#
#
#
# Elastic Constant Matrix: (Units=GPa)
#
#
# Indices 1 2 3 4 5 6 
#
# 1 164.6954 33.2387 -12.9902 5.6115 4.9984 -38.5250
# 2 33.2387 107.4433 5.2444 8.9056 -3.1277 -22.6501
# 3 -12.9902 5.2444 26.3009 3.3183 -5.2008 4.4315
# 4 5.6115 8.9056 3.3183 33.4892 -5.0109 -7.4163
# 5 4.9984 -3.1277 -5.2008 -5.0109 26.7271 2.2400
# 6 -38.5250 -22.6501 4.4315 -7.4163 2.2400 58.6250
#
#
#
# Elastic Compliance Matrix: (Units=1/GPa)
#
#
# Indices 1 2 3 4 5 6 
#
# 1 0.007695 -0.001662 0.003201 -0.000458 -0.001446 0.004170
# 2 -0.001662 0.010771 -0.003221 -0.001519 0.000399 0.003105
# 3 0.003201 -0.003221 0.042574 -0.003546 0.006901 -0.003071
# 4 -0.000458 -0.001519 -0.003546 0.032158 0.004974 0.003259
# 5 -0.001446 0.000399 0.006901 0.004974 0.040194 -0.002224
# 6 0.004170 0.003105 -0.003071 0.003259 -0.002224 0.021727
#
#
# Mechanical properties :
#
#
# Convention : Reuss Voigt Hill
#
# Bulk Modulus (GPa) = 17.33824 38.82506 28.08165
# Shear Modulus (GPa) = 28.13609 41.96472 35.05040
#
# Velocity S-wave (km/s) = 3.25864 3.97967 3.63707
# Velocity P-wave (km/s) = 4.54994 5.98079 5.31375
#
# Compressibility (1/GPa) = 0.05767596
#
# Stress axis : x y z
#
# Youngs Moduli (GPa) = 129.96270 92.84425 23.48832
#
# Poissons Ratio (x) = 0.15429 -0.07519
# Poissons Ratio (y) = 0.21597 0.07566
# Poissons Ratio (z) = -0.41601 0.29906
#
# Static dielectric constant tensor:
#      x y z
#    x 2.148290 0.006850 -0.008070 
#    y 0.006850 2.136950 0.018410 
#    z -0.008070 0.018410 2.085370 
# 
# From -- ./inp_files/388732.got.cif
#   From: 2010.05.17/outbox.cif.g08.bks.cpg/sg2_195_cif.got.tgz:388732.got - 2010.06.03 11:33:40.
