data_PCOD9100430
_publ_section_title
;
Structure prediction by ZEFSAII (Michael W. Deem and Ramdas Pophale) SiO2 
 PCOD9100430
Probable space group: P -1
;
_chemical_formula_sum "Si O2"
_cell_formula_units_Z 16
_cell_length_a 18.028776
_cell_length_b 9.234899
_cell_length_c 11.616917
_cell_angle_alpha 127.399317
_cell_angle_beta 25.526498
_cell_angle_gamma 119.118211
_cell_volume 651.373598
_symmetry_space_group_name_H-M "P -1"
_symmetry_group_IT_number 2
_symmetry_cell_setting 'triclinic'
loop_
_space_group_symop_operation_xyz
x,y,z
-x,-y,-z
loop_
_atom_site_type_symbol
_atom_site_label
_atom_site_fract_x
_atom_site_fract_y
_atom_site_fract_z
Si Si1 0.367999 0.790355 0.349008
Si Si2 0.186569 0.404604 0.643998
Si Si3 0.397802 0.282267 0.792445
Si Si4 0.820057 0.336298 0.820140
Si Si5 0.365979 0.636496 0.675095
Si Si6 0.889316 0.466198 0.439454
Si Si7 0.233732 0.979671 0.425047
Si Si8 0.882046 0.908823 0.004411
O O1 0.514754 0.727222 0.208719
O O2 0.275961 0.629113 0.344054
O O3 0.391835 0.906788 0.257681
O O4 0.221680 0.928734 0.694263
O O5 0.312881 0.517663 0.587080
O O6 0.176261 0.440264 0.541746
O O7 0.235202 0.189642 0.496132
O O8 0.000000 0.500000 0.000000
O O9 0.535521 0.222546 0.464281
O O10 0.254716 0.151450 0.921664
O O11 0.301954 0.486596 0.983817
O O12 0.773817 0.157312 0.736571
O O13 0.014322 0.388404 0.557843
O O14 0.788050 0.309464 0.989307
O O15 0.500000 0.500000 0.500000
O O16 0.043904 0.283759 0.124273
O O17 0.046229 0.972957 0.745577
#
# Coordination Sequence:
#
# PCOD9100430 Si02
#       8
#     2   2   2   2   2   2   2   2
#     4  11  21  39  65 100 126 170 226 263 315 392
#     4  12  21  40  69  96 121 174 222 270 313 383
#     4  10  22  40  69  91 130 179 219 258 327 390
#     4  10  23  43  61 100 133 172 206 275 336 379
#     4  10  22  40  69  92 127 173 217 262 322 387
#     4  10  20  37  64  87 128 169 215 261 319 378
#     4  11  26  40  66 100 136 163 216 276 327 380
#     4  10  22  40  65  99 129 168 219 274 319 378
#
# _framework density 24.563478
#
# number of rings (size 3 to 8) (size 9 to 14) (size 15 to 20)
#    0.000    1.500    2.500    3.375    3.500    5.500 
#    0.000    2.500    0.000    0.000    0.000    0.000 
#    0.000    0.000    0.000    0.000    0.000    0.000 
#
# Total GULP energy -89397.864607 kJ/mol
# GULP energy per Si atom -5587.366538 kJ/mol
# Density = 2.450757 g / cm^3
# Si number density = 24.563478 Si / 1000 Ang^3
#
#
#
# Elastic Constant Matrix: (Units=GPa)
#
#
# Indices 1 2 3 4 5 6 
#
# 1 154.9845 20.2976 37.2284 1.4059 -19.4545 -8.6268
# 2 20.2976 -24.7054 32.2367 -5.3060 3.0111 -30.9054
# 3 37.2284 32.2367 38.5459 10.6138 5.9378 8.5763
# 4 1.4059 -5.3060 10.6138 16.8643 10.2730 -12.0301
# 5 -19.4545 3.0111 5.9378 10.2730 37.9041 2.5690
# 6 -8.6268 -30.9054 8.5763 -12.0301 2.5690 43.1461
#
#
#
# Elastic Compliance Matrix: (Units=1/GPa)
#
#
# Indices 1 2 3 4 5 6 
#
# 1 0.009616 -0.003030 -0.007986 0.000133 0.006323 0.001000
# 2 -0.003030 -0.004095 0.014316 -0.020627 0.002952 -0.012312
# 3 -0.007986 0.014316 0.021798 0.000634 -0.009165 0.005047
# 4 0.000133 -0.020627 0.000634 0.065545 -0.016454 0.004381
# 5 0.006323 0.002952 -0.009165 -0.016454 0.035390 -0.001494
# 6 0.001000 -0.012312 0.005047 0.004381 -0.001494 0.014865
#
#
# Mechanical properties :
#
#
# Convention : Reuss Voigt Hill
#
# Bulk Modulus (GPa) = 29.48327 38.70560 34.09444
# Shear Modulus (GPa) = 33.82356 24.85372 29.33864
#
# Velocity S-wave (km/s) = 3.71480 3.18436 3.45976
# Velocity P-wave (km/s) = 5.51621 5.41403 5.46536
#
# Compressibility (1/GPa) = 0.03391754
#
# Stress axis : x y z
#
# Youngs Moduli (GPa) = 103.99749 -244.18436 45.87503
#
# Poissons Ratio (x) = -0.73987 0.36637
# Poissons Ratio (y) = 0.31511 -0.65673
# Poissons Ratio (z) = 0.83055 3.49564
#
# Static dielectric constant tensor:
#      x y z
#    x 1.846220 -0.081680 -0.004390 
#    y -0.081680 1.890870 -0.036400 
#    z -0.004390 -0.036400 2.067380 
# 
# From -- ./inp_files/456910.got.cif
#   From: 2010.05.17/outbox.cif.g08.bks.cpg/sg2_229_cif.got.tgz:456910.got - 2010.06.03 11:33:40.
