data_PCOD9100494
_publ_section_title
;
Structure prediction by ZEFSAII (Michael W. Deem and Ramdas Pophale) SiO2 
 PCOD9100494
Probable space group: P -1
;
_chemical_formula_sum "Si O2"
_cell_formula_units_Z 16
_cell_length_a 18.678532
_cell_length_b 6.811246
_cell_length_c 9.742747
_cell_angle_alpha 76.274441
_cell_angle_beta 134.391927
_cell_angle_gamma 127.767077
_cell_volume 658.848500
_symmetry_space_group_name_H-M "P -1"
_symmetry_group_IT_number 2
_symmetry_cell_setting 'triclinic'
loop_
_space_group_symop_operation_xyz
x,y,z
-x,-y,-z
loop_
_atom_site_type_symbol
_atom_site_label
_atom_site_fract_x
_atom_site_fract_y
_atom_site_fract_z
Si Si1 0.549961 0.172815 0.400200
Si Si2 0.156990 0.509108 0.302696
Si Si3 0.719733 0.048092 0.018458
Si Si4 0.107587 0.305317 0.555920
Si Si5 0.628250 0.694919 0.322388
Si Si6 0.946365 0.576101 0.093919
Si Si7 0.633084 0.519481 0.046905
Si Si8 0.118251 0.781564 0.510843
O O1 0.687455 0.246971 0.531003
O O2 0.597205 0.470913 0.421502
O O3 0.500000 0.000000 0.500000
O O4 0.419550 0.014394 0.154311
O O5 0.135282 0.325531 0.427936
O O6 0.064728 0.583314 0.199797
O O7 0.102727 0.356345 0.110707
O O8 0.818460 0.277275 0.007518
O O9 0.802560 0.113294 0.257048
O O10 0.677516 0.766212 0.972707
O O11 0.245282 0.470364 0.791569
O O12 0.067977 0.484904 0.490144
O O13 0.000000 0.000000 0.500000
O O14 0.622802 0.577728 0.183531
O O15 0.763337 0.985862 0.465197
O O16 0.512507 0.710947 0.159194
O O17 0.995665 0.732000 0.278841
#
# Coordination Sequence:
#
# PCOD9100494 Si02
#       8
#     2   2   2   2   2   2   2   2
#     4  11  20  38  65  91 117 161 209 248 293 366
#     4  10  21  37  60  89 116 161 209 245 293 365
#     4  10  20  37  64  91 122 156 202 252 308 353
#     4  11  22  38  61  91 119 159 206 251 297 364
#     4   9  19  35  56  87 115 158 192 247 297 354
#     4  10  20  38  58  84 121 165 198 247 305 358
#     4   9  17  33  58  82 118 154 200 237 293 359
#     4  10  22  37  60  92 127 154 198 254 311 351
#
# _framework density 24.284793000000001
#
# number of rings (size 3 to 8) (size 9 to 14) (size 15 to 20)
#    0.000    2.000    2.500    2.625    0.000    1.500 
#    2.250    1.875    0.000    3.000    0.000    0.000 
#    0.000    0.000    0.000    0.000    0.000    0.000 
#
# Total GULP energy -89084.385681 kJ/mol
# GULP energy per Si atom -5567.774105 kJ/mol
# Density = 2.422952 g / cm^3
# Si number density = 24.284793 Si / 1000 Ang^3
#
#
#
# Elastic Constant Matrix: (Units=GPa)
#
#
# Indices 1 2 3 4 5 6 
#
# 1 58.9421 24.3622 34.8615 2.2389 24.8728 10.3046
# 2 24.3622 119.9844 34.6209 7.5726 6.3598 38.9647
# 3 34.8615 34.6209 170.3149 2.8261 26.8086 18.3070
# 4 2.2389 7.5726 2.8261 37.1440 6.5677 2.4672
# 5 24.8728 6.3598 26.8086 6.5677 44.5720 0.3197
# 6 10.3046 38.9647 18.3070 2.4672 0.3197 35.4894
#
#
#
# Elastic Compliance Matrix: (Units=1/GPa)
#
#
# Indices 1 2 3 4 5 6 
#
# 1 0.025289 -0.002968 -0.002320 0.001663 -0.012518 -0.002890
# 2 -0.002968 0.013666 -0.000757 -0.001735 0.000515 -0.013636
# 3 -0.002320 -0.000757 0.007199 0.000419 -0.002973 -0.002211
# 4 0.001663 -0.001735 0.000419 0.028086 -0.005066 -0.000701
# 5 -0.012518 0.000515 -0.002973 -0.005066 0.031849 0.004668
# 6 -0.002890 -0.013636 -0.002211 -0.000701 0.004668 0.045135
#
#
# Mechanical properties :
#
#
# Convention : Reuss Voigt Hill
#
# Bulk Modulus (GPa) = 29.35642 59.65898 44.50770
# Shear Modulus (GPa) = 28.62564 40.46752 34.54658
#
# Velocity S-wave (km/s) = 3.43701 4.08655 3.77578
# Velocity P-wave (km/s) = 5.27877 6.84735 6.11358
#
# Compressibility (1/GPa) = 0.03406410
#
# Stress axis : x y z
#
# Youngs Moduli (GPa) = 39.54268 73.17459 138.91013
#
# Poissons Ratio (x) = 0.21721 0.32221
# Poissons Ratio (y) = 0.11738 0.10515
# Poissons Ratio (z) = 0.09172 0.05539
#
# Static dielectric constant tensor:
#      x y z
#    x 2.204140 0.041260 -0.012580 
#    y 0.041260 1.929550 -0.030810 
#    z -0.012580 -0.030810 1.963490 
# 
# From -- ./inp_files/474186.got.cif
#   From: 2010.05.17/outbox.cif.g08.bks.cpg/sg2_238_cif.got.tgz:474186.got - 2010.06.03 11:33:40.
