data_PCOD9100067
_publ_section_title
;
Structure prediction by ZEFSAII (Michael W. Deem and Ramdas Pophale) SiO2 
 PCOD9100067
Probable space group: P -1
;
_chemical_formula_sum "Si O2"
_cell_formula_units_Z 16
_cell_length_a 5.411157
_cell_length_b 15.514814
_cell_length_c 8.544063
_cell_angle_alpha 69.480014
_cell_angle_beta 79.371444
_cell_angle_gamma 86.307267
_cell_volume 660.262269
_symmetry_space_group_name_H-M "P -1"
_symmetry_group_IT_number 2
_symmetry_cell_setting 'triclinic'
loop_
_space_group_symop_operation_xyz
x,y,z
-x,-y,-z
loop_
_atom_site_type_symbol
_atom_site_label
_atom_site_fract_x
_atom_site_fract_y
_atom_site_fract_z
Si Si1 0.688162 0.416241 0.712144
Si Si2 0.299276 0.083300 0.959443
Si Si3 0.518945 0.290682 0.336963
Si Si4 0.169471 0.881055 0.572156
Si Si5 0.232460 0.234208 0.110027
Si Si6 0.115756 0.016648 0.728743
Si Si7 0.857674 0.405643 0.041560
Si Si8 0.770949 0.619664 0.429095
O O1 0.734051 0.517227 0.569615
O O2 0.440405 0.374922 0.685898
O O3 0.946732 0.364281 0.670996
O O4 0.687836 0.421057 0.897134
O O5 0.250222 0.090250 0.776085
O O6 0.348387 0.177288 0.987703
O O7 0.500000 0.000000 0.000000
O O8 0.045079 0.047566 0.095961
O O9 0.657162 0.202290 0.442436
O O10 0.444080 0.267131 0.183718
O O11 0.705270 0.376584 0.234021
O O12 0.293159 0.315650 0.459167
O O13 0.934671 0.835015 0.719754
O O14 0.072261 0.936184 0.400241
O O15 0.285902 0.950016 0.644625
O O16 0.050601 0.320865 0.041284
O O17 0.000000 0.500000 0.000000
#
# Coordination Sequence:
#
# PCOD9100067 Si02
#       8
#     2   2   2   2   2   2   2   2
#     4  10  24  44  64  97 128 171 223 282 343 403
#     4  10  20  37  62  92 129 166 209 264 329 400
#     4  11  24  41  66  94 129 174 226 282 338 404
#     4   9  20  39  61  91 127 169 216 272 325 402
#     4  10  23  40  60  93 130 167 218 277 327 402
#     4   9  19  38  63  90 127 170 211 261 333 399
#     4  11  26  43  69  92 130 176 228 277 345 403
#     4  10  24  42  68  91 133 170 221 282 343 404
#
# _framework density 24.232796
#
# number of rings (size 3 to 8) (size 9 to 14) (size 15 to 20)
#    0.000    2.000    0.000    1.500   10.500    4.000 
#    2.250    3.750    0.000    0.000    0.000    0.000 
#    0.000    0.000    0.000    0.000    0.000    0.000 
#
# Total GULP energy -89500.597789 kJ/mol
# GULP energy per Si atom -5593.787362 kJ/mol
# Density = 2.417764 g / cm^3
# Si number density = 24.232796 Si / 1000 Ang^3
#
#
#
# Elastic Constant Matrix: (Units=GPa)
#
#
# Indices 1 2 3 4 5 6 
#
# 1 53.5295 16.3066 8.7251 2.1024 -1.0543 -6.5784
# 2 16.3066 89.0785 29.9636 18.5608 6.9491 4.5636
# 3 8.7251 29.9636 88.4441 2.3512 9.2861 11.9394
# 4 2.1024 18.5608 2.3512 34.0969 4.4578 0.7985
# 5 -1.0543 6.9491 9.2861 4.4578 43.3078 4.7551
# 6 -6.5784 4.5636 11.9394 0.7985 4.7551 27.9628
#
#
#
# Elastic Compliance Matrix: (Units=1/GPa)
#
#
# Indices 1 2 3 4 5 6 
#
# 1 0.020838 -0.003742 -0.001705 0.000631 0.000739 0.006098
# 2 -0.003742 0.015041 -0.004297 -0.007545 -0.000678 -0.001170
# 3 -0.001705 -0.004297 0.013800 0.001868 -0.001919 -0.005319
# 4 0.000631 -0.007545 0.001868 0.033611 -0.002642 0.000072
# 5 0.000739 -0.000678 -0.001919 -0.002642 0.024224 -0.002940
# 6 0.006098 -0.001170 -0.005319 0.000072 -0.002940 0.040156
#
#
# Mechanical properties :
#
#
# Convention : Reuss Voigt Hill
#
# Bulk Modulus (GPa) = 33.12258 37.89365 35.50811
# Shear Modulus (GPa) = 28.21276 32.81059 30.51168
#
# Velocity S-wave (km/s) = 3.41580 3.68363 3.55224
# Velocity P-wave (km/s) = 5.40879 5.81063 5.61331
#
# Compressibility (1/GPa) = 0.03019089
#
# Stress axis : x y z
#
# Youngs Moduli (GPa) = 47.98821 66.48306 72.46122
#
# Poissons Ratio (x) = 0.24881 0.12357
# Poissons Ratio (y) = 0.17959 0.31136
# Poissons Ratio (z) = 0.08184 0.28567
#
# Static dielectric constant tensor:
#      x y z
#    x 1.954280 0.034020 -0.004220 
#    y 0.034020 2.005570 0.000470 
#    z -0.004220 0.000470 1.911660 
# 
# From -- ./inp_files/90516.got.cif
#   From: 2010.05.17/outbox.cif.g08.bks.cpg/sg2_46_cif.got.tgz:90516.got - 2010.06.03 11:33:40.
