data_PCOD9100455
_publ_section_title
;
Structure prediction by ZEFSAII (Michael W. Deem and Ramdas Pophale) SiO2 
 PCOD9100455
Probable space group: P -1
;
_chemical_formula_sum "Si O2"
_cell_formula_units_Z 16
_cell_length_a 21.054918
_cell_length_b 18.472055
_cell_length_c 5.125218
_cell_angle_alpha 98.153457
_cell_angle_beta 80.161931
_cell_angle_gamma 159.974435
_cell_volume 671.525096
_symmetry_space_group_name_H-M "P -1"
_symmetry_group_IT_number 2
_symmetry_cell_setting 'triclinic'
loop_
_space_group_symop_operation_xyz
x,y,z
-x,-y,-z
loop_
_atom_site_type_symbol
_atom_site_label
_atom_site_fract_x
_atom_site_fract_y
_atom_site_fract_z
Si Si1 0.893749 0.418702 0.283878
Si Si2 0.981484 0.895085 0.487588
Si Si3 0.158859 0.821410 0.351157
Si Si4 0.634508 0.523485 0.914286
Si Si5 0.343002 0.308326 0.720588
Si Si6 0.638521 0.024101 0.209494
Si Si7 0.287980 0.555566 0.238681
Si Si8 0.945933 0.713675 0.215074
O O1 0.691009 0.165373 0.289934
O O2 0.000000 0.500000 0.500000
O O3 0.950891 0.563983 0.333849
O O4 0.000000 0.500000 0.000000
O O5 0.787442 0.680813 0.661859
O O6 0.979392 0.835970 0.222623
O O7 0.000000 0.000000 0.500000
O O8 0.169064 0.079154 0.611986
O O9 0.243659 0.895827 0.613166
O O10 0.126660 0.868326 0.293696
O O11 0.289793 0.920679 0.099935
O O12 0.445536 0.362574 0.875135
O O13 0.612630 0.413428 0.930341
O O14 0.716457 0.675466 0.117580
O O15 0.500000 0.500000 0.500000
O O16 0.428715 0.773116 0.250034
O O17 0.210538 0.461397 0.536922
O O18 0.120557 0.389401 0.065191
#
# Coordination Sequence:
#
# PCOD9100455 Si02
#       8
#     2   2   2   2   2   2   2   2
#     4   8  16  32  57  87 120 153 193 243 297 351
#     4  11  22  41  63  82 123 161 199 250 321 356
#     4  10  20  38  61  92 120 153 207 250 287 361
#     4  10  24  40  59  86 121 157 198 260 304 365
#     4  11  22  39  62  90 111 152 212 250 305 372
#     4  10  20  37  64  89 118 162 199 244 301 353
#     4  11  24  42  60  84 127 158 198 245 311 359
#     4  11  25  41  60  88 121 161 198 248 310 360
#
# _framework density 23.826359
#
# number of rings (size 3 to 8) (size 9 to 14) (size 15 to 20)
#    0.000    1.750    1.250    2.625    3.500    2.000 
#    0.000    1.250    0.000    0.000    0.000    0.000 
#    0.000    0.000    0.000    0.000    0.000    0.000 
#
# Total GULP energy -89246.450621 kJ/mol
# GULP energy per Si atom -5577.903164 kJ/mol
# Density = 2.377213 g / cm^3
# Si number density = 23.826359 Si / 1000 Ang^3
#
#
#
# Elastic Constant Matrix: (Units=GPa)
#
#
# Indices 1 2 3 4 5 6 
#
# 1 40.4592 -16.2874 -0.3707 1.0998 2.4550 1.6035
# 2 -16.2874 58.1717 11.9505 18.2591 -0.7093 -2.0734
# 3 -0.3707 11.9505 74.2675 10.1806 8.9944 -4.0620
# 4 1.0998 18.2591 10.1806 35.1993 1.9595 1.5649
# 5 2.4550 -0.7093 8.9944 1.9595 28.3403 2.5572
# 6 1.6035 -2.0734 -4.0620 1.5649 2.5572 22.0054
#
#
#
# Elastic Compliance Matrix: (Units=1/GPa)
#
#
# Indices 1 2 3 4 5 6 
#
# 1 0.029030 0.010021 -0.000505 -0.005839 -0.001641 -0.000658
# 2 0.010021 0.024459 -0.002203 -0.012512 0.001134 0.001926
# 3 -0.000505 -0.002203 0.015011 -0.003063 -0.004869 0.003384
# 4 -0.005839 -0.012512 -0.003063 0.036192 -0.000997 -0.003777
# 5 -0.001641 0.001134 -0.004869 -0.000997 0.037518 -0.004961
# 6 -0.000658 0.001926 0.003384 -0.003777 -0.004961 0.047143
#
#
# Mechanical properties :
#
#
# Convention : Reuss Voigt Hill
#
# Bulk Modulus (GPa) = 12.02969 18.16481 15.09725
# Shear Modulus (GPa) = 24.69943 28.94940 26.82442
#
# Velocity S-wave (km/s) = 3.22319 3.48949 3.35898
# Velocity P-wave (km/s) = 4.34877 4.88628 4.62534
#
# Compressibility (1/GPa) = 0.08312764
#
# Stress axis : x y z
#
# Youngs Moduli (GPa) = 34.44706 40.88547 66.61626
#
# Poissons Ratio (x) = -0.40971 0.03361
# Poissons Ratio (y) = -0.34519 0.14672
# Poissons Ratio (z) = 0.01738 0.09005
#
# Static dielectric constant tensor:
#      x y z
#    x 1.999810 -0.060480 -0.011090 
#    y -0.060480 1.884380 0.045340 
#    z -0.011090 0.045340 1.931150 
# 
# From -- ./inp_files/51112.got.cif
#   From: 2010.05.17/outbox.cif.g08.bks.cpg/sg2_26_cif.got.tgz:51112.got - 2010.06.03 11:33:40.
