data_PCOD9100673
_publ_section_title
;
Structure prediction by ZEFSAII (Michael W. Deem and Ramdas Pophale) SiO2 
 PCOD9100673
Probable space group: P -1
;
_chemical_formula_sum "Si O2"
_cell_formula_units_Z 15
_cell_length_a 7.652680
_cell_length_b 14.794065
_cell_length_c 10.042971
_cell_angle_alpha 59.675705
_cell_angle_beta 45.419678
_cell_angle_gamma 51.479618
_cell_volume 628.918156
_symmetry_space_group_name_H-M "P -1"
_symmetry_group_IT_number 2
_symmetry_cell_setting 'triclinic'
loop_
_space_group_symop_operation_xyz
x,y,z
-x,-y,-z
loop_
_atom_site_type_symbol
_atom_site_label
_atom_site_fract_x
_atom_site_fract_y
_atom_site_fract_z
Si Si1 0.500000 0.000000 0.500000
Si Si2 0.365556 0.999726 0.927896
Si Si3 0.313990 0.584764 0.922748
Si Si4 0.271266 0.575347 0.366574
Si Si5 0.850668 0.614425 0.317813
Si Si6 0.656820 0.134807 0.573907
Si Si7 0.147351 0.838743 0.265807
Si Si8 0.776890 0.160519 0.208889
O O1 0.437276 0.890395 0.665323
O O2 0.827069 0.909784 0.361326
O O3 0.057308 0.102398 0.020773
O O4 0.318157 0.883377 0.041518
O O5 0.539892 0.036599 0.700740
O O6 0.500000 0.000000 0.000000
O O7 0.432676 0.514668 0.777783
O O8 0.350390 0.701701 0.829493
O O9 0.500000 0.500000 0.000000
O O10 0.003327 0.618567 0.098657
O O11 0.203700 0.499421 0.567545
O O12 0.249993 0.700931 0.315738
O O13 0.054093 0.598464 0.344952
O O14 0.593213 0.737056 0.386937
O O15 0.803545 0.124690 0.640815
O O16 0.841999 0.127334 0.355161
#
# Coordination Sequence:
#
# PCOD9100673 Si02
#       8
#     1   2   2   2   2   2   2   2
#     4  10  24  40  62  92 124 158 210 260 298 370
#     4   9  21  40  60  86 123 159 206 250 301 370
#     4  10  21  37  64  91 120 162 204 249 307 368
#     4  10  21  40  61  92 126 160 204 255 306 369
#     4  10  20  37  65  90 120 164 203 252 309 367
#     4  11  21  40  68  90 123 169 202 253 317 365
#     4  10  23  41  62  92 129 160 208 259 304 371
#     4  11  21  42  65  92 124 161 208 256 311 364
#
# _framework density 23.850479
#
# number of rings (size 3 to 8) (size 9 to 14) (size 15 to 20)
#    0.000    1.867    2.667    0.800    3.733    5.333 
#    4.800    5.333    0.000    0.000    0.000    0.000 
#    0.000    0.000    0.000    0.000    0.000    0.000 
#
# Total GULP energy -83687.269522 kJ/mol
# GULP energy per Si atom -5579.151301 kJ/mol
# Density = 2.379619 g / cm^3
# Si number density = 23.850479 Si / 1000 Ang^3
#
#
#
# Elastic Constant Matrix: (Units=GPa)
#
#
# Indices 1 2 3 4 5 6 
#
# 1 60.3869 12.9530 5.5041 -9.6186 -6.1908 6.1871
# 2 12.9530 191.1862 61.0122 -45.9230 -26.7022 12.6051
# 3 5.5041 61.0122 130.8453 -30.5176 -18.7775 6.3977
# 4 -9.6186 -45.9230 -30.5176 52.0031 2.0685 -13.3066
# 5 -6.1908 -26.7022 -18.7775 2.0685 26.3547 -6.9236
# 6 6.1871 12.6051 6.3977 -13.3066 -6.9236 26.7693
#
#
#
# Elastic Compliance Matrix: (Units=1/GPa)
#
#
# Indices 1 2 3 4 5 6 
#
# 1 0.017556 -0.000009 0.000604 0.003003 0.003861 -0.001706
# 2 -0.000009 0.008114 -0.001309 0.006517 0.007194 0.001594
# 3 0.000604 -0.001309 0.010261 0.005315 0.006313 0.002299
# 4 0.003003 0.006517 0.005315 0.031731 0.012259 0.013911
# 5 0.003861 0.007194 0.006313 0.012259 0.053383 0.014112
# 6 -0.001706 0.001594 0.002299 0.013911 0.014112 0.047015
#
#
# Mechanical properties :
#
#
# Convention : Reuss Voigt Hill
#
# Bulk Modulus (GPa) = 28.98332 60.15076 44.56704
# Shear Modulus (GPa) = 27.62623 41.22205 34.42414
#
# Velocity S-wave (km/s) = 3.40709 4.16186 3.80324
# Velocity P-wave (km/s) = 5.25891 6.95481 6.16545
#
# Compressibility (1/GPa) = 0.03450261
#
# Stress axis : x y z
#
# Youngs Moduli (GPa) = 56.96122 123.24741 97.46072
#
# Poissons Ratio (x) = 0.00110 -0.05883
# Poissons Ratio (y) = 0.00051 0.12753
# Poissons Ratio (z) = -0.03439 0.16127
#
# Static dielectric constant tensor:
#      x y z
#    x 2.058050 0.072650 0.103830 
#    y 0.072650 1.885010 0.053340 
#    z 0.103830 0.053340 2.058690 
# 
# From -- ./inp_files/282399.got.cif
#   From: 2010.05.17/outbox.cif.g08.bks.cpg/sg2_142_cif.got.tgz:282399.got - 2010.06.03 11:33:40.
