data_PCOD9100832
_publ_section_title
;
Structure prediction by ZEFSAII (Michael W. Deem and Ramdas Pophale) SiO2 
 PCOD9100832
Probable space group: P -1
;
_chemical_formula_sum "Si O2"
_cell_formula_units_Z 16
_cell_length_a 17.135613
_cell_length_b 10.136377
_cell_length_c 7.630210
_cell_angle_alpha 122.023878
_cell_angle_beta 100.370384
_cell_angle_gamma 124.577073
_cell_volume 670.549692
_symmetry_space_group_name_H-M "P -1"
_symmetry_group_IT_number 2
_symmetry_cell_setting 'triclinic'
loop_
_space_group_symop_operation_xyz
x,y,z
-x,-y,-z
loop_
_atom_site_type_symbol
_atom_site_label
_atom_site_fract_x
_atom_site_fract_y
_atom_site_fract_z
Si Si1 0.211571 0.187506 0.753578
Si Si2 0.701206 0.674777 0.515891
Si Si3 0.001211 0.665503 0.452598
Si Si4 0.204123 0.860680 0.940722
Si Si5 0.704361 0.354461 0.717539
Si Si6 0.120288 0.313022 0.279823
Si Si7 0.464882 0.457181 0.158557
Si Si8 0.571695 0.952022 0.687681
O O1 0.248269 0.240281 0.602762
O O2 0.067783 0.896535 0.518764
O O3 0.243872 0.407096 0.998478
O O4 0.310516 0.230678 0.933755
O O5 0.756708 0.605110 0.568667
O O6 0.544569 0.449724 0.287359
O O7 0.755313 0.908342 0.805557
O O8 0.115878 0.750141 0.657035
O O9 0.898445 0.382076 0.137892
O O10 0.923236 0.641373 0.551690
O O11 0.328510 0.939609 0.041201
O O12 0.824187 0.507662 0.740682
O O13 0.563135 0.162191 0.427224
O O14 0.659513 0.169380 0.724372
O O15 0.000000 0.000000 0.000000
O O16 0.521438 0.708076 0.424350
O O17 0.500000 0.500000 0.000000
#
# Coordination Sequence:
#
# PCOD9100832 Si02
#       8
#     2   2   2   2   2   2   2   2
#     4  10  20  37  66  90 117 159 201 250 297 363
#     4  10  21  38  64  89 117 157 206 247 303 354
#     4  11  24  41  58  87 126 163 202 243 301 358
#     4  10  22  43  58  85 125 156 201 254 294 362
#     4  10  21  40  64  90 123 155 198 255 303 353
#     4  12  23  41  59  88 126 163 201 245 298 361
#     4   8  17  37  59  90 115 144 198 255 295 350
#     4   9  20  39  66  88 116 156 205 248 306 349
#
# _framework density 23.86102
#
# number of rings (size 3 to 8) (size 9 to 14) (size 15 to 20)
#    0.000    2.000    2.500    0.000    1.750    3.000 
#   13.500    4.375    0.000    0.000    0.000    0.000 
#    0.000    0.000    0.000    0.000    0.000    0.000 
#
# Total GULP energy -89312.898953 kJ/mol
# GULP energy per Si atom -5582.056185 kJ/mol
# Density = 2.380671 g / cm^3
# Si number density = 23.861020 Si / 1000 Ang^3
#
#
#
# Elastic Constant Matrix: (Units=GPa)
#
#
# Indices 1 2 3 4 5 6 
#
# 1 55.0968 15.6593 -3.9484 -6.4222 15.9978 -8.1765
# 2 15.6593 132.6773 23.3661 40.4005 4.6953 17.4353
# 3 -3.9484 23.3661 52.8320 3.4964 15.5839 -6.4137
# 4 -6.4222 40.4005 3.4964 30.4387 1.5067 2.2403
# 5 15.9978 4.6953 15.5839 1.5067 21.4425 -11.0566
# 6 -8.1765 17.4353 -6.4137 2.2403 -11.0566 25.8712
#
#
#
# Elastic Compliance Matrix: (Units=1/GPa)
#
#
# Indices 1 2 3 4 5 6 
#
# 1 0.042620 -0.019286 0.022881 0.033071 -0.040316 0.012046
# 2 -0.019286 0.025373 -0.016685 -0.035175 0.013992 -0.018305
# 3 0.022881 -0.016685 0.038952 0.023688 -0.038406 0.009667
# 4 0.033071 -0.035175 0.023688 0.083791 -0.029727 0.020070
# 5 -0.040316 0.013992 -0.038406 -0.029727 0.113693 0.019471
# 6 0.012046 -0.018305 0.009667 0.020070 0.019471 0.063776
#
#
# Mechanical properties :
#
#
# Convention : Reuss Voigt Hill
#
# Bulk Modulus (GPa) = 12.38177 34.52890 23.45534
# Shear Modulus (GPa) = 11.86785 29.25243 20.56014
#
# Velocity S-wave (km/s) = 2.23261 3.50516 2.93859
# Velocity P-wave (km/s) = 3.44186 5.55732 4.62224
#
# Compressibility (1/GPa) = 0.08076388
#
# Stress axis : x y z
#
# Youngs Moduli (GPa) = 23.46339 39.41206 25.67277
#
# Poissons Ratio (x) = 0.76011 -0.58741
# Poissons Ratio (y) = 0.45252 0.42834
# Poissons Ratio (z) = -0.53686 0.65758
#
# Static dielectric constant tensor:
#      x y z
#    x 1.899550 -0.016010 0.052870 
#    y -0.016010 1.966380 0.018480 
#    z 0.052870 0.018480 1.928050 
# 
# From -- ./inp_files/332360.got.cif
#   From: 2010.05.17/outbox.cif.g08.bks.cpg/sg2_167_cif.got.tgz:332360.got - 2010.06.03 11:33:40.
