data_PCOD9100005
_publ_section_title
;
Structure prediction by ZEFSAII (Michael W. Deem and Ramdas Pophale) SiO2 
 PCOD9100005
Probable space group: P -1
;
_chemical_formula_sum "Si O2"
_cell_formula_units_Z 16
_cell_length_a 20.874725
_cell_length_b 5.516135
_cell_length_c 18.254068
_cell_angle_alpha 65.590952
_cell_angle_beta 160.588482
_cell_angle_gamma 112.976618
_cell_volume 636.132437
_symmetry_space_group_name_H-M "P -1"
_symmetry_group_IT_number 2
_symmetry_cell_setting 'triclinic'
loop_
_space_group_symop_operation_xyz
x,y,z
-x,-y,-z
loop_
_atom_site_type_symbol
_atom_site_label
_atom_site_fract_x
_atom_site_fract_y
_atom_site_fract_z
Si Si1 0.681266 0.600995 0.966234
Si Si2 0.348517 0.465366 0.517382
Si Si3 0.122012 0.773671 0.119661
Si Si4 0.384783 0.689177 0.291944
Si Si5 0.129155 0.119974 0.748363
Si Si6 0.806286 0.556479 0.351685
Si Si7 0.546628 0.282296 0.981600
Si Si8 0.953431 0.391112 0.182689
O O1 0.504754 0.596381 0.722055
O O2 0.649487 0.320049 0.010526
O O3 0.683783 0.809602 0.009145
O O4 0.873938 0.619590 0.123026
O O5 0.272925 0.688496 0.353865
O O6 0.450590 0.252483 0.598919
O O7 0.160534 0.384541 0.369757
O O8 0.254491 0.870720 0.182489
O O9 0.000000 0.500000 0.000000
O O10 0.000000 0.000000 0.000000
O O11 0.500000 0.500000 0.500000
O O12 0.209291 0.600946 0.058339
O O13 0.148154 0.165656 0.675865
O O14 0.986954 0.370137 0.581861
O O15 0.048642 0.859650 0.732466
O O16 0.665542 0.584504 0.264954
O O17 0.679255 0.415467 0.169425
O O18 0.500000 0.000000 0.000000
#
# Coordination Sequence:
#
# PCOD9100005 Si02
#       8
#     2   2   2   2   2   2   2   2
#     4  10  24  41  59  99 132 174 230 288 345 431
#     4  10  23  45  68 102 141 181 236 291 359 424
#     4  11  23  48  78 107 146 194 243 295 363 440
#     4   9  21  45  68 101 140 179 232 291 348 430
#     4  10  22  41  61  90 134 176 225 289 351 419
#     4   9  21  39  59  89 128 175 226 284 349 421
#     4  10  20  37  62  90 122 169 231 279 349 412
#     4  11  22  42  68  96 138 175 234 278 362 411
#
# _framework density 25.151993999999998
#
# number of rings (size 3 to 8) (size 9 to 14) (size 15 to 20)
#    0.000    2.000    1.250    0.750    3.500    1.000 
#   11.250    6.875    0.000    0.000    0.000    0.000 
#    0.000    0.000    0.000    0.000    0.000    0.000 
#
# Total GULP energy -89149.064428 kJ/mol
# GULP energy per Si atom -5571.816527 kJ/mol
# Density = 2.509475 g / cm^3
# Si number density = 25.151994 Si / 1000 Ang^3
#
#
#
# Elastic Constant Matrix: (Units=GPa)
#
#
# Indices 1 2 3 4 5 6 
#
# 1 197.9817 23.3600 56.1733 4.7416 42.5109 -3.2640
# 2 23.3600 58.6702 20.9676 -0.5648 0.8111 0.7231
# 3 56.1733 20.9676 115.8396 2.8309 7.1206 -2.9776
# 4 4.7416 -0.5648 2.8309 28.2265 0.6675 1.2039
# 5 42.5109 0.8111 7.1206 0.6675 64.4371 -0.9564
# 6 -3.2640 0.7231 -2.9776 1.2039 -0.9564 26.1074
#
#
#
# Elastic Compliance Matrix: (Units=1/GPa)
#
#
# Indices 1 2 3 4 5 6 
#
# 1 0.006990 -0.001745 -0.002778 -0.000850 -0.004266 0.000488
# 2 -0.001745 0.018696 -0.002660 0.000950 0.001185 -0.001040
# 3 -0.002778 -0.002660 0.010458 -0.000694 0.000732 0.000978
# 4 -0.000850 0.000950 -0.000694 0.035733 0.000228 -0.001851
# 5 -0.004266 0.001185 0.000732 0.000228 0.018238 0.000175
# 6 0.000488 -0.001040 0.000978 -0.001851 0.000175 0.038596
#
#
# Mechanical properties :
#
#
# Convention : Reuss Voigt Hill
#
# Bulk Modulus (GPa) = 45.92174 63.72148 54.82161
# Shear Modulus (GPa) = 33.25861 41.88691 37.57276
#
# Velocity S-wave (km/s) = 3.64030 4.08530 3.86920
# Velocity P-wave (km/s) = 5.99719 6.90235 6.46563
#
# Compressibility (1/GPa) = 0.02177618
#
# Stress axis : x y z
#
# Youngs Moduli (GPa) = 143.07089 53.48814 95.61744
#
# Poissons Ratio (x) = 0.09336 0.26561
# Poissons Ratio (y) = 0.24972 0.25438
# Poissons Ratio (z) = 0.39744 0.14230
#
# Static dielectric constant tensor:
#      x y z
#    x 1.988060 0.011320 -0.004210 
#    y 0.011320 2.187300 -0.014100 
#    z -0.004210 -0.014100 1.939210 
# 
# From -- ./inp_files/576779.got.cif
#   From: 2010.05.17/outbox.cif.g08.bks.cpg/sg2_289_cif.got.tgz:576779.got - 2010.06.03 11:33:40.
