data_PCOD9100607
_publ_section_title
;
Structure prediction by ZEFSAII (Michael W. Deem and Ramdas Pophale) SiO2 
 PCOD9100607
Probable space group: P -1
;
_chemical_formula_sum "Si O2"
_cell_formula_units_Z 14
_cell_length_a 11.020956
_cell_length_b 12.061090
_cell_length_c 5.257000
_cell_angle_alpha 70.257882
_cell_angle_beta 64.235456
_cell_angle_gamma 86.717116
_cell_volume 589.012398
_symmetry_space_group_name_H-M "P -1"
_symmetry_group_IT_number 2
_symmetry_cell_setting 'triclinic'
loop_
_space_group_symop_operation_xyz
x,y,z
-x,-y,-z
loop_
_atom_site_type_symbol
_atom_site_label
_atom_site_fract_x
_atom_site_fract_y
_atom_site_fract_z
Si Si1 0.944466 0.601081 0.312088
Si Si2 0.854010 0.831840 0.254860
Si Si3 0.894291 0.045768 0.363637
Si Si4 0.327241 0.522413 0.547687
Si Si5 0.780504 0.266901 0.223611
Si Si6 0.565124 0.277175 0.040363
Si Si7 0.399211 0.265264 0.717936
O O1 0.877055 0.703859 0.448600
O O2 0.825046 0.537073 0.306010
O O3 0.000000 0.500000 0.500000
O O4 0.071503 0.664083 0.997114
O O5 0.750638 0.802053 0.138260
O O6 0.810594 0.931844 0.402981
O O7 0.002935 0.886241 0.987175
O O8 0.800561 0.146948 0.450337
O O9 0.000000 0.000000 0.500000
O O10 0.309152 0.636685 0.648738
O O11 0.396022 0.406810 0.659529
O O12 0.387437 0.585178 0.185705
O O13 0.704370 0.232373 0.053115
O O14 0.463433 0.258177 0.384552
O O15 0.484902 0.222140 0.908390
#
# Coordination Sequence:
#
# PCOD9100607 Si02
#       7
#     2   2   2   2   2   2   2
#     4  10  20  37  64  97 136 171 214 284 342 399
#     4   9  23  44  64  99 128 176 226 276 334 402
#     4  10  23  44  73  94 129 176 226 286 337 394
#     4  11  23  39  64  97 140 177 221 275 333 404
#     4  11  24  40  64 104 133 178 226 278 339 396
#     4  12  24  42  66  98 140 183 220 272 329 409
#     4  11  26  42  68  98 138 182 223 266 338 402
#
# _framework density 23.768601
#
# number of rings (size 3 to 8) (size 9 to 14) (size 15 to 20)
#    0.000    1.429    2.857    1.286    6.000    1.143 
#    0.000    1.429    0.000    0.000    0.000    0.000 
#    0.000    0.000    0.000    0.000    0.000    0.000 
#
# Total GULP energy -78079.914336 kJ/mol
# GULP energy per Si atom -5577.136738 kJ/mol
# Density = 2.371450 g / cm^3
# Si number density = 23.768601 Si / 1000 Ang^3
#
#
#
# Elastic Constant Matrix: (Units=GPa)
#
#
# Indices 1 2 3 4 5 6 
#
# 1 117.8410 30.2222 22.0074 -6.6460 16.8930 10.5513
# 2 30.2222 130.4825 30.5166 -9.2042 20.5952 11.8482
# 3 22.0074 30.5166 51.3586 12.1215 7.6370 -0.9751
# 4 -6.6460 -9.2042 12.1215 22.5316 -4.2044 2.9428
# 5 16.8930 20.5952 7.6370 -4.2044 36.0302 -9.5190
# 6 10.5513 11.8482 -0.9751 2.9428 -9.5190 34.5280
#
#
#
# Elastic Compliance Matrix: (Units=1/GPa)
#
#
# Indices 1 2 3 4 5 6 
#
# 1 0.011046 0.000615 -0.006011 0.006555 -0.004996 -0.005692
# 2 0.000615 0.011808 -0.008786 0.009536 -0.005892 -0.006925
# 3 -0.006011 -0.008786 0.033114 -0.024190 0.000078 0.007870
# 4 0.006555 0.009536 -0.024190 0.064911 0.001232 -0.011151
# 5 -0.004996 -0.005892 0.000078 0.001232 0.037213 0.013705
# 6 -0.005692 -0.006925 0.007870 -0.011151 0.013705 0.038029
#
#
# Mechanical properties :
#
#
# Convention : Reuss Voigt Hill
#
# Bulk Modulus (GPa) = 36.22545 51.68604 43.95574
# Shear Modulus (GPa) = 21.39630 33.08035 27.23832
#
# Velocity S-wave (km/s) = 3.00357 3.73469 3.38890
# Velocity P-wave (km/s) = 5.22519 6.35530 5.81775
#
# Compressibility (1/GPa) = 0.02760490
#
# Stress axis : x y z
#
# Youngs Moduli (GPa) = 90.52749 84.69087 30.19871
#
# Poissons Ratio (x) = -0.05209 0.18153
# Poissons Ratio (y) = -0.05568 0.26531
# Poissons Ratio (z) = 0.54417 0.74405
#
# Static dielectric constant tensor:
#      x y z
#    x 1.837810 -0.044690 -0.038340 
#    y -0.044690 1.999540 0.070390 
#    z -0.038340 0.070390 1.977730 
# 
# From -- ./inp_files/65780.got.cif
#   From: 2010.05.17/outbox.cif.g08.bks.cpg/sg2_33_cif.got.tgz:65780.got - 2010.06.03 11:33:40.
