data_PCOD9100175
_publ_section_title
;
Structure prediction by ZEFSAII (Michael W. Deem and Ramdas Pophale) SiO2 
 PCOD9100175
Probable space group: P -1
;
_chemical_formula_sum "Si O2"
_cell_formula_units_Z 15
_cell_length_a 5.495175
_cell_length_b 6.074092
_cell_length_c 19.318340
_cell_angle_alpha 93.042808
_cell_angle_beta 104.369626
_cell_angle_gamma 73.578409
_cell_volume 599.056613
_symmetry_space_group_name_H-M "P -1"
_symmetry_group_IT_number 2
_symmetry_cell_setting 'triclinic'
loop_
_space_group_symop_operation_xyz
x,y,z
-x,-y,-z
loop_
_atom_site_type_symbol
_atom_site_label
_atom_site_fract_x
_atom_site_fract_y
_atom_site_fract_z
Si Si1 0.369026 0.594366 0.596751
Si Si2 0.894697 0.413501 0.897171
Si Si3 0.686132 0.297084 0.098055
Si Si4 0.964327 0.916174 0.216967
Si Si5 0.729564 0.174522 0.542569
Si Si6 0.821589 0.709115 0.333816
Si Si7 0.000000 0.000000 0.000000
Si Si8 0.692731 0.892303 0.653692
O O1 0.468473 0.367780 0.552921
O O2 0.241318 0.793315 0.536195
O O3 0.202695 0.534400 0.645636
O O4 0.612142 0.659777 0.649781
O O5 0.612124 0.565962 0.905452
O O6 0.850019 0.250547 0.828001
O O7 0.098493 0.553879 0.888285
O O8 0.016898 0.232193 0.962583
O O9 0.745393 0.157278 0.028431
O O10 0.761605 0.104777 0.160620
O O11 0.090305 0.061257 0.280760
O O12 0.865828 0.747245 0.257635
O O13 0.721849 0.940095 0.574760
O O14 0.956823 0.240753 0.601537
O O15 0.557446 0.904354 0.336157
#
# Coordination Sequence:
#
# PCOD9100175 Si02
#       8
#     2   2   2   2   2   2   1   2
#     4  10  20  37  63  85 123 167 226 288 367 427
#     4  11  26  46  76 110 146 200 235 290 354 413
#     4  11  26  45  77 111 146 201 234 290 355 411
#     4  10  26  44  62  96 146 177 247 289 341 437
#     4   9  20  38  56  90 122 162 222 294 357 439
#     4  10  22  38  58  89 124 174 224 289 355 422
#     4  10  24  48  78 116 158 178 248 292 338 422
#     4  10  22  38  59  90 125 175 223 290 356 422
#
# _framework density 25.039366999999999
#
# number of rings (size 3 to 8) (size 9 to 14) (size 15 to 20)
#    0.000    1.867    0.000    1.600    3.733   11.200 
#    0.000    0.000    0.000    0.000    0.000    0.000 
#    0.000    0.000    0.000    0.000    0.000    0.000 
#
# Total GULP energy -83609.779519 kJ/mol
# GULP energy per Si atom -5573.985301 kJ/mol
# Density = 2.498238 g / cm^3
# Si number density = 25.039367 Si / 1000 Ang^3
#
#
#
# Elastic Constant Matrix: (Units=GPa)
#
#
# Indices 1 2 3 4 5 6 
#
# 1 107.1841 55.5126 41.4263 -7.4619 -22.6958 1.5357
# 2 55.5126 116.0125 49.8991 -7.5384 -17.9363 -0.2250
# 3 41.4263 49.8991 99.2871 -13.9149 -23.7534 4.7203
# 4 -7.4619 -7.5384 -13.9149 51.5759 2.4539 -17.9321
# 5 -22.6958 -17.9363 -23.7534 2.4539 20.3060 -1.5795
# 6 1.5357 -0.2250 4.7203 -17.9321 -1.5795 55.7074
#
#
#
# Elastic Compliance Matrix: (Units=1/GPa)
#
#
# Indices 1 2 3 4 5 6 
#
# 1 0.014530 -0.004823 -0.000974 0.000688 0.010772 0.000189
# 2 -0.004823 0.012931 -0.004217 0.000226 0.001121 0.000647
# 3 -0.000974 -0.004217 0.016356 0.002985 0.013957 -0.000020
# 4 0.000688 0.000226 0.002985 0.022686 0.002270 0.007096
# 5 0.010772 0.001121 0.013957 0.002270 0.078443 0.001480
# 6 0.000189 0.000647 -0.000020 0.007096 0.001480 0.020276
#
#
# Mechanical properties :
#
#
# Convention : Reuss Voigt Hill
#
# Bulk Modulus (GPa) = 42.03807 68.46220 55.25013
# Shear Modulus (GPa) = 25.88244 37.22758 31.55501
#
# Velocity S-wave (km/s) = 3.21856 3.86004 3.55380
# Velocity P-wave (km/s) = 5.53511 6.87515 6.24120
#
# Compressibility (1/GPa) = 0.02378796
#
# Stress axis : x y z
#
# Youngs Moduli (GPa) = 68.82082 77.33410 61.14014
#
# Poissons Ratio (x) = 0.37302 0.05955
# Poissons Ratio (y) = 0.33196 0.25784
# Poissons Ratio (z) = 0.06703 0.32613
#
# Static dielectric constant tensor:
#      x y z
#    x 2.041370 0.000100 -0.006220 
#    y 0.000100 2.002360 -0.012650 
#    z -0.006220 -0.012650 1.948880 
# 
# From -- ./inp_files/9897.got.cif
#   From: 2010.05.17/outbox.cif.g08.bks.cpg/sg2_5_cif.got.tgz:9897.got - 2010.06.03 11:33:40.
