data_PCOD9100352
_publ_section_title
;
Structure prediction by ZEFSAII (Michael W. Deem and Ramdas Pophale) SiO2 
 PCOD9100352
Probable space group: P -1
;
_chemical_formula_sum "Si O2"
_cell_formula_units_Z 14
_cell_length_a 11.715798
_cell_length_b 11.317021
_cell_length_c 10.983560
_cell_angle_alpha 109.957325
_cell_angle_beta 99.022477
_cell_angle_gamma 139.907081
_cell_volume 637.756317
_symmetry_space_group_name_H-M "P -1"
_symmetry_group_IT_number 2
_symmetry_cell_setting 'triclinic'
loop_
_space_group_symop_operation_xyz
x,y,z
-x,-y,-z
loop_
_atom_site_type_symbol
_atom_site_label
_atom_site_fract_x
_atom_site_fract_y
_atom_site_fract_z
Si Si1 0.795321 0.200999 0.400879
Si Si2 0.383873 0.747145 0.983472
Si Si3 0.155183 0.395442 0.411265
Si Si4 0.594015 0.825645 0.803985
Si Si5 0.254631 0.300136 0.196698
Si Si6 0.903870 0.438747 0.728029
Si Si7 0.839436 0.572450 0.944814
O O1 0.755544 0.197917 0.534363
O O2 0.000000 0.500000 0.500000
O O3 0.934649 0.201789 0.402219
O O4 0.576506 0.994557 0.195665
O O5 0.519737 0.819121 0.915621
O O6 0.169435 0.633903 0.864045
O O7 0.249076 0.513737 0.962156
O O8 0.401454 0.678203 0.616494
O O9 0.204772 0.311229 0.324986
O O10 0.085738 0.422532 0.299245
O O11 0.570770 0.652216 0.754125
O O12 0.870878 0.122654 0.914672
O O13 0.309829 0.468032 0.173230
O O14 0.000000 0.000000 0.000000
O O15 0.803497 0.396964 0.823016
#
# Coordination Sequence:
#
# PCOD9100352 Si02
#       7
#     2   2   2   2   2   2   2
#     4  10  21  36  61  92 123 165 206 247 303 369
#     4  12  24  41  64  92 129 165 204 254 310 368
#     4  10  20  37  63  95 119 161 210 250 309 371
#     4  11  22  40  67  87 125 164 206 260 308 364
#     4   9  19  40  63  88 121 161 209 257 306 363
#     4  10  22  40  57  93 129 158 206 250 305 368
#     4  10  24  41  62  93 123 165 208 253 312 365
#
# _framework density 21.951958000000001
#
# number of rings (size 3 to 8) (size 9 to 14) (size 15 to 20)
#    0.000    1.714    1.429    4.286    4.000    4.000 
#    5.143    0.000    0.000    5.143    0.000    0.000 
#    0.000    0.000    0.000    0.000    0.000    0.000 
#
# Total GULP energy -78142.886888 kJ/mol
# GULP energy per Si atom -5581.634778 kJ/mol
# Density = 2.190199 g / cm^3
# Si number density = 21.951958 Si / 1000 Ang^3
#
#
#
# Elastic Constant Matrix: (Units=GPa)
#
#
# Indices 1 2 3 4 5 6 
#
# 1 99.8898 19.7589 38.7244 -1.7736 -4.7082 -10.4780
# 2 19.7589 85.1705 21.2159 -1.2585 -1.8961 7.0907
# 3 38.7244 21.2159 163.9151 -2.3792 1.6550 5.2375
# 4 -1.7736 -1.2585 -2.3792 17.1146 4.4265 2.1945
# 5 -4.7082 -1.8961 1.6550 4.4265 43.8569 -13.5027
# 6 -10.4780 7.0907 5.2375 2.1945 -13.5027 10.7272
#
#
#
# Elastic Compliance Matrix: (Units=1/GPa)
#
#
# Indices 1 2 3 4 5 6 
#
# 1 0.020632 -0.007722 -0.006077 -0.011958 0.020834 0.056895
# 2 -0.007722 0.016049 0.001112 0.008127 -0.011862 -0.035289
# 3 -0.006077 0.001112 0.008276 0.005650 -0.008393 -0.022432
# 4 -0.011958 0.008127 0.005650 0.076719 -0.032362 -0.076240
# 5 0.020834 -0.011862 -0.008393 -0.032362 0.065454 0.121298
# 6 0.056895 -0.035289 -0.022432 -0.076240 0.121298 0.351352
#
#
# Mechanical properties :
#
#
# Convention : Reuss Voigt Hill
#
# Bulk Modulus (GPa) = 51.06174 56.48595 53.77384
# Shear Modulus (GPa) = 8.76604 32.29150 20.52877
#
# Velocity S-wave (km/s) = 2.00049 3.83953 3.06137
# Velocity P-wave (km/s) = 5.35230 6.74118 6.08649
#
# Compressibility (1/GPa) = 0.01958413
#
# Stress axis : x y z
#
# Youngs Moduli (GPa) = 48.46837 62.30742 120.83387
#
# Poissons Ratio (x) = 0.48116 0.73426
# Poissons Ratio (y) = 0.37429 -0.13441
# Poissons Ratio (z) = 0.29452 -0.06931
#
# Static dielectric constant tensor:
#      x y z
#    x 1.886180 0.019430 -0.034510 
#    y 0.019430 1.869440 -0.021480 
#    z -0.034510 -0.021480 1.822590 
# 
# From -- ./inp_files/426355.got.cif
#   From: 2010.05.17/outbox.cif.g08.bks.cpg/sg2_214_cif.got.tgz:426355.got - 2010.06.03 11:33:40.
