data_PCOD9100385
_publ_section_title
;
Structure prediction by ZEFSAII (Michael W. Deem and Ramdas Pophale) SiO2 
 PCOD9100385
Probable space group: P -1
;
_chemical_formula_sum "Si O2"
_cell_formula_units_Z 16
_cell_length_a 11.815182
_cell_length_b 11.773940
_cell_length_c 12.382830
_cell_angle_alpha 59.634918
_cell_angle_beta 76.908506
_cell_angle_gamma 127.118304
_cell_volume 752.429034
_symmetry_space_group_name_H-M "P -1"
_symmetry_group_IT_number 2
_symmetry_cell_setting 'triclinic'
loop_
_space_group_symop_operation_xyz
x,y,z
-x,-y,-z
loop_
_atom_site_type_symbol
_atom_site_label
_atom_site_fract_x
_atom_site_fract_y
_atom_site_fract_z
Si Si1 0.243144 0.008592 0.057829
Si Si2 0.684569 0.071691 0.526001
Si Si3 0.065909 0.115457 0.716670
Si Si4 0.114471 0.274106 0.903709
Si Si5 0.751320 0.208637 0.677020
Si Si6 0.542934 0.291626 0.654685
Si Si7 0.829827 0.399225 0.167113
Si Si8 0.370573 0.209303 0.502358
O O1 0.423861 0.215884 0.828526
O O2 0.307826 0.936839 0.137314
O O3 0.174412 0.044354 0.150716
O O4 0.019085 0.791698 0.136069
O O5 0.750869 0.119511 0.612042
O O6 0.834728 0.330601 0.314538
O O7 0.426480 0.867742 0.684010
O O8 0.687278 0.951627 0.500829
O O9 0.250034 0.408177 0.543425
O O10 0.172852 0.124340 0.598562
O O11 0.028492 0.983187 0.891642
O O12 0.127188 0.405085 0.923763
O O13 0.375330 0.492784 0.719081
O O14 0.607171 0.200628 0.693747
O O15 0.000000 0.500000 0.500000
O O16 0.401689 0.174435 0.631476
O O17 0.000000 0.500000 0.000000
#
# Coordination Sequence:
#
# PCOD9100385 Si02
#       8
#     2   2   2   2   2   2   2   2
#     4  12  25  39  63  95 130 173 214 260 318 386
#     4  10  23  41  63  94 133 168 212 270 324 381
#     4  12  23  40  65  98 133 165 216 272 324 378
#     4  11  22  36  63 100 128 161 215 270 325 381
#     4  12  24  48  66  92 136 174 218 262 318 399
#     4  12  24  39  67  99 128 168 214 271 331 371
#     4  10  20  37  63  97 129 164 211 268 331 377
#     4  11  22  40  65 100 129 164 212 277 328 375
#
# _framework density 21.264462999999999
#
# number of rings (size 3 to 8) (size 9 to 14) (size 15 to 20)
#    0.000    0.750    3.750    5.625    1.750    0.000 
#    2.250    0.625    0.000    3.750    0.000    0.000 
#    0.000    0.000    0.000    0.000    0.000    0.000 
#
# Total GULP energy -89254.966441 kJ/mol
# GULP energy per Si atom -5578.435403 kJ/mol
# Density = 2.121606 g / cm^3
# Si number density = 21.264463 Si / 1000 Ang^3
#
#
#
# Elastic Constant Matrix: (Units=GPa)
#
#
# Indices 1 2 3 4 5 6 
#
# 1 102.3352 38.7484 46.1227 11.7156 -1.0045 -29.7165
# 2 38.7484 65.4737 48.3884 16.5932 9.9736 -7.7588
# 3 46.1227 48.3884 160.0992 19.2651 -3.4079 -16.9822
# 4 11.7156 16.5932 19.2651 19.7479 -11.8203 -3.9370
# 5 -1.0045 9.9736 -3.4079 -11.8203 43.5643 10.5755
# 6 -29.7165 -7.7588 -16.9822 -3.9370 10.5755 28.6276
#
#
#
# Elastic Compliance Matrix: (Units=1/GPa)
#
#
# Indices 1 2 3 4 5 6 
#
# 1 0.017994 -0.006860 -0.001125 -0.002107 -0.002773 0.016887
# 2 -0.006860 0.032298 -0.004702 -0.027672 -0.015625 0.000809
# 3 -0.001125 -0.004702 0.008598 -0.003134 0.000365 0.002093
# 4 -0.002107 -0.027672 -0.003134 0.096956 0.035059 -0.011163
# 5 -0.002773 -0.015625 0.000365 0.035059 0.040110 -0.016893
# 6 0.016887 0.000809 0.002093 -0.011163 -0.016893 0.058627
#
#
# Mechanical properties :
#
#
# Convention : Reuss Voigt Hill
#
# Bulk Modulus (GPa) = 29.83705 66.04748 47.94226
# Shear Modulus (GPa) = 17.17457 31.36454 24.26956
#
# Velocity S-wave (km/s) = 2.84503 3.84471 3.38201
# Velocity P-wave (km/s) = 4.98539 7.12997 6.15185
#
# Compressibility (1/GPa) = 0.03351538
#
# Stress axis : x y z
#
# Youngs Moduli (GPa) = 55.57438 30.96211 116.30304
#
# Poissons Ratio (x) = 0.21241 0.13080
# Poissons Ratio (y) = 0.38126 0.54687
# Poissons Ratio (z) = 0.06250 0.14559
#
# Static dielectric constant tensor:
#      x y z
#    x 1.846810 -0.039320 0.008220 
#    y -0.039320 1.783560 0.024070 
#    z 0.008220 0.024070 1.808600 
# 
# From -- ./inp_files/427791.got.cif
#   From: 2010.05.17/outbox.cif.g08.bks.cpg/sg2_214_cif.got.tgz:427791.got - 2010.06.03 11:33:40.
