data_PCOD9100817
_publ_section_title
;
Structure prediction by ZEFSAII (Michael W. Deem and Ramdas Pophale) SiO2 
 PCOD9100817
Probable space group: P -1
;
_chemical_formula_sum "Si O2"
_cell_formula_units_Z 16
_cell_length_a 11.228291
_cell_length_b 11.728493
_cell_length_c 8.084291
_cell_angle_alpha 96.510981
_cell_angle_beta 117.494812
_cell_angle_gamma 55.432386
_cell_volume 761.406779
_symmetry_space_group_name_H-M "P -1"
_symmetry_group_IT_number 2
_symmetry_cell_setting 'triclinic'
loop_
_space_group_symop_operation_xyz
x,y,z
-x,-y,-z
loop_
_atom_site_type_symbol
_atom_site_label
_atom_site_fract_x
_atom_site_fract_y
_atom_site_fract_z
Si Si1 0.603200 0.446981 0.883230
Si Si2 0.729016 0.446212 0.459127
Si Si3 0.349339 0.199220 0.068630
Si Si4 0.699684 0.017024 0.147424
Si Si5 0.872577 0.126473 0.060218
Si Si6 0.816586 0.529830 0.191230
Si Si7 0.000018 0.865617 0.526078
Si Si8 0.865963 0.577858 0.778831
O O1 0.458282 0.506755 0.665621
O O2 0.500000 0.500000 0.000000
O O3 0.729821 0.277694 0.917915
O O4 0.722129 0.497305 0.989579
O O5 0.758301 0.512635 0.327372
O O6 0.852399 0.277456 0.489414
O O7 0.785827 0.498906 0.654000
O O8 0.343598 0.066856 0.012929
O O9 0.244685 0.313562 0.874547
O O10 0.273689 0.272334 0.207408
O O11 0.536951 0.144531 0.153727
O O12 0.828133 0.909064 0.349446
O O13 0.779900 0.075884 0.098764
O O14 0.970877 0.154279 0.262575
O O15 0.000000 0.000000 0.000000
O O16 0.015263 0.428665 0.287396
O O17 0.000000 0.000000 0.500000
O O18 0.000000 0.500000 0.000000
#
# Coordination Sequence:
#
# PCOD9100817 Si02
#       8
#     2   2   2   2   2   2   2   2
#     4  10  20  38  65  90 123 160 210 260 313 363
#     4  11  21  39  66  93 121 170 212 260 318 377
#     4  10  22  40  61  89 123 170 203 260 306 381
#     4  10  22  40  63  83 128 170 207 240 327 381
#     4  11  23  40  65  94 124 163 209 266 312 371
#     4  10  20  37  66  87 126 159 211 260 314 369
#     4  10  21  37  60  86 126 162 206 248 318 382
#     4  10  22  38  58  91 128 156 211 260 310 369
#
# _framework density 21.013736000000002
#
# number of rings (size 3 to 8) (size 9 to 14) (size 15 to 20)
#    0.000    1.750    2.500    3.375    3.500    1.000 
#    2.250    2.500    0.000    4.500    0.000    0.000 
#    0.000    0.000    0.000    0.000    0.000    0.000 
#
# Total GULP energy -89285.085668 kJ/mol
# GULP energy per Si atom -5580.317854 kJ/mol
# Density = 2.096591 g / cm^3
# Si number density = 21.013736 Si / 1000 Ang^3
#
#
#
# Elastic Constant Matrix: (Units=GPa)
#
#
# Indices 1 2 3 4 5 6 
#
# 1 54.4362 11.1962 13.6708 4.1688 23.9330 -15.6876
# 2 11.1962 113.9817 30.3708 1.7069 19.4281 -29.1052
# 3 13.6708 30.3708 92.7273 16.3259 23.2822 -19.5032
# 4 4.1688 1.7069 16.3259 35.1498 5.9886 7.9189
# 5 23.9330 19.4281 23.2822 5.9886 28.9776 -6.2657
# 6 -15.6876 -29.1052 -19.5032 7.9189 -6.2657 42.0019
#
#
#
# Elastic Compliance Matrix: (Units=1/GPa)
#
#
# Indices 1 2 3 4 5 6 
#
# 1 0.034625 0.004379 0.005305 -0.004672 -0.031675 0.014585
# 2 0.004379 0.012313 -0.000153 -0.001441 -0.009516 0.008948
# 3 0.005305 -0.000153 0.017001 -0.008155 -0.014268 0.009178
# 4 -0.004672 -0.001441 -0.008155 0.035601 0.001195 -0.013064
# 5 -0.031675 -0.009516 -0.014268 0.001195 0.075229 -0.014053
# 6 0.014585 0.008948 0.009178 -0.013064 -0.014053 0.040085
#
#
# Mechanical properties :
#
#
# Convention : Reuss Voigt Hill
#
# Bulk Modulus (GPa) = 12.04841 41.29122 26.66982
# Shear Modulus (GPa) = 22.37541 34.95302 28.66421
#
# Velocity S-wave (km/s) = 3.26667 4.08283 3.69734
# Velocity P-wave (km/s) = 4.46925 6.47444 5.56294
#
# Compressibility (1/GPa) = 0.08299850
#
# Stress axis : x y z
#
# Youngs Moduli (GPa) = 28.88124 81.21805 58.81925
#
# Poissons Ratio (x) = -0.35564 -0.31201
# Poissons Ratio (y) = -0.12647 0.00902
# Poissons Ratio (z) = -0.15320 0.01245
#
# Static dielectric constant tensor:
#      x y z
#    x 1.802800 -0.006240 0.002380 
#    y -0.006240 1.748390 -0.004840 
#    z 0.002380 -0.004840 1.816040 
# 
# From -- ./inp_files/259136.got.cif
#   From: 2010.05.17/outbox.cif.g08.bks.cpg/sg2_130_cif.got.tgz:259136.got - 2010.06.03 11:33:40.
