data_PCOD9100811
_publ_section_title
;
Structure prediction by ZEFSAII (Michael W. Deem and Ramdas Pophale) SiO2 
 PCOD9100811
Probable space group: P -1
;
_chemical_formula_sum "Si O2"
_cell_formula_units_Z 12
_cell_length_a 7.963775
_cell_length_b 14.681281
_cell_length_c 10.358054
_cell_angle_alpha 25.438937
_cell_angle_beta 81.861998
_cell_angle_gamma 84.529417
_cell_volume 513.459445
_symmetry_space_group_name_H-M "P -1"
_symmetry_group_IT_number 2
_symmetry_cell_setting 'triclinic'
loop_
_space_group_symop_operation_xyz
x,y,z
-x,-y,-z
loop_
_atom_site_type_symbol
_atom_site_label
_atom_site_fract_x
_atom_site_fract_y
_atom_site_fract_z
Si Si1 0.905500 0.446182 0.915462
Si Si2 0.747960 0.635273 0.934295
Si Si3 0.583465 0.400840 0.818286
Si Si4 0.694092 0.972462 0.299820
Si Si5 0.647415 0.846425 0.174216
Si Si6 0.968470 0.065052 0.772464
O O1 0.806042 0.468143 0.034358
O O2 0.751328 0.393536 0.900932
O O3 0.998291 0.682143 0.572544
O O4 0.068731 0.306807 0.091210
O O5 0.672316 0.821420 0.618801
O O6 0.592613 0.560541 0.139436
O O7 0.620130 0.598114 0.465751
O O8 0.576505 0.165755 0.060205
O O9 0.686298 0.845051 0.328175
O O10 0.895106 0.046243 0.184815
O O11 0.500000 0.000000 0.000000
O O12 0.779818 0.961663 0.912522
O O13 0.000000 0.000000 0.000000
#
# Coordination Sequence:
#
# PCOD9100811 Si02
#       6
#     2   2   2   2   2   2
#     4  10  20  37  66  86 118 168 190 240 308 343
#     4  10  21  40  59  92 125 149 205 245 285 370
#     4  12  22  39  65  89 120 160 195 243 307 346
#     4  10  23  40  59  90 120 153 201 248 292 354
#     4  11  23  41  62  86 119 160 199 247 300 349
#     4   9  17  40  57  82 120 150 201 241 280 356
#
# _framework density 23.37088
#
# number of rings (size 3 to 8) (size 9 to 14) (size 15 to 20)
#    0.000    1.667    5.000    2.000    0.000    2.000 
#    3.000    0.000    0.000    0.000    0.000    0.000 
#    0.000    0.000    0.000    0.000    0.000    0.000 
#
# Total GULP energy -66850.064211 kJ/mol
# GULP energy per Si atom -5570.838684 kJ/mol
# Density = 2.331769 g / cm^3
# Si number density = 23.370880 Si / 1000 Ang^3
#
#
#
# Elastic Constant Matrix: (Units=GPa)
#
#
# Indices 1 2 3 4 5 6 
#
# 1 88.6567 10.4982 4.7285 -6.5452 -1.4375 -9.8323
# 2 10.4982 33.5570 10.3997 -9.1288 -14.2299 2.4346
# 3 4.7285 10.3997 59.1625 -4.4978 8.0679 -9.8481
# 4 -6.5452 -9.1288 -4.4978 24.7030 -12.6643 -0.0759
# 5 -1.4375 -14.2299 8.0679 -12.6643 38.7615 13.9246
# 6 -9.8323 2.4346 -9.8481 -0.0759 13.9246 37.7734
#
#
#
# Elastic Compliance Matrix: (Units=1/GPa)
#
#
# Indices 1 2 3 4 5 6 
#
# 1 0.012649 -0.008863 0.002405 -0.002922 -0.006744 0.006971
# 2 -0.008863 0.100502 -0.030779 0.071843 0.083489 -0.047442
# 3 0.002405 -0.030779 0.028473 -0.021975 -0.032164 0.021846
# 4 -0.002922 0.071843 -0.021975 0.102454 0.078651 -0.039908
# 5 -0.006744 0.083489 -0.032164 0.078651 0.108475 -0.055352
# 6 0.006971 -0.047442 0.021846 -0.039908 -0.055352 0.057366
#
#
# Mechanical properties :
#
#
# Convention : Reuss Voigt Hill
#
# Bulk Modulus (GPa) = 14.89209 25.84768 20.36988
# Shear Modulus (GPa) = 9.86634 30.63089 20.24862
#
# Velocity S-wave (km/s) = 2.05689 3.62421 2.94667
# Velocity P-wave (km/s) = 3.46799 5.34761 4.50688
#
# Compressibility (1/GPa) = 0.06714973
#
# Stress axis : x y z
#
# Youngs Moduli (GPa) = 79.05929 9.95009 35.12151
#
# Poissons Ratio (x) = 0.08819 -0.08447
# Poissons Ratio (y) = 0.70070 1.08099
# Poissons Ratio (z) = -0.19013 0.30625
#
# Static dielectric constant tensor:
#      x y z
#    x 2.133430 0.147730 -0.092800 
#    y 0.147730 1.958380 -0.066960 
#    z -0.092800 -0.066960 1.973860 
# 
# From -- ./inp_files/172127.got.cif
#   From: 2010.05.17/outbox.cif.g08.bks.cpg/sg2_87_cif.got.tgz:172127.got - 2010.06.03 11:33:40.
