data_PCOD9100188
_publ_section_title
;
Structure prediction by ZEFSAII (Michael W. Deem and Ramdas Pophale) SiO2 
 PCOD9100188
Probable space group: P -1
;
_chemical_formula_sum "Si O2"
_cell_formula_units_Z 16
_cell_length_a 9.514675
_cell_length_b 14.056796
_cell_length_c 14.409293
_cell_angle_alpha 40.985907
_cell_angle_beta 58.060557
_cell_angle_gamma 31.734175
_cell_volume 628.157425
_symmetry_space_group_name_H-M "P -1"
_symmetry_group_IT_number 2
_symmetry_cell_setting 'triclinic'
loop_
_space_group_symop_operation_xyz
x,y,z
-x,-y,-z
loop_
_atom_site_type_symbol
_atom_site_label
_atom_site_fract_x
_atom_site_fract_y
_atom_site_fract_z
Si Si1 0.776586 0.985636 0.146748
Si Si2 0.303447 0.332596 0.797892
Si Si3 0.170594 0.951294 0.390993
Si Si4 0.195814 0.502072 0.912419
Si Si5 0.950249 0.997344 0.252486
Si Si6 0.082686 0.181597 0.990116
Si Si7 0.857404 0.782760 0.532857
Si Si8 0.552701 0.873216 0.415323
O O1 0.667590 0.906641 0.277218
O O2 0.002483 0.886884 0.214787
O O3 0.486334 0.287182 0.027967
O O4 0.889448 0.887416 0.075730
O O5 0.306868 0.408626 0.838377
O O6 0.187124 0.525561 0.621419
O O7 0.620839 0.051548 0.885284
O O8 0.079502 0.357605 0.861435
O O9 0.999399 0.218578 0.225082
O O10 0.463034 0.794201 0.450588
O O11 0.162269 0.865154 0.362940
O O12 0.000000 0.000000 0.500000
O O13 0.000000 0.500000 0.000000
O O14 0.757841 0.006338 0.357851
O O15 0.873669 0.216125 0.087255
O O16 0.720097 0.878351 0.612702
O O17 0.770062 0.720057 0.537228
#
# Coordination Sequence:
#
# PCOD9100188 Si02
#       8
#     2   2   2   2   2   2   2   2
#     4  10  22  40  62  85 119 161 198 240 294 345
#     4  10  20  38  60  89 112 160 202 238 289 353
#     4  12  22  37  59  91 123 151 191 244 303 349
#     4  11  19  35  61  86 118 154 195 240 295 361
#     4  11  23  39  60  87 122 156 192 249 294 343
#     4  10  23  38  63  85 120 155 205 247 281 340
#     4  10  20  40  63  86 119 157 193 240 303 353
#     4  10  20  37  63  86 119 155 190 243 294 357
#
# _framework density 25.471321
#
# number of rings (size 3 to 8) (size 9 to 14) (size 15 to 20)
#    0.000    1.500    3.750    1.125    3.500    1.000 
#    2.250    2.500    2.750    0.000    0.000    0.000 
#    0.000    0.000    0.000    0.000    0.000    0.000 
#
# Total GULP energy -89190.607729 kJ/mol
# GULP energy per Si atom -5574.412983 kJ/mol
# Density = 2.541335 g / cm^3
# Si number density = 25.471321 Si / 1000 Ang^3
#
#
#
# Elastic Constant Matrix: (Units=GPa)
#
#
# Indices 1 2 3 4 5 6 
#
# 1 171.8147 19.2853 49.2216 22.1345 21.8912 13.4663
# 2 19.2853 51.2592 36.0192 12.5911 6.5046 8.2990
# 3 49.2216 36.0192 110.9903 16.4371 -1.7622 1.6148
# 4 22.1345 12.5911 16.4371 39.7797 2.0333 2.3554
# 5 21.8912 6.5046 -1.7622 2.0333 50.8726 6.0157
# 6 13.4663 8.2990 1.6148 2.3554 6.0157 22.6774
#
#
#
# Elastic Compliance Matrix: (Units=1/GPa)
#
#
# Indices 1 2 3 4 5 6 
#
# 1 0.007696 0.001144 -0.003351 -0.002889 -0.003027 -0.003647
# 2 0.001144 0.028495 -0.008890 -0.005283 -0.003158 -0.009088
# 3 -0.003351 -0.008890 0.013559 -0.001279 0.002661 0.003705
# 4 -0.002889 -0.005283 -0.001279 0.028880 0.000653 0.000567
# 5 -0.003027 -0.003158 0.002661 0.000653 0.021794 -0.003086
# 6 -0.003647 -0.009088 0.003705 0.000567 -0.003086 0.050084
#
#
# Mechanical properties :
#
#
# Convention : Reuss Voigt Hill
#
# Bulk Modulus (GPa) = 36.29220 60.34627 48.31923
# Shear Modulus (GPa) = 27.48959 37.96849 32.72904
#
# Velocity S-wave (km/s) = 3.28874 3.86507 3.58849
# Velocity P-wave (km/s) = 5.35726 6.60769 6.01506
#
# Compressibility (1/GPa) = 0.02755413
#
# Stress axis : x y z
#
# Youngs Moduli (GPa) = 129.94564 35.09375 73.75265
#
# Poissons Ratio (x) = -0.04013 0.24715
# Poissons Ratio (y) = -0.14860 0.65567
# Poissons Ratio (z) = 0.43546 0.31199
#
# Static dielectric constant tensor:
#      x y z
#    x 2.101180 -0.023060 -0.047040 
#    y -0.023060 2.066990 -0.008050 
#    z -0.047040 -0.008050 2.087840 
# 
# From -- ./inp_files/348990.got.cif
#   From: 2010.05.17/outbox.cif.g08.bks.cpg/sg2_175_cif.got.tgz:348990.got - 2010.06.03 11:33:40.
