data_PCOD9100781
_publ_section_title
;
Structure prediction by ZEFSAII (Michael W. Deem and Ramdas Pophale) SiO2 
 PCOD9100781
Probable space group: P -1
;
_chemical_formula_sum "Si O2"
_cell_formula_units_Z 16
_cell_length_a 9.185559
_cell_length_b 5.558074
_cell_length_c 16.429564
_cell_angle_alpha 107.195982
_cell_angle_beta 74.385855
_cell_angle_gamma 119.138918
_cell_volume 691.965244
_symmetry_space_group_name_H-M "P -1"
_symmetry_group_IT_number 2
_symmetry_cell_setting 'triclinic'
loop_
_space_group_symop_operation_xyz
x,y,z
-x,-y,-z
loop_
_atom_site_type_symbol
_atom_site_label
_atom_site_fract_x
_atom_site_fract_y
_atom_site_fract_z
Si Si1 0.713039 0.560610 0.383189
Si Si2 0.409495 0.080972 0.448643
Si Si3 0.035632 0.729962 0.445189
Si Si4 0.177169 0.772767 0.095077
Si Si5 0.443817 0.451998 0.759455
Si Si6 0.161143 0.308247 0.921859
Si Si7 0.590877 0.094930 0.793741
Si Si8 0.374240 0.171733 0.974765
O O1 0.566117 0.245993 0.382646
O O2 0.661351 0.719056 0.477402
O O3 0.678861 0.665077 0.312199
O O4 0.897852 0.590497 0.380024
O O5 0.500000 0.000000 0.500000
O O6 0.236714 0.848284 0.411715
O O7 0.000000 0.500000 0.500000
O O8 0.000000 0.000000 0.500000
O O9 0.227910 0.730848 0.173598
O O10 0.004609 0.796574 0.116974
O O11 0.164773 0.532263 0.010196
O O12 0.325822 0.043392 0.057997
O O13 0.321632 0.431988 0.850726
O O14 0.542796 0.272390 0.752609
O O15 0.566656 0.777580 0.753423
O O16 0.193716 0.091285 0.951386
O O17 0.463499 0.066787 0.884389
O O18 0.500000 0.500000 0.000000
#
# Coordination Sequence:
#
# PCOD9100781 Si02
#       8
#     2   2   2   2   2   2   2   2
#     4  10  23  41  65  94 134 165 209 260 314 381
#     4  10  20  39  71  98 123 164 215 257 306 374
#     4  10  20  37  65  98 126 159 204 255 307 365
#     4  11  20  37  60  87 115 157 214 267 296 361
#     4  11  25  43  59  89 126 173 196 253 321 376
#     4  10  22  36  58  86 121 156 205 261 315 359
#     4  11  23  39  62  85 123 164 217 247 314 375
#     4  11  19  35  60  86 110 158 210 262 302 362
#
# _framework density 23.122547000000001
#
# number of rings (size 3 to 8) (size 9 to 14) (size 15 to 20)
#    0.000    1.500    3.750    2.250    1.750    0.000 
#    2.250    0.000    0.000    0.000    0.000    0.000 
#    0.000    0.000    0.000    0.000    0.000    0.000 
#
# Total GULP energy -89194.110423 kJ/mol
# GULP energy per Si atom -5574.631901 kJ/mol
# Density = 2.306992 g / cm^3
# Si number density = 23.122547 Si / 1000 Ang^3
#
#
#
# Elastic Constant Matrix: (Units=GPa)
#
#
# Indices 1 2 3 4 5 6 
#
# 1 193.9221 47.3044 43.3521 -6.2500 61.6654 4.6892
# 2 47.3044 92.9411 21.2563 -3.3320 18.7526 -9.4944
# 3 43.3521 21.2563 68.6634 -2.7862 40.4000 -2.8241
# 4 -6.2500 -3.3320 -2.7862 26.1642 -10.3222 7.9182
# 5 61.6654 18.7526 40.4000 -10.3222 53.3763 -1.4635
# 6 4.6892 -9.4944 -2.8241 7.9182 -1.4635 38.1288
#
#
#
# Elastic Compliance Matrix: (Units=1/GPa)
#
#
# Indices 1 2 3 4 5 6 
#
# 1 0.008989 -0.002969 0.001496 -0.001826 -0.010876 -0.001772
# 2 -0.002969 0.013028 -0.002515 -0.000032 0.000846 0.003462
# 3 0.001496 -0.002515 0.027811 -0.006656 -0.023134 0.001744
# 4 -0.001826 -0.000032 -0.006656 0.046111 0.015822 -0.009245
# 5 -0.010876 0.000846 -0.023134 0.015822 0.051531 -0.001473
# 6 -0.001772 0.003462 0.001744 -0.009245 -0.001473 0.029300
#
#
# Mechanical properties :
#
#
# Convention : Reuss Voigt Hill
#
# Bulk Modulus (GPa) = 23.89422 64.37247 44.13335
# Shear Modulus (GPa) = 25.16400 39.77478 32.46939
#
# Velocity S-wave (km/s) = 3.30250 4.15200 3.75137
# Velocity P-wave (km/s) = 4.98981 7.13341 6.15564
#
# Compressibility (1/GPa) = 0.04185112
#
# Stress axis : x y z
#
# Youngs Moduli (GPa) = 111.24717 76.75833 35.95722
#
# Poissons Ratio (x) = 0.22793 -0.05378
# Poissons Ratio (y) = 0.33034 0.09042
# Poissons Ratio (z) = -0.16640 0.19302
#
# Static dielectric constant tensor:
#      x y z
#    x 2.224040 -0.540240 -0.347650 
#    y -0.540240 2.943390 0.799290 
#    z -0.347650 0.799290 2.522630 
# 
# From -- ./inp_files/44415.got.cif
#   From: 2010.05.17/outbox.cif.g08.bks.cpg/sg2_23_cif.got.tgz:44415.got - 2010.06.03 11:33:40.
