data_PCOD9100331
_publ_section_title
;
Structure prediction by ZEFSAII (Michael W. Deem and Ramdas Pophale) SiO2 
 PCOD9100331
Probable space group: P -1
;
_chemical_formula_sum "Si O2"
_cell_formula_units_Z 16
_cell_length_a 11.379689
_cell_length_b 9.746574
_cell_length_c 14.003964
_cell_angle_alpha 113.035267
_cell_angle_beta 73.480893
_cell_angle_gamma 50.534359
_cell_volume 729.511759
_symmetry_space_group_name_H-M "P -1"
_symmetry_group_IT_number 2
_symmetry_cell_setting 'triclinic'
loop_
_space_group_symop_operation_xyz
x,y,z
-x,-y,-z
loop_
_atom_site_type_symbol
_atom_site_label
_atom_site_fract_x
_atom_site_fract_y
_atom_site_fract_z
Si Si1 0.640777 0.430310 0.736285
Si Si2 0.799437 0.778329 0.682046
Si Si3 0.645217 0.035080 0.433989
Si Si4 0.914392 0.464546 0.146996
Si Si5 0.439932 0.957446 0.911973
Si Si6 0.867861 0.373172 0.321300
Si Si7 0.510572 0.734368 0.252198
Si Si8 0.901207 0.079870 0.386576
O O1 0.505921 0.721500 0.857430
O O2 0.479762 0.452562 0.791972
O O3 0.755263 0.300750 0.568833
O O4 0.847819 0.207437 0.704409
O O5 0.617392 0.838222 0.761814
O O6 0.000000 0.500000 0.500000
O O7 0.933399 0.714282 0.721178
O O8 0.671813 0.037942 0.724392
O O9 0.394277 0.299147 0.514000
O O10 0.595053 0.095747 0.576379
O O11 0.783620 0.042915 0.379255
O O12 0.788422 0.741074 0.294085
O O13 0.893480 0.347008 0.194306
O O14 0.749213 0.573276 0.131891
O O15 0.179484 0.229354 0.008745
O O16 0.500000 0.000000 0.000000
O O17 0.900178 0.192819 0.327987
#
# Coordination Sequence:
#
# PCOD9100331 Si02
#       8
#     2   2   2   2   2   2   2   2
#     4  10  22  39  61  92 128 167 210 267 316 371
#     4  12  23  39  67  96 124 164 219 259 305 384
#     4  10  21  38  65  95 130 165 207 265 318 370
#     4  11  23  42  61  91 134 169 204 258 327 377
#     4  12  26  42  63  94 133 170 206 262 329 375
#     4  11  20  37  61  95 124 164 214 257 309 377
#     4  10  22  41  65  94 124 169 217 261 311 373
#     4  10  20  37  63  93 126 159 218 264 311 368
#
# _framework density 21.932478
#
# number of rings (size 3 to 8) (size 9 to 14) (size 15 to 20)
#    0.000    1.250    2.500    4.875    3.500    1.000 
#    0.000    3.750    0.000    0.000    0.000    0.000 
#    0.000    0.000    0.000    0.000    0.000    0.000 
#
# Total GULP energy -89423.381999 kJ/mol
# GULP energy per Si atom -5588.961375 kJ/mol
# Density = 2.188256 g / cm^3
# Si number density = 21.932478 Si / 1000 Ang^3
#
#
#
# Elastic Constant Matrix: (Units=GPa)
#
#
# Indices 1 2 3 4 5 6 
#
# 1 148.6038 34.6778 56.9307 29.5166 -27.7005 16.2196
# 2 34.6778 88.5804 22.0810 16.5388 -7.3524 13.1486
# 3 56.9307 22.0810 72.5805 23.1595 -25.1014 15.3130
# 4 29.5166 16.5388 23.1595 26.0516 2.4948 1.8588
# 5 -27.7005 -7.3524 -25.1014 2.4948 42.7013 8.8698
# 6 16.2196 13.1486 15.3130 1.8588 8.8698 29.7754
#
#
#
# Elastic Compliance Matrix: (Units=1/GPa)
#
#
# Indices 1 2 3 4 5 6 
#
# 1 0.012844 0.000329 0.001960 -0.016950 0.012795 -0.010903
# 2 0.000329 0.015067 0.005688 -0.015069 0.009448 -0.011631
# 3 0.001960 0.005688 0.049775 -0.051397 0.042540 -0.038641
# 4 -0.016950 -0.015069 -0.051397 0.114933 -0.061633 0.053505
# 5 0.012795 0.009448 0.042540 -0.061633 0.072498 -0.050768
# 6 -0.010903 -0.011631 -0.038641 0.053505 -0.050768 0.076316
#
#
# Mechanical properties :
#
#
# Convention : Reuss Voigt Hill
#
# Bulk Modulus (GPa) = 10.67937 59.68261 35.18099
# Shear Modulus (GPa) = 14.01768 32.77733 23.39751
#
# Velocity S-wave (km/s) = 2.53084 3.87003 3.26973
# Velocity P-wave (km/s) = 3.66333 6.87317 5.50729
#
# Compressibility (1/GPa) = 0.09363850
#
# Stress axis : x y z
#
# Youngs Moduli (GPa) = 77.85914 66.37082 20.09042
#
# Poissons Ratio (x) = -0.02181 -0.03937
# Poissons Ratio (y) = -0.02558 -0.11428
# Poissons Ratio (z) = -0.15258 -0.37753
#
# Static dielectric constant tensor:
#      x y z
#    x 1.846690 -0.051180 -0.007170 
#    y -0.051180 1.846870 -0.055550 
#    z -0.007170 -0.055550 1.815490 
# 
# From -- ./inp_files/209293.got.cif
#   From: 2010.05.17/outbox.cif.g08.bks.cpg/sg2_105_cif.got.tgz:209293.got - 2010.06.03 11:33:40.
