data_PCOD9100379
_publ_section_title
;
Structure prediction by ZEFSAII (Michael W. Deem and Ramdas Pophale) SiO2 
 PCOD9100379
Probable space group: P -1
;
_chemical_formula_sum "Si O2"
_cell_formula_units_Z 16
_cell_length_a 14.282373
_cell_length_b 14.307724
_cell_length_c 11.349702
_cell_angle_alpha 41.347470
_cell_angle_beta 149.711819
_cell_angle_gamma 135.792295
_cell_volume 756.210794
_symmetry_space_group_name_H-M "P -1"
_symmetry_group_IT_number 2
_symmetry_cell_setting 'triclinic'
loop_
_space_group_symop_operation_xyz
x,y,z
-x,-y,-z
loop_
_atom_site_type_symbol
_atom_site_label
_atom_site_fract_x
_atom_site_fract_y
_atom_site_fract_z
Si Si1 0.224603 0.863783 0.862446
Si Si2 0.860049 0.030016 0.920666
Si Si3 0.303235 0.702432 0.481099
Si Si4 0.445018 0.111202 0.618845
Si Si5 0.081617 0.114243 0.322996
Si Si6 0.395662 0.265216 0.033721
Si Si7 0.675140 0.221596 0.193804
Si Si8 0.949319 0.573494 0.495587
O O1 0.293553 0.774198 0.916779
O O2 0.046512 0.804603 0.811529
O O3 0.153993 0.994237 0.595171
O O4 0.405640 0.912064 0.096851
O O5 0.952322 0.043557 0.139343
O O6 0.807357 0.182747 0.692803
O O7 0.676565 0.901460 0.848443
O O8 0.000000 0.000000 0.000000
O O9 0.434217 0.791076 0.440217
O O10 0.441275 0.660764 0.769481
O O11 0.151826 0.563530 0.405874
O O12 0.280338 0.191033 0.408978
O O13 0.346795 0.947188 0.630627
O O14 0.491187 0.268101 0.006042
O O15 0.211410 0.332689 0.779138
O O16 0.862191 0.324586 0.349021
O O17 0.000000 0.500000 0.500000
#
# Coordination Sequence:
#
# PCOD9100379 Si02
#       8
#     2   2   2   2   2   2   2   2
#     4  10  21  39  65  99 131 170 227 277 320 389
#     4  12  24  39  68 105 135 168 223 281 336 386
#     4  12  25  42  65  98 141 171 212 284 337 390
#     4  11  22  41  66 102 129 168 225 282 325 378
#     4  10  20  37  63  96 137 169 210 276 340 375
#     4  12  24  42  68  95 132 175 227 266 330 402
#     4  11  23  41  71  94 128 176 228 265 325 395
#     4  12  27  46  64  97 140 180 218 262 341 416
#
# _framework density 21.158121000000001
#
# number of rings (size 3 to 8) (size 9 to 14) (size 15 to 20)
#    0.000    0.750    3.750    5.250    3.500    3.000 
#    0.000    0.625    0.000    1.500    0.000    0.000 
#    0.000    0.000    0.000    0.000    0.000    0.000 
#
# Total GULP energy -89366.671531 kJ/mol
# GULP energy per Si atom -5585.416971 kJ/mol
# Density = 2.110996 g / cm^3
# Si number density = 21.158121 Si / 1000 Ang^3
#
#
#
# Elastic Constant Matrix: (Units=GPa)
#
#
# Indices 1 2 3 4 5 6 
#
# 1 168.2580 38.8817 26.4975 13.4068 18.7800 4.9249
# 2 38.8817 114.6936 26.0853 10.7022 0.3617 10.2511
# 3 26.4975 26.0853 59.7129 11.8528 18.3330 -8.5784
# 4 13.4068 10.7022 11.8528 27.4409 0.1932 1.3186
# 5 18.7800 0.3617 18.3330 0.1932 37.2368 5.1491
# 6 4.9249 10.2511 -8.5784 1.3186 5.1491 24.6463
#
#
#
# Elastic Compliance Matrix: (Units=1/GPa)
#
#
# Indices 1 2 3 4 5 6 
#
# 1 0.007065 -0.001951 -0.000916 -0.002266 -0.003059 -0.000159
# 2 -0.001951 0.011703 -0.007030 -0.000226 0.005446 -0.008050
# 3 -0.000916 -0.007030 0.029903 -0.010453 -0.016562 0.017535
# 4 -0.002266 -0.000226 -0.010453 0.042431 0.007015 -0.006827
# 5 -0.003059 0.005446 -0.016562 0.007015 0.038658 -0.015870
# 6 -0.000159 -0.008050 0.017535 -0.006827 -0.015870 0.053738
#
#
# Mechanical properties :
#
#
# Convention : Reuss Voigt Hill
#
# Bulk Modulus (GPa) = 34.63149 58.39928 46.51538
# Shear Modulus (GPa) = 23.48316 34.61147 29.04731
#
# Velocity S-wave (km/s) = 3.33511 4.04895 3.70924
# Velocity P-wave (km/s) = 5.58875 7.03704 6.35429
#
# Compressibility (1/GPa) = 0.02887546
#
# Stress axis : x y z
#
# Youngs Moduli (GPa) = 141.53928 85.45048 33.44103
#
# Poissons Ratio (x) = 0.16675 0.03065
# Poissons Ratio (y) = 0.27621 0.23509
# Poissons Ratio (z) = 0.12971 0.60072
#
# Static dielectric constant tensor:
#      x y z
#    x 1.840960 0.009350 0.002190 
#    y 0.009350 1.778000 -0.005920 
#    z 0.002190 -0.005920 1.773120 
# 
# From -- ./inp_files/454576.got.cif
#   From: 2010.05.17/outbox.cif.g08.bks.cpg/sg2_228_cif.got.tgz:454576.got - 2010.06.03 11:33:40.
