data_PCOD9100100
_publ_section_title
;
Structure prediction by ZEFSAII (Michael W. Deem and Ramdas Pophale) SiO2 
 PCOD9100100
Probable space group: P -1
;
_chemical_formula_sum "Si O2"
_cell_formula_units_Z 15
_cell_length_a 17.865781
_cell_length_b 16.065462
_cell_length_c 12.054208
_cell_angle_alpha 129.846476
_cell_angle_beta 149.252692
_cell_angle_gamma 26.846978
_cell_volume 669.243119
_symmetry_space_group_name_H-M "P -1"
_symmetry_group_IT_number 2
_symmetry_cell_setting 'triclinic'
loop_
_space_group_symop_operation_xyz
x,y,z
-x,-y,-z
loop_
_atom_site_type_symbol
_atom_site_label
_atom_site_fract_x
_atom_site_fract_y
_atom_site_fract_z
Si Si1 0.292053 0.299890 0.440214
Si Si2 0.308112 0.771841 0.063857
Si Si3 0.783676 0.038634 0.488140
Si Si4 0.140755 0.231401 0.744866
Si Si5 0.144235 0.294327 0.469359
Si Si6 0.000000 0.000000 0.500000
Si Si7 0.440642 0.459118 0.051207
Si Si8 0.350188 0.164759 0.164385
O O1 0.590004 0.180241 0.715762
O O2 0.300797 0.218048 0.487408
O O3 0.241053 0.273623 0.237238
O O4 0.026347 0.558271 0.336686
O O5 0.400781 0.613553 0.125365
O O6 0.485741 0.636914 0.059369
O O7 0.969534 0.977692 0.768989
O O8 0.949939 0.819039 0.475926
O O9 0.802919 0.093375 0.445572
O O10 0.481157 0.184948 0.281198
O O11 0.107401 0.260477 0.860726
O O12 0.500000 0.000000 0.000000
O O13 0.000000 0.500000 0.500000
O O14 0.379171 0.091912 0.681599
O O15 0.875890 0.385357 0.186468
O O16 0.705889 0.245392 0.282019
#
# Coordination Sequence:
#
# PCOD9100100 Si02
#       8
#     2   2   2   2   2   1   2   2
#     4  12  24  40  64  95 132 169 206 262 326 383
#     4  10  20  40  64  90 124 163 207 265 315 376
#     4  10  21  41  63  93 119 163 221 262 310 371
#     4  10  22  40  65  88 122 165 216 262 308 372
#     4  12  23  40  65  95 123 168 221 266 303 374
#     4  10  22  32  64  94 114 152 210 276 302 354
#     4  10  20  37  62  94 122 153 221 267 306 359
#     4  11  25  41  61  93 134 168 205 261 335 380
#
# _framework density 22.413381000000001
#
# number of rings (size 3 to 8) (size 9 to 14) (size 15 to 20)
#    0.000    1.333    2.667    4.800    5.600    0.533 
#    0.000    0.000    0.000    1.600    0.000    0.000 
#    0.000    0.000    0.000    0.000    0.000    0.000 
#
# Total GULP energy -83530.948855 kJ/mol
# GULP energy per Si atom -5568.729924 kJ/mol
# Density = 2.236237 g / cm^3
# Si number density = 22.413381 Si / 1000 Ang^3
#
#
#
# Elastic Constant Matrix: (Units=GPa)
#
#
# Indices 1 2 3 4 5 6 
#
# 1 115.6139 21.7754 20.0200 -7.2306 -19.7376 27.5274
# 2 21.7754 53.0906 3.3432 -13.4127 -8.3325 8.1834
# 3 20.0200 3.3432 48.9623 -10.6430 -7.9470 14.4734
# 4 -7.2306 -13.4127 -10.6430 32.8880 5.3442 -20.5141
# 5 -19.7376 -8.3325 -7.9470 5.3442 34.5625 -5.0759
# 6 27.5274 8.1834 14.4734 -20.5141 -5.0759 33.4250
#
#
#
# Elastic Compliance Matrix: (Units=1/GPa)
#
#
# Indices 1 2 3 4 5 6 
#
# 1 0.013608 -0.004771 -0.002246 -0.009248 0.005492 -0.013908
# 2 -0.004771 0.023227 0.001797 0.011786 0.002205 0.005032
# 3 -0.002246 0.001797 0.024444 0.003573 0.003266 -0.006486
# 4 -0.009248 0.011786 0.003573 0.059411 -0.005096 0.038873
# 5 0.005492 0.002205 0.003266 -0.005096 0.033476 -0.004521
# 6 -0.013908 0.005032 -0.006486 0.038873 -0.004521 0.066119
#
#
# Mechanical properties :
#
#
# Convention : Reuss Voigt Hill
#
# Bulk Modulus (GPa) = 19.66976 34.21598 26.94287
# Shear Modulus (GPa) = 20.18813 31.67698 25.93255
#
# Velocity S-wave (km/s) = 3.00445 3.76348 3.40518
# Velocity P-wave (km/s) = 4.56405 5.84671 5.24474
#
# Compressibility (1/GPa) = 0.05083945
#
# Stress axis : x y z
#
# Youngs Moduli (GPa) = 73.48846 43.05281 40.91065
#
# Poissons Ratio (x) = 0.20539 0.09188
# Poissons Ratio (y) = 0.35058 -0.07351
# Poissons Ratio (z) = 0.16504 -0.07736
#
# Static dielectric constant tensor:
#      x y z
#    x 1.885030 -0.055200 0.041100 
#    y -0.055200 1.860210 0.026020 
#    z 0.041100 0.026020 1.855330 
# 
# From -- ./inp_files/465907.got.cif
#   From: 2010.05.17/outbox.cif.g08.bks.cpg/sg2_233_cif.got.tgz:465907.got - 2010.06.03 11:33:40.
