data_PCOD9100013
_publ_section_title
;
Structure prediction by ZEFSAII (Michael W. Deem and Ramdas Pophale) SiO2 
 PCOD9100013
Probable space group: P -1
;
_chemical_formula_sum "Si O2"
_cell_formula_units_Z 16
_cell_length_a 11.623123
_cell_length_b 10.541985
_cell_length_c 8.023245
_cell_angle_alpha 94.556351
_cell_angle_beta 110.102152
_cell_angle_gamma 47.535949
_cell_volume 664.321705
_symmetry_space_group_name_H-M "P -1"
_symmetry_group_IT_number 2
_symmetry_cell_setting 'triclinic'
loop_
_space_group_symop_operation_xyz
x,y,z
-x,-y,-z
loop_
_atom_site_type_symbol
_atom_site_label
_atom_site_fract_x
_atom_site_fract_y
_atom_site_fract_z
Si Si1 0.124289 0.549648 0.595271
Si Si2 0.833151 0.195697 0.492133
Si Si3 0.783448 0.852069 0.318856
Si Si4 0.056365 0.084233 0.872092
Si Si5 0.012493 0.364099 0.103320
Si Si6 0.454755 0.199956 0.808299
Si Si7 0.668485 0.953989 0.619591
Si Si8 0.619213 0.294372 0.094679
O O1 0.146359 0.678344 0.559361
O O2 0.305121 0.358262 0.630518
O O3 0.946382 0.646168 0.423946
O O4 0.108793 0.553985 0.788508
O O5 0.670529 0.265455 0.313140
O O6 0.875350 0.171899 0.708509
O O7 0.000000 0.000000 0.500000
O O8 0.843490 0.899782 0.210062
O O9 0.623847 0.880302 0.192198
O O10 0.742145 0.952486 0.482965
O O11 0.195088 0.866792 0.924133
O O12 0.012497 0.223923 0.002585
O O13 0.196961 0.240848 0.263961
O O14 0.000000 0.500000 0.000000
O O15 0.619478 0.078581 0.760060
O O16 0.502970 0.256385 0.988645
O O17 0.500000 0.000000 0.500000
O O18 0.500000 0.500000 0.000000
#
# Coordination Sequence:
#
# PCOD9100013 Si02
#       8
#     2   2   2   2   2   2   2   2
#     4  10  20  37  62  90 125 160 209 245 308 379
#     4   9  20  39  62  84 114 165 209 254 294 360
#     4   9  20  37  62  92 121 158 201 246 320 387
#     4  10  21  40  65  87 122 163 202 257 311 360
#     4  11  22  39  60  95 127 160 205 251 308 384
#     4  11  19  35  64  88 122 157 197 252 318 355
#     4   9  20  38  57  88 124 159 192 247 310 376
#     4  11  21  38  62  87 118 160 212 249 305 357
#
# _framework density 24.084717999999999
#
# number of rings (size 3 to 8) (size 9 to 14) (size 15 to 20)
#    0.000    2.000    2.500    1.125    0.000    5.500 
#    4.500    2.500    2.750    1.500    0.000    0.000 
#    0.000    0.000    0.000    0.000    0.000    0.000 
#
# Total GULP energy -89137.600605 kJ/mol
# GULP energy per Si atom -5571.100038 kJ/mol
# Density = 2.402990 g / cm^3
# Si number density = 24.084718 Si / 1000 Ang^3
#
#
#
# Elastic Constant Matrix: (Units=GPa)
#
#
# Indices 1 2 3 4 5 6 
#
# 1 49.2708 15.9896 31.7579 0.2133 2.5544 0.7815
# 2 15.9896 107.5501 46.2848 -14.1702 -5.1741 -0.3627
# 3 31.7579 46.2848 137.0689 -7.8562 31.3675 6.0531
# 4 0.2133 -14.1702 -7.8562 50.4714 9.6668 0.8139
# 5 2.5544 -5.1741 31.3675 9.6668 45.5645 1.1104
# 6 0.7815 -0.3627 6.0531 0.8139 1.1104 22.8156
#
#
#
# Elastic Compliance Matrix: (Units=1/GPa)
#
#
# Indices 1 2 3 4 5 6 
#
# 1 0.024457 -0.001091 -0.006164 -0.001984 0.003153 0.000698
# 2 -0.001091 0.011924 -0.004694 0.001791 0.004237 0.001202
# 3 -0.006164 -0.004694 0.012739 0.002543 -0.009426 -0.002875
# 4 -0.001984 0.001791 0.002543 0.021897 -0.006056 -0.001065
# 5 0.003153 0.004237 -0.009426 -0.006056 0.029996 0.001216
# 6 0.000698 0.001202 -0.002875 -0.001065 0.001216 0.044566
#
#
# Mechanical properties :
#
#
# Convention : Reuss Voigt Hill
#
# Bulk Modulus (GPa) = 39.64733 53.55049 46.59891
# Shear Modulus (GPa) = 28.10812 37.09414 32.60113
#
# Velocity S-wave (km/s) = 3.41992 3.92874 3.68313
# Velocity P-wave (km/s) = 5.66496 6.54694 6.12186
#
# Compressibility (1/GPa) = 0.02522238
#
# Stress axis : x y z
#
# Youngs Moduli (GPa) = 40.88768 83.86418 78.50074
#
# Poissons Ratio (x) = 0.09147 0.48390
# Poissons Ratio (y) = 0.04459 0.36847
# Poissons Ratio (z) = 0.25204 0.39365
#
# Static dielectric constant tensor:
#      x y z
#    x 2.032840 0.034420 0.024560 
#    y 0.034420 2.085890 0.060330 
#    z 0.024560 0.060330 2.037240 
# 
# From -- ./inp_files/307809.got.cif
#   From: 2010.05.17/outbox.cif.g08.bks.cpg/sg2_154_cif.got.tgz:307809.got - 2010.06.03 11:33:40.
