data_PCOD9100189
_publ_section_title
;
Structure prediction by ZEFSAII (Michael W. Deem and Ramdas Pophale) SiO2 
 PCOD9100189
Probable space group: P -1
;
_chemical_formula_sum "Si O2"
_cell_formula_units_Z 12
_cell_length_a 15.288908
_cell_length_b 5.035668
_cell_length_c 8.548437
_cell_angle_alpha 118.500116
_cell_angle_beta 58.160646
_cell_angle_gamma 119.062129
_cell_volume 466.590550
_symmetry_space_group_name_H-M "P -1"
_symmetry_group_IT_number 2
_symmetry_cell_setting 'triclinic'
loop_
_space_group_symop_operation_xyz
x,y,z
-x,-y,-z
loop_
_atom_site_type_symbol
_atom_site_label
_atom_site_fract_x
_atom_site_fract_y
_atom_site_fract_z
Si Si1 0.574852 0.931129 0.045999
Si Si2 0.920739 0.628500 0.956245
Si Si3 0.841757 0.360397 0.619516
Si Si4 0.093670 0.268062 0.665526
Si Si5 0.421546 0.692535 0.576839
Si Si6 0.352062 0.552023 0.285421
O O1 0.481081 0.690654 0.173340
O O2 0.624015 0.222915 0.195667
O O3 0.668686 0.789461 0.868163
O O4 0.500000 0.000000 0.000000
O O5 0.866414 0.554817 0.813880
O O6 0.983010 0.361413 0.822810
O O7 0.855290 0.610113 0.176049
O O8 0.000000 0.000000 0.000000
O O9 0.870931 0.570454 0.492242
O O10 0.711424 0.242760 0.683627
O O11 0.898368 0.086638 0.468413
O O12 0.500000 0.500000 0.500000
O O13 0.336333 0.530387 0.478727
O O14 0.500000 0.000000 0.500000
#
# Coordination Sequence:
#
# PCOD9100189 Si02
#       6
#     2   2   2   2   2   2
#     4  10  20  40  64  88 126 178 221 268 330 393
#     4  11  25  47  75 102 139 183 229 272 349 426
#     4  12  27  43  70 105 143 176 230 293 337 401
#     4  11  26  45  71 102 136 184 226 275 351 414
#     4  10  20  37  63  86 119 166 218 264 321 390
#     4  10  24  41  61  97 131 174 225 276 333 388
#
# _framework density 25.718478999999999
#
# number of rings (size 3 to 8) (size 9 to 14) (size 15 to 20)
#    0.000    1.333    3.333    1.000    7.000    1.333 
#    3.000    0.000    0.000    0.000    0.000    0.000 
#    0.000    0.000    0.000    0.000    0.000    0.000 
#
# Total GULP energy -66885.781061 kJ/mol
# GULP energy per Si atom -5573.815088 kJ/mol
# Density = 2.565994 g / cm^3
# Si number density = 25.718479 Si / 1000 Ang^3
#
#
#
# Elastic Constant Matrix: (Units=GPa)
#
#
# Indices 1 2 3 4 5 6 
#
# 1 123.0259 35.5211 78.1733 13.7008 28.8972 -24.2999
# 2 35.5211 133.6165 50.7773 3.3552 7.0855 -41.7363
# 3 78.1733 50.7773 231.2386 4.8757 55.4097 -15.9615
# 4 13.7008 3.3552 4.8757 49.8449 -5.0038 -4.3467
# 5 28.8972 7.0855 55.4097 -5.0038 51.2167 -9.3187
# 6 -24.2999 -41.7363 -15.9615 -4.3467 -9.3187 31.4641
#
#
#
# Elastic Compliance Matrix: (Units=1/GPa)
#
#
# Indices 1 2 3 4 5 6 
#
# 1 0.012332 0.000375 -0.003056 -0.002744 -0.002642 0.007310
# 2 0.000375 0.014316 -0.003127 0.001410 0.004845 0.019323
# 3 -0.003056 -0.003127 0.007340 -0.000772 -0.006750 -0.004890
# 4 -0.002744 0.001410 -0.000772 0.021633 0.004998 0.003829
# 5 -0.002642 0.004845 -0.006750 0.004998 0.030056 0.010554
# 6 0.007310 0.019323 -0.004890 0.003829 0.010554 0.064234
#
#
# Mechanical properties :
#
#
# Convention : Reuss Voigt Hill
#
# Bulk Modulus (GPa) = 44.69769 90.75826 67.72797
# Shear Modulus (GPa) = 29.58861 48.06574 38.82717
#
# Velocity S-wave (km/s) = 3.39555 4.32779 3.88970
# Velocity P-wave (km/s) = 5.72629 7.76780 6.82382
#
# Compressibility (1/GPa) = 0.02237252
#
# Stress axis : x y z
#
# Youngs Moduli (GPa) = 81.09197 69.85070 136.23156
#
# Poissons Ratio (x) = -0.02622 0.41631
# Poissons Ratio (y) = -0.03044 0.42605
# Poissons Ratio (z) = 0.24781 0.21845
#
# Static dielectric constant tensor:
#      x y z
#    x 2.201790 0.205820 0.030530 
#    y 0.205820 2.169990 -0.004930 
#    z 0.030530 -0.004930 2.221720 
# 
# From -- ./inp_files/287428.got.cif
#   From: 2010.05.17/outbox.cif.g08.bks.cpg/sg2_144_cif.got.tgz:287428.got - 2010.06.03 11:33:40.
