data_PCOD9100424
_publ_section_title
;
Structure prediction by ZEFSAII (Michael W. Deem and Ramdas Pophale) SiO2 
 PCOD9100424
Probable space group: P -1
;
_chemical_formula_sum "Si O2"
_cell_formula_units_Z 16
_cell_length_a 10.548306
_cell_length_b 8.432142
_cell_length_c 14.094540
_cell_angle_alpha 51.756894
_cell_angle_beta 45.456512
_cell_angle_gamma 82.050828
_cell_volume 595.676283
_symmetry_space_group_name_H-M "P -1"
_symmetry_group_IT_number 2
_symmetry_cell_setting 'triclinic'
loop_
_space_group_symop_operation_xyz
x,y,z
-x,-y,-z
loop_
_atom_site_type_symbol
_atom_site_label
_atom_site_fract_x
_atom_site_fract_y
_atom_site_fract_z
Si Si1 0.661918 0.837607 0.952290
Si Si2 0.211173 0.619365 0.283642
Si Si3 0.600749 0.919936 0.739870
Si Si4 0.800284 0.345256 0.226519
Si Si5 0.359320 0.199577 0.445876
Si Si6 0.188738 0.916910 0.950230
Si Si7 0.920973 0.454296 0.339300
Si Si8 0.997084 0.975943 0.171192
O O1 0.867754 0.849197 0.874503
O O2 0.717698 0.102070 0.859139
O O3 0.640657 0.834591 0.850121
O O4 0.429516 0.642115 0.182734
O O5 0.118981 0.487184 0.280497
O O6 0.000000 0.500000 0.500000
O O7 0.727904 0.210159 0.569774
O O8 0.660777 0.832206 0.646671
O O9 0.361367 0.850548 0.879854
O O10 0.600182 0.354447 0.294685
O O11 0.888039 0.433487 0.253134
O O12 0.711564 0.067031 0.383871
O O13 0.000000 0.500000 0.000000
O O14 0.194428 0.231423 0.580732
O O15 0.128645 0.961313 0.863957
O O16 0.994683 0.738638 0.195281
O O17 0.229691 0.120661 0.924994
#
# Coordination Sequence:
#
# PCOD9100424 Si02
#       8
#     2   2   2   2   2   2   2   2
#     4  11  22  39  61  91 122 166 199 253 312 365
#     4  11  21  38  62  92 120 158 215 258 293 360
#     4  11  22  40  71  88 115 166 222 248 293 361
#     4  10  20  37  64  87 116 163 213 250 295 355
#     4  10  22  40  57  91 126 160 202 254 300 375
#     4  11  22  41  62  91 126 163 202 260 304 368
#     4  11  20  35  66  93 112 152 219 260 290 347
#     4  11  23  39  60  90 138 162 190 251 334 363
#
# _framework density 26.860226999999998
#
# number of rings (size 3 to 8) (size 9 to 14) (size 15 to 20)
#    0.000    1.250    3.750    4.500    0.000    0.500 
#    0.000   10.625    0.000    1.500    0.000    0.000 
#    0.000    0.000    0.000    0.000    0.000    0.000 
#
# Total GULP energy -89102.461973 kJ/mol
# GULP energy per Si atom -5568.903873 kJ/mol
# Density = 2.679909 g / cm^3
# Si number density = 26.860227 Si / 1000 Ang^3
#
#
#
# Elastic Constant Matrix: (Units=GPa)
#
#
# Indices 1 2 3 4 5 6 
#
# 1 167.5460 36.3962 90.4627 22.4272 -19.3089 40.9537
# 2 36.3962 97.7145 53.3701 6.6693 -10.5024 22.0708
# 3 90.4627 53.3701 222.7372 5.0363 -14.5959 31.9260
# 4 22.4272 6.6693 5.0363 47.3468 8.9072 15.6350
# 5 -19.3089 -10.5024 -14.5959 8.9072 39.7138 -3.1866
# 6 40.9537 22.0708 31.9260 15.6350 -3.1866 48.2368
#
#
#
# Elastic Compliance Matrix: (Units=1/GPa)
#
#
# Indices 1 2 3 4 5 6 
#
# 1 0.009641 -0.000310 -0.002815 -0.003371 0.003940 -0.004828
# 2 -0.000310 0.012684 -0.002219 -0.000588 0.002220 -0.003734
# 3 -0.002815 -0.002219 0.006305 0.001387 -0.000047 -0.001220
# 4 -0.003371 -0.000588 0.001387 0.026371 -0.007749 -0.006847
# 5 0.003940 0.002220 -0.000047 -0.007749 0.029413 0.000125
# 6 -0.004828 -0.003734 -0.001220 -0.006847 0.000125 0.029574
#
#
# Mechanical properties :
#
#
# Convention : Reuss Voigt Hill
#
# Bulk Modulus (GPa) = 55.73579 94.27285 75.00432
# Shear Modulus (GPa) = 38.26821 47.57739 42.92280
#
# Velocity S-wave (km/s) = 3.77864 4.21324 4.00184
# Velocity P-wave (km/s) = 6.31132 7.67087 7.02407
#
# Compressibility (1/GPa) = 0.01794179
#
# Stress axis : x y z
#
# Youngs Moduli (GPa) = 103.72459 78.84171 158.60069
#
# Poissons Ratio (x) = 0.02441 0.44647
# Poissons Ratio (y) = 0.03211 0.35199
# Poissons Ratio (z) = 0.29199 0.17498
#
# Static dielectric constant tensor:
#      x y z
#    x 2.147530 -0.082250 0.054650 
#    y -0.082250 2.235940 -0.009930 
#    z 0.054650 -0.009930 2.247550 
# 
# From -- ./inp_files/517767.got.cif
#   From: 2010.05.17/outbox.cif.g08.bks.cpg/sg2_259_cif.got.tgz:517767.got - 2010.06.03 11:33:40.
