data_PCOD9100122
_publ_section_title
;
Structure prediction by ZEFSAII (Michael W. Deem and Ramdas Pophale) SiO2 
 PCOD9100122
Probable space group: P -1
;
_chemical_formula_sum "Si O2"
_cell_formula_units_Z 14
_cell_length_a 10.389249
_cell_length_b 9.438940
_cell_length_c 13.786418
_cell_angle_alpha 56.124630
_cell_angle_beta 34.393761
_cell_angle_gamma 60.197629
_cell_volume 632.065446
_symmetry_space_group_name_H-M "P -1"
_symmetry_group_IT_number 2
_symmetry_cell_setting 'triclinic'
loop_
_space_group_symop_operation_xyz
x,y,z
-x,-y,-z
loop_
_atom_site_type_symbol
_atom_site_label
_atom_site_fract_x
_atom_site_fract_y
_atom_site_fract_z
Si Si1 0.371074 0.689288 0.506639
Si Si2 0.252651 0.570529 0.821178
Si Si3 0.953411 0.187625 0.503439
Si Si4 0.846389 0.264138 0.996012
Si Si5 0.290821 0.397108 0.133420
Si Si6 0.493857 0.232945 0.872360
Si Si7 0.292950 0.067333 0.886821
O O1 0.500000 0.500000 0.500000
O O2 0.269882 0.697943 0.673401
O O3 0.174263 0.706795 0.543986
O O4 0.520868 0.845752 0.327775
O O5 0.422729 0.400203 0.785954
O O6 0.313725 0.670317 0.841469
O O7 0.000000 0.500000 0.000000
O O8 0.768478 0.195004 0.703175
O O9 0.187868 0.280777 0.325021
O O10 0.000000 0.000000 0.500000
O O11 0.885602 0.441843 0.850986
O O12 0.062583 0.175861 0.953578
O O13 0.745453 0.126461 0.042048
O O14 0.500000 0.500000 0.000000
O O15 0.380009 0.282224 0.028295
O O16 0.369894 0.090581 0.941705
#
# Coordination Sequence:
#
# PCOD9100122 Si02
#       7
#     2   2   2   2   2   2   2
#     4  11  19  36  67  91 121 169 216 260 325 391
#     4  11  18  35  64  94 121 166 215 267 330 391
#     4  11  25  42  66 101 133 173 225 274 321 397
#     4  10  22  37  61  95 132 156 215 279 322 384
#     4  11  26  44  68  92 131 183 221 261 336 400
#     4  10  22  42  71  92 130 173 223 271 329 394
#     4  10  20  37  62  95 128 157 210 278 333 371
#
# _framework density 22.149604
#
# number of rings (size 3 to 8) (size 9 to 14) (size 15 to 20)
#    0.000    1.429    4.286    2.571    4.000    1.714 
#    0.000    0.000    0.000    0.000    0.000    0.000 
#    0.000    0.000    0.000    0.000    0.000    0.000 
#
# Total GULP energy -78068.136077 kJ/mol
# GULP energy per Si atom -5576.295434 kJ/mol
# Density = 2.209919 g / cm^3
# Si number density = 22.149604 Si / 1000 Ang^3
#
#
#
# Elastic Constant Matrix: (Units=GPa)
#
#
# Indices 1 2 3 4 5 6 
#
# 1 56.8179 25.7210 13.8191 -0.9263 -5.1755 21.9934
# 2 25.7210 136.0930 55.0434 -2.9822 -9.5555 18.6601
# 3 13.8191 55.0434 99.6660 -15.1880 -7.5938 16.1794
# 4 -0.9263 -2.9822 -15.1880 26.6938 -2.3874 -3.3267
# 5 -5.1755 -9.5555 -7.5938 -2.3874 28.4188 0.4509
# 6 21.9934 18.6601 16.1794 -3.3267 0.4509 47.4630
#
#
#
# Elastic Compliance Matrix: (Units=1/GPa)
#
#
# Indices 1 2 3 4 5 6 
#
# 1 0.022860 -0.002843 0.000164 -0.000323 0.003376 -0.009586
# 2 -0.002843 0.010214 -0.005272 -0.001967 0.001359 -0.001052
# 3 0.000164 -0.005272 0.014729 0.007742 0.002883 -0.002509
# 4 -0.000323 -0.001967 0.007742 0.042221 0.004876 0.001197
# 5 0.003376 0.001359 0.002883 0.004876 0.037489 -0.003096
# 6 -0.009586 -0.001052 -0.002509 0.001197 -0.003096 0.026893
#
#
# Mechanical properties :
#
#
# Convention : Reuss Voigt Hill
#
# Bulk Modulus (GPa) = 31.34569 53.52710 42.43639
# Shear Modulus (GPa) = 27.63316 33.71469 30.67392
#
# Velocity S-wave (km/s) = 3.53593 3.90569 3.72540
# Velocity P-wave (km/s) = 5.55454 6.67516 6.14047
#
# Compressibility (1/GPa) = 0.03190231
#
# Stress axis : x y z
#
# Youngs Moduli (GPa) = 43.74496 97.90354 67.89168
#
# Poissons Ratio (x) = 0.27830 -0.01116
# Poissons Ratio (y) = 0.12435 0.35794
# Poissons Ratio (z) = -0.00719 0.51618
#
# Static dielectric constant tensor:
#      x y z
#    x 1.882640 -0.040480 -0.023740 
#    y -0.040480 1.900170 0.054420 
#    z -0.023740 0.054420 1.996810 
# 
# From -- ./inp_files/514053.got.cif
#   From: 2010.05.17/outbox.cif.g08.bks.cpg/sg2_258_cif.got.tgz:514053.got - 2010.06.03 11:33:40.
