data_PCOD9100721
_publ_section_title
;
Structure prediction by ZEFSAII (Michael W. Deem and Ramdas Pophale) SiO2 
 PCOD9100721
Probable space group: P -1
;
_chemical_formula_sum "Si O2"
_cell_formula_units_Z 16
_cell_length_a 7.631508
_cell_length_b 13.674766
_cell_length_c 12.297665
_cell_angle_alpha 134.973453
_cell_angle_beta 121.705232
_cell_angle_gamma 85.493831
_cell_volume 674.784719
_symmetry_space_group_name_H-M "P -1"
_symmetry_group_IT_number 2
_symmetry_cell_setting 'triclinic'
loop_
_space_group_symop_operation_xyz
x,y,z
-x,-y,-z
loop_
_atom_site_type_symbol
_atom_site_label
_atom_site_fract_x
_atom_site_fract_y
_atom_site_fract_z
Si Si1 0.865184 0.194180 0.932715
Si Si2 0.801662 0.496274 0.852192
Si Si3 0.825544 0.706969 0.695966
Si Si4 0.927541 0.985328 0.622785
Si Si5 0.627010 0.940726 0.288777
Si Si6 0.721739 0.633230 0.350594
Si Si7 0.435182 0.790024 0.625580
Si Si8 0.087564 0.557431 0.453804
O O1 0.617255 0.193806 0.847602
O O2 0.857392 0.042840 0.753399
O O3 0.065931 0.341589 0.046182
O O4 0.933928 0.200998 0.086855
O O5 0.562323 0.466005 0.813619
O O6 0.702946 0.350187 0.619201
O O7 0.000000 0.500000 0.000000
O O8 0.807827 0.693990 0.550188
O O9 0.667133 0.786045 0.733605
O O10 0.759338 0.532581 0.583646
O O11 0.799121 0.020515 0.509377
O O12 0.824402 0.795060 0.442170
O O13 0.205684 0.078919 0.759818
O O14 0.546665 0.056724 0.300406
O O15 0.857745 0.533248 0.292543
O O16 0.267114 0.739522 0.635866
O O17 0.000000 0.500000 0.500000
#
# Coordination Sequence:
#
# PCOD9100721 Si02
#       8
#     2   2   2   2   2   2   2   2
#     4  12  24  41  64  97 135 164 211 273 328 374
#     4  11  23  39  65  96 125 167 218 267 321 377
#     4  10  23  39  65  93 127 163 213 271 322 380
#     4  11  24  46  66  93 130 175 217 262 318 391
#     4  11  25  44  68  93 129 176 219 258 320 393
#     4  10  22  42  69  90 126 174 219 259 322 387
#     4  11  21  43  66  89 124 172 215 258 321 385
#     4  10  20  37  65  93 120 166 215 261 315 378
#
# _framework density 23.711265999999998
#
# number of rings (size 3 to 8) (size 9 to 14) (size 15 to 20)
#    0.000    1.250    2.500    3.750    3.500    3.000 
#    2.250    1.875    0.000    0.000    0.000    0.000 
#    0.000    0.000    0.000    0.000    0.000    0.000 
#
# Total GULP energy -89212.434894 kJ/mol
# GULP energy per Si atom -5575.777181 kJ/mol
# Density = 2.365730 g / cm^3
# Si number density = 23.711266 Si / 1000 Ang^3
#
#
#
# Elastic Constant Matrix: (Units=GPa)
#
#
# Indices 1 2 3 4 5 6 
#
# 1 109.3577 9.0363 16.9454 -0.9943 38.8617 -9.5327
# 2 9.0363 100.1810 8.6970 1.6190 11.4997 -13.5610
# 3 16.9454 8.6970 47.1870 -7.0612 15.9995 -12.4215
# 4 -0.9943 1.6190 -7.0612 33.6839 -0.7885 11.6455
# 5 38.8617 11.4997 15.9995 -0.7885 33.9939 -9.2369
# 6 -9.5327 -13.5610 -12.4215 11.6455 -9.2369 29.5075
#
#
#
# Elastic Compliance Matrix: (Units=1/GPa)
#
#
# Indices 1 2 3 4 5 6 
#
# 1 0.015454 0.000607 0.000446 0.000201 -0.018160 -0.000305
# 2 0.000607 0.011030 -0.000245 -0.002429 -0.002955 0.005196
# 3 0.000446 -0.000245 0.027141 0.003142 -0.011314 0.006675
# 4 0.000201 -0.002429 0.003142 0.035583 -0.004157 -0.015073
# 5 -0.018160 -0.002955 -0.011314 -0.004157 0.058577 0.007990
# 6 -0.000305 0.005196 0.006675 -0.015073 0.007990 0.047439
#
#
# Mechanical properties :
#
#
# Convention : Reuss Voigt Hill
#
# Bulk Modulus (GPa) = 18.10233 36.23144 27.16688
# Shear Modulus (GPa) = 23.58258 34.24021 28.91139
#
# Velocity S-wave (km/s) = 3.15711 3.80419 3.49565
# Velocity P-wave (km/s) = 4.57611 5.88296 5.27020
#
# Compressibility (1/GPa) = 0.05524151
#
# Stress axis : x y z
#
# Youngs Moduli (GPa) = 64.70944 90.65998 36.84474
#
# Poissons Ratio (x) = -0.05508 -0.01642
# Poissons Ratio (y) = -0.03931 0.00902
# Poissons Ratio (z) = -0.02884 0.02220
#
# Static dielectric constant tensor:
#      x y z
#    x 2.042620 0.003820 -0.007110 
#    y 0.003820 1.898130 0.066510 
#    z -0.007110 0.066510 1.941270 
# 
# From -- ./inp_files/392909.got.cif
#   From: 2010.05.17/outbox.cif.g08.bks.cpg/sg2_197_cif.got.tgz:392909.got - 2010.06.03 11:33:40.
