data_PCOD9100443
_publ_section_title
;
Structure prediction by ZEFSAII (Michael W. Deem and Ramdas Pophale) SiO2 
 PCOD9100443
Probable space group: P -1
;
_chemical_formula_sum "Si O2"
_cell_formula_units_Z 16
_cell_length_a 12.922998
_cell_length_b 8.923389
_cell_length_c 15.478129
_cell_angle_alpha 109.777239
_cell_angle_beta 27.797379
_cell_angle_gamma 112.741855
_cell_volume 767.637502
_symmetry_space_group_name_H-M "P -1"
_symmetry_group_IT_number 2
_symmetry_cell_setting 'triclinic'
loop_
_space_group_symop_operation_xyz
x,y,z
-x,-y,-z
loop_
_atom_site_type_symbol
_atom_site_label
_atom_site_fract_x
_atom_site_fract_y
_atom_site_fract_z
Si Si1 0.618224 0.288422 0.870416
Si Si2 0.491848 0.628778 0.852470
Si Si3 0.234093 0.644834 0.410002
Si Si4 0.395832 0.161398 0.709794
Si Si5 0.905393 0.567978 0.997885
Si Si6 0.901670 0.816242 0.781229
Si Si7 0.190703 0.024269 0.290943
Si Si8 0.216486 0.822841 0.709380
O O1 0.777977 0.342905 0.681646
O O2 0.695703 0.131454 0.822049
O O3 0.597406 0.404332 0.989425
O O4 0.362236 0.237566 0.014672
O O5 0.671249 0.517200 0.673448
O O6 0.625579 0.813566 0.789897
O O7 0.275296 0.574764 0.941667
O O8 0.431006 0.789721 0.329342
O O9 0.011944 0.674380 0.628539
O O10 0.555035 0.188748 0.512628
O O11 0.273478 0.973792 0.762223
O O12 0.226566 0.285318 0.857910
O O13 0.103606 0.654121 0.804066
O O14 0.000000 0.500000 0.000000
O O15 0.911694 0.946125 0.721489
O O16 0.044096 0.865181 0.771906
O O17 0.000000 0.000000 0.500000
#
# Coordination Sequence:
#
# PCOD9100443 Si02
#       8
#     2   2   2   2   2   2   2   2
#     4  11  22  39  62  87 125 156 207 252 302 373
#     4  10  23  41  59  90 126 160 206 257 307 371
#     4  10  20  38  61  92 123 160 204 250 308 361
#     4   9  21  40  63  93 126 163 212 255 299 372
#     4  11  24  42  63  95 126 163 204 258 319 363
#     4  10  20  37  64  88 122 159 205 248 304 363
#     4  11  23  42  58  89 125 163 206 253 309 367
#     4  10  21  41  66  91 123 164 215 252 304 368
#
# _framework density 20.843171000000002
#
# number of rings (size 3 to 8) (size 9 to 14) (size 15 to 20)
#    0.000    1.750    1.250    3.750    0.000    6.500 
#   11.250    0.000    0.000    0.000    0.000    0.000 
#    0.000    0.000    0.000    0.000    0.000    0.000 
#
# Total GULP energy -89413.800933 kJ/mol
# GULP energy per Si atom -5588.362558 kJ/mol
# Density = 2.079573 g / cm^3
# Si number density = 20.843171 Si / 1000 Ang^3
#
#
#
# Elastic Constant Matrix: (Units=GPa)
#
#
# Indices 1 2 3 4 5 6 
#
# 1 76.3056 28.8282 0.5621 -17.4953 -1.4408 11.7268
# 2 28.8282 52.8032 7.2379 -8.5699 -1.9811 -3.5674
# 3 0.5621 7.2379 83.8901 1.4054 2.9710 3.1754
# 4 -17.4953 -8.5699 1.4054 34.3908 -2.9608 5.3873
# 5 -1.4408 -1.9811 2.9710 -2.9608 23.3808 1.3274
# 6 11.7268 -3.5674 3.1754 5.3873 1.3274 27.3649
#
#
#
# Elastic Compliance Matrix: (Units=1/GPa)
#
#
# Indices 1 2 3 4 5 6 
#
# 1 0.021759 -0.011114 0.001049 0.010507 0.002339 -0.013077
# 2 -0.011114 0.025922 -0.002523 -0.000298 0.001316 0.008430
# 3 0.001049 -0.002523 0.012274 -0.000418 -0.001646 -0.002040
# 4 0.010507 -0.000298 -0.000418 0.036766 0.006014 -0.012023
# 5 0.002339 0.001316 -0.001646 0.006014 0.044222 -0.003969
# 6 -0.013077 0.008430 -0.002040 -0.012023 -0.003969 0.046042
#
#
# Mechanical properties :
#
#
# Convention : Reuss Voigt Hill
#
# Bulk Modulus (GPa) = 28.75203 31.80614 30.27908
# Shear Modulus (GPa) = 22.34604 28.78535 25.56570
#
# Velocity S-wave (km/s) = 3.27785 3.72027 3.50605
# Velocity P-wave (km/s) = 5.30567 5.80920 5.56313
#
# Compressibility (1/GPa) = 0.03478016
#
# Stress axis : x y z
#
# Youngs Moduli (GPa) = 45.95770 38.57703 81.47624
#
# Poissons Ratio (x) = 0.42874 -0.08549
# Poissons Ratio (y) = 0.51077 0.20554
# Poissons Ratio (z) = -0.04822 0.09732
#
# Static dielectric constant tensor:
#      x y z
#    x 1.731350 0.014160 0.006610 
#    y 0.014160 1.741030 -0.012900 
#    z 0.006610 -0.012900 1.762590 
# 
# From -- ./inp_files/515838.got.cif
#   From: 2010.05.17/outbox.cif.g08.bks.cpg/sg2_258_cif.got.tgz:515838.got - 2010.06.03 11:33:40.
