data_PCOD9100268
_publ_section_title
;
Structure prediction by ZEFSAII (Michael W. Deem and Ramdas Pophale) SiO2 
 PCOD9100268
Probable space group: P -1
;
_chemical_formula_sum "Si O2"
_cell_formula_units_Z 16
_cell_length_a 18.761178
_cell_length_b 8.937440
_cell_length_c 8.216621
_cell_angle_alpha 121.728303
_cell_angle_beta 32.499867
_cell_angle_gamma 121.873290
_cell_volume 618.766085
_symmetry_space_group_name_H-M "P -1"
_symmetry_group_IT_number 2
_symmetry_cell_setting 'triclinic'
loop_
_space_group_symop_operation_xyz
x,y,z
-x,-y,-z
loop_
_atom_site_type_symbol
_atom_site_label
_atom_site_fract_x
_atom_site_fract_y
_atom_site_fract_z
Si Si1 0.150787 0.575049 0.925816
Si Si2 0.081339 0.708426 0.773111
Si Si3 0.125470 0.928512 0.296632
Si Si4 0.581371 0.346517 0.709731
Si Si5 0.267109 0.012681 0.404496
Si Si6 0.638236 0.845864 0.171980
Si Si7 0.713392 0.474071 0.844677
Si Si8 0.504583 0.225804 0.254308
O O1 0.105762 0.650457 0.880095
O O2 0.310339 0.593021 0.604559
O O3 0.110094 0.714993 0.213130
O O4 0.078590 0.370414 0.978733
O O5 0.157728 0.906214 0.685371
O O6 0.142330 0.578552 0.454308
O O7 0.178293 0.022283 0.418589
O O8 0.000000 0.000000 0.500000
O O9 0.251664 0.979959 0.960312
O O10 0.473935 0.178074 0.765706
O O11 0.656305 0.337520 0.728695
O O12 0.500000 0.500000 0.000000
O O13 0.371591 0.183890 0.370127
O O14 0.379703 0.892676 0.071056
O O15 0.559665 0.823039 0.476532
O O16 0.716839 0.678256 0.908491
O O17 0.599182 0.420510 0.167813
#
# Coordination Sequence:
#
# PCOD9100268 Si02
#       8
#     2   2   2   2   2   2   2   2
#     4  10  20  38  63  90 120 161 206 248 306 373
#     4   9  19  38  63  86 117 157 199 248 309 374
#     4  12  26  41  58  86 126 169 211 251 299 364
#     4   9  19  35  59  91 119 152 197 252 308 361
#     4  10  22  40  61  88 122 160 204 258 311 361
#     4  11  21  36  58  86 120 158 203 249 301 367
#     4   9  18  35  58  87 122 154 193 249 309 366
#     4  10  20  37  63  91 118 154 201 258 317 366
#
# _framework density 25.857914000000001
#
# number of rings (size 3 to 8) (size 9 to 14) (size 15 to 20)
#    0.000    2.000    0.000    3.375    0.000    5.500 
#    0.000    6.250    0.000    0.000    0.000    0.000 
#    0.000    0.000    0.000    0.000    0.000    0.000 
#
# Total GULP energy -89330.122204 kJ/mol
# GULP energy per Si atom -5583.132638 kJ/mol
# Density = 2.579906 g / cm^3
# Si number density = 25.857914 Si / 1000 Ang^3
#
#
#
# Elastic Constant Matrix: (Units=GPa)
#
#
# Indices 1 2 3 4 5 6 
#
# 1 100.6547 15.2149 27.0539 -5.1588 0.2941 8.6892
# 2 15.2149 86.2531 31.4351 -24.7769 -7.9496 4.9098
# 3 27.0539 31.4351 95.5476 -25.3365 -11.1093 16.0708
# 4 -5.1588 -24.7769 -25.3365 50.2547 1.8382 -2.1765
# 5 0.2941 -7.9496 -11.1093 1.8382 39.3092 -4.8810
# 6 8.6892 4.9098 16.0708 -2.1765 -4.8810 22.1138
#
#
#
# Elastic Compliance Matrix: (Units=1/GPa)
#
#
# Indices 1 2 3 4 5 6 
#
# 1 0.011014 -0.001195 -0.002697 -0.000876 -0.001354 -0.002488
# 2 -0.001195 0.014598 -0.002792 0.005606 0.001939 0.000238
# 3 -0.002697 -0.002792 0.015336 0.005625 0.002488 -0.008362
# 4 -0.000876 0.005606 0.005625 0.025266 0.001273 -0.002221
# 5 -0.001354 0.001939 0.002488 0.001273 0.027030 0.004385
# 6 -0.002488 0.000238 -0.008362 -0.002221 0.004385 0.052972
#
#
# Mechanical properties :
#
#
# Convention : Reuss Voigt Hill
#
# Bulk Modulus (GPa) = 36.25873 47.76258 42.01065
# Shear Modulus (GPa) = 29.62495 36.25230 32.93862
#
# Velocity S-wave (km/s) = 3.38846 3.74837 3.57295
# Velocity P-wave (km/s) = 5.41864 6.10286 5.77090
#
# Compressibility (1/GPa) = 0.02757956
#
# Stress axis : x y z
#
# Youngs Moduli (GPa) = 90.79144 68.50350 65.20743
#
# Poissons Ratio (x) = 0.08186 0.17586
# Poissons Ratio (y) = 0.10849 0.18207
# Poissons Ratio (z) = 0.24486 0.19128
#
# Static dielectric constant tensor:
#      x y z
#    x 2.199380 0.023460 -0.046160 
#    y 0.023460 2.039480 0.018680 
#    z -0.046160 0.018680 2.139840 
# 
# From -- ./inp_files/346258.got.cif
#   From: 2010.05.17/outbox.cif.g08.bks.cpg/sg2_174_cif.got.tgz:346258.got - 2010.06.03 11:33:40.
