data_PCOD9100560
_publ_section_title
;
Structure prediction by ZEFSAII (Michael W. Deem and Ramdas Pophale) SiO2 
 PCOD9100560
Probable space group: P -1
;
_chemical_formula_sum "Si O2"
_cell_formula_units_Z 14
_cell_length_a 21.000873
_cell_length_b 8.235174
_cell_length_c 9.597756
_cell_angle_alpha 88.656841
_cell_angle_beta 136.232804
_cell_angle_gamma 56.377174
_cell_volume 648.388575
_symmetry_space_group_name_H-M "P -1"
_symmetry_group_IT_number 2
_symmetry_cell_setting 'triclinic'
loop_
_space_group_symop_operation_xyz
x,y,z
-x,-y,-z
loop_
_atom_site_type_symbol
_atom_site_label
_atom_site_fract_x
_atom_site_fract_y
_atom_site_fract_z
Si Si1 0.429225 0.899105 0.757902
Si Si2 0.894630 0.796063 0.651420
Si Si3 0.482431 0.466722 0.313337
Si Si4 0.797864 0.157021 0.728792
Si Si5 0.101686 0.016648 0.625741
Si Si6 0.289032 0.435296 0.599506
Si Si7 0.009895 0.297985 0.740938
O O1 0.444413 0.808893 0.626810
O O2 0.284725 0.022024 0.613503
O O3 0.392104 0.144559 0.693262
O O4 0.592724 0.635546 0.111250
O O5 0.012640 0.473510 0.808628
O O6 0.904824 0.877469 0.810114
O O7 0.911327 0.903886 0.554448
O O8 0.500000 0.500000 0.500000
O O9 0.602369 0.410850 0.417151
O O10 0.293856 0.731065 0.969579
O O11 0.807293 0.316639 0.668767
O O12 0.860022 0.018101 0.981907
O O13 0.000000 0.000000 0.500000
O O14 0.032837 0.257171 0.613643
O O15 0.162159 0.529471 0.495822
#
# Coordination Sequence:
#
# PCOD9100560 Si02
#       7
#     2   2   2   2   2   2   2
#     4   9  20  39  64  91 121 162 209 258 300 368
#     4  10  22  39  64  89 118 165 210 248 305 370
#     4  11  22  41  62  86 129 163 201 252 314 369
#     4  11  21  39  64  89 121 164 203 255 310 365
#     4  12  24  40  63  92 124 164 207 255 305 368
#     4  10  20  37  64  95 121 156 211 259 305 361
#     4  11  22  38  60  90 130 158 198 257 311 367
#
# _framework density 21.591989000000002
#
# number of rings (size 3 to 8) (size 9 to 14) (size 15 to 20)
#    0.000    1.429    1.429    4.714    0.000    2.286 
#    0.000    2.143    0.000    0.000    0.000    0.000 
#    0.000    0.000    0.000    0.000    0.000    0.000 
#
# Total GULP energy -78060.011968 kJ/mol
# GULP energy per Si atom -5575.715141 kJ/mol
# Density = 2.154285 g / cm^3
# Si number density = 21.591989 Si / 1000 Ang^3
#
#
#
# Elastic Constant Matrix: (Units=GPa)
#
#
# Indices 1 2 3 4 5 6 
#
# 1 49.4287 49.4810 13.3981 8.7320 -4.4635 -6.1048
# 2 49.4810 114.8556 14.7387 2.7404 -2.2323 -18.2969
# 3 13.3981 14.7387 71.7541 2.1178 9.1372 5.3088
# 4 8.7320 2.7404 2.1178 25.4005 -2.5803 0.3175
# 5 -4.4635 -2.2323 9.1372 -2.5803 35.3271 1.5596
# 6 -6.1048 -18.2969 5.3088 0.3175 1.5596 32.2932
#
#
#
# Elastic Compliance Matrix: (Units=1/GPa)
#
#
# Indices 1 2 3 4 5 6 
#
# 1 0.040273 -0.016649 -0.004234 -0.011237 0.004365 -0.001224
# 2 -0.016649 0.016933 -0.000865 0.003803 -0.000823 0.006591
# 3 -0.004234 -0.000865 0.015756 -0.000178 -0.004516 -0.003661
# 4 -0.011237 0.003803 -0.000178 0.043049 0.002031 -0.000462
# 5 0.004365 -0.000823 -0.004516 0.002031 0.030139 -0.000374
# 6 -0.001224 0.006591 -0.003661 -0.000462 -0.000374 0.035094
#
#
# Mechanical properties :
#
#
# Convention : Reuss Voigt Hill
#
# Bulk Modulus (GPa) = 33.93510 43.47488 38.70499
# Shear Modulus (GPa) = 21.31634 29.16553 25.24093
#
# Velocity S-wave (km/s) = 3.14544 3.67925 3.42277
# Velocity P-wave (km/s) = 5.37981 6.18285 5.79525
#
# Compressibility (1/GPa) = 0.02946802
#
# Stress axis : x y z
#
# Youngs Moduli (GPa) = 24.83028 59.05497 63.46887
#
# Poissons Ratio (x) = 0.98320 0.26871
# Poissons Ratio (y) = 0.41340 0.05487
# Poissons Ratio (z) = 0.10512 0.05106
#
# Static dielectric constant tensor:
#      x y z
#    x 1.749460 0.028960 0.031620 
#    y 0.028960 1.851790 0.006390 
#    z 0.031620 0.006390 1.832940 
# 
# From -- ./inp_files/175395.got.cif
#   From: 2010.05.17/outbox.cif.g08.bks.cpg/sg2_88_cif.got.tgz:175395.got - 2010.06.03 11:33:40.
