data_PCOD9100545
_publ_section_title
;
Structure prediction by ZEFSAII (Michael W. Deem and Ramdas Pophale) SiO2 
 PCOD9100545
Probable space group: P -1
;
_chemical_formula_sum "Si O2"
_cell_formula_units_Z 16
_cell_length_a 8.161018
_cell_length_b 14.185836
_cell_length_c 11.002436
_cell_angle_alpha 30.581725
_cell_angle_beta 84.347336
_cell_angle_gamma 74.515870
_cell_volume 601.702264
_symmetry_space_group_name_H-M "P -1"
_symmetry_group_IT_number 2
_symmetry_cell_setting 'triclinic'
loop_
_space_group_symop_operation_xyz
x,y,z
-x,-y,-z
loop_
_atom_site_type_symbol
_atom_site_label
_atom_site_fract_x
_atom_site_fract_y
_atom_site_fract_z
Si Si1 0.831139 0.416814 0.830737
Si Si2 0.794347 0.097853 0.036985
Si Si3 0.692551 0.936872 0.994779
Si Si4 0.624391 0.657165 0.155761
Si Si5 0.062755 0.290361 0.375916
Si Si6 0.556297 0.308591 0.442401
Si Si7 0.230941 0.766087 0.709566
Si Si8 0.308763 0.145459 0.311055
O O1 0.967340 0.517787 0.751792
O O2 0.650465 0.602612 0.610661
O O3 0.880928 0.256602 0.897053
O O4 0.783813 0.306704 0.073062
O O5 0.585179 0.221858 0.938249
O O6 0.863035 0.909004 0.329819
O O7 0.808974 0.005180 0.004656
O O8 0.653313 0.079940 0.721949
O O9 0.730697 0.715742 0.189944
O O10 0.500000 0.000000 0.000000
O O11 0.665891 0.737695 0.936068
O O12 0.641772 0.432061 0.384250
O O13 0.211672 0.286640 0.271353
O O14 0.903062 0.282224 0.316680
O O15 0.588396 0.330379 0.273500
O O16 0.199900 0.000056 0.457714
O O17 0.500000 0.000000 0.500000
#
# Coordination Sequence:
#
# PCOD9100545 Si02
#       8
#     2   2   2   2   2   2   2   2
#     4  11  22  39  63  90 125 162 206 252 307 368
#     4  10  22  39  61  92 119 161 211 251 307 360
#     4  10  21  38  63  93 122 156 211 264 306 348
#     4  10  20  37  64  94 119 159 202 260 309 355
#     4  12  24  40  62  91 131 164 198 252 309 372
#     4  11  22  40  63  92 124 159 208 258 303 365
#     4  12  24  40  61  94 129 163 200 250 314 375
#     4  12  20  38  66  91 125 159 202 248 308 367
#
# _framework density 26.591227
#
# number of rings (size 3 to 8) (size 9 to 14) (size 15 to 20)
#    0.000    1.000    3.750    4.875    0.000    5.500 
#    0.000    0.625    0.000    1.500    0.000    0.000 
#    0.000    0.000    0.000    0.000    0.000    0.000 
#
# Total GULP energy -89724.376648 kJ/mol
# GULP energy per Si atom -5607.773541 kJ/mol
# Density = 2.653070 g / cm^3
# Si number density = 26.591227 Si / 1000 Ang^3
#
#
#
# Elastic Constant Matrix: (Units=GPa)
#
#
# Indices 1 2 3 4 5 6 
#
# 1 90.8687 34.5412 0.2380 -8.5785 -3.2739 24.4770
# 2 34.5412 160.4021 11.9708 -27.8047 4.6714 31.1587
# 3 0.2380 11.9708 46.7448 -4.0627 -7.0780 5.4733
# 4 -8.5785 -27.8047 -4.0627 43.4728 13.2816 -7.6798
# 5 -3.2739 4.6714 -7.0780 13.2816 16.3798 -14.9766
# 6 24.4770 31.1587 5.4733 -7.6798 -14.9766 52.0108
#
#
#
# Elastic Compliance Matrix: (Units=1/GPa)
#
#
# Indices 1 2 3 4 5 6 
#
# 1 0.013251 -0.001045 0.000450 0.002285 -0.004855 -0.006718
# 2 -0.001045 0.012566 -0.004879 0.013945 -0.028899 -0.012785
# 3 0.000450 -0.004879 0.024852 -0.006682 0.022837 0.005685
# 4 0.002285 0.013945 -0.006682 0.047520 -0.063123 -0.019886
# 5 -0.004855 -0.028899 0.022837 -0.063123 0.185381 0.061255
# 6 -0.006718 -0.012785 0.005685 -0.019886 0.061255 0.044152
#
#
# Mechanical properties :
#
#
# Convention : Reuss Voigt Hill
#
# Bulk Modulus (GPa) = 25.17552 43.50175 34.33863
# Shear Modulus (GPa) = 14.20817 39.12372 26.66595
#
# Velocity S-wave (km/s) = 2.31404 3.83992 3.17015
# Velocity P-wave (km/s) = 4.07773 6.00457 5.13239
#
# Compressibility (1/GPa) = 0.03972113
#
# Stress axis : x y z
#
# Youngs Moduli (GPa) = 75.46432 79.58015 40.23900
#
# Poissons Ratio (x) = 0.08313 -0.01811
# Poissons Ratio (y) = 0.07883 0.19634
# Poissons Ratio (z) = -0.03397 0.38831
#
# Static dielectric constant tensor:
#      x y z
#    x 2.147090 0.006360 -0.018430 
#    y 0.006360 2.081460 0.003560 
#    z -0.018430 0.003560 2.015100 
# 
# From -- ./inp_files/255813.got.cif
#   From: 2010.05.17/outbox.cif.g08.bks.cpg/sg2_128_cif.got.tgz:255813.got - 2010.06.03 11:33:40.
