data_PCOD9100125
_publ_section_title
;
Structure prediction by ZEFSAII (Michael W. Deem and Ramdas Pophale) SiO2 
 PCOD9100125
Probable space group: P -1
;
_chemical_formula_sum "Si O2"
_cell_formula_units_Z 14
_cell_length_a 5.296743
_cell_length_b 14.260079
_cell_length_c 15.140999
_cell_angle_alpha 38.896084
_cell_angle_beta 112.859844
_cell_angle_gamma 102.020010
_cell_volume 652.886897
_symmetry_space_group_name_H-M "P -1"
_symmetry_group_IT_number 2
_symmetry_cell_setting 'triclinic'
loop_
_space_group_symop_operation_xyz
x,y,z
-x,-y,-z
loop_
_atom_site_type_symbol
_atom_site_label
_atom_site_fract_x
_atom_site_fract_y
_atom_site_fract_z
Si Si1 0.159929 0.807631 0.566056
Si Si2 0.606585 0.690521 0.563616
Si Si3 0.263031 0.368278 0.129713
Si Si4 0.109798 0.851589 0.724571
Si Si5 0.449072 0.368064 0.961174
Si Si6 0.719213 0.574388 0.291503
Si Si7 0.307929 0.370064 0.564978
O O1 0.928788 0.697266 0.620441
O O2 0.385287 0.776293 0.540795
O O3 0.262928 0.821292 0.671923
O O4 0.975123 0.971694 0.402885
O O5 0.536775 0.520360 0.677914
O O6 0.576091 0.738631 0.420365
O O7 0.481840 0.460396 0.140373
O O8 0.166601 0.223707 0.266506
O O9 0.296662 0.342617 0.049267
O O10 0.000000 0.500000 0.000000
O O11 0.281569 0.760901 0.893506
O O12 0.291077 0.354719 0.858761
O O13 0.696537 0.681705 0.295848
O O14 0.997283 0.452218 0.436655
O O15 0.500000 0.500000 0.500000
#
# Coordination Sequence:
#
# PCOD9100125 Si02
#       7
#     2   2   2   2   2   2   2
#     4  11  25  38  64  84 125 165 209 239 288 348
#     4  11  22  39  64  92 116 162 199 253 296 351
#     4   9  20  34  53  83 121 157 193 239 288 357
#     4  10  24  39  54  87 122 166 203 244 284 355
#     4  10  21  35  59  85 124 155 198 243 305 352
#     4  10  20  37  62  96 118 155 190 256 309 361
#     4   9  20  37  61  90 122 145 200 248 314 357
#
# _framework density 21.443223
#
# number of rings (size 3 to 8) (size 9 to 14) (size 15 to 20)
#    0.000    2.000    1.429    0.857   10.000    5.714 
#    0.000    0.000    0.000    1.714    0.000    0.000 
#    0.000    0.000    0.000    0.000    0.000    0.000 
#
# Total GULP energy -77993.749452 kJ/mol
# GULP energy per Si atom -5570.982104 kJ/mol
# Density = 2.139442 g / cm^3
# Si number density = 21.443223 Si / 1000 Ang^3
#
#
#
# Elastic Constant Matrix: (Units=GPa)
#
#
# Indices 1 2 3 4 5 6 
#
# 1 116.0927 46.4560 16.5099 23.3291 -4.3441 -9.8269
# 2 46.4560 94.2315 48.1611 50.3262 -2.1017 -29.6928
# 3 16.5099 48.1611 87.2942 38.4156 -0.2870 -8.9229
# 4 23.3291 50.3262 38.4156 47.9190 -3.4075 -19.1773
# 5 -4.3441 -2.1017 -0.2870 -3.4075 22.0945 9.9091
# 6 -9.8269 -29.6928 -8.9229 -19.1773 9.9091 43.1392
#
#
#
# Elastic Compliance Matrix: (Units=1/GPa)
#
#
# Indices 1 2 3 4 5 6 
#
# 1 0.011079 -0.006877 0.001566 -0.000288 0.002679 -0.002629
# 2 -0.006877 0.031673 -0.005623 -0.021454 -0.006686 0.011070
# 3 0.001566 -0.005623 0.019099 -0.012166 0.000417 -0.005068
# 4 -0.000288 -0.021454 -0.012166 0.056297 0.003326 0.006914
# 5 0.002679 -0.006686 0.000417 0.003326 0.052128 -0.014400
# 6 -0.002629 0.011070 -0.005068 0.006914 -0.014400 0.035534
#
#
# Mechanical properties :
#
#
# Convention : Reuss Voigt Hill
#
# Bulk Modulus (GPa) = 25.01112 57.76361 41.38736
# Shear Modulus (GPa) = 20.74637 35.06330 27.90483
#
# Velocity S-wave (km/s) = 3.11384 4.04811 3.61132
# Velocity P-wave (km/s) = 4.96158 6.98899 6.06066
#
# Compressibility (1/GPa) = 0.03998222
#
# Stress axis : x y z
#
# Youngs Moduli (GPa) = 90.26434 31.57254 52.35820
#
# Poissons Ratio (x) = 0.21712 -0.08197
# Poissons Ratio (y) = 0.62072 0.29442
# Poissons Ratio (z) = -0.14131 0.17754
#
# Static dielectric constant tensor:
#      x y z
#    x 2.195680 0.155960 0.255010 
#    y 0.155960 1.944340 0.192270 
#    z 0.255010 0.192270 2.029410 
# 
# From -- ./inp_files/96403.got.cif
#   From: 2010.05.17/outbox.cif.g08.bks.cpg/sg2_49_cif.got.tgz:96403.got - 2010.06.03 11:33:40.
