data_PCOD9100081
_publ_section_title
;
Structure prediction by ZEFSAII (Michael W. Deem and Ramdas Pophale) SiO2 
 PCOD9100081
Probable space group: P -1
;
_chemical_formula_sum "Si O2"
_cell_formula_units_Z 16
_cell_length_a 18.236681
_cell_length_b 6.576631
_cell_length_c 11.312503
_cell_angle_alpha 87.638892
_cell_angle_beta 126.015230
_cell_angle_gamma 127.726205
_cell_volume 752.729689
_symmetry_space_group_name_H-M "P -1"
_symmetry_group_IT_number 2
_symmetry_cell_setting 'triclinic'
loop_
_space_group_symop_operation_xyz
x,y,z
-x,-y,-z
loop_
_atom_site_type_symbol
_atom_site_label
_atom_site_fract_x
_atom_site_fract_y
_atom_site_fract_z
Si Si1 0.275823 0.766483 0.948381
Si Si2 0.874550 0.286778 0.802158
Si Si3 0.829073 0.900861 0.572175
Si Si4 0.740979 0.892736 0.894727
Si Si5 0.565064 0.239318 0.736889
Si Si6 0.916358 0.928430 0.218411
Si Si7 0.694582 0.354767 0.603673
Si Si8 0.146503 0.839724 0.648637
O O1 0.165601 0.413068 0.846091
O O2 0.252119 0.853983 0.803697
O O3 0.401358 0.846503 0.115744
O O4 0.254452 0.901008 0.025363
O O5 0.825057 0.430416 0.722918
O O6 0.897104 0.179109 0.714979
O O7 0.758397 0.992865 0.775800
O O8 0.000000 0.500000 0.000000
O O9 0.717404 0.600345 0.547451
O O10 0.796944 0.970603 0.421755
O O11 0.933946 0.897724 0.637828
O O12 0.611549 0.544570 0.800615
O O13 0.864810 0.955247 0.050412
O O14 0.652990 0.323851 0.701542
O O15 0.418132 0.959509 0.560854
O O16 0.877738 0.018116 0.284311
O O17 0.000000 0.500000 0.500000
#
# Coordination Sequence:
#
# PCOD9100081 Si02
#       8
#     2   2   2   2   2   2   2   2
#     4  10  20  40  66  89 122 167 213 258 307 372
#     4  12  25  37  61  97 137 162 197 263 322 382
#     4  12  25  39  60  96 132 166 207 256 321 375
#     4  10  20  37  62  93 123 166 211 252 311 375
#     4  10  22  43  64  89 126 172 218 253 309 369
#     4  10  22  38  63  92 127 167 206 259 314 379
#     4  11  25  40  62  93 130 170 208 262 310 374
#     4  11  24  39  64  96 126 168 210 257 312 380
#
# _framework density 21.255970999999999
#
# number of rings (size 3 to 8) (size 9 to 14) (size 15 to 20)
#    0.000    1.250    3.750    1.875    5.250    2.500 
#    0.000    0.625    0.000    7.500    0.000    0.000 
#    0.000    0.000    0.000    0.000    0.000    0.000 
#
# Total GULP energy -89328.488100 kJ/mol
# GULP energy per Si atom -5583.030506 kJ/mol
# Density = 2.120759 g / cm^3
# Si number density = 21.255971 Si / 1000 Ang^3
#
#
#
# Elastic Constant Matrix: (Units=GPa)
#
#
# Indices 1 2 3 4 5 6 
#
# 1 28.7642 24.7260 15.8609 4.0053 -12.4799 -10.9732
# 2 24.7260 113.7994 52.0796 -15.4611 -12.0882 -12.9639
# 3 15.8609 52.0796 101.1381 -7.4257 -11.9906 3.8438
# 4 4.0053 -15.4611 -7.4257 46.0989 2.1587 -10.5997
# 5 -12.4799 -12.0882 -11.9906 2.1587 24.2997 3.1761
# 6 -10.9732 -12.9639 3.8438 -10.5997 3.1761 22.0423
#
#
#
# Elastic Compliance Matrix: (Units=1/GPa)
#
#
# Indices 1 2 3 4 5 6 
#
# 1 0.062972 -0.007146 -0.004528 -0.004606 0.024052 0.022255
# 2 -0.007146 0.015513 -0.006897 0.007170 -0.001354 0.010413
# 3 -0.004528 -0.006897 0.014752 -0.002058 0.003053 -0.010313
# 4 -0.004606 0.007170 -0.002058 0.028162 -0.004469 0.016469
# 5 0.024052 -0.001354 0.003053 -0.004469 0.054654 0.000621
# 6 0.022255 0.010413 -0.010313 0.016469 0.000621 0.072199
#
#
# Mechanical properties :
#
#
# Convention : Reuss Voigt Hill
#
# Bulk Modulus (GPa) = 17.82710 47.67052 32.74881
# Shear Modulus (GPa) = 16.44226 28.55720 22.49973
#
# Velocity S-wave (km/s) = 2.78427 3.66934 3.25701
# Velocity P-wave (km/s) = 4.32912 6.35828 5.43916
#
# Compressibility (1/GPa) = 0.05609438
#
# Stress axis : x y z
#
# Youngs Moduli (GPa) = 15.88007 64.46184 67.78641
#
# Poissons Ratio (x) = 0.46062 0.30697
# Poissons Ratio (y) = 0.11347 0.46755
# Poissons Ratio (z) = 0.07191 0.44462
#
# Static dielectric constant tensor:
#      x y z
#    x 1.743530 0.009950 0.005000 
#    y 0.009950 1.809410 -0.022480 
#    z 0.005000 -0.022480 1.766800 
# 
# From -- ./inp_files/69125.got.cif
#   From: 2010.05.17/outbox.cif.g08.bks.cpg/sg2_35_cif.got.tgz:69125.got - 2010.06.03 11:33:40.
