data_PCOD9100322
_publ_section_title
;
Structure prediction by ZEFSAII (Michael W. Deem and Ramdas Pophale) SiO2 
 PCOD9100322
Probable space group: P -1
;
_chemical_formula_sum "Si O2"
_cell_formula_units_Z 14
_cell_length_a 12.297259
_cell_length_b 15.811960
_cell_length_c 12.050928
_cell_angle_alpha 144.192648
_cell_angle_beta 153.800182
_cell_angle_gamma 37.140677
_cell_volume 582.958583
_symmetry_space_group_name_H-M "P -1"
_symmetry_group_IT_number 2
_symmetry_cell_setting 'triclinic'
loop_
_space_group_symop_operation_xyz
x,y,z
-x,-y,-z
loop_
_atom_site_type_symbol
_atom_site_label
_atom_site_fract_x
_atom_site_fract_y
_atom_site_fract_z
Si Si1 0.920243 0.966370 0.078086
Si Si2 0.557568 0.570698 0.456562
Si Si3 0.083449 0.750929 0.504412
Si Si4 0.028080 0.345228 0.924629
Si Si5 0.662959 0.120789 0.789580
Si Si6 0.792647 0.637364 0.316052
Si Si7 0.860164 0.662077 0.658474
O O1 0.208414 0.881643 0.214909
O O2 0.870949 0.088328 0.257736
O O3 0.797324 0.829338 0.825823
O O4 0.833238 0.064001 0.992194
O O5 0.667348 0.395529 0.411995
O O6 0.254809 0.636511 0.263737
O O7 0.647295 0.585797 0.428897
O O8 0.731359 0.659485 0.780362
O O9 0.950224 0.764582 0.276865
O O10 0.898415 0.715504 0.393888
O O11 0.000000 0.500000 0.000000
O O12 0.501985 0.284244 0.853045
O O13 0.500000 0.000000 0.500000
O O14 0.886400 0.460155 0.197770
O O15 0.892162 0.670899 0.564760
#
# Coordination Sequence:
#
# PCOD9100322 Si02
#       7
#     2   2   2   2   2   2   2
#     4  11  22  36  59  94 124 169 214 268 312 387
#     4  10  23  42  65  93 129 169 215 266 322 389
#     4  10  20  37  63  93 119 161 225 264 317 373
#     4  10  21  42  67  93 122 167 224 272 309 376
#     4  11  20  37  59  86 131 168 215 256 308 380
#     4  10  20  38  61  91 128 169 204 265 321 391
#     4  10  22  39  60  94 136 161 214 255 335 394
#
# _framework density 24.015429000000001
#
# number of rings (size 3 to 8) (size 9 to 14) (size 15 to 20)
#    0.000    1.714    2.857    2.571    0.000    6.286 
#    0.000    1.429    0.000    0.000    0.000    0.000 
#    0.000    0.000    0.000    0.000    0.000    0.000 
#
# Total GULP energy -78104.859976 kJ/mol
# GULP energy per Si atom -5578.918570 kJ/mol
# Density = 2.396077 g / cm^3
# Si number density = 24.015429 Si / 1000 Ang^3
#
#
#
# Elastic Constant Matrix: (Units=GPa)
#
#
# Indices 1 2 3 4 5 6 
#
# 1 103.5749 18.2079 44.4448 -4.0777 -2.7004 -5.3685
# 2 18.2079 101.5112 29.8770 19.4518 -6.9849 -10.7469
# 3 44.4448 29.8770 106.7062 6.4664 -17.8958 -20.5850
# 4 -4.0777 19.4518 6.4664 22.7435 -16.4059 -8.3121
# 5 -2.7004 -6.9849 -17.8958 -16.4059 39.5534 9.0877
# 6 -5.3685 -10.7469 -20.5850 -8.3121 9.0877 21.2430
#
#
#
# Elastic Compliance Matrix: (Units=1/GPa)
#
#
# Indices 1 2 3 4 5 6 
#
# 1 0.012298 -0.001804 -0.004989 0.005347 0.000673 -0.000836
# 2 -0.001804 0.013547 -0.003046 -0.014879 -0.005250 -0.000129
# 3 -0.004989 -0.003046 0.015168 0.005789 0.005691 0.011727
# 4 0.005347 -0.014879 0.005789 0.085861 0.031475 0.019565
# 5 0.000673 -0.005250 0.005691 0.031475 0.040485 -0.001975
# 6 -0.000836 -0.000129 0.011727 0.019565 -0.001975 0.066662
#
#
# Mechanical properties :
#
#
# Convention : Reuss Voigt Hill
#
# Bulk Modulus (GPa) = 46.87033 55.20573 51.03803
# Shear Modulus (GPa) = 19.17095 31.32547 25.24821
#
# Velocity S-wave (km/s) = 2.82844 3.61555 3.24594
# Velocity P-wave (km/s) = 5.49781 6.36138 5.94529
#
# Compressibility (1/GPa) = 0.02133546
#
# Stress axis : x y z
#
# Youngs Moduli (GPa) = 81.31604 73.81590 65.92647
#
# Poissons Ratio (x) = 0.13316 0.32893
# Poissons Ratio (y) = 0.14669 0.20078
# Poissons Ratio (z) = 0.40571 0.22481
#
# Static dielectric constant tensor:
#      x y z
#    x 2.117010 -0.178090 -0.061540 
#    y -0.178090 2.100230 -0.061700 
#    z -0.061540 -0.061700 2.085610 
# 
# From -- ./inp_files/432003.got.cif
#   From: 2010.05.17/outbox.cif.g08.bks.cpg/sg2_217_cif.got.tgz:432003.got - 2010.06.03 11:33:40.
