data_PCOD9100367
_publ_section_title
;
Structure prediction by ZEFSAII (Michael W. Deem and Ramdas Pophale) SiO2 
 PCOD9100367
Probable space group: P -1
;
_chemical_formula_sum "Si O2"
_cell_formula_units_Z 16
_cell_length_a 10.225078
_cell_length_b 8.143924
_cell_length_c 16.785757
_cell_angle_alpha 82.082764
_cell_angle_beta 35.852700
_cell_angle_gamma 94.249936
_cell_volume 768.193948
_symmetry_space_group_name_H-M "P -1"
_symmetry_group_IT_number 2
_symmetry_cell_setting 'triclinic'
loop_
_space_group_symop_operation_xyz
x,y,z
-x,-y,-z
loop_
_atom_site_type_symbol
_atom_site_label
_atom_site_fract_x
_atom_site_fract_y
_atom_site_fract_z
Si Si1 0.951682 0.592437 0.439162
Si Si2 0.477692 0.818675 0.910355
Si Si3 0.748950 0.865841 0.606555
Si Si4 0.987804 0.749732 0.092053
Si Si5 0.464254 0.776072 0.102123
Si Si6 0.053582 0.163475 0.066595
Si Si7 0.492259 0.389457 0.590382
Si Si8 0.427579 0.985463 0.627736
O O1 0.830254 0.731604 0.521159
O O2 0.747576 0.461224 0.497801
O O3 0.000000 0.500000 0.500000
O O4 0.198139 0.666585 0.265214
O O5 0.618150 0.804514 0.760840
O O6 0.518158 0.025438 0.893571
O O7 0.520770 0.759074 0.981914
O O8 0.205202 0.720214 0.031671
O O9 0.585215 0.937205 0.622836
O O10 0.000000 0.000000 0.500000
O O11 0.738590 0.610455 0.246758
O O12 0.023467 0.956825 0.079598
O O13 0.005602 0.751106 0.988956
O O14 0.679354 0.742248 0.045302
O O15 0.837770 0.148830 0.231949
O O16 0.500000 0.500000 0.500000
O O17 0.436214 0.182840 0.625894
O O18 0.500000 0.000000 0.500000
#
# Coordination Sequence:
#
# PCOD9100367 Si02
#       8
#     2   2   2   2   2   2   2   2
#     4  12  25  43  66  95 133 177 214 260 337 401
#     4  10  20  37  63  96 123 162 224 274 309 369
#     4  12  24  41  67  98 131 167 224 276 320 373
#     4   9  17  34  60  85 122 162 208 255 309 379
#     4  10  21  37  64  94 127 170 213 267 319 380
#     4   9  18  34  61  92 119 156 217 261 306 366
#     4  11  23  40  65  94 132 173 206 256 330 401
#     4  11  24  41  68 100 127 163 218 277 319 375
#
# _framework density 20.828073
#
# number of rings (size 3 to 8) (size 9 to 14) (size 15 to 20)
#    0.000    1.500    2.500    3.000    3.500    2.000 
#    0.000    1.250    5.500    0.000    0.000    0.000 
#    0.000    0.000    0.000    0.000    0.000    0.000 
#
# Total GULP energy -89142.195716 kJ/mol
# GULP energy per Si atom -5571.387232 kJ/mol
# Density = 2.078067 g / cm^3
# Si number density = 20.828073 Si / 1000 Ang^3
#
#
#
# Elastic Constant Matrix: (Units=GPa)
#
#
# Indices 1 2 3 4 5 6 
#
# 1 108.7828 0.0074 43.9705 -8.2673 -7.2417 7.7854
# 2 0.0074 17.3013 4.2723 -3.1473 -4.3498 -7.1937
# 3 43.9705 4.2723 164.8814 -12.5858 -0.6260 15.3359
# 4 -8.2673 -3.1473 -12.5858 24.1993 8.6207 -3.1435
# 5 -7.2417 -4.3498 -0.6260 8.6207 42.0274 -7.1541
# 6 7.7854 -7.1937 15.3359 -3.1435 -7.1541 24.5124
#
#
#
# Elastic Compliance Matrix: (Units=1/GPa)
#
#
# Indices 1 2 3 4 5 6 
#
# 1 0.010535 0.000985 -0.002621 0.001770 0.001381 -0.000787
# 2 0.000985 0.074907 -0.004236 0.007609 0.011159 0.028553
# 3 -0.002621 -0.004236 0.007571 0.002577 -0.002237 -0.005470
# 4 0.001770 0.007609 0.002577 0.047599 -0.007980 0.003834
# 5 0.001381 0.011159 -0.002237 -0.007980 0.028767 0.011608
# 6 -0.000787 0.028553 -0.005470 0.003834 0.011608 0.056727
#
#
# Mechanical properties :
#
#
# Convention : Reuss Voigt Hill
#
# Bulk Modulus (GPa) = 12.30514 43.05175 27.67845
# Shear Modulus (GPa) = 18.87226 34.32884 26.60055
#
# Velocity S-wave (km/s) = 3.01341 4.06421 3.57760
# Velocity P-wave (km/s) = 4.24598 6.53748 5.51212
#
# Compressibility (1/GPa) = 0.08126684
#
# Stress axis : x y z
#
# Youngs Moduli (GPa) = 94.92253 13.34993 132.08647
#
# Poissons Ratio (x) = -0.01315 0.34626
# Poissons Ratio (y) = -0.09348 0.55954
# Poissons Ratio (z) = 0.24884 0.05655
#
# Static dielectric constant tensor:
#      x y z
#    x 1.738540 -0.021400 -0.066590 
#    y -0.021400 1.807690 0.110690 
#    z -0.066590 0.110690 1.876080 
# 
# From -- ./inp_files/416899.got.cif
#   From: 2010.05.17/outbox.cif.g08.bks.cpg/sg2_209_cif.got.tgz:416899.got - 2010.06.03 11:33:40.
