data_PCOD9100102
_publ_section_title
;
Structure prediction by ZEFSAII (Michael W. Deem and Ramdas Pophale) SiO2 
 PCOD9100102
Probable space group: P -1
;
_chemical_formula_sum "Si O2"
_cell_formula_units_Z 15
_cell_length_a 16.496943
_cell_length_b 11.988526
_cell_length_c 7.625177
_cell_angle_alpha 117.784485
_cell_angle_beta 113.061612
_cell_angle_gamma 25.273585
_cell_volume 567.845536
_symmetry_space_group_name_H-M "P -1"
_symmetry_group_IT_number 2
_symmetry_cell_setting 'triclinic'
loop_
_space_group_symop_operation_xyz
x,y,z
-x,-y,-z
loop_
_atom_site_type_symbol
_atom_site_label
_atom_site_fract_x
_atom_site_fract_y
_atom_site_fract_z
Si Si1 0.588412 0.514641 0.373854
Si Si2 0.000000 0.000000 0.000000
Si Si3 0.033631 0.866298 0.592865
Si Si4 0.650583 0.049392 0.790737
Si Si5 0.508254 0.320206 0.203936
Si Si6 0.930458 0.360293 0.119734
Si Si7 0.168275 0.282351 0.842710
Si Si8 0.872961 0.521882 0.571624
O O1 0.780728 0.307319 0.280675
O O2 0.425168 0.800579 0.347934
O O3 0.561375 0.399462 0.273526
O O4 0.612897 0.523766 0.605059
O O5 0.099548 0.964775 0.224727
O O6 0.939163 0.202341 0.987286
O O7 0.083660 0.662130 0.420088
O O8 0.000000 0.000000 0.500000
O O9 0.850678 0.865622 0.872223
O O10 0.701422 0.836481 0.689616
O O11 0.487283 0.292380 0.970660
O O12 0.677722 0.012508 0.186608
O O13 0.790210 0.622864 0.073808
O O14 0.852257 0.492219 0.341345
O O15 0.063895 0.362487 0.639028
O O16 0.000000 0.500000 0.000000
#
# Coordination Sequence:
#
# PCOD9100102 Si02
#       8
#     2   1   2   2   2   2   2   2
#     4  11  25  40  60  89 127 162 206 256 313 375
#     4  10  24  40  64  92 126 162 206 250 320 364
#     4  11  25  42  63  88 126 164 208 262 313 373
#     4  11  21  39  62  87 125 160 207 254 311 364
#     4  11  22  38  62  93 120 163 208 253 310 364
#     4  10  20  37  62  94 124 161 208 263 303 364
#     4  11  19  35  67  91 122 157 211 258 300 359
#     4  10  21  37  60  92 120 162 210 258 308 363
#
# _framework density 26.415634000000001
#
# number of rings (size 3 to 8) (size 9 to 14) (size 15 to 20)
#    0.000    1.333    2.667    5.200    1.867    4.800 
#    0.000    0.667    0.000    0.000    0.000    0.000 
#    0.000    0.000    0.000    0.000    0.000    0.000 
#
# Total GULP energy -83556.249982 kJ/mol
# GULP energy per Si atom -5570.416665 kJ/mol
# Density = 2.635551 g / cm^3
# Si number density = 26.415634 Si / 1000 Ang^3
#
#
#
# Elastic Constant Matrix: (Units=GPa)
#
#
# Indices 1 2 3 4 5 6 
#
# 1 96.1587 59.7989 11.2382 24.6756 23.4478 50.3976
# 2 59.7989 129.6317 30.8719 15.2803 12.4935 42.4146
# 3 11.2382 30.8719 136.2186 24.2139 6.4106 21.3364
# 4 24.6756 15.2803 24.2139 51.7643 19.3453 1.5626
# 5 23.4478 12.4935 6.4106 19.3453 34.1519 12.7292
# 6 50.3976 42.4146 21.3364 1.5626 12.7292 64.8655
#
#
#
# Elastic Compliance Matrix: (Units=1/GPa)
#
#
# Indices 1 2 3 4 5 6 
#
# 1 0.025926 -0.005844 0.003794 -0.010255 -0.004433 -0.016453
# 2 -0.005844 0.011622 -0.001748 -0.000199 0.001214 -0.002718
# 3 0.003794 -0.001748 0.009207 -0.006044 0.001594 -0.005001
# 4 -0.010255 -0.000199 -0.006044 0.032140 -0.014488 0.012155
# 5 -0.004433 0.001214 0.001594 -0.014488 0.041932 -0.005754
# 6 -0.016453 -0.002718 -0.005001 0.012155 -0.005754 0.032458
#
#
# Mechanical properties :
#
#
# Convention : Reuss Voigt Hill
#
# Bulk Modulus (GPa) = 25.53641 62.86965 44.20303
# Shear Modulus (GPa) = 28.74655 47.49634 38.12145
#
# Velocity S-wave (km/s) = 3.30243 4.24493 3.80299
# Velocity P-wave (km/s) = 4.92235 6.91937 6.00447
#
# Compressibility (1/GPa) = 0.03915977
#
# Stress axis : x y z
#
# Youngs Moduli (GPa) = 38.57125 86.04577 108.61431
#
# Poissons Ratio (x) = 0.50283 -0.41210
# Poissons Ratio (y) = 0.22540 0.18984
# Poissons Ratio (z) = -0.14635 0.15040
#
# Static dielectric constant tensor:
#      x y z
#    x 1.950500 0.114170 0.238300 
#    y 0.114170 2.081850 -0.257540 
#    z 0.238300 -0.257540 1.711210 
# 
# From -- ./inp_files/332377.got.cif
#   From: 2010.05.17/outbox.cif.g08.bks.cpg/sg2_167_cif.got.tgz:332377.got - 2010.06.03 11:33:40.
