data_PCOD9100976
_publ_section_title
;
Structure prediction by ZEFSAII (Michael W. Deem and Ramdas Pophale) SiO2 
 PCOD9100976
Probable space group: P -1
;
_chemical_formula_sum "Si O2"
_cell_formula_units_Z 16
_cell_length_a 16.124883
_cell_length_b 9.130806
_cell_length_c 8.668785
_cell_angle_alpha 78.518653
_cell_angle_beta 114.424953
_cell_angle_gamma 53.191559
_cell_volume 735.192993
_symmetry_space_group_name_H-M "P -1"
_symmetry_group_IT_number 2
_symmetry_cell_setting 'triclinic'
loop_
_space_group_symop_operation_xyz
x,y,z
-x,-y,-z
loop_
_atom_site_type_symbol
_atom_site_label
_atom_site_fract_x
_atom_site_fract_y
_atom_site_fract_z
Si Si1 0.599609 0.943895 0.957708
Si Si2 0.149716 0.900530 0.655766
Si Si3 0.495945 0.829330 0.486913
Si Si4 0.266397 0.504218 0.029306
Si Si5 0.039566 0.499084 0.200850
Si Si6 0.764221 0.007899 0.577214
Si Si7 0.132443 0.238938 0.718593
Si Si8 0.015982 0.814310 0.991094
O O1 0.676172 0.709883 0.976042
O O2 0.529069 0.131563 0.725759
O O3 0.711403 0.898223 0.153133
O O4 0.500000 0.000000 0.000000
O O5 0.225984 0.872702 0.567759
O O6 0.116666 0.087253 0.694728
O O7 0.256268 0.657548 0.876768
O O8 0.000000 0.000000 0.500000
O O9 0.639221 0.588356 0.725633
O O10 0.373724 0.891498 0.471883
O O11 0.500000 0.000000 0.500000
O O12 0.108226 0.682414 0.934915
O O13 0.894254 0.691290 0.137740
O O14 0.154323 0.233777 0.392431
O O15 0.000000 0.500000 0.000000
O O16 0.090071 0.606787 0.210575
O O17 0.861278 0.950058 0.800870
O O18 0.000000 0.500000 0.500000
O O19 0.000000 0.000000 0.000000
#
# Coordination Sequence:
#
# PCOD9100976 Si02
#       8
#     2   2   2   2   2   2   2   2
#     4  11  25  48  73 106 141 186 243 299 359 436
#     4  12  25  44  69 104 150 187 241 306 365 420
#     4  10  24  46  73 100 137 185 240 292 354 435
#     4  11  24  46  71 102 150 187 237 300 360 425
#     4  10  20  37  67  98 132 177 236 292 355 417
#     4  11  22  43  70 100 143 190 239 296 360 425
#     4  12  24  41  71 103 138 183 240 295 356 430
#     4  11  22  41  70 105 141 185 238 299 365 427
#
# _framework density 21.762995
#
# number of rings (size 3 to 8) (size 9 to 14) (size 15 to 20)
#    0.000    1.000    2.500    6.000    3.500    1.500 
#    2.250    1.250    0.000    0.000    0.000    0.000 
#    0.000    0.000    0.000    0.000    0.000    0.000 
#
# Total GULP energy -89197.353624 kJ/mol
# GULP energy per Si atom -5574.834601 kJ/mol
# Density = 2.171346 g / cm^3
# Si number density = 21.762995 Si / 1000 Ang^3
#
#
#
# Elastic Constant Matrix: (Units=GPa)
#
#
# Indices 1 2 3 4 5 6 
#
# 1 169.8427 28.4253 62.4448 -1.4916 0.8164 -2.6596
# 2 28.4253 74.0086 12.2203 7.0793 8.7299 17.2718
# 3 62.4448 12.2203 137.4223 -3.6567 -11.7704 17.2263
# 4 -1.4916 7.0793 -3.6567 22.4358 13.4220 -8.0298
# 5 0.8164 8.7299 -11.7704 13.4220 49.5852 -3.5404
# 6 -2.6596 17.2718 17.2263 -8.0298 -3.5404 47.1521
#
#
#
# Elastic Compliance Matrix: (Units=1/GPa)
#
#
# Indices 1 2 3 4 5 6 
#
# 1 0.007909 -0.003383 -0.003731 0.002774 -0.000924 0.003451
# 2 -0.003383 0.017540 0.000695 -0.007812 -0.001345 -0.008301
# 3 -0.003731 0.000695 0.009582 -0.001814 0.002412 -0.004093
# 4 0.002774 -0.007812 -0.001814 0.060181 -0.014474 0.012842
# 5 -0.000924 -0.001345 0.002412 -0.014474 0.024836 -0.001041
# 6 0.003451 -0.008301 -0.004093 0.012842 -0.001041 0.028048
#
#
# Mechanical properties :
#
#
# Convention : Reuss Voigt Hill
#
# Bulk Modulus (GPa) = 45.06078 65.27270 55.16674
# Shear Modulus (GPa) = 29.70371 42.38016 36.04194
#
# Velocity S-wave (km/s) = 3.69843 4.41767 4.07395
# Velocity P-wave (km/s) = 6.24404 7.48857 6.89444
#
# Compressibility (1/GPa) = 0.02219225
#
# Stress axis : x y z
#
# Youngs Moduli (GPa) = 126.44556 57.01309 104.36473
#
# Poissons Ratio (x) = 0.19289 0.38936
# Poissons Ratio (y) = 0.42779 -0.07254
# Poissons Ratio (z) = 0.47174 -0.03963
#
# Static dielectric constant tensor:
#      x y z
#    x 1.922720 -0.057880 -0.080280 
#    y -0.057880 1.776150 0.047830 
#    z -0.080280 0.047830 1.909080 
# 
# From -- ./inp_files/298302.got.cif
#   From: 2010.05.17/outbox.cif.g08.bks.cpg/sg2_150_cif.got.tgz:298302.got - 2010.06.03 11:33:40.
