data_PCOD9100510
_publ_section_title
;
Structure prediction by ZEFSAII (Michael W. Deem and Ramdas Pophale) SiO2 
 PCOD9100510
Probable space group: P -1
;
_chemical_formula_sum "Si O2"
_cell_formula_units_Z 16
_cell_length_a 11.037986
_cell_length_b 8.502337
_cell_length_c 13.199071
_cell_angle_alpha 44.738800
_cell_angle_beta 126.068696
_cell_angle_gamma 126.521980
_cell_volume 669.826524
_symmetry_space_group_name_H-M "P -1"
_symmetry_group_IT_number 2
_symmetry_cell_setting 'triclinic'
loop_
_space_group_symop_operation_xyz
x,y,z
-x,-y,-z
loop_
_atom_site_type_symbol
_atom_site_label
_atom_site_fract_x
_atom_site_fract_y
_atom_site_fract_z
Si Si1 0.240950 0.498094 0.177663
Si Si2 0.682370 0.628358 0.515581
Si Si3 0.137769 0.892004 0.649933
Si Si4 0.511601 0.565331 0.134552
Si Si5 0.661592 0.151672 0.416050
Si Si6 0.965114 0.602336 0.069830
Si Si7 0.263526 0.230057 0.013985
Si Si8 0.314712 0.835526 0.357374
O O1 0.254452 0.338415 0.352687
O O2 0.410822 0.615117 0.155540
O O3 0.147747 0.667006 0.100357
O O4 0.128021 0.365154 0.091824
O O5 0.500000 0.500000 0.500000
O O6 0.745861 0.435256 0.580395
O O7 0.725185 0.867958 0.364026
O O8 0.211624 0.799889 0.631868
O O9 0.087648 0.677065 0.801024
O O10 0.000000 0.000000 0.500000
O O11 0.588296 0.364908 0.295307
O O12 0.380256 0.449340 0.036303
O O13 0.653202 0.756204 0.059879
O O14 0.733444 0.120657 0.573168
O O15 0.507039 0.934171 0.411865
O O16 0.904779 0.728021 0.074457
O O17 0.266567 0.001316 0.179671
#
# Coordination Sequence:
#
# PCOD9100510 Si02
#       8
#     2   2   2   2   2   2   2   2
#     4  10  22  37  65  93 131 169 214 270 327 386
#     4  12  24  41  62 100 140 167 211 283 331 379
#     4  12  24  40  68  95 131 174 224 266 330 397
#     4   9  17  32  57  92 117 159 219 262 303 378
#     4  10  20  37  64  92 120 177 221 261 317 397
#     4  10  21  41  64  96 125 175 224 263 321 403
#     4   9  18  33  59  86 123 160 215 265 308 379
#     4  10  22  37  63  93 128 168 217 267 328 380
#
# _framework density 23.886783000000001
#
# number of rings (size 3 to 8) (size 9 to 14) (size 15 to 20)
#    0.000    1.750    3.750    0.750    7.000    0.000 
#    0.000    5.000    0.000    0.000    0.000    0.000 
#    0.000    0.000    0.000    0.000    0.000    0.000 
#
# Total GULP energy -89357.557962 kJ/mol
# GULP energy per Si atom -5584.847373 kJ/mol
# Density = 2.383242 g / cm^3
# Si number density = 23.886783 Si / 1000 Ang^3
#
#
#
# Elastic Constant Matrix: (Units=GPa)
#
#
# Indices 1 2 3 4 5 6 
#
# 1 190.4123 27.2485 43.7989 -9.4166 -1.7488 -17.5966
# 2 27.2485 59.8983 35.6989 -14.0771 -10.8630 -2.1914
# 3 43.7989 35.6989 106.5194 -14.6076 -10.6772 -2.3952
# 4 -9.4166 -14.0771 -14.6076 28.7351 -0.6292 0.4833
# 5 -1.7488 -10.8630 -10.6772 -0.6292 39.5808 1.5324
# 6 -17.5966 -2.1914 -2.3952 0.4833 1.5324 17.6510
#
#
#
# Elastic Compliance Matrix: (Units=1/GPa)
#
#
# Indices 1 2 3 4 5 6 
#
# 1 0.006526 -0.001650 -0.002068 0.000156 -0.000956 0.006099
# 2 -0.001650 0.023648 -0.005605 0.008308 0.005043 -0.000135
# 3 -0.002068 -0.005605 0.012703 0.003097 0.001896 -0.001283
# 4 0.000156 0.008308 0.003097 0.040575 0.003761 0.000169
# 5 -0.000956 0.005043 0.001896 0.003761 0.027276 -0.002541
# 6 0.006099 -0.000135 -0.001283 0.000169 -0.002541 0.062760
#
#
# Mechanical properties :
#
#
# Convention : Reuss Voigt Hill
#
# Bulk Modulus (GPa) = 41.26985 63.36916 52.31950
# Shear Modulus (GPa) = 24.97364 33.86564 29.41964
#
# Velocity S-wave (km/s) = 3.23693 3.76940 3.51326
# Velocity P-wave (km/s) = 5.59330 6.74767 6.19742
#
# Compressibility (1/GPa) = 0.02423077
#
# Stress axis : x y z
#
# Youngs Moduli (GPa) = 153.23117 42.28625 78.72394
#
# Poissons Ratio (x) = 0.06978 0.16278
# Poissons Ratio (y) = 0.25285 0.44127
# Poissons Ratio (z) = 0.31684 0.23703
#
# Static dielectric constant tensor:
#      x y z
#    x 1.986860 0.012060 0.028500 
#    y 0.012060 1.958410 0.000390 
#    z 0.028500 0.000390 1.903790 
# 
# From -- ./inp_files/514943.got.cif
#   From: 2010.05.17/outbox.cif.g08.bks.cpg/sg2_258_cif.got.tgz:514943.got - 2010.06.03 11:33:40.
