data_PCOD9100992
_publ_section_title
;
Structure prediction by ZEFSAII (Michael W. Deem and Ramdas Pophale) SiO2 
 PCOD9100992
Probable space group: P -1
;
_chemical_formula_sum "Si O2"
_cell_formula_units_Z 16
_cell_length_a 10.238221
_cell_length_b 7.822019
_cell_length_c 9.191431
_cell_angle_alpha 75.871897
_cell_angle_beta 97.655918
_cell_angle_gamma 116.088647
_cell_volume 640.807130
_symmetry_space_group_name_H-M "P -1"
_symmetry_group_IT_number 2
_symmetry_cell_setting 'triclinic'
loop_
_space_group_symop_operation_xyz
x,y,z
-x,-y,-z
loop_
_atom_site_type_symbol
_atom_site_label
_atom_site_fract_x
_atom_site_fract_y
_atom_site_fract_z
Si Si1 0.393085 0.727146 0.685586
Si Si2 0.855931 0.754688 0.573678
Si Si3 0.658264 0.629475 0.067220
Si Si4 0.277048 0.688207 0.369871
Si Si5 0.108166 0.712260 0.785587
Si Si6 0.063781 0.869388 0.339322
Si Si7 0.976877 0.723010 0.056906
Si Si8 0.391469 0.020707 0.095456
O O1 0.348689 0.499441 0.764500
O O2 0.391159 0.758460 0.506418
O O3 0.267368 0.773999 0.733699
O O4 0.534188 0.854651 0.773510
O O5 0.748041 0.531471 0.620893
O O6 0.830687 0.923016 0.617941
O O7 0.008649 0.775013 0.658336
O O8 0.906246 0.799595 0.405327
O O9 0.807769 0.657884 0.001566
O O10 0.500000 0.500000 0.000000
O O11 0.671045 0.846320 0.026796
O O12 0.137603 0.719516 0.403035
O O13 0.309309 0.810417 0.200951
O O14 0.033954 0.478244 0.833651
O O15 0.087135 0.776818 0.929524
O O16 0.033931 0.879090 0.161908
O O17 0.500000 0.000000 0.000000
#
# Coordination Sequence:
#
# PCOD9100992 Si02
#       8
#     2   2   2   2   2   2   2   2
#     4  10  22  46  75 100 142 190 241 295 365 427
#     4  11  23  41  67 105 144 185 230 295 361 434
#     4   9  21  44  70  98 140 192 239 293 352 426
#     4  12  24  47  74 103 147 190 239 301 363 431
#     4  10  20  37  68 103 140 179 226 294 359 427
#     4  11  24  41  67 109 146 184 235 296 366 438
#     4  10  21  37  67 104 143 183 233 292 362 429
#     4  11  27  46  70 102 142 193 246 300 358 427
#
# _framework density 24.968510999999999
#
# number of rings (size 3 to 8) (size 9 to 14) (size 15 to 20)
#    0.000    1.500    2.500    2.250    3.500    3.500 
#    4.500    0.625    0.000    0.000    0.000    0.000 
#    0.000    0.000    0.000    0.000    0.000    0.000 
#
# Total GULP energy -89403.324156 kJ/mol
# GULP energy per Si atom -5587.707760 kJ/mol
# Density = 2.491168 g / cm^3
# Si number density = 24.968511 Si / 1000 Ang^3
#
#
#
# Elastic Constant Matrix: (Units=GPa)
#
#
# Indices 1 2 3 4 5 6 
#
# 1 42.0891 14.2215 17.5560 -3.6578 7.0270 -11.4667
# 2 14.2215 142.2685 25.7489 -1.5997 -6.2679 -1.6302
# 3 17.5560 25.7489 95.0558 1.9194 -13.1524 -13.5500
# 4 -3.6578 -1.5997 1.9194 39.7761 2.7235 2.4247
# 5 7.0270 -6.2679 -13.1524 2.7235 36.9468 -3.6460
# 6 -11.4667 -1.6302 -13.5500 2.4247 -3.6460 29.5922
#
#
#
# Elastic Compliance Matrix: (Units=1/GPa)
#
#
# Indices 1 2 3 4 5 6 
#
# 1 0.030293 -0.002344 -0.004851 0.002922 -0.007287 0.008251
# 2 -0.002344 0.007595 -0.001648 0.000168 0.001024 -0.001132
# 3 -0.004851 -0.001648 0.013469 -0.001890 0.006080 0.005101
# 4 0.002922 0.000168 -0.001890 0.025873 -0.003329 -0.002254
# 5 -0.007287 0.001024 0.006080 -0.003329 0.031446 0.004164
# 6 0.008251 -0.001132 0.005101 -0.002254 0.004164 0.039961
#
#
# Mechanical properties :
#
#
# Convention : Reuss Voigt Hill
#
# Bulk Modulus (GPa) = 29.69820 43.82956 36.76388
# Shear Modulus (GPa) = 28.16165 36.05549 32.10857
#
# Velocity S-wave (km/s) = 3.36205 3.80417 3.58992
# Velocity P-wave (km/s) = 5.19531 6.07352 5.65150
#
# Compressibility (1/GPa) = 0.03367208
#
# Stress axis : x y z
#
# Youngs Moduli (GPa) = 33.01116 131.65702 74.24444
#
# Poissons Ratio (x) = 0.30858 0.36017
# Poissons Ratio (y) = 0.07737 0.12233
# Poissons Ratio (z) = 0.16014 0.21693
#
# Static dielectric constant tensor:
#      x y z
#    x 2.010700 0.030040 0.022080 
#    y 0.030040 2.027120 0.015740 
#    z 0.022080 0.015740 2.029560 
# 
# From -- ./inp_files/237740.got.cif
#   From: 2010.05.17/outbox.cif.g08.bks.cpg/sg2_119_cif.got.tgz:237740.got - 2010.06.03 11:33:40.
