data_PCOD9100926
_publ_section_title
;
Structure prediction by ZEFSAII (Michael W. Deem and Ramdas Pophale) SiO2 
 PCOD9100926
Probable space group: P -1
;
_chemical_formula_sum "Si O2"
_cell_formula_units_Z 12
_cell_length_a 6.961575
_cell_length_b 12.434883
_cell_length_c 9.647315
_cell_angle_alpha 139.858292
_cell_angle_beta 54.105438
_cell_angle_gamma 125.987539
_cell_volume 420.323890
_symmetry_space_group_name_H-M "P -1"
_symmetry_group_IT_number 2
_symmetry_cell_setting 'triclinic'
loop_
_space_group_symop_operation_xyz
x,y,z
-x,-y,-z
loop_
_atom_site_type_symbol
_atom_site_label
_atom_site_fract_x
_atom_site_fract_y
_atom_site_fract_z
Si Si1 0.393323 0.465400 0.796253
Si Si2 0.793744 0.995516 0.970077
Si Si3 0.419924 0.706073 0.706162
Si Si4 0.177552 0.111957 0.686307
Si Si5 0.304159 0.788735 0.282121
Si Si6 0.082193 0.528023 0.333198
O O1 0.610652 0.806121 0.838779
O O2 0.465738 0.411074 0.559699
O O3 0.225697 0.287842 0.754571
O O4 0.281650 0.623655 0.032209
O O5 0.935890 0.055126 0.825136
O O6 0.640543 0.135954 0.200699
O O7 0.847823 0.402223 0.236731
O O8 0.000000 0.000000 0.000000
O O9 0.345321 0.487907 0.185303
O O10 0.411969 0.143764 0.724938
O O11 0.210992 0.947603 0.423597
O O12 0.144489 0.712718 0.413042
O O13 0.000000 0.500000 0.500000
#
# Coordination Sequence:
#
# PCOD9100926 Si02
#       6
#     2   2   2   2   2   2
#     4  10  20  40  71 101 140 187 225 292 359 411
#     4  11  25  43  69 101 141 183 239 297 345 425
#     4  10  23  44  69 102 136 191 233 284 370 412
#     4  10  22  39  66 105 135 186 238 280 350 422
#     4  10  20  37  67 102 137 184 234 287 351 417
#     4   9  18  35  65  94 136 183 224 280 348 411
#
# _framework density 28.549413000000001
#
# number of rings (size 3 to 8) (size 9 to 14) (size 15 to 20)
#    0.000    2.000    0.000    4.000    9.333    0.667 
#    0.000    1.667    0.000    3.000    0.000    0.000 
#    0.000    0.000    0.000    0.000    0.000    0.000 
#
# Total GULP energy -67383.719571 kJ/mol
# GULP energy per Si atom -5615.309964 kJ/mol
# Density = 2.848443 g / cm^3
# Si number density = 28.549413 Si / 1000 Ang^3
#
#
#
# Elastic Constant Matrix: (Units=GPa)
#
#
# Indices 1 2 3 4 5 6 
#
# 1 170.6040 42.4872 55.5928 16.5157 23.3682 18.8633
# 2 42.4872 175.2294 80.5034 -8.4546 -5.6750 29.0921
# 3 55.5928 80.5034 196.2331 38.4863 -14.4669 -9.5478
# 4 16.5157 -8.4546 38.4863 58.8401 -3.1185 1.3712
# 5 23.3682 -5.6750 -14.4669 -3.1185 50.8650 10.1746
# 6 18.8633 29.0921 -9.5478 1.3712 10.1746 60.3267
#
#
#
# Elastic Compliance Matrix: (Units=1/GPa)
#
#
# Indices 1 2 3 4 5 6 
#
# 1 0.007509 -0.000868 -0.001904 -0.001155 -0.003848 -0.001556
# 2 -0.000868 0.009179 -0.004603 0.004773 0.001454 -0.005237
# 3 -0.001904 -0.004603 0.009036 -0.006040 0.001743 0.004089
# 4 -0.001155 0.004773 -0.006040 0.022116 0.001429 -0.003640
# 5 -0.003848 0.001454 0.001743 0.001429 0.022793 -0.003099
# 6 -0.001556 -0.005237 0.004089 -0.003640 -0.003099 0.020841
#
#
# Mechanical properties :
#
#
# Convention : Reuss Voigt Hill
#
# Bulk Modulus (GPa) = 91.13275 99.91480 95.52378
# Shear Modulus (GPa) = 45.50284 58.23856 51.87070
#
# Velocity S-wave (km/s) = 3.99661 4.52145 4.26711
# Velocity P-wave (km/s) = 7.29983 7.89501 7.60324
#
# Compressibility (1/GPa) = 0.01097300
#
# Stress axis : x y z
#
# Youngs Moduli (GPa) = 133.17407 108.94388 110.66804
#
# Poissons Ratio (x) = 0.09456 0.21073
# Poissons Ratio (y) = 0.11559 0.50945
# Poissons Ratio (z) = 0.25358 0.50152
#
# Static dielectric constant tensor:
#      x y z
#    x 2.230760 -0.095770 0.048710 
#    y -0.095770 2.201690 0.005260 
#    z 0.048710 0.005260 2.232970 
# 
# From -- ./inp_files/191029.got.cif
#   From: 2010.05.17/outbox.cif.g08.bks.cpg/sg2_96_cif.got.tgz:191029.got - 2010.06.03 11:33:40.
