data_PCOD9100289
_publ_section_title
;
Structure prediction by ZEFSAII (Michael W. Deem and Ramdas Pophale) SiO2 
 PCOD9100289
Probable space group: P -1
;
_chemical_formula_sum "Si O2"
_cell_formula_units_Z 12
_cell_length_a 8.456257
_cell_length_b 11.027534
_cell_length_c 9.784406
_cell_angle_alpha 89.499243
_cell_angle_beta 79.615460
_cell_angle_gamma 36.508646
_cell_volume 519.292470
_symmetry_space_group_name_H-M "P -1"
_symmetry_group_IT_number 2
_symmetry_cell_setting 'triclinic'
loop_
_space_group_symop_operation_xyz
x,y,z
-x,-y,-z
loop_
_atom_site_type_symbol
_atom_site_label
_atom_site_fract_x
_atom_site_fract_y
_atom_site_fract_z
Si Si1 0.289762 0.515149 0.173610
Si Si2 0.038451 0.503051 0.836695
Si Si3 0.198966 0.229934 0.360539
Si Si4 0.663855 0.130545 0.657673
Si Si5 0.421316 0.342750 0.430521
Si Si6 0.799344 0.161626 0.907456
O O1 0.454596 0.407409 0.292299
O O2 0.176175 0.714415 0.145804
O O3 0.041348 0.572478 0.226979
O O4 0.495514 0.342610 0.024235
O O5 0.351494 0.343029 0.758359
O O6 0.834805 0.726401 0.797835
O O7 0.000000 0.500000 0.000000
O O8 0.391148 0.220555 0.387705
O O9 0.885867 0.438126 0.464896
O O10 0.296336 0.035431 0.376386
O O11 0.653586 0.208064 0.514098
O O12 0.838307 0.062520 0.763253
O O13 0.000000 0.000000 0.000000
#
# Coordination Sequence:
#
# PCOD9100289 Si02
#       6
#     2   2   2   2   2   2
#     4  10  23  44  61  84 128 159 199 251 300 360
#     4  10  20  37  63  92 118 155 198 247 307 348
#     4   9  20  35  61  95 125 147 196 257 302 358
#     4  11  22  38  66  94 120 156 205 249 298 363
#     4   9  20  40  62  88 121 161 195 249 310 348
#     4  11  26  41  59  88 125 165 201 247 299 357
#
# _framework density 23.108364999999999
#
# number of rings (size 3 to 8) (size 9 to 14) (size 15 to 20)
#    0.000    2.000    1.667    1.500    2.333    6.667 
#    0.000    1.667    0.000    0.000    0.000    0.000 
#    0.000    0.000    0.000    0.000    0.000    0.000 
#
# Total GULP energy -67023.663783 kJ/mol
# GULP energy per Si atom -5585.305315 kJ/mol
# Density = 2.305577 g / cm^3
# Si number density = 23.108365 Si / 1000 Ang^3
#
#
#
# Elastic Constant Matrix: (Units=GPa)
#
#
# Indices 1 2 3 4 5 6 
#
# 1 41.1028 24.7355 17.6754 -17.8647 20.6596 -11.1444
# 2 24.7355 99.8262 46.3386 -45.4296 30.1797 3.7556
# 3 17.6754 46.3386 133.6415 -44.5677 27.2706 -5.6112
# 4 -17.8647 -45.4296 -44.5677 45.3661 -8.9132 3.4066
# 5 20.6596 30.1797 27.2706 -8.9132 38.1314 -8.6016
# 6 -11.1444 3.7556 -5.6112 3.4066 -8.6016 18.3816
#
#
#
# Elastic Compliance Matrix: (Units=1/GPa)
#
#
# Indices 1 2 3 4 5 6 
#
# 1 0.043567 -0.000221 0.004286 0.016198 -0.019143 0.015807
# 2 -0.000221 0.031175 0.004012 0.031854 -0.025155 -0.022953
# 3 0.004286 0.004012 0.013406 0.016766 -0.011787 -0.002752
# 4 0.016198 0.031854 0.016766 0.071687 -0.033894 -0.020716
# 5 -0.019143 -0.025155 -0.011787 -0.033894 0.062787 0.025598
# 6 0.015807 -0.022953 -0.002752 -0.020716 0.025598 0.083653
#
#
# Mechanical properties :
#
#
# Convention : Reuss Voigt Hill
#
# Bulk Modulus (GPa) = 9.58756 50.22994 29.90875
# Shear Modulus (GPa) = 15.38995 32.76389 24.07692
#
# Velocity S-wave (km/s) = 2.58348 3.76950 3.23137
# Velocity P-wave (km/s) = 3.61346 6.38196 5.18587
#
# Compressibility (1/GPa) = 0.10430179
#
# Stress axis : x y z
#
# Youngs Moduli (GPa) = 22.95322 32.07740 74.59605
#
# Poissons Ratio (x) = 0.00708 -0.31973
# Poissons Ratio (y) = 0.00507 -0.29928
# Poissons Ratio (z) = -0.09838 -0.12870
#
# Static dielectric constant tensor:
#      x y z
#    x 1.935740 -0.042280 0.038140 
#    y -0.042280 1.830300 -0.031600 
#    z 0.038140 -0.031600 1.928310 
# 
# From -- ./inp_files/71163.got.cif
#   From: 2010.05.17/outbox.cif.g08.bks.cpg/sg2_36_cif.got.tgz:71163.got - 2010.06.03 11:33:40.
