data_PCOD9100372
_publ_section_title
;
Structure prediction by ZEFSAII (Michael W. Deem and Ramdas Pophale) SiO2 
 PCOD9100372
Probable space group: P -1
;
_chemical_formula_sum "Si O2"
_cell_formula_units_Z 12
_cell_length_a 13.658711
_cell_length_b 13.696961
_cell_length_c 8.053575
_cell_angle_alpha 143.193324
_cell_angle_beta 139.805776
_cell_angle_gamma 34.511746
_cell_volume 486.788387
_symmetry_space_group_name_H-M "P -1"
_symmetry_group_IT_number 2
_symmetry_cell_setting 'triclinic'
loop_
_space_group_symop_operation_xyz
x,y,z
-x,-y,-z
loop_
_atom_site_type_symbol
_atom_site_label
_atom_site_fract_x
_atom_site_fract_y
_atom_site_fract_z
Si Si1 0.851227 0.596851 0.293724
Si Si2 0.711977 0.119782 0.180159
Si Si3 0.558515 0.983727 0.362280
Si Si4 0.370403 0.423074 0.740202
Si Si5 0.946692 0.251399 0.749784
Si Si6 0.895898 0.185120 0.237733
O O1 0.770825 0.816001 0.426151
O O2 0.690775 0.592390 0.175510
O O3 0.000000 0.500000 0.500000
O O4 0.907091 0.459074 0.020637
O O5 0.727260 0.181902 0.098269
O O6 0.767704 0.242680 0.532068
O O7 0.889085 0.899877 0.126870
O O8 0.541388 0.108773 0.984530
O O9 0.500000 0.000000 0.500000
O O10 0.471555 0.205793 0.496062
O O11 0.188883 0.602068 0.660865
O O12 0.500000 0.500000 0.000000
O O13 0.999286 0.175040 0.526542
O O14 0.000000 0.000000 0.000000
#
# Coordination Sequence:
#
# PCOD9100372 Si02
#       6
#     2   2   2   2   2   2
#     4  11  23  43  71  95 126 179 225 263 324 401
#     4   9  19  39  64  92 133 167 224 259 323 396
#     4  10  21  39  63  91 130 173 218 268 319 397
#     4  11  24  40  63  97 133 170 219 275 336 375
#     4   9  20  38  67  97 127 173 226 262 319 406
#     4  10  20  37  63  96 130 171 214 272 326 379
#
# _framework density 24.651371000000001
#
# number of rings (size 3 to 8) (size 9 to 14) (size 15 to 20)
#    1.000    1.000    0.000    5.000    0.000    2.000 
#    0.000    4.167    0.000    0.000    0.000    1.167 
#    0.000    0.000    0.000    0.000    0.000    0.000 
#
# Total GULP energy -66906.353568 kJ/mol
# GULP energy per Si atom -5575.529464 kJ/mol
# Density = 2.459526 g / cm^3
# Si number density = 24.651371 Si / 1000 Ang^3
#
#
#
# Elastic Constant Matrix: (Units=GPa)
#
#
# Indices 1 2 3 4 5 6 
#
# 1 73.5035 18.1396 17.7001 5.7289 10.0940 11.1602
# 2 18.1396 170.5162 66.9411 33.7482 0.3214 17.9167
# 3 17.7001 66.9411 124.6323 27.3091 -1.1861 -2.7209
# 4 5.7289 33.7482 27.3091 46.9372 -5.0433 13.8754
# 5 10.0940 0.3214 -1.1861 -5.0433 35.8130 2.3484
# 6 11.1602 17.9167 -2.7209 13.8754 2.3484 31.1453
#
#
#
# Elastic Compliance Matrix: (Units=1/GPa)
#
#
# Indices 1 2 3 4 5 6 
#
# 1 0.015609 -0.000282 -0.002452 0.001013 -0.003955 -0.005798
# 2 -0.000282 0.008375 -0.003991 -0.002530 -0.000227 -0.003921
# 3 -0.002452 -0.003991 0.011935 -0.005804 -0.000142 0.006814
# 4 0.001013 -0.002530 -0.005804 0.030894 0.004783 -0.013539
# 5 -0.003955 -0.000227 -0.000142 0.004783 0.029895 -0.002850
# 6 -0.005798 -0.003921 0.006814 -0.013539 -0.002850 0.043283
#
#
# Mechanical properties :
#
#
# Convention : Reuss Voigt Hill
#
# Bulk Modulus (GPa) = 44.50580 63.80150 54.15365
# Shear Modulus (GPa) = 31.06934 40.50383 35.78659
#
# Velocity S-wave (km/s) = 3.55399 4.05787 3.81426
# Velocity P-wave (km/s) = 5.91053 6.92046 6.43534
#
# Compressibility (1/GPa) = 0.02246898
#
# Stress axis : x y z
#
# Youngs Moduli (GPa) = 64.06432 119.40788 83.78797
#
# Poissons Ratio (x) = 0.03365 0.20542
# Poissons Ratio (y) = 0.01806 0.33444
# Poissons Ratio (z) = 0.15706 0.47661
#
# Static dielectric constant tensor:
#      x y z
#    x 2.036090 -0.085530 0.117490 
#    y -0.085530 2.102300 -0.054820 
#    z 0.117490 -0.054820 2.000710 
# 
# From -- ./inp_files/316218.got.cif
#   From: 2010.05.17/outbox.cif.g08.bks.cpg/sg2_159_cif.got.tgz:316218.got - 2010.06.03 11:33:40.
