data_PCOD9100973
_publ_section_title
;
Structure prediction by ZEFSAII (Michael W. Deem and Ramdas Pophale) SiO2 
 PCOD9100973
Probable space group: P -1
;
_chemical_formula_sum "Si O2"
_cell_formula_units_Z 14
_cell_length_a 8.058902
_cell_length_b 11.967150
_cell_length_c 9.039860
_cell_angle_alpha 114.169003
_cell_angle_beta 46.831414
_cell_angle_gamma 108.909357
_cell_volume 578.853000
_symmetry_space_group_name_H-M "P -1"
_symmetry_group_IT_number 2
_symmetry_cell_setting 'triclinic'
loop_
_space_group_symop_operation_xyz
x,y,z
-x,-y,-z
loop_
_atom_site_type_symbol
_atom_site_label
_atom_site_fract_x
_atom_site_fract_y
_atom_site_fract_z
Si Si1 0.289388 0.657655 0.168467
Si Si2 0.003935 0.816781 0.808392
Si Si3 0.557125 0.551367 0.226779
Si Si4 0.478494 0.225392 0.441426
Si Si5 0.390348 0.861634 0.995663
Si Si6 0.107387 0.076140 0.757543
Si Si7 0.866275 0.610323 0.572041
O O1 0.436356 0.618613 0.199389
O O2 0.032307 0.673432 0.384607
O O3 0.277415 0.541065 0.000476
O O4 0.395986 0.780322 0.094384
O O5 0.254317 0.773106 0.673782
O O6 0.857557 0.707458 0.761340
O O7 0.055419 0.931205 0.729909
O O8 0.877309 0.867387 0.055762
O O9 0.627286 0.655893 0.357855
O O10 0.369390 0.457569 0.366355
O O11 0.489321 0.206630 0.249377
O O12 0.328640 0.112685 0.545925
O O13 0.121324 0.870214 0.135810
O O14 0.500000 0.000000 0.000000
O O15 0.000000 0.500000 0.500000
#
# Coordination Sequence:
#
# PCOD9100973 Si02
#       7
#     2   2   2   2   2   2   2
#     4  10  23  41  66  97 130 170 214 272 316 386
#     4  10  21  40  66 101 126 167 228 271 312 385
#     4  10  23  40  72  99 123 171 223 270 321 378
#     4  11  23  43  67  95 135 168 219 269 325 387
#     4  11  28  46  61  96 138 174 219 265 327 399
#     4  10  25  40  66  93 131 179 212 271 327 382
#     4  10  20  37  67  98 128 162 214 273 321 373
#
# _framework density 24.185762
#
# number of rings (size 3 to 8) (size 9 to 14) (size 15 to 20)
#    0.000    1.714    2.857    0.429   10.000    4.571 
#    0.000    1.429    0.000    0.000    0.000    0.000 
#    0.000    0.000    0.000    0.000    0.000    0.000 
#
# Total GULP energy -78357.805884 kJ/mol
# GULP energy per Si atom -5596.986135 kJ/mol
# Density = 2.413071 g / cm^3
# Si number density = 24.185762 Si / 1000 Ang^3
#
#
#
# Elastic Constant Matrix: (Units=GPa)
#
#
# Indices 1 2 3 4 5 6 
#
# 1 42.5680 27.1366 11.3433 -8.0840 4.5910 -0.9124
# 2 27.1366 146.2466 34.9084 -6.8832 22.7552 -10.9983
# 3 11.3433 34.9084 88.2701 -12.8141 6.8456 -4.9451
# 4 -8.0840 -6.8832 -12.8141 57.5526 4.2415 1.8065
# 5 4.5910 22.7552 6.8456 4.2415 18.1234 -5.1614
# 6 -0.9124 -10.9983 -4.9451 1.8065 -5.1614 23.5462
#
#
#
# Elastic Compliance Matrix: (Units=1/GPa)
#
#
# Indices 1 2 3 4 5 6 
#
# 1 0.027481 -0.004452 -0.001233 0.003282 -0.002248 -0.002018
# 2 -0.004452 0.009981 -0.002383 0.000736 -0.010192 0.001698
# 3 -0.001233 -0.002383 0.013003 0.002550 -0.001934 0.000951
# 4 0.003282 0.000736 0.002550 0.019136 -0.007816 -0.002175
# 5 -0.002248 -0.010192 -0.001934 -0.007816 0.074424 0.011660
# 6 -0.002018 0.001698 0.000951 -0.002175 0.011660 0.046107
#
#
# Mechanical properties :
#
#
# Convention : Reuss Voigt Hill
#
# Bulk Modulus (GPa) = 29.12981 47.09569 38.11275
# Shear Modulus (GPa) = 22.96615 33.42422 28.19518
#
# Velocity S-wave (km/s) = 3.08486 3.72153 3.41805
# Velocity P-wave (km/s) = 4.97582 6.16288 5.60089
#
# Compressibility (1/GPa) = 0.03432909
#
# Stress axis : x y z
#
# Youngs Moduli (GPa) = 36.38837 100.19174 76.90595
#
# Poissons Ratio (x) = 0.44610 0.09482
# Poissons Ratio (y) = 0.16202 0.18324
# Poissons Ratio (z) = 0.04487 0.23872
#
# Static dielectric constant tensor:
#      x y z
#    x 2.296340 -0.050810 -0.002820 
#    y -0.050810 1.881770 -0.004970 
#    z -0.002820 -0.004970 1.937980 
# 
# From -- ./inp_files/189724.got.cif
#   From: 2010.05.17/outbox.cif.g08.bks.cpg/sg2_95_cif.got.tgz:189724.got - 2010.06.03 11:33:40.
