data_PCOD9100311
_publ_section_title
;
Structure prediction by ZEFSAII (Michael W. Deem and Ramdas Pophale) SiO2 
 PCOD9100311
Probable space group: P -1
;
_chemical_formula_sum "Si O2"
_cell_formula_units_Z 14
_cell_length_a 9.466547
_cell_length_b 9.656629
_cell_length_c 11.008008
_cell_angle_alpha 54.452001
_cell_angle_beta 39.718412
_cell_angle_gamma 70.730094
_cell_volume 509.733418
_symmetry_space_group_name_H-M "P -1"
_symmetry_group_IT_number 2
_symmetry_cell_setting 'triclinic'
loop_
_space_group_symop_operation_xyz
x,y,z
-x,-y,-z
loop_
_atom_site_type_symbol
_atom_site_label
_atom_site_fract_x
_atom_site_fract_y
_atom_site_fract_z
Si Si1 0.257260 0.748192 0.982566
Si Si2 0.946909 0.293301 0.112556
Si Si3 0.718455 0.654563 0.664808
Si Si4 0.445015 0.296805 0.684427
Si Si5 0.935021 0.800468 0.676088
Si Si6 0.586019 0.267445 0.862924
Si Si7 0.162300 0.164761 0.741340
O O1 0.233575 0.782597 0.834202
O O2 0.466563 0.654946 0.880135
O O3 0.318167 0.832473 0.037393
O O4 0.986017 0.687902 0.213896
O O5 0.897555 0.224426 0.315877
O O6 0.000000 0.500000 0.000000
O O7 0.187485 0.260216 0.926019
O O8 0.899709 0.684498 0.637623
O O9 0.700477 0.470742 0.705728
O O10 0.789715 0.816620 0.442049
O O11 0.500000 0.500000 0.500000
O O12 0.589892 0.241482 0.727374
O O13 0.397832 0.192524 0.642567
O O14 0.679866 0.760403 0.918062
O O15 0.000000 0.000000 0.500000
O O16 0.000000 0.000000 0.000000
#
# Coordination Sequence:
#
# PCOD9100311 Si02
#       7
#     2   2   2   2   2   2   2
#     4  10  22  41  64  94 122 166 216 259 310 382
#     4  10  20  37  63  92 126 159 216 261 311 386
#     4  11  22  42  70  89 131 170 208 261 326 379
#     4  10  20  40  62  89 125 162 206 265 314 371
#     4  10  22  38  63  94 128 165 207 266 322 368
#     4  10  20  41  67  92 127 167 213 261 321 385
#     4  11  26  42  62  94 130 169 212 260 318 377
#
# _framework density 27.465339
#
# number of rings (size 3 to 8) (size 9 to 14) (size 15 to 20)
#    0.000    1.714    1.429    4.286    6.000    1.143 
#    5.143    0.714    0.000    0.000    0.000    0.000 
#    0.000    0.000    0.000    0.000    0.000    0.000 
#
# Total GULP energy -77977.964570 kJ/mol
# GULP energy per Si atom -5569.854612 kJ/mol
# Density = 2.740283 g / cm^3
# Si number density = 27.465339 Si / 1000 Ang^3
#
#
#
# Elastic Constant Matrix: (Units=GPa)
#
#
# Indices 1 2 3 4 5 6 
#
# 1 294.3569 32.1675 60.5397 6.7102 28.7913 34.9870
# 2 32.1675 62.4642 32.9196 -1.6641 4.0606 11.2447
# 3 60.5397 32.9196 117.4620 -7.7631 17.6167 8.5679
# 4 6.7102 -1.6641 -7.7631 44.1476 -3.4508 -2.3380
# 5 28.7913 4.0606 17.6167 -3.4508 61.4262 10.4970
# 6 34.9870 11.2447 8.5679 -2.3380 10.4970 46.1985
#
#
#
# Elastic Compliance Matrix: (Units=1/GPa)
#
#
# Indices 1 2 3 4 5 6 
#
# 1 0.004272 -0.000805 -0.001706 -0.001199 -0.001094 -0.002535
# 2 -0.000805 0.019613 -0.005000 -0.000116 0.001105 -0.003494
# 3 -0.001706 -0.005000 0.011168 0.001922 -0.002139 0.001022
# 4 -0.001199 -0.000116 0.001922 0.023331 0.001070 0.001518
# 5 -0.001094 0.001105 -0.002139 0.001070 0.017916 -0.003061
# 6 -0.002535 -0.003494 0.001022 0.001518 -0.003061 0.024999
#
#
# Mechanical properties :
#
#
# Convention : Reuss Voigt Hill
#
# Bulk Modulus (GPa) = 49.92847 80.61521 65.27184
# Shear Modulus (GPa) = 40.65107 53.59819 47.12463
#
# Velocity S-wave (km/s) = 3.85136 4.42235 4.14670
# Velocity P-wave (km/s) = 6.16405 7.44927 6.83693
#
# Compressibility (1/GPa) = 0.02002865
#
# Stress axis : x y z
#
# Youngs Moduli (GPa) = 234.09412 50.98647 89.54528
#
# Poissons Ratio (x) = 0.04105 0.15280
# Poissons Ratio (y) = 0.18847 0.44776
# Poissons Ratio (z) = 0.39945 0.25495
#
# Static dielectric constant tensor:
#      x y z
#    x 2.217220 0.034830 0.171140 
#    y 0.034830 2.292610 -0.070970 
#    z 0.171140 -0.070970 2.034020 
# 
# From -- ./inp_files/154990.got.cif
#   From: 2010.05.17/outbox.cif.g08.bks.cpg/sg2_78_cif.got.tgz:154990.got - 2010.06.03 11:33:40.
