data_PCOD9100412
_publ_section_title
;
Structure prediction by ZEFSAII (Michael W. Deem and Ramdas Pophale) SiO2 
 PCOD9100412
Probable space group: P -1
;
_chemical_formula_sum "Si O2"
_cell_formula_units_Z 16
_cell_length_a 17.847744
_cell_length_b 7.837281
_cell_length_c 11.029065
_cell_angle_alpha 83.370027
_cell_angle_beta 153.604239
_cell_angle_gamma 108.758471
_cell_volume 592.319083
_symmetry_space_group_name_H-M "P -1"
_symmetry_group_IT_number 2
_symmetry_cell_setting 'triclinic'
loop_
_space_group_symop_operation_xyz
x,y,z
-x,-y,-z
loop_
_atom_site_type_symbol
_atom_site_label
_atom_site_fract_x
_atom_site_fract_y
_atom_site_fract_z
Si Si1 0.563351 0.935331 0.889972
Si Si2 0.760219 0.805487 0.354247
Si Si3 0.477318 0.574727 0.609832
Si Si4 0.967077 0.303135 0.131791
Si Si5 0.382404 0.586459 0.984399
Si Si6 0.963074 0.786650 0.005602
Si Si7 0.572999 0.193875 0.674033
Si Si8 0.805331 0.284425 0.472899
O O1 0.511904 0.753210 0.737822
O O2 0.399925 0.870803 0.758889
O O3 0.554589 0.107404 0.788049
O O4 0.748231 0.963220 0.234723
O O5 0.687026 0.612548 0.179215
O O6 0.964089 0.842684 0.699729
O O7 0.599464 0.734649 0.234731
O O8 0.521161 0.685806 0.534338
O O9 0.606929 0.484971 0.859128
O O10 0.255518 0.394374 0.308872
O O11 0.141674 0.521119 0.385860
O O12 0.799265 0.308916 0.962349
O O13 0.918658 0.254492 0.925352
O O14 0.232387 0.658846 0.719834
O O15 0.044862 0.782448 0.257121
O O16 0.000000 0.000000 0.000000
O O17 0.500000 0.000000 0.500000
#
# Coordination Sequence:
#
# PCOD9100412 Si02
#       8
#     2   2   2   2   2   2   2   2
#     4   9  17  31  52  82 109 125 166 214 259 306
#     4   8  14  25  48  77 103 126 164 209 260 297
#     4  10  16  32  48  71 106 133 160 212 256 290
#     4  11  18  32  55  75 101 139 172 211 260 294
#     4   8  14  27  49  74  98 127 165 209 257 295
#     4  12  22  31  49  80 106 132 174 217 249 295
#     4  10  20  28  49  81 107 133 164 210 262 303
#     4  10  18  33  57  78  96 136 170 213 257 304
#
# _framework density 27.012467999999998
#
# number of rings (size 3 to 8) (size 9 to 14) (size 15 to 20)
#    0.000    2.250    3.750    3.375    0.000    0.500 
#    0.000    0.625    0.000    6.750    0.000    0.875 
#    0.000    0.000    0.000    0.000    0.000    0.000 
#
# Total GULP energy -89476.015196 kJ/mol
# GULP energy per Si atom -5592.250950 kJ/mol
# Density = 2.695099 g / cm^3
# Si number density = 27.012468 Si / 1000 Ang^3
#
#
#
# Elastic Constant Matrix: (Units=GPa)
#
#
# Indices 1 2 3 4 5 6 
#
# 1 67.2185 25.4486 27.8162 -5.8445 -23.9079 12.2023
# 2 25.4486 243.1028 60.1199 -62.4240 -21.8059 8.3049
# 3 27.8162 60.1199 113.6902 -54.5295 -32.7242 16.0779
# 4 -5.8445 -62.4240 -54.5295 54.5996 10.2078 -12.0048
# 5 -23.9079 -21.8059 -32.7242 10.2078 41.8457 -14.4339
# 6 12.2023 8.3049 16.0779 -12.0048 -14.4339 41.6227
#
#
#
# Elastic Compliance Matrix: (Units=1/GPa)
#
#
# Indices 1 2 3 4 5 6 
#
# 1 0.020116 -0.001906 -0.004448 -0.006556 0.007563 -0.003067
# 2 -0.001906 0.006223 0.001546 0.008499 0.001923 0.001838
# 3 -0.004448 0.001546 0.022790 0.022486 0.011524 0.002674
# 4 -0.006556 0.008499 0.022486 0.050083 0.009217 0.009182
# 5 0.007563 0.001923 0.011524 0.009217 0.039151 0.009183
# 6 -0.003067 0.001838 0.002674 0.009182 0.009183 0.029358
#
#
# Mechanical properties :
#
#
# Convention : Reuss Voigt Hill
#
# Bulk Modulus (GPa) = 25.30854 72.30898 48.80876
# Shear Modulus (GPa) = 26.24562 48.32208 37.28385
#
# Velocity S-wave (km/s) = 3.12045 4.23410 3.71920
# Velocity P-wave (km/s) = 4.72996 7.12253 6.04578
#
# Compressibility (1/GPa) = 0.03951235
#
# Stress axis : x y z
#
# Youngs Moduli (GPa) = 49.71257 160.69810 43.87798
#
# Poissons Ratio (x) = 0.30633 0.19516
# Poissons Ratio (y) = 0.09477 -0.06782
# Poissons Ratio (z) = 0.22111 -0.24839
#
# Static dielectric constant tensor:
#      x y z
#    x 1.492990 -0.416320 -0.880750 
#    y -0.416320 1.985450 -0.533610 
#    z -0.880750 -0.533610 0.926520 
# 
# From -- ./inp_files/527121.got.cif
#   From: 2010.05.17/outbox.cif.g08.bks.cpg/sg2_264_cif.got.tgz:527121.got - 2010.06.03 11:33:40.
