data_PCOD9100500
_publ_section_title
;
Structure prediction by ZEFSAII (Michael W. Deem and Ramdas Pophale) SiO2 
 PCOD9100500
Probable space group: P -1
;
_chemical_formula_sum "Si O2"
_cell_formula_units_Z 14
_cell_length_a 5.363295
_cell_length_b 16.501564
_cell_length_c 10.566849
_cell_angle_alpha 143.378953
_cell_angle_beta 65.992666
_cell_angle_gamma 103.779431
_cell_volume 502.860077
_symmetry_space_group_name_H-M "P -1"
_symmetry_group_IT_number 2
_symmetry_cell_setting 'triclinic'
loop_
_space_group_symop_operation_xyz
x,y,z
-x,-y,-z
loop_
_atom_site_type_symbol
_atom_site_label
_atom_site_fract_x
_atom_site_fract_y
_atom_site_fract_z
Si Si1 0.180854 0.564030 0.392268
Si Si2 0.487622 0.367281 0.247879
Si Si3 0.182257 0.517409 0.861273
Si Si4 0.044409 0.166253 0.306500
Si Si5 0.198229 0.086801 0.645019
Si Si6 0.413500 0.160284 0.460860
Si Si7 0.245879 0.904883 0.055942
O O1 0.213672 0.429197 0.305381
O O2 0.502629 0.565928 0.290703
O O3 0.029515 0.721164 0.648746
O O4 0.003635 0.528648 0.268197
O O5 0.500000 0.500000 0.500000
O O6 0.712986 0.350098 0.064611
O O7 0.551386 0.238512 0.165805
O O8 0.000000 0.500000 0.000000
O O9 0.732358 0.169164 0.423547
O O10 0.227947 0.213884 0.443698
O O11 0.182904 0.003702 0.070149
O O12 0.258305 0.202792 0.678097
O O13 0.038938 0.118734 0.849769
O O14 0.500000 0.000000 0.500000
O O15 0.000000 0.000000 0.500000
O O16 0.396402 0.998701 0.236677
#
# Coordination Sequence:
#
# PCOD9100500 Si02
#       7
#     2   2   2   2   2   2   2
#     4  10  23  42  68  95 135 175 223 274 339 399
#     4  10  25  46  69  97 137 185 230 274 331 403
#     4  10  23  46  69  99 132 180 227 278 335 404
#     4  10  19  35  60  88 123 161 209 268 329 387
#     4  10  16  32  48  86 120 163 196 263 326 388
#     4   9  18  32  56  89 128 159 209 265 338 389
#     4   9  21  34  59  91 129 166 220 271 328 393
#
# _framework density 27.840744999999998
#
# number of rings (size 3 to 8) (size 9 to 14) (size 15 to 20)
#    1.714    0.571    1.429    1.286    0.000    4.000 
#    0.000    0.714    0.000    1.714    0.000    0.000 
#    0.000    0.000    0.000    0.000    0.000    0.000 
#
# Total GULP energy -77979.656608 kJ/mol
# GULP energy per Si atom -5569.975472 kJ/mol
# Density = 2.777738 g / cm^3
# Si number density = 27.840745 Si / 1000 Ang^3
#
#
#
# Elastic Constant Matrix: (Units=GPa)
#
#
# Indices 1 2 3 4 5 6 
#
# 1 178.8279 40.4115 32.5728 -0.2553 -48.5127 -13.7067
# 2 40.4115 211.2424 63.2608 21.3786 -30.0153 -35.7540
# 3 32.5728 63.2608 78.0856 8.0396 -38.1311 -10.2580
# 4 -0.2553 21.3786 8.0396 67.5453 7.3308 -27.2140
# 5 -48.5127 -30.0153 -38.1311 7.3308 50.8655 -4.3922
# 6 -13.7067 -35.7540 -10.2580 -27.2140 -4.3922 56.1339
#
#
#
# Elastic Compliance Matrix: (Units=1/GPa)
#
#
# Indices 1 2 3 4 5 6 
#
# 1 0.007987 -0.000277 0.001581 0.000097 0.008868 0.002804
# 2 -0.000277 0.006876 -0.004675 -0.000343 0.000627 0.003340
# 3 0.001581 -0.004675 0.025508 -0.002656 0.018446 0.002226
# 4 0.000097 -0.000343 -0.002656 0.018981 -0.004129 0.008199
# 5 0.008868 0.000627 0.018446 -0.004129 0.043545 0.007341
# 6 0.002804 0.003340 0.002226 0.008199 0.007341 0.025583
#
#
# Mechanical properties :
#
#
# Convention : Reuss Voigt Hill
#
# Bulk Modulus (GPa) = 29.73501 82.29401 56.01451
# Shear Modulus (GPa) = 34.14585 57.03632 45.59108
#
# Velocity S-wave (km/s) = 3.50590 4.53113 4.05108
# Velocity P-wave (km/s) = 5.20500 7.54969 6.48421
#
# Compressibility (1/GPa) = 0.03363039
#
# Stress axis : x y z
#
# Youngs Moduli (GPa) = 125.19910 145.43312 39.20384
#
# Poissons Ratio (x) = 0.04024 -0.06199
# Poissons Ratio (y) = 0.03464 0.18327
# Poissons Ratio (z) = -0.19797 0.67987
#
# Static dielectric constant tensor:
#      x y z
#    x 2.145720 0.141020 0.050950 
#    y 0.141020 2.597410 0.051270 
#    z 0.050950 0.051270 2.293700 
# 
# From -- ./inp_files/370094.got.cif
#   From: 2010.05.17/outbox.cif.g08.bks.cpg/sg2_186_cif.got.tgz:370094.got - 2010.06.03 11:33:40.
