data_PCOD9100918
_publ_section_title
;
Structure prediction by ZEFSAII (Michael W. Deem and Ramdas Pophale) SiO2 
 PCOD9100918
Probable space group: P -1
;
_chemical_formula_sum "Si O2"
_cell_formula_units_Z 16
_cell_length_a 12.770137
_cell_length_b 15.505880
_cell_length_c 16.359797
_cell_angle_alpha 152.303238
_cell_angle_beta 143.876265
_cell_angle_gamma 54.277608
_cell_volume 779.030054
_symmetry_space_group_name_H-M "P -1"
_symmetry_group_IT_number 2
_symmetry_cell_setting 'triclinic'
loop_
_space_group_symop_operation_xyz
x,y,z
-x,-y,-z
loop_
_atom_site_type_symbol
_atom_site_label
_atom_site_fract_x
_atom_site_fract_y
_atom_site_fract_z
Si Si1 0.405097 0.793107 0.469273
Si Si2 0.834914 0.014291 0.849562
Si Si3 0.170135 0.031478 0.520821
Si Si4 0.551549 0.300422 0.221532
Si Si5 0.005091 0.488300 0.395085
Si Si6 0.209023 0.335861 0.938883
Si Si7 0.480786 0.140845 0.216472
Si Si8 0.996902 0.906992 0.702172
O O1 0.348499 0.976964 0.570574
O O2 0.431349 0.782071 0.574076
O O3 0.614641 0.850950 0.605891
O O4 0.234534 0.567404 0.140746
O O5 0.880141 0.962252 0.744376
O O6 0.867066 0.250687 0.078344
O O7 0.000000 0.000000 0.000000
O O8 0.006514 0.833793 0.304475
O O9 0.240072 0.239412 0.793849
O O10 0.062275 0.047706 0.385277
O O11 0.767708 0.441072 0.434019
O O12 0.566829 0.304281 0.332774
O O13 0.383311 0.353979 0.126147
O O14 0.482280 0.057358 0.948537
O O15 0.000000 0.500000 0.500000
O O16 0.949665 0.664370 0.475357
O O17 0.238217 0.046250 0.985732
#
# Coordination Sequence:
#
# PCOD9100918 Si02
#       8
#     2   2   2   2   2   2   2   2
#     4  12  25  42  70  96 133 173 219 268 324 390
#     4  12  23  41  67  98 129 169 221 269 323 384
#     4  11  26  46  63  96 137 171 216 267 326 389
#     4  10  20  37  67 101 127 166 217 265 329 383
#     4  11  23  39  68  98 131 169 214 268 326 383
#     4  11  24  42  71  93 132 178 213 262 333 393
#     4  10  20  39  67 101 129 160 216 280 323 376
#     4  11  24  43  66  96 134 171 215 275 323 380
#
# _framework density 20.538360999999998
#
# number of rings (size 3 to 8) (size 9 to 14) (size 15 to 20)
#    0.000    1.000    5.000    1.875    0.000    3.000 
#    0.000    1.250    0.000    0.000    0.000    0.000 
#    0.000    0.000    0.000    0.000    0.000    0.000 
#
# Total GULP energy -89514.480347 kJ/mol
# GULP energy per Si atom -5594.655022 kJ/mol
# Density = 2.049161 g / cm^3
# Si number density = 20.538361 Si / 1000 Ang^3
#
#
#
# Elastic Constant Matrix: (Units=GPa)
#
#
# Indices 1 2 3 4 5 6 
#
# 1 63.8733 22.6529 9.5773 23.5524 3.2714 -10.1093
# 2 22.6529 47.8466 18.7405 -7.3339 -16.3928 -5.1310
# 3 9.5773 18.7405 64.8742 18.7024 -15.4303 1.2134
# 4 23.5524 -7.3339 18.7024 16.2764 -5.9771 5.4439
# 5 3.2714 -16.3928 -15.4303 -5.9771 27.1303 6.1544
# 6 -10.1093 -5.1310 1.2134 5.4439 6.1544 21.9888
#
#
#
# Elastic Compliance Matrix: (Units=1/GPa)
#
#
# Indices 1 2 3 4 5 6 
#
# 1 -0.005601 0.017077 -0.011219 0.038478 0.015793 -0.011918
# 2 0.017077 0.003025 0.005300 -0.040653 -0.011031 0.021417
# 3 -0.011219 0.005300 0.017596 0.009925 0.019666 -0.012854
# 4 0.038478 -0.040653 0.009925 -0.049887 -0.041737 0.031689
# 5 0.015793 -0.011031 0.019666 -0.041737 0.028957 0.005830
# 6 -0.011918 0.021417 -0.012854 0.031689 0.005830 0.036228
#
#
# Mechanical properties :
#
#
# Convention : Reuss Voigt Hill
#
# Bulk Modulus (GPa) = 26.78393 30.94840 28.86617
# Shear Modulus (GPa) = 244.53302 21.45399 132.99350
#
# Velocity S-wave (km/s) = 10.92337 3.23550 8.05570
# Velocity P-wave (km/s) = 13.12108 5.39067 10.03050
#
# Compressibility (1/GPa) = 0.03733583
#
# Stress axis : x y z
#
# Youngs Moduli (GPa) = -178.52502 330.58106 56.82999
#
# Poissons Ratio (x) = -5.64539 0.63760
# Poissons Ratio (y) = 3.04870 -0.30122
# Poissons Ratio (z) = -2.00296 -1.75218
#
# Static dielectric constant tensor:
#      x y z
#    x 1.721020 -0.009530 -0.001090 
#    y -0.009530 1.715400 0.029910 
#    z -0.001090 0.029910 1.721560 
# 
# From -- ./inp_files/455436.got.cif
#   From: 2010.05.17/outbox.cif.g08.bks.cpg/sg2_228_cif.got.tgz:455436.got - 2010.06.03 11:33:40.
