data_PCOD9100203
_publ_section_title
;
Structure prediction by ZEFSAII (Michael W. Deem and Ramdas Pophale) SiO2 
 PCOD9100203
Probable space group: P -1
;
_chemical_formula_sum "Si O2"
_cell_formula_units_Z 12
_cell_length_a 10.657936
_cell_length_b 7.351429
_cell_length_c 13.348591
_cell_angle_alpha 136.743751
_cell_angle_beta 118.608841
_cell_angle_gamma 43.266121
_cell_volume 488.255077
_symmetry_space_group_name_H-M "P -1"
_symmetry_group_IT_number 2
_symmetry_cell_setting 'triclinic'
loop_
_space_group_symop_operation_xyz
x,y,z
-x,-y,-z
loop_
_atom_site_type_symbol
_atom_site_label
_atom_site_fract_x
_atom_site_fract_y
_atom_site_fract_z
Si Si1 0.761550 0.705483 0.889310
Si Si2 0.187741 0.480348 0.737827
Si Si3 0.874088 0.410784 0.603132
Si Si4 0.508788 0.699363 0.492990
Si Si5 0.166333 0.470771 0.946586
Si Si6 0.644030 0.250349 0.194213
O O1 0.757290 0.587294 0.731912
O O2 0.952358 0.645378 0.936501
O O3 0.783433 0.486213 0.905982
O O4 0.609295 0.100016 0.024074
O O5 0.207463 0.556464 0.891446
O O6 0.205089 0.714199 0.768636
O O7 0.007500 0.505833 0.674656
O O8 0.358766 0.095487 0.617862
O O9 0.717893 0.563508 0.521507
O O10 0.000000 0.000000 0.500000
O O11 0.500000 0.500000 0.500000
O O12 0.488922 0.584008 0.330773
O O13 0.270637 0.063077 0.821648
#
# Coordination Sequence:
#
# PCOD9100203 Si02
#       6
#     2   2   2   2   2   2
#     4   8  17  37  58  90 118 152 203 238 292 357
#     4  11  22  39  64  89 118 160 197 243 299 347
#     4  11  22  37  66  89 117 158 200 242 296 356
#     4  12  21  40  61  86 125 156 197 247 291 352
#     4   8  16  34  60  86 116 154 193 241 288 346
#     4  10  20  37  63  87 121 157 197 243 299 350
#
# _framework density 24.577317000000001
#
# number of rings (size 3 to 8) (size 9 to 14) (size 15 to 20)
#    1.000    1.000    3.333    1.500    0.000    3.333 
#    0.000    4.167    0.000    0.000    0.000    0.000 
#    0.000    0.000    0.000    0.000    0.000    0.000 
#
# Total GULP energy -66961.027096 kJ/mol
# GULP energy per Si atom -5580.085591 kJ/mol
# Density = 2.452138 g / cm^3
# Si number density = 24.577317 Si / 1000 Ang^3
#
#
#
# Elastic Constant Matrix: (Units=GPa)
#
#
# Indices 1 2 3 4 5 6 
#
# 1 119.4821 14.7501 22.3860 -15.5869 -3.6771 -2.4793
# 2 14.7501 36.9404 26.4048 -1.0337 0.9803 -16.1703
# 3 22.3860 26.4048 151.1174 -12.4326 -34.0874 -5.4535
# 4 -15.5869 -1.0337 -12.4326 33.6576 0.0747 -9.7902
# 5 -3.6771 0.9803 -34.0874 0.0747 41.6071 -2.8822
# 6 -2.4793 -16.1703 -5.4535 -9.7902 -2.8822 30.5446
#
#
#
# Elastic Compliance Matrix: (Units=1/GPa)
#
#
# Indices 1 2 3 4 5 6 
#
# 1 0.009415 -0.003256 -0.000307 0.004267 0.000679 0.000417
# 2 -0.003256 0.043531 -0.007347 0.003544 -0.005811 0.022057
# 3 -0.000307 -0.007347 0.010099 0.003265 0.008395 -0.000273
# 4 0.004267 0.003544 0.003265 0.037405 0.003952 0.015167
# 5 0.000679 -0.005811 0.008395 0.003952 0.031289 0.002697
# 6 0.000417 0.022057 -0.000273 0.015167 0.002697 0.049517
#
#
# Mechanical properties :
#
#
# Convention : Reuss Voigt Hill
#
# Bulk Modulus (GPa) = 24.25698 48.29129 36.27413
# Shear Modulus (GPa) = 23.06096 37.42846 30.24471
#
# Velocity S-wave (km/s) = 3.06650 3.90665 3.51179
# Velocity P-wave (km/s) = 4.73592 6.32777 5.58881
#
# Compressibility (1/GPa) = 0.04122526
#
# Stress axis : x y z
#
# Youngs Moduli (GPa) = 106.21310 22.97217 99.02011
#
# Poissons Ratio (x) = 0.07480 0.03035
# Poissons Ratio (y) = 0.34585 0.72751
# Poissons Ratio (z) = 0.03256 0.16878
#
# Static dielectric constant tensor:
#      x y z
#    x 1.948730 -0.015560 0.009160 
#    y -0.015560 1.918430 -0.023480 
#    z 0.009160 -0.023480 2.040190 
# 
# From -- ./inp_files/513840.got.cif
#   From: 2010.05.17/outbox.cif.g08.bks.cpg/sg2_257_cif.got.tgz:513840.got - 2010.06.03 11:33:40.
