data_PCOD9100104
_publ_section_title
;
Structure prediction by ZEFSAII (Michael W. Deem and Ramdas Pophale) SiO2 
 PCOD9100104
Probable space group: P -1
;
_chemical_formula_sum "Si O2"
_cell_formula_units_Z 16
_cell_length_a 12.600350
_cell_length_b 11.485269
_cell_length_c 13.476661
_cell_angle_alpha 58.884832
_cell_angle_beta 150.747856
_cell_angle_gamma 128.540160
_cell_volume 743.593103
_symmetry_space_group_name_H-M "P -1"
_symmetry_group_IT_number 2
_symmetry_cell_setting 'triclinic'
loop_
_space_group_symop_operation_xyz
x,y,z
-x,-y,-z
loop_
_atom_site_type_symbol
_atom_site_label
_atom_site_fract_x
_atom_site_fract_y
_atom_site_fract_z
Si Si1 0.237332 0.258019 0.383252
Si Si2 0.042721 0.061690 0.619834
Si Si3 0.618507 0.359090 0.378056
Si Si4 0.615575 0.164842 0.648091
Si Si5 0.528818 0.141675 0.028036
Si Si6 0.965703 0.588615 0.706060
Si Si7 0.129468 0.354302 0.039464
Si Si8 0.640095 0.146991 0.332381
O O1 0.485648 0.239887 0.583572
O O2 0.183434 0.327174 0.208597
O O3 0.219744 0.360088 0.412973
O O4 0.037016 0.090290 0.313181
O O5 0.881270 0.141190 0.492356
O O6 0.314328 0.177606 0.798458
O O7 0.000000 0.000000 0.500000
O O8 0.585396 0.230184 0.489456
O O9 0.371216 0.378700 0.167480
O O10 0.666455 0.298123 0.340000
O O11 0.837658 0.498807 0.542934
O O12 0.475349 0.989978 0.625894
O O13 0.893012 0.212371 0.875211
O O14 0.790542 0.268597 0.176082
O O15 0.482697 0.107818 0.121643
O O16 0.500000 0.000000 0.000000
O O17 0.045198 0.485261 0.888127
#
# Coordination Sequence:
#
# PCOD9100104 Si02
#       8
#     2   2   2   2   2   2   2   2
#     4  10  20  37  62  94 125 160 208 260 316 364
#     4  11  22  40  66  96 124 156 206 270 319 358
#     4  10  24  43  59  94 130 172 207 246 312 376
#     4   9  21  38  66  96 123 162 212 261 309 364
#     4  12  24  42  65  96 120 158 214 261 312 372
#     4  11  24  40  62  90 135 163 208 258 306 382
#     4  10  22  39  61  92 127 170 208 254 312 369
#     4  11  23  42  68  90 130 165 206 263 310 369
#
# _framework density 21.517146
#
# number of rings (size 3 to 8) (size 9 to 14) (size 15 to 20)
#    0.000    1.500    2.500    1.500    0.000   10.500 
#    0.000    1.250    0.000    0.000    0.000    0.000 
#    0.000    0.000    0.000    0.000    0.000    0.000 
#
# Total GULP energy -89351.178581 kJ/mol
# GULP energy per Si atom -5584.448661 kJ/mol
# Density = 2.146817 g / cm^3
# Si number density = 21.517146 Si / 1000 Ang^3
#
#
#
# Elastic Constant Matrix: (Units=GPa)
#
#
# Indices 1 2 3 4 5 6 
#
# 1 95.2156 48.1312 40.5942 21.9324 6.8713 -26.9099
# 2 48.1312 88.8446 36.7843 12.2427 2.9305 -17.9432
# 3 40.5942 36.7843 106.4726 19.6224 22.9945 -18.1756
# 4 21.9324 12.2427 19.6224 22.9033 6.2087 -5.4594
# 5 6.8713 2.9305 22.9945 6.2087 29.6554 4.1348
# 6 -26.9099 -17.9432 -18.1756 -5.4594 4.1348 37.7449
#
#
#
# Elastic Compliance Matrix: (Units=1/GPa)
#
#
# Indices 1 2 3 4 5 6 
#
# 1 0.019719 -0.006763 -0.001132 -0.011713 -0.001797 0.008801
# 2 -0.006763 0.016473 -0.003505 0.000270 0.002448 0.001093
# 3 -0.001132 -0.003505 0.015368 -0.006041 -0.010772 0.005233
# 4 -0.011713 0.000270 -0.006041 0.060879 -0.005128 -0.001764
# 5 -0.001797 0.002448 -0.010772 -0.005128 0.044850 -0.010960
# 6 0.008801 0.001093 0.005233 -0.001764 -0.010960 0.036753
#
#
# Mechanical properties :
#
#
# Convention : Reuss Voigt Hill
#
# Bulk Modulus (GPa) = 34.77096 60.17247 47.47171
# Shear Modulus (GPa) = 22.08205 29.06226 25.57216
#
# Velocity S-wave (km/s) = 3.20699 3.67911 3.45114
# Velocity P-wave (km/s) = 5.46880 6.78774 6.16365
#
# Compressibility (1/GPa) = 0.02875963
#
# Stress axis : x y z
#
# Youngs Moduli (GPa) = 50.71254 60.70480 65.07178
#
# Poissons Ratio (x) = 0.41055 0.07369
# Poissons Ratio (y) = 0.34297 0.22805
# Poissons Ratio (z) = 0.05743 0.21274
#
# Static dielectric constant tensor:
#      x y z
#    x 1.804700 0.024560 -0.004740 
#    y 0.024560 1.810100 -0.024020 
#    z -0.004740 -0.024020 1.834330 
# 
# From -- ./inp_files/428061.got.cif
#   From: 2010.05.17/outbox.cif.g08.bks.cpg/sg2_215_cif.got.tgz:428061.got - 2010.06.03 11:33:40.
