data_PCOD9100573
_publ_section_title
;
Structure prediction by ZEFSAII (Michael W. Deem and Ramdas Pophale) SiO2 
 PCOD9100573
Probable space group: P -1
;
_chemical_formula_sum "Si O2"
_cell_formula_units_Z 14
_cell_length_a 8.545630
_cell_length_b 9.361595
_cell_length_c 14.934807
_cell_angle_alpha 65.679512
_cell_angle_beta 35.442316
_cell_angle_gamma 76.022274
_cell_volume 621.290424
_symmetry_space_group_name_H-M "P -1"
_symmetry_group_IT_number 2
_symmetry_cell_setting 'triclinic'
loop_
_space_group_symop_operation_xyz
x,y,z
-x,-y,-z
loop_
_atom_site_type_symbol
_atom_site_label
_atom_site_fract_x
_atom_site_fract_y
_atom_site_fract_z
Si Si1 0.328591 0.217518 0.749533
Si Si2 0.064452 0.037183 0.089429
Si Si3 0.375191 0.453896 0.422633
Si Si4 0.297539 0.832945 0.654994
Si Si5 0.234305 0.661762 0.274705
Si Si6 0.699303 0.836521 0.885701
Si Si7 0.238229 0.936672 0.352619
O O1 0.434615 0.402738 0.650697
O O2 0.586584 0.131789 0.635105
O O3 0.247973 0.146106 0.904538
O O4 0.072315 0.136007 0.833462
O O5 0.218998 0.025681 0.112626
O O6 0.827454 0.138058 0.196871
O O7 0.524961 0.304008 0.394483
O O8 0.341425 0.527808 0.320356
O O9 0.060866 0.407371 0.612141
O O10 0.006819 0.791497 0.746092
O O11 0.500000 0.000000 0.500000
O O12 0.175096 0.794221 0.343669
O O13 0.464390 0.717103 0.077577
O O14 0.618419 0.911677 0.812395
O O15 0.000000 0.000000 0.500000
#
# Coordination Sequence:
#
# PCOD9100573 Si02
#       7
#     2   2   2   2   2   2   2
#     4  10  21  39  60  98 125 168 213 260 327 372
#     4   9  21  38  62  92 129 161 219 260 317 390
#     4  10  20  37  64  95 127 167 214 266 314 391
#     4  10  21  36  63  93 119 167 215 262 316 380
#     4  10  21  38  62  92 129 173 210 257 332 382
#     4  10  21  39  64  94 127 167 222 257 320 384
#     4  11  22  35  65  93 125 165 218 269 309 380
#
# _framework density 22.533745
#
# number of rings (size 3 to 8) (size 9 to 14) (size 15 to 20)
#    0.857    1.143    2.857    1.286    4.000    2.286 
#    0.000    0.714    0.000    7.714    0.000    0.000 
#    0.000    0.000    0.000    0.000    0.000    0.000 
#
# Total GULP energy -78011.941767 kJ/mol
# GULP energy per Si atom -5572.281555 kJ/mol
# Density = 2.248246 g / cm^3
# Si number density = 22.533745 Si / 1000 Ang^3
#
#
#
# Elastic Constant Matrix: (Units=GPa)
#
#
# Indices 1 2 3 4 5 6 
#
# 1 57.6041 47.4500 33.7559 -14.9725 -14.3003 -8.8835
# 2 47.4500 121.0312 59.4706 -17.3549 -22.5323 -31.8322
# 3 33.7559 59.4706 156.5916 -14.2043 -18.3971 -14.8931
# 4 -14.9725 -17.3549 -14.2043 33.6099 2.2266 -6.1757
# 5 -14.3003 -22.5323 -18.3971 2.2266 40.0840 -5.0392
# 6 -8.8835 -31.8322 -14.8931 -6.1757 -5.0392 41.4635
#
#
#
# Elastic Compliance Matrix: (Units=1/GPa)
#
#
# Indices 1 2 3 4 5 6 
#
# 1 0.028221 -0.008076 -0.001728 0.007541 0.004428 0.000887
# 2 -0.008076 0.018753 -0.002512 0.007033 0.007847 0.013765
# 3 -0.001728 -0.002512 0.008153 0.001457 0.001766 0.001062
# 4 0.007541 0.007033 0.001457 0.039523 0.006911 0.014265
# 5 0.004428 0.007847 0.001766 0.006911 0.032954 0.012642
# 6 0.000887 0.013765 0.001062 0.014265 0.012642 0.038918
#
#
# Mechanical properties :
#
#
# Convention : Reuss Voigt Hill
#
# Bulk Modulus (GPa) = 32.79202 68.50888 50.65045
# Shear Modulus (GPa) = 24.83627 36.00152 30.41890
#
# Velocity S-wave (km/s) = 3.32351 4.00142 3.67812
# Velocity P-wave (km/s) = 5.41402 7.19843 6.36903
#
# Compressibility (1/GPa) = 0.03049522
#
# Stress axis : x y z
#
# Youngs Moduli (GPa) = 35.43481 53.32598 122.65333
#
# Poissons Ratio (x) = 0.43066 0.21191
# Poissons Ratio (y) = 0.28617 0.30809
# Poissons Ratio (z) = 0.06122 0.13395
#
# Static dielectric constant tensor:
#      x y z
#    x 1.941590 0.013380 -0.034740 
#    y 0.013380 1.845840 0.038230 
#    z -0.034740 0.038230 1.897720 
# 
# From -- ./inp_files/492407.got.cif
#   From: 2010.05.17/outbox.cif.g08.bks.cpg/sg2_247_cif.got.tgz:492407.got - 2010.06.03 11:33:40.
