data_PCOD9100187
_publ_section_title
;
Structure prediction by ZEFSAII (Michael W. Deem and Ramdas Pophale) SiO2 
 PCOD9100187
Probable space group: P -1
;
_chemical_formula_sum "Si O2"
_cell_formula_units_Z 14
_cell_length_a 6.195227
_cell_length_b 9.062627
_cell_length_c 13.906622
_cell_angle_alpha 57.370392
_cell_angle_beta 108.474304
_cell_angle_gamma 96.943529
_cell_volume 622.450595
_symmetry_space_group_name_H-M "P -1"
_symmetry_group_IT_number 2
_symmetry_cell_setting 'triclinic'
loop_
_space_group_symop_operation_xyz
x,y,z
-x,-y,-z
loop_
_atom_site_type_symbol
_atom_site_label
_atom_site_fract_x
_atom_site_fract_y
_atom_site_fract_z
Si Si1 0.371352 0.936851 0.599014
Si Si2 0.037287 0.645536 0.342285
Si Si3 0.278822 0.344552 0.187880
Si Si4 0.433959 0.378424 0.799544
Si Si5 0.840976 0.532725 0.077467
Si Si6 0.976131 0.752322 0.503558
Si Si7 0.859390 0.181830 0.904987
O O1 0.568614 0.835736 0.725476
O O2 0.175351 0.807467 0.584161
O O3 0.500000 0.000000 0.500000
O O4 0.229779 0.100063 0.570575
O O5 0.086011 0.733170 0.419611
O O6 0.119440 0.749724 0.225403
O O7 0.761758 0.640324 0.298477
O O8 0.112473 0.439462 0.419883
O O9 0.397520 0.464182 0.242300
O O10 0.007343 0.355352 0.167584
O O11 0.286862 0.434593 0.052168
O O12 0.305840 0.429968 0.862153
O O13 0.594866 0.201271 0.888551
O O14 0.018610 0.685207 0.054591
O O15 0.000000 0.000000 0.000000
#
# Coordination Sequence:
#
# PCOD9100187 Si02
#       7
#     2   2   2   2   2   2   2
#     4  11  25  39  65  94 132 161 213 266 316 370
#     4  10  22  42  67  86 132 163 217 257 310 394
#     4  10  20  38  58  90 121 164 208 254 316 372
#     4  10  20  37  63  86 118 166 200 261 315 367
#     4   9  21  36  61  87 121 162 209 257 308 380
#     4  10  24  43  61  98 121 176 211 258 319 372
#     4  10  23  38  60  93 123 160 211 265 318 371
#
# _framework density 22.491748000000001
#
# number of rings (size 3 to 8) (size 9 to 14) (size 15 to 20)
#    0.000    2.000    1.429    0.429    6.000    6.857 
#    0.000    2.857    0.000    0.000    0.000    0.000 
#    0.000    0.000    0.000    0.000    0.000    0.000 
#
# Total GULP energy -78151.718583 kJ/mol
# GULP energy per Si atom -5582.265613 kJ/mol
# Density = 2.244056 g / cm^3
# Si number density = 22.491748 Si / 1000 Ang^3
#
#
#
# Elastic Constant Matrix: (Units=GPa)
#
#
# Indices 1 2 3 4 5 6 
#
# 1 72.9327 28.2556 54.7386 -16.2198 15.2421 -34.0750
# 2 28.2556 93.6763 49.1908 -16.2116 11.2230 -32.3667
# 3 54.7386 49.1908 123.7737 -19.2050 22.3042 -32.6278
# 4 -16.2198 -16.2116 -19.2050 37.3239 -15.5839 15.1983
# 5 15.2421 11.2230 22.3042 -15.5839 47.4970 -3.0892
# 6 -34.0750 -32.3667 -32.6278 15.1983 -3.0892 34.2736
#
#
#
# Elastic Compliance Matrix: (Units=1/GPa)
#
#
# Indices 1 2 3 4 5 6 
#
# 1 0.032515 0.005049 -0.007493 -0.002969 -0.007090 0.030640
# 2 0.005049 0.017734 -0.004153 -0.000750 -0.002943 0.017880
# 3 -0.007493 -0.004153 0.014057 0.000245 -0.003029 0.001629
# 4 -0.002969 -0.000750 0.000245 0.038311 0.012329 -0.019304
# 5 -0.007090 -0.002943 -0.003029 0.012329 0.028477 -0.015613
# 6 0.030640 0.017880 0.001629 -0.019304 -0.015613 0.085229
#
#
# Mechanical properties :
#
#
# Convention : Reuss Voigt Hill
#
# Bulk Modulus (GPa) = 19.56477 61.63918 40.60198
# Shear Modulus (GPa) = 20.27954 34.36539 27.32247
#
# Velocity S-wave (km/s) = 3.00600 3.91309 3.48915
# Velocity P-wave (km/s) = 4.55692 6.91962 5.85861
#
# Compressibility (1/GPa) = 0.05111228
#
# Stress axis : x y z
#
# Youngs Moduli (GPa) = 30.75461 56.38911 71.14109
#
# Poissons Ratio (x) = -0.28471 0.53303
# Poissons Ratio (y) = -0.15528 0.29548
# Poissons Ratio (z) = 0.23043 0.23420
#
# Static dielectric constant tensor:
#      x y z
#    x 1.927440 -0.001620 0.028870 
#    y -0.001620 1.864220 -0.036110 
#    z 0.028870 -0.036110 1.861420 
# 
# From -- ./inp_files/26795.got.cif
#   From: 2010.05.17/outbox.cif.g08.bks.cpg/sg2_14_cif.got.tgz:26795.got - 2010.06.03 11:33:40.
