data_PCOD9100541
_publ_section_title
;
Structure prediction by ZEFSAII (Michael W. Deem and Ramdas Pophale) SiO2 
 PCOD9100541
Probable space group: P -1
;
_chemical_formula_sum "Si O2"
_cell_formula_units_Z 14
_cell_length_a 13.652011
_cell_length_b 8.407526
_cell_length_c 7.659092
_cell_angle_alpha 71.348261
_cell_angle_beta 112.651653
_cell_angle_gamma 136.183246
_cell_volume 560.494083
_symmetry_space_group_name_H-M "P -1"
_symmetry_group_IT_number 2
_symmetry_cell_setting 'triclinic'
loop_
_space_group_symop_operation_xyz
x,y,z
-x,-y,-z
loop_
_atom_site_type_symbol
_atom_site_label
_atom_site_fract_x
_atom_site_fract_y
_atom_site_fract_z
Si Si1 0.338325 0.306081 0.765866
Si Si2 0.164302 0.103563 0.074817
Si Si3 0.029020 0.342869 0.025407
Si Si4 0.407929 0.526007 0.302284
Si Si5 0.938569 0.180383 0.395923
Si Si6 0.866509 0.494556 0.305758
Si Si7 0.617869 0.273618 0.479745
O O1 0.476248 0.331706 0.826191
O O2 0.397104 0.557961 0.679983
O O3 0.207452 0.087001 0.632830
O O4 0.262374 0.234284 0.925431
O O5 0.264339 0.272863 0.237706
O O6 0.117688 0.859925 0.114230
O O7 0.000000 0.000000 0.000000
O O8 0.155703 0.462176 0.923750
O O9 0.000000 0.500000 0.000000
O O10 0.023816 0.247956 0.245634
O O11 0.500000 0.500000 0.500000
O O12 0.366531 0.648196 0.336413
O O13 0.912484 0.352394 0.344040
O O14 0.033497 0.258901 0.608286
O O15 0.744957 0.338935 0.423629
O O16 0.500000 0.000000 0.500000
#
# Coordination Sequence:
#
# PCOD9100541 Si02
#       7
#     2   2   2   2   2   2   2
#     4  10  22  43  65  91 134 178 223 273 350 403
#     4  11  23  41  69 102 133 172 229 286 334 404
#     4   9  20  38  60  99 131 168 213 277 338 403
#     4  10  24  43  64  94 135 182 222 270 342 415
#     4   9  20  37  64  96 128 171 221 274 344 410
#     4  10  20  37  64  93 131 171 220 282 338 391
#     4  11  24  41  62  92 131 177 234 277 333 405
#
# _framework density 24.977962999999999
#
# number of rings (size 3 to 8) (size 9 to 14) (size 15 to 20)
#    0.000    2.000    0.000    2.143    8.000    0.571 
#    7.714    0.714    0.000    0.000    0.000    0.000 
#    0.000    0.000    0.000    0.000    0.000    0.000 
#
# Total GULP energy -77956.141602 kJ/mol
# GULP energy per Si atom -5568.295829 kJ/mol
# Density = 2.492111 g / cm^3
# Si number density = 24.977963 Si / 1000 Ang^3
#
#
#
# Elastic Constant Matrix: (Units=GPa)
#
#
# Indices 1 2 3 4 5 6 
#
# 1 133.8560 52.2641 60.7543 10.7511 -56.7094 26.0187
# 2 52.2641 200.2642 69.0099 43.4747 -23.0224 1.3864
# 3 60.7543 69.0099 146.7454 23.2251 -46.6407 12.4707
# 4 10.7511 43.4747 23.2251 53.8361 -1.5339 -11.9699
# 5 -56.7094 -23.0224 -46.6407 -1.5339 49.4783 -6.4998
# 6 26.0187 1.3864 12.4707 -11.9699 -6.4998 43.7377
#
#
#
# Elastic Compliance Matrix: (Units=1/GPa)
#
#
# Indices 1 2 3 4 5 6 
#
# 1 0.018140 -0.001902 0.001007 -0.004014 0.019520 -0.009216
# 2 -0.001902 0.007073 -0.002205 -0.004372 -0.001079 0.000179
# 3 0.001007 -0.002205 0.011711 -0.003918 0.010604 -0.003365
# 4 -0.004014 -0.004372 -0.003918 0.026514 -0.008235 0.009676
# 5 0.019520 -0.001079 0.010604 -0.008235 0.050595 -0.009336
# 6 -0.009216 0.000179 -0.003365 0.009676 -0.009336 0.030560
#
#
# Mechanical properties :
#
#
# Convention : Reuss Voigt Hill
#
# Bulk Modulus (GPa) = 32.54832 93.88023 63.21427
# Shear Modulus (GPa) = 31.04901 49.33292 40.19096
#
# Velocity S-wave (km/s) = 3.52952 4.44898 4.01566
# Velocity P-wave (km/s) = 5.44694 8.00363 6.84570
#
# Compressibility (1/GPa) = 0.03072356
#
# Stress axis : x y z
#
# Youngs Moduli (GPa) = 55.12729 141.37400 85.38857
#
# Poissons Ratio (x) = 0.26887 -0.08597
# Poissons Ratio (y) = 0.10484 0.18832
# Poissons Ratio (z) = -0.05550 0.31179
#
# Static dielectric constant tensor:
#      x y z
#    x 1.829500 -0.072480 -0.010520 
#    y -0.072480 2.094770 -0.073470 
#    z -0.010520 -0.073470 2.189860 
# 
# From -- ./inp_files/298575.got.cif
#   From: 2010.05.17/outbox.cif.g08.bks.cpg/sg2_150_cif.got.tgz:298575.got - 2010.06.03 11:33:40.
