data_PCOD9100681
_publ_section_title
;
Structure prediction by ZEFSAII (Michael W. Deem and Ramdas Pophale) SiO2 
 PCOD9100681
Probable space group: P -1
;
_chemical_formula_sum "Si O2"
_cell_formula_units_Z 16
_cell_length_a 15.813665
_cell_length_b 8.807279
_cell_length_c 6.984955
_cell_angle_alpha 125.979524
_cell_angle_beta 84.564531
_cell_angle_gamma 110.055925
_cell_volume 732.174168
_symmetry_space_group_name_H-M "P -1"
_symmetry_group_IT_number 2
_symmetry_cell_setting 'triclinic'
loop_
_space_group_symop_operation_xyz
x,y,z
-x,-y,-z
loop_
_atom_site_type_symbol
_atom_site_label
_atom_site_fract_x
_atom_site_fract_y
_atom_site_fract_z
Si Si1 0.301078 0.696146 0.617982
Si Si2 0.115163 0.647674 0.403410
Si Si3 0.674224 0.708546 0.033316
Si Si4 0.259071 0.966099 0.395464
Si Si5 0.603164 0.258157 0.760317
Si Si6 0.440936 0.085390 0.936205
Si Si7 0.030430 0.221507 0.243389
Si Si8 0.776704 0.728487 0.647646
O O1 0.204472 0.671121 0.528610
O O2 0.377095 0.719996 0.455133
O O3 0.283943 0.491781 0.580732
O O4 0.343456 0.910427 0.859212
O O5 0.063108 0.407782 0.222469
O O6 0.048964 0.740328 0.592214
O O7 0.162510 0.786578 0.318131
O O8 0.707992 0.887175 0.315235
O O9 0.593194 0.725861 0.926970
O O10 0.638404 0.492666 0.984275
O O11 0.753790 0.722952 0.875622
O O12 0.247820 0.103364 0.330577
O O13 0.332205 0.859563 0.271921
O O14 0.502925 0.139686 0.770674
O O15 0.500000 0.000000 0.000000
O O16 0.118042 0.243524 0.371154
O O17 0.000000 0.000000 0.000000
#
# Coordination Sequence:
#
# PCOD9100681 Si02
#       8
#     2   2   2   2   2   2   2   2
#     4   9  20  40  61  81 128 161 202 255 305 363
#     4   9  19  38  61  89 116 169 196 241 318 359
#     4  11  23  42  64  88 127 166 207 253 313 362
#     4  11  22  42  67  85 132 162 201 260 304 359
#     4  10  22  41  59  88 119 165 214 247 309 365
#     4  12  23  37  62  93 123 159 212 261 302 364
#     4  10  20  37  65  90 125 153 204 252 299 370
#     4  10  23  41  62  97 119 165 211 245 309 375
#
# _framework density 21.852723000000001
#
# number of rings (size 3 to 8) (size 9 to 14) (size 15 to 20)
#    0.000    1.750    2.500    3.000    1.750    0.500 
#    0.000    2.500    0.000    0.000    0.000    0.000 
#    0.000    0.000    0.000    0.000    0.000    0.000 
#
# Total GULP energy -89120.241720 kJ/mol
# GULP energy per Si atom -5570.015107 kJ/mol
# Density = 2.180298 g / cm^3
# Si number density = 21.852723 Si / 1000 Ang^3
#
#
#
# Elastic Constant Matrix: (Units=GPa)
#
#
# Indices 1 2 3 4 5 6 
#
# 1 80.4731 40.3829 24.2246 13.1043 -24.4120 11.2083
# 2 40.3829 138.4146 41.9953 45.4230 0.0125 -4.0827
# 3 24.2246 41.9953 60.9874 29.0200 -13.6689 -3.8679
# 4 13.1043 45.4230 29.0200 42.3131 -3.7126 -2.4521
# 5 -24.4120 0.0125 -13.6689 -3.7126 29.2557 3.8288
# 6 11.2083 -4.0827 -3.8679 -2.4521 3.8288 37.0150
#
#
#
# Elastic Compliance Matrix: (Units=1/GPa)
#
#
# Indices 1 2 3 4 5 6 
#
# 1 0.024310 -0.008052 -0.001674 0.003530 0.021315 -0.010395
# 2 -0.008052 0.014451 -0.003397 -0.011360 -0.010276 0.003987
# 3 -0.001674 -0.003397 0.028621 -0.014523 0.009987 0.001128
# 4 0.003530 -0.011360 -0.014523 0.044808 0.001993 -0.001077
# 5 0.021315 -0.010276 0.009987 0.001993 0.058522 -0.012466
# 6 -0.010395 0.003987 0.001128 -0.001077 -0.012466 0.031939
#
#
# Mechanical properties :
#
#
# Convention : Reuss Voigt Hill
#
# Bulk Modulus (GPa) = 24.30915 54.78676 39.54795
# Shear Modulus (GPa) = 20.60931 33.26823 26.93877
#
# Velocity S-wave (km/s) = 3.07433 3.90601 3.51485
# Velocity P-wave (km/s) = 4.87342 6.74299 5.88294
#
# Compressibility (1/GPa) = 0.04113677
#
# Stress axis : x y z
#
# Youngs Moduli (GPa) = 41.13569 69.19882 34.93925
#
# Poissons Ratio (x) = 0.55718 0.05847
# Poissons Ratio (y) = 0.33122 0.11870
# Poissons Ratio (z) = 0.06884 0.23508
#
# Static dielectric constant tensor:
#      x y z
#    x 1.788610 -0.014690 0.024580 
#    y -0.014690 1.856520 0.050090 
#    z 0.024580 0.050090 2.002400 
# 
# From -- ./inp_files/299700.got.cif
#   From: 2010.05.17/outbox.cif.g08.bks.cpg/sg2_150_cif.got.tgz:299700.got - 2010.06.03 11:33:40.
