data_PCOD9100009
_publ_section_title
;
Structure prediction by ZEFSAII (Michael W. Deem and Ramdas Pophale) SiO2 
 PCOD9100009
Probable space group: P -1
;
_chemical_formula_sum "Si O2"
_cell_formula_units_Z 12
_cell_length_a 7.998590
_cell_length_b 10.508410
_cell_length_c 10.056174
_cell_angle_alpha 44.692221
_cell_angle_beta 116.152117
_cell_angle_gamma 105.451186
_cell_volume 532.128037
_symmetry_space_group_name_H-M "P -1"
_symmetry_group_IT_number 2
_symmetry_cell_setting 'triclinic'
loop_
_space_group_symop_operation_xyz
x,y,z
-x,-y,-z
loop_
_atom_site_type_symbol
_atom_site_label
_atom_site_fract_x
_atom_site_fract_y
_atom_site_fract_z
Si Si1 0.921745 0.667294 0.436492
Si Si2 0.900213 0.007496 0.605478
Si Si3 0.213948 0.038435 0.023093
Si Si4 0.543719 0.972358 0.352251
Si Si5 0.369928 0.436807 0.383363
Si Si6 0.254148 0.805159 0.969798
O O1 0.821254 0.597341 0.582501
O O2 0.000000 0.500000 0.500000
O O3 0.060481 0.810721 0.435011
O O4 0.783934 0.786168 0.200668
O O5 0.318839 0.991227 0.505003
O O6 0.000000 0.000000 0.500000
O O7 0.030222 0.844994 0.841678
O O8 0.331996 0.047875 0.191092
O O9 0.296409 0.873788 0.081963
O O10 0.000000 0.000000 0.000000
O O11 0.553058 0.754952 0.505602
O O12 0.646777 0.065611 0.193825
O O13 0.500000 0.500000 0.500000
O O14 0.329036 0.596902 0.143958
#
# Coordination Sequence:
#
# PCOD9100009 Si02
#       6
#     2   2   2   2   2   2
#     4  11  23  40  62  92 129 160 207 255 304 375
#     4   9  19  41  63  89 128 165 195 263 311 351
#     4  11  21  38  61  86 125 166 202 254 313 360
#     4  11  21  41  62  91 126 156 212 263 293 367
#     4  12  21  34  66  96 120 161 215 250 298 370
#     4  10  20  37  62  90 123 161 204 246 313 362
#
# _framework density 22.550961999999998
#
# number of rings (size 3 to 8) (size 9 to 14) (size 15 to 20)
#    0.000    1.333    6.667    2.500    0.000    0.667 
#    0.000    4.167    0.000    0.000    0.000    0.000 
#    0.000    0.000    0.000    0.000    0.000    0.000 
#
# Total GULP energy -67005.012855 kJ/mol
# GULP energy per Si atom -5583.751071 kJ/mol
# Density = 2.249963 g / cm^3
# Si number density = 22.550962 Si / 1000 Ang^3
#
#
#
# Elastic Constant Matrix: (Units=GPa)
#
#
# Indices 1 2 3 4 5 6 
#
# 1 55.8960 10.2259 15.1971 9.1568 16.2709 25.6397
# 2 10.2259 137.1152 65.7733 15.0788 22.6959 17.1426
# 3 15.1971 65.7733 144.3388 -0.0885 17.3815 12.3340
# 4 9.1568 15.0788 -0.0885 57.0316 2.1646 9.4945
# 5 16.2709 22.6959 17.3815 2.1646 37.9760 11.5337
# 6 25.6397 17.1426 12.3340 9.4945 11.5337 39.2243
#
#
#
# Elastic Compliance Matrix: (Units=1/GPa)
#
#
# Indices 1 2 3 4 5 6 
#
# 1 0.027740 0.002181 -0.001659 -0.002110 -0.007496 -0.015850
# 2 0.002181 0.010511 -0.004266 -0.002505 -0.004265 -0.002817
# 3 -0.001659 -0.004266 0.009170 0.001445 -0.001024 0.000017
# 4 -0.002110 -0.002505 0.001445 0.018984 0.001581 -0.003040
# 5 -0.007496 -0.004265 -0.001024 0.001581 0.033420 -0.003124
# 6 -0.015850 -0.002817 0.000017 -0.003040 -0.003124 0.038735
#
#
# Mechanical properties :
#
#
# Convention : Reuss Voigt Hill
#
# Bulk Modulus (GPa) = 25.04226 57.74919 41.39573
# Shear Modulus (GPa) = 31.37570 43.25663 37.31617
#
# Velocity S-wave (km/s) = 3.73409 4.38445 4.07227
# Velocity P-wave (km/s) = 5.45162 7.16206 6.36456
#
# Compressibility (1/GPa) = 0.03993250
#
# Stress axis : x y z
#
# Youngs Moduli (GPa) = 36.04864 95.14101 109.05478
#
# Poissons Ratio (x) = -0.20753 0.18092
# Poissons Ratio (y) = -0.07863 0.46528
# Poissons Ratio (z) = 0.05980 0.40591
#
# Static dielectric constant tensor:
#      x y z
#    x 2.001520 0.040590 -0.048610 
#    y 0.040590 1.847920 0.003150 
#    z -0.048610 0.003150 1.888100 
# 
# From -- ./inp_files/388907.got.cif
#   From: 2010.05.17/outbox.cif.g08.bks.cpg/sg2_195_cif.got.tgz:388907.got - 2010.06.03 11:33:40.
