data_PCOD9100306
_publ_section_title
;
Structure prediction by ZEFSAII (Michael W. Deem and Ramdas Pophale) SiO2 
 PCOD9100306
Probable space group: P -1
;
_chemical_formula_sum "Si O2"
_cell_formula_units_Z 12
_cell_length_a 6.638828
_cell_length_b 9.320088
_cell_length_c 14.097412
_cell_angle_alpha 149.018508
_cell_angle_beta 97.502058
_cell_angle_gamma 83.574989
_cell_volume 445.167146
_symmetry_space_group_name_H-M "P -1"
_symmetry_group_IT_number 2
_symmetry_cell_setting 'triclinic'
loop_
_space_group_symop_operation_xyz
x,y,z
-x,-y,-z
loop_
_atom_site_type_symbol
_atom_site_label
_atom_site_fract_x
_atom_site_fract_y
_atom_site_fract_z
Si Si1 0.195089 0.746893 0.721186
Si Si2 0.285957 0.392489 0.716193
Si Si3 0.821661 0.784185 0.897392
Si Si4 0.703889 0.722081 0.657430
Si Si5 0.232489 0.751787 0.318275
Si Si6 0.307768 0.694233 0.082773
O O1 0.236611 0.553973 0.706835
O O2 0.317542 0.592384 0.558689
O O3 0.955181 0.754263 0.685193
O O4 0.258793 0.061633 0.926955
O O5 0.530707 0.338486 0.706519
O O6 0.208639 0.073196 0.526665
O O7 0.230640 0.580351 0.911955
O O8 0.667042 0.770881 0.793547
O O9 0.875672 0.467414 0.743257
O O10 0.000000 0.000000 0.000000
O O11 0.629526 0.982564 0.740450
O O12 0.177453 0.696045 0.172885
O O13 0.500000 0.500000 0.000000
#
# Coordination Sequence:
#
# PCOD9100306 Si02
#       6
#     2   2   2   2   2   2
#     4  10  20  37  64  86 123 167 200 254 308 360
#     4  10  20  38  65  91 124 163 202 256 310 363
#     4  10  22  41  61  88 125 168 204 252 307 365
#     4  10  20  38  63  86 125 163 207 253 300 374
#     4  10  22  39  62  93 126 159 209 253 305 370
#     4  10  20  37  63  92 125 162 203 254 310 368
#
# _framework density 26.956168000000002
#
# number of rings (size 3 to 8) (size 9 to 14) (size 15 to 20)
#    0.000    2.000    3.333    0.000    0.000    2.000 
#    0.000    7.500    0.000    0.000    0.000    0.000 
#    0.000    0.000    0.000    0.000    0.000    0.000 
#
# Total GULP energy -67137.710534 kJ/mol
# GULP energy per Si atom -5594.809211 kJ/mol
# Density = 2.689481 g / cm^3
# Si number density = 26.956168 Si / 1000 Ang^3
#
#
#
# Elastic Constant Matrix: (Units=GPa)
#
#
# Indices 1 2 3 4 5 6 
#
# 1 60.6073 1.8308 4.1783 17.0068 1.6550 9.7928
# 2 1.8308 94.7411 27.2319 37.6830 17.0984 3.6622
# 3 4.1783 27.2319 192.8623 27.8131 -6.9919 9.2429
# 4 17.0068 37.6830 27.8131 53.4156 -5.0927 -7.9474
# 5 1.6550 17.0984 -6.9919 -5.0927 37.5590 3.4682
# 6 9.7928 3.6622 9.2429 -7.9474 3.4682 39.5015
#
#
#
# Elastic Compliance Matrix: (Units=1/GPa)
#
#
# Indices 1 2 3 4 5 6 
#
# 1 0.021271 0.005477 0.000833 -0.012688 -0.004243 -0.008156
# 2 0.005477 0.019683 -0.000551 -0.017228 -0.011129 -0.005543
# 3 0.000833 -0.000551 0.005847 -0.003153 0.001083 -0.002253
# 4 -0.012688 -0.017228 -0.003153 0.039546 0.012034 0.012380
# 5 -0.004243 -0.011129 0.001083 0.012034 0.033591 0.001302
# 6 -0.008156 -0.005543 -0.002253 0.012380 0.001302 0.030755
#
#
# Mechanical properties :
#
#
# Convention : Reuss Voigt Hill
#
# Bulk Modulus (GPa) = 17.14742 46.07695 31.61219
# Shear Modulus (GPa) = 31.52313 47.09320 39.30817
#
# Velocity S-wave (km/s) = 3.42339 4.18428 3.82281
# Velocity P-wave (km/s) = 4.69054 6.36197 5.58909
#
# Compressibility (1/GPa) = 0.05831782
#
# Stress axis : x y z
#
# Youngs Moduli (GPa) = 47.01268 50.80583 171.03690
#
# Poissons Ratio (x) = -0.27828 -0.14241
# Poissons Ratio (y) = -0.25750 0.09426
# Poissons Ratio (z) = -0.03914 0.02800
#
# Static dielectric constant tensor:
#      x y z
#    x 2.373260 0.032900 -0.000380 
#    y 0.032900 2.060570 -0.098330 
#    z -0.000380 -0.098330 2.117250 
# 
# From -- ./inp_files/158398.got.cif
#   From: 2010.05.17/outbox.cif.g08.bks.cpg/sg2_80_cif.got.tgz:158398.got - 2010.06.03 11:33:40.
