data_PCOD9100646
_publ_section_title
;
Structure prediction by ZEFSAII (Michael W. Deem and Ramdas Pophale) SiO2 
 PCOD9100646
Probable space group: P -1
;
_chemical_formula_sum "Si O2"
_cell_formula_units_Z 14
_cell_length_a 14.993701
_cell_length_b 10.788248
_cell_length_c 7.994306
_cell_angle_alpha 74.137489
_cell_angle_beta 35.657065
_cell_angle_gamma 61.170672
_cell_volume 642.363063
_symmetry_space_group_name_H-M "P -1"
_symmetry_group_IT_number 2
_symmetry_cell_setting 'triclinic'
loop_
_space_group_symop_operation_xyz
x,y,z
-x,-y,-z
loop_
_atom_site_type_symbol
_atom_site_label
_atom_site_fract_x
_atom_site_fract_y
_atom_site_fract_z
Si Si1 0.898676 0.857587 0.244827
Si Si2 0.535341 0.712153 0.684040
Si Si3 0.899013 0.668820 0.038172
Si Si4 0.241348 0.841597 0.804962
Si Si5 0.332264 0.557533 0.619972
Si Si6 0.599898 0.825978 0.877899
Si Si7 0.158984 0.409212 0.169061
O O1 0.968719 0.756627 0.010904
O O2 0.788233 0.797853 0.535199
O O3 0.044711 0.870486 0.127033
O O4 0.769630 0.014006 0.309612
O O5 0.694285 0.735789 0.361929
O O6 0.615396 0.537477 0.594306
O O7 0.512669 0.773775 0.883566
O O8 0.369216 0.786405 0.788540
O O9 0.911448 0.672132 0.820258
O O10 0.000000 0.500000 0.000000
O O11 0.287583 0.724619 0.629150
O O12 0.500000 0.500000 0.500000
O O13 0.207519 0.514816 0.941062
O O14 0.662603 0.711112 0.976955
O O15 0.500000 0.000000 0.000000
O O16 0.000000 0.500000 0.500000
#
# Coordination Sequence:
#
# PCOD9100646 Si02
#       7
#     2   2   2   2   2   2   2
#     4  10  22  38  62  89 124 161 211 250 311 373
#     4   9  20  38  62  86 118 163 212 246 301 373
#     4  10  20  37  65  90 118 161 217 255 299 368
#     4  10  20  37  65  87 118 161 211 255 295 370
#     4   9  19  37  64  83 115 160 211 245 299 367
#     4  11  25  38  62  93 131 159 205 264 321 362
#     4  11  22  38  64  92 125 158 207 266 314 360
#
# _framework density 21.794526999999999
#
# number of rings (size 3 to 8) (size 9 to 14) (size 15 to 20)
#    0.000    2.000    0.000    4.286    8.000    1.143 
#    0.000    3.571   12.571    0.000    0.000    0.000 
#    0.000    0.000    0.000    0.000    0.000    0.000 
#
# Total GULP energy -77961.171660 kJ/mol
# GULP energy per Si atom -5568.655119 kJ/mol
# Density = 2.174492 g / cm^3
# Si number density = 21.794527 Si / 1000 Ang^3
#
#
#
# Elastic Constant Matrix: (Units=GPa)
#
#
# Indices 1 2 3 4 5 6 
#
# 1 166.7391 49.8778 35.2964 18.2322 -3.9140 -0.8308
# 2 49.8778 127.3259 2.8417 29.5585 16.0403 5.3309
# 3 35.2964 2.8417 50.3143 9.4955 -2.2798 -0.5807
# 4 18.2322 29.5585 9.4955 32.3260 9.8657 -3.1895
# 5 -3.9140 16.0403 -2.2798 9.8657 39.4473 10.7146
# 6 -0.8308 5.3309 -0.5807 -3.1895 10.7146 30.9502
#
#
#
# Elastic Compliance Matrix: (Units=1/GPa)
#
#
# Indices 1 2 3 4 5 6 
#
# 1 0.008207 -0.003160 -0.005337 -0.000801 0.002023 -0.000119
# 2 -0.003160 0.011525 0.003225 -0.009375 -0.001833 -0.002341
# 3 -0.005337 0.003225 0.025046 -0.008123 0.002128 -0.001802
# 4 -0.000801 -0.009375 -0.008123 0.046757 -0.011182 0.010131
# 5 0.002023 -0.001833 0.002128 -0.011182 0.032471 -0.011983
# 6 -0.000119 -0.002341 -0.001802 0.010131 -0.011983 0.037869
#
#
# Mechanical properties :
#
#
# Convention : Reuss Voigt Hill
#
# Bulk Modulus (GPa) = 29.21139 57.82347 43.51743
# Shear Modulus (GPa) = 27.19901 37.63560 32.41730
#
# Velocity S-wave (km/s) = 3.53650 4.16003 3.86087
# Velocity P-wave (km/s) = 5.48707 7.04722 6.31551
#
# Compressibility (1/GPa) = 0.03423323
#
# Stress axis : x y z
#
# Youngs Moduli (GPa) = 121.84809 86.76775 39.92692
#
# Poissons Ratio (x) = 0.27417 0.21311
# Poissons Ratio (y) = 0.38502 -0.12876
# Poissons Ratio (z) = 0.65035 -0.27982
#
# Static dielectric constant tensor:
#      x y z
#    x 1.850360 0.011590 -0.006520 
#    y 0.011590 1.839290 0.053180 
#    z -0.006520 0.053180 1.940270 
# 
# From -- ./inp_files/302977.got.cif
#   From: 2010.05.17/outbox.cif.g08.bks.cpg/sg2_152_cif.got.tgz:302977.got - 2010.06.03 11:33:40.
