data_PCOD9100688
_publ_section_title
;
Structure prediction by ZEFSAII (Michael W. Deem and Ramdas Pophale) SiO2 
 PCOD9100688
Probable space group: P -1
;
_chemical_formula_sum "Si O2"
_cell_formula_units_Z 16
_cell_length_a 16.167819
_cell_length_b 7.667151
_cell_length_c 13.840279
_cell_angle_alpha 133.293504
_cell_angle_beta 38.316206
_cell_angle_gamma 106.967776
_cell_volume 648.851028
_symmetry_space_group_name_H-M "P -1"
_symmetry_group_IT_number 2
_symmetry_cell_setting 'triclinic'
loop_
_space_group_symop_operation_xyz
x,y,z
-x,-y,-z
loop_
_atom_site_type_symbol
_atom_site_label
_atom_site_fract_x
_atom_site_fract_y
_atom_site_fract_z
Si Si1 0.920287 0.912124 0.123037
Si Si2 0.680856 0.894374 0.771934
Si Si3 0.622942 0.311908 0.429875
Si Si4 0.792580 0.625634 0.771346
Si Si5 0.478553 0.069521 0.719312
Si Si6 0.966680 0.942103 0.735397
Si Si7 0.670642 0.383977 0.064161
Si Si8 0.217043 0.361516 0.631409
O O1 0.027972 0.566655 0.895164
O O2 0.944787 0.016254 0.242555
O O3 0.000000 0.000000 0.000000
O O4 0.740392 0.081543 0.314800
O O5 0.775189 0.686335 0.695894
O O6 0.743060 0.746895 0.556327
O O7 0.500000 0.000000 0.000000
O O8 0.695381 0.164656 0.874645
O O9 0.469352 0.575666 0.722740
O O10 0.719085 0.428483 0.333992
O O11 0.562920 0.160524 0.359355
O O12 0.874391 0.790062 0.797307
O O13 0.907550 0.285011 0.544101
O O14 0.623248 0.763608 0.029086
O O15 0.402799 0.305387 0.794606
O O16 0.666062 0.905127 0.508559
O O17 0.832948 0.236386 0.919319
#
# Coordination Sequence:
#
# PCOD9100688 Si02
#       8
#     2   2   2   2   2   2   2   2
#     4  10  21  36  64  94 114 150 207 262 293 344
#     4  11  20  40  65  90 120 153 205 250 303 352
#     4  11  22  40  64  87 123 159 205 251 300 357
#     4  10  20  37  65  91 116 162 203 254 295 359
#     4  12  24  39  61  91 126 161 205 242 306 366
#     4  10  21  40  63  88 124 158 206 248 305 355
#     4  11  25  41  60  89 126 167 193 250 308 366
#     4  11  21  39  66  92 118 157 207 256 293 357
#
# _framework density 24.658973
#
# number of rings (size 3 to 8) (size 9 to 14) (size 15 to 20)
#    0.000    1.250    2.500    5.250    0.000    3.000 
#    0.000    2.500    0.000    0.000    0.000    0.000 
#    0.000    0.000    0.000    0.000    0.000    0.000 
#
# Total GULP energy -89567.223631 kJ/mol
# GULP energy per Si atom -5597.951477 kJ/mol
# Density = 2.460285 g / cm^3
# Si number density = 24.658973 Si / 1000 Ang^3
#
#
#
# Elastic Constant Matrix: (Units=GPa)
#
#
# Indices 1 2 3 4 5 6 
#
# 1 143.0130 12.4413 55.1226 9.7457 -20.3895 -10.9190
# 2 12.4413 54.6193 10.3369 11.0153 -4.6392 -12.8119
# 3 55.1226 10.3369 145.7937 21.5114 -25.7127 -9.3347
# 4 9.7457 11.0153 21.5114 14.0296 -12.0813 -6.9533
# 5 -20.3895 -4.6392 -25.7127 -12.0813 48.9712 9.2299
# 6 -10.9190 -12.8119 -9.3347 -6.9533 9.2299 25.0669
#
#
#
# Elastic Compliance Matrix: (Units=1/GPa)
#
#
# Indices 1 2 3 4 5 6 
#
# 1 0.008536 -0.001242 -0.003000 0.002369 0.002096 0.001851
# 2 -0.001242 0.023810 0.001487 -0.019301 -0.003793 0.008225
# 3 -0.003000 0.001487 0.010086 -0.014354 0.000851 -0.001086
# 4 0.002369 -0.019301 -0.014354 0.132651 0.021581 0.014672
# 5 0.002096 -0.003793 0.000851 0.021581 0.027627 -0.004894
# 6 0.001851 0.008225 -0.001086 0.014672 -0.004894 0.050371
#
#
# Mechanical properties :
#
#
# Convention : Reuss Voigt Hill
#
# Bulk Modulus (GPa) = 27.08488 55.46973 41.27731
# Shear Modulus (GPa) = 18.45705 35.31521 26.88613
#
# Velocity S-wave (km/s) = 2.73883 3.78847 3.30558
# Velocity P-wave (km/s) = 4.58358 6.45603 5.59864
#
# Compressibility (1/GPa) = 0.03692097
#
# Stress axis : x y z
#
# Youngs Moduli (GPa) = 117.15523 41.99980 99.14266
#
# Poissons Ratio (x) = 0.05216 0.29747
# Poissons Ratio (y) = 0.14550 -0.14742
# Poissons Ratio (z) = 0.35152 -0.06245
#
# Static dielectric constant tensor:
#      x y z
#    x 1.918700 -0.015520 -0.027330 
#    y -0.015520 1.995550 0.036040 
#    z -0.027330 0.036040 1.998150 
# 
# From -- ./inp_files/271760.got.cif
#   From: 2010.05.17/outbox.cif.g08.bks.cpg/sg2_136_cif.got.tgz:271760.got - 2010.06.03 11:33:40.
