data_PCOD9100763
_publ_section_title
;
Structure prediction by ZEFSAII (Michael W. Deem and Ramdas Pophale) SiO2 
 PCOD9100763
Probable space group: P -1
;
_chemical_formula_sum "Si O2"
_cell_formula_units_Z 14
_cell_length_a 9.600973
_cell_length_b 8.624647
_cell_length_c 17.122683
_cell_angle_alpha 125.298306
_cell_angle_beta 140.683007
_cell_angle_gamma 43.803456
_cell_volume 621.219886
_symmetry_space_group_name_H-M "P -1"
_symmetry_group_IT_number 2
_symmetry_cell_setting 'triclinic'
loop_
_space_group_symop_operation_xyz
x,y,z
-x,-y,-z
loop_
_atom_site_type_symbol
_atom_site_label
_atom_site_fract_x
_atom_site_fract_y
_atom_site_fract_z
Si Si1 0.536459 0.560222 0.946718
Si Si2 0.100974 0.927646 0.767493
Si Si3 0.059687 0.203757 0.484719
Si Si4 0.573890 0.094502 0.637528
Si Si5 0.779680 0.298012 0.542433
Si Si6 0.723549 0.082139 0.862598
Si Si7 0.728153 0.810247 0.179188
O O1 0.270039 0.776457 0.867509
O O2 0.623950 0.340009 0.870981
O O3 0.500000 0.500000 0.000000
O O4 0.738728 0.635187 0.070508
O O5 0.056902 0.777534 0.644709
O O6 0.271523 0.001120 0.816971
O O7 0.804845 0.125267 0.716110
O O8 0.836134 0.327497 0.486364
O O9 0.283322 0.257614 0.591457
O O10 0.190554 0.941054 0.494053
O O11 0.711847 0.966091 0.743051
O O12 0.500000 0.000000 0.500000
O O13 0.500000 0.500000 0.500000
O O14 0.011124 0.294592 0.688180
O O15 0.516336 0.096359 0.840443
O O16 0.000000 0.000000 0.000000
#
# Coordination Sequence:
#
# PCOD9100763 Si02
#       7
#     2   2   2   2   2   2   2
#     4  10  22  40  63  91 125 169 219 267 326 399
#     4  10  21  41  66  93 133 167 215 274 333 383
#     4   9  20  39  60  94 133 169 214 272 324 396
#     4  10  20  40  64  91 130 176 211 265 334 388
#     4  10  20  37  65  96 129 169 216 266 332 390
#     4  11  23  41  66  95 128 174 224 271 330 396
#     4  10  21  42  66  93 130 168 217 275 325 390
#
# _framework density 22.536304000000001
#
# number of rings (size 3 to 8) (size 9 to 14) (size 15 to 20)
#    0.000    2.000    1.429    2.143    0.000    3.429 
#    7.714    2.857    0.000    0.000    0.000    0.000 
#    0.000    0.000    0.000    0.000    0.000    0.000 
#
# Total GULP energy -77943.267458 kJ/mol
# GULP energy per Si atom -5567.376247 kJ/mol
# Density = 2.248501 g / cm^3
# Si number density = 22.536304 Si / 1000 Ang^3
#
#
#
# Elastic Constant Matrix: (Units=GPa)
#
#
# Indices 1 2 3 4 5 6 
#
# 1 133.1995 22.3333 51.0032 -11.5712 12.4189 -21.6231
# 2 22.3333 30.3596 21.2840 2.3466 18.2543 -15.0724
# 3 51.0032 21.2840 134.9495 -3.5410 6.9276 2.7794
# 4 -11.5712 2.3466 -3.5410 16.9778 -0.6564 2.1538
# 5 12.4189 18.2543 6.9276 -0.6564 46.6787 -4.7011
# 6 -21.6231 -15.0724 2.7794 2.1538 -4.7011 27.1340
#
#
#
# Elastic Compliance Matrix: (Units=1/GPa)
#
#
# Indices 1 2 3 4 5 6 
#
# 1 0.011133 -0.001413 -0.003942 0.005927 -0.000950 0.007856
# 2 -0.001413 0.080144 -0.012223 -0.020884 -0.025222 0.041932
# 3 -0.003942 -0.012223 0.010959 0.002771 0.003161 -0.010726
# 4 0.005927 -0.020884 0.002771 0.068098 0.005975 -0.011531
# 5 -0.000950 -0.025222 0.003161 0.005975 0.030112 -0.010348
# 6 0.007856 0.041932 -0.010726 -0.011531 -0.010348 0.066628
#
#
# Mechanical properties :
#
#
# Convention : Reuss Voigt Hill
#
# Bulk Modulus (GPa) = 14.90761 54.19440 34.55101
# Shear Modulus (GPa) = 15.40405 31.75063 23.57734
#
# Velocity S-wave (km/s) = 2.61726 3.75756 3.23800
# Velocity P-wave (km/s) = 3.97023 6.55175 5.41702
#
# Compressibility (1/GPa) = 0.06707984
#
# Stress axis : x y z
#
# Youngs Moduli (GPa) = 89.82612 12.47755 91.24719
#
# Poissons Ratio (x) = 0.01763 0.35971
# Poissons Ratio (y) = 0.12690 1.11532
# Poissons Ratio (z) = 0.35411 0.15251
#
# Static dielectric constant tensor:
#      x y z
#    x 1.851180 -0.122510 -0.107960 
#    y -0.122510 1.618760 -0.205030 
#    z -0.107960 -0.205030 1.685870 
# 
# From -- ./inp_files/556449.got.cif
#   From: 2010.05.17/outbox.cif.g08.bks.cpg/sg2_279_cif.got.tgz:556449.got - 2010.06.03 11:33:40.
