data_PCOD9100791
_publ_section_title
;
Structure prediction by ZEFSAII (Michael W. Deem and Ramdas Pophale) SiO2 
 PCOD9100791
Probable space group: P -1
;
_chemical_formula_sum "Si O2"
_cell_formula_units_Z 12
_cell_length_a 9.430259
_cell_length_b 9.399396
_cell_length_c 13.579706
_cell_angle_alpha 135.897078
_cell_angle_beta 144.646006
_cell_angle_gamma 46.277574
_cell_volume 467.789956
_symmetry_space_group_name_H-M "P -1"
_symmetry_group_IT_number 2
_symmetry_cell_setting 'triclinic'
loop_
_space_group_symop_operation_xyz
x,y,z
-x,-y,-z
loop_
_atom_site_type_symbol
_atom_site_label
_atom_site_fract_x
_atom_site_fract_y
_atom_site_fract_z
Si Si1 0.458958 0.162248 0.149314
Si Si2 0.842722 0.797889 0.242492
Si Si3 0.604742 0.400362 0.883097
Si Si4 0.042505 0.876930 0.187540
Si Si5 0.098784 0.696465 0.800654
Si Si6 0.708610 0.463116 0.512827
O O1 0.581593 0.355132 0.302533
O O2 0.617481 0.004540 0.242528
O O3 0.160638 0.238913 0.033801
O O4 0.500000 0.000000 0.000000
O O5 0.715600 0.608753 0.046461
O O6 0.001660 0.855020 0.268957
O O7 0.040787 0.711186 0.396062
O O8 0.753353 0.273136 0.999538
O O9 0.304440 0.489016 0.771963
O O10 0.687790 0.246719 0.762013
O O11 0.949770 0.110956 0.207077
O O12 0.827626 0.654076 0.649368
O O13 0.500000 0.500000 0.500000
#
# Coordination Sequence:
#
# PCOD9100791 Si02
#       6
#     2   2   2   2   2   2
#     4  10  21  40  70  96 131 177 224 270 330 400
#     4  10  21  40  66  98 134 173 223 274 332 403
#     4  10  20  37  65  99 137 179 222 273 336 401
#     4  11  21  40  71  97 132 178 225 270 335 404
#     4  10  22  40  62 100 135 172 228 280 332 392
#     4  11  24  45  67  98 136 177 224 278 340 397
#
# _framework density 25.652538
#
# number of rings (size 3 to 8) (size 9 to 14) (size 15 to 20)
#    0.000    1.667    1.667    3.500    0.000    1.333 
#    3.000    4.167    0.000    0.000    0.000    0.000 
#    0.000    0.000    0.000    0.000    0.000    0.000 
#
# Total GULP energy -67145.677224 kJ/mol
# GULP energy per Si atom -5595.473102 kJ/mol
# Density = 2.559415 g / cm^3
# Si number density = 25.652538 Si / 1000 Ang^3
#
#
#
# Elastic Constant Matrix: (Units=GPa)
#
#
# Indices 1 2 3 4 5 6 
#
# 1 123.4539 23.5257 26.6683 10.9423 24.2990 2.6716
# 2 23.5257 89.0699 10.5498 -10.8022 5.1260 16.4629
# 3 26.6683 10.5498 92.3776 6.4380 20.2638 5.9558
# 4 10.9423 -10.8022 6.4380 24.5554 0.5329 8.1897
# 5 24.2990 5.1260 20.2638 0.5329 32.7365 1.1886
# 6 2.6716 16.4629 5.9558 8.1897 1.1886 56.7945
#
#
#
# Elastic Compliance Matrix: (Units=1/GPa)
#
#
# Indices 1 2 3 4 5 6 
#
# 1 0.010857 -0.003469 -0.000870 -0.006544 -0.006932 0.001675
# 2 -0.003469 0.014425 -0.001241 0.009977 0.001116 -0.005350
# 3 -0.000870 -0.001241 0.013043 -0.003309 -0.007167 -0.000340
# 4 -0.006544 0.009977 -0.003309 0.052076 0.004854 -0.009848
# 5 -0.006932 0.001116 -0.007167 0.004854 0.039903 -0.000781
# 6 0.001675 -0.005350 -0.000340 -0.009848 -0.000781 0.020551
#
#
# Mechanical properties :
#
#
# Convention : Reuss Voigt Hill
#
# Bulk Modulus (GPa) = 36.81145 47.37656 42.09400
# Shear Modulus (GPa) = 29.22772 39.09448 34.16110
#
# Velocity S-wave (km/s) = 3.37912 3.90808 3.65318
# Velocity P-wave (km/s) = 5.44112 6.23480 5.85143
#
# Compressibility (1/GPa) = 0.02716546
#
# Stress axis : x y z
#
# Youngs Moduli (GPa) = 92.10433 69.32401 76.67138
#
# Poissons Ratio (x) = 0.24049 0.06667
# Poissons Ratio (y) = 0.31951 0.09516
# Poissons Ratio (z) = 0.08009 0.08604
#
# Static dielectric constant tensor:
#      x y z
#    x 2.068750 0.020900 -0.037740 
#    y 0.020900 2.039160 -0.036630 
#    z -0.037740 -0.036630 2.102000 
# 
# From -- ./inp_files/493995.got.cif
#   From: 2010.05.17/outbox.cif.g08.bks.cpg/sg2_247_cif.got.tgz:493995.got - 2010.06.03 11:33:40.
