data_PCOD9100323
_publ_section_title
;
Structure prediction by ZEFSAII (Michael W. Deem and Ramdas Pophale) SiO2 
 PCOD9100323
Probable space group: P -1
;
_chemical_formula_sum "Si O2"
_cell_formula_units_Z 10
_cell_length_a 11.834234
_cell_length_b 8.889854
_cell_length_c 9.411391
_cell_angle_alpha 31.580984
_cell_angle_beta 81.875881
_cell_angle_gamma 73.349652
_cell_volume 486.254386
_symmetry_space_group_name_H-M "P -1"
_symmetry_group_IT_number 2
_symmetry_cell_setting 'triclinic'
loop_
_space_group_symop_operation_xyz
x,y,z
-x,-y,-z
loop_
_atom_site_type_symbol
_atom_site_label
_atom_site_fract_x
_atom_site_fract_y
_atom_site_fract_z
Si Si1 0.257196 0.416233 0.514592
Si Si2 0.882283 0.046124 0.079325
Si Si3 0.317239 0.452343 0.801013
Si Si4 0.078080 0.722604 0.804657
Si Si5 0.475610 0.775401 0.397424
O O1 0.222484 0.713349 0.184966
O O2 0.262870 0.491519 0.619548
O O3 0.391086 0.212129 0.607807
O O4 0.158312 0.247768 0.652634
O O5 0.903905 0.172319 0.125454
O O6 0.000000 0.000000 0.000000
O O7 0.207821 0.562780 0.840077
O O8 0.404864 0.659162 0.625511
O O9 0.393022 0.099146 0.093834
O O10 0.000000 0.000000 0.500000
O O11 0.000000 0.500000 0.000000
O O12 0.500000 0.500000 0.500000
#
# Coordination Sequence:
#
# PCOD9100323 Si02
#       5
#     2   2   2   2   2
#     4  11  21  39  62  89 119 155 200 249 292 351
#     4  12  24  40  61  89 119 157 201 250 301 352
#     4  11  21  39  64  91 121 161 202 243 294 357
#     4  12  25  43  62  88 122 161 201 249 303 360
#     4  10  20  37  63  93 121 158 201 243 293 358
#
# _framework density 20.565367999999999
#
# number of rings (size 3 to 8) (size 9 to 14) (size 15 to 20)
#    0.000    0.800    0.000   11.400    0.000    0.000 
#    0.000    6.000    0.000    0.000    0.000    0.000 
#    0.000    0.000    0.000    0.000    0.000    0.000 
#
# Total GULP energy -55922.063757 kJ/mol
# GULP energy per Si atom -5592.206376 kJ/mol
# Density = 2.051856 g / cm^3
# Si number density = 20.565368 Si / 1000 Ang^3
#
#
#
# Elastic Constant Matrix: (Units=GPa)
#
#
# Indices 1 2 3 4 5 6 
#
# 1 101.0937 45.3605 -1.1832 9.6109 -20.9541 -25.4311
# 2 45.3605 110.9377 17.0571 21.2784 8.4146 -17.4484
# 3 -1.1832 17.0571 114.0097 -1.5365 8.9061 -9.3661
# 4 9.6109 21.2784 -1.5365 20.1812 -4.3451 -5.6432
# 5 -20.9541 8.4146 8.9061 -4.3451 56.4915 -1.7961
# 6 -25.4311 -17.4484 -9.3661 -5.6432 -1.7961 34.3485
#
#
#
# Elastic Compliance Matrix: (Units=1/GPa)
#
#
# Indices 1 2 3 4 5 6 
#
# 1 0.016783 -0.006761 0.001498 0.003806 0.007620 0.010423
# 2 -0.006761 0.015191 -0.002144 -0.014298 -0.005549 -0.000513
# 3 0.001498 -0.002144 0.009423 0.003066 -0.000277 0.003079
# 4 0.003806 -0.014298 0.003066 0.067066 0.008466 0.007852
# 5 0.007620 -0.005549 -0.000277 0.008466 0.022218 0.005301
# 6 0.010423 -0.000513 0.003079 0.007852 0.005301 0.038977
#
#
# Mechanical properties :
#
#
# Convention : Reuss Voigt Hill
#
# Bulk Modulus (GPa) = 37.61875 49.83443 43.72659
# Shear Modulus (GPa) = 25.86203 39.85801 32.86002
#
# Velocity S-wave (km/s) = 3.55005 4.40718 4.00163
# Velocity P-wave (km/s) = 5.92754 7.08396 6.53139
#
# Compressibility (1/GPa) = 0.02658249
#
# Stress axis : x y z
#
# Youngs Moduli (GPa) = 59.58488 65.82888 106.11864
#
# Poissons Ratio (x) = 0.44507 -0.15897
# Poissons Ratio (y) = 0.40285 0.22755
# Poissons Ratio (z) = -0.08926 0.14116
#
# Static dielectric constant tensor:
#      x y z
#    x 1.775780 -0.014060 -0.000210 
#    y -0.014060 1.711720 -0.008330 
#    z -0.000210 -0.008330 1.713520 
# 
# From -- ./inp_files/30664.got.cif
#   From: 2010.05.17/outbox.cif.g08.bks.cpg/sg2_16_cif.got.tgz:30664.got - 2010.06.03 11:33:40.
