data_PCOD9100401
_publ_section_title
;
Structure prediction by ZEFSAII (Michael W. Deem and Ramdas Pophale) SiO2 
 PCOD9100401
Probable space group: P -1
;
_chemical_formula_sum "Si O2"
_cell_formula_units_Z 16
_cell_length_a 11.252717
_cell_length_b 13.167843
_cell_length_c 16.449555
_cell_angle_alpha 35.710956
_cell_angle_beta 57.078921
_cell_angle_gamma 33.692215
_cell_volume 720.547739
_symmetry_space_group_name_H-M "P -1"
_symmetry_group_IT_number 2
_symmetry_cell_setting 'triclinic'
loop_
_space_group_symop_operation_xyz
x,y,z
-x,-y,-z
loop_
_atom_site_type_symbol
_atom_site_label
_atom_site_fract_x
_atom_site_fract_y
_atom_site_fract_z
Si Si1 0.195216 0.260042 0.518593
Si Si2 0.174767 0.569087 0.548173
Si Si3 0.450903 0.856195 0.459133
Si Si4 0.783250 0.210460 0.312596
Si Si5 0.808414 0.539851 0.029760
Si Si6 0.130499 0.512038 0.139639
Si Si7 0.626665 0.868038 0.124547
Si Si8 0.499730 0.375854 0.158655
O O1 0.391713 0.217860 0.476427
O O2 0.000000 0.500000 0.500000
O O3 0.040113 0.359332 0.433913
O O4 0.318095 0.962964 0.696389
O O5 0.364344 0.367333 0.536312
O O6 0.303102 0.389048 0.699995
O O7 0.031272 0.887588 0.400427
O O8 0.310424 0.822031 0.560041
O O9 0.273417 0.188776 0.289258
O O10 0.820706 0.378350 0.198371
O O11 0.583919 0.387310 0.201533
O O12 0.853635 0.422781 0.999135
O O13 0.000000 0.500000 0.000000
O O14 0.551429 0.874111 0.912696
O O15 0.251802 0.520179 0.153779
O O16 0.863390 0.742614 0.109549
O O17 0.500000 0.000000 0.000000
O O18 0.500000 0.500000 0.000000
#
# Coordination Sequence:
#
# PCOD9100401 Si02
#       8
#     2   2   2   2   2   2   2   2
#     4   8  18  33  59  93 132 174 209 250 323 397
#     4  10  21  40  66  97 136 171 222 273 324 389
#     4  10  20  39  67  99 135 174 216 267 332 398
#     4  11  24  41  69 103 134 169 224 272 331 401
#     4  12  26  48  68  91 132 179 221 281 335 391
#     4  11  22  42  70  95 141 174 215 274 332 392
#     4  12  25  43  70  97 122 180 235 266 333 399
#     4  10  20  37  64 101 138 174 210 268 334 392
#
# _framework density 22.205331000000001
#
# number of rings (size 3 to 8) (size 9 to 14) (size 15 to 20)
#    0.000    1.500    5.000    0.000    1.750    2.500 
#    2.250    3.750    0.000    0.000    0.000    0.000 
#    0.000    0.000    0.000    0.000    0.000    0.000 
#
# Total GULP energy -89364.891610 kJ/mol
# GULP energy per Si atom -5585.305726 kJ/mol
# Density = 2.215479 g / cm^3
# Si number density = 22.205331 Si / 1000 Ang^3
#
#
#
# Elastic Constant Matrix: (Units=GPa)
#
#
# Indices 1 2 3 4 5 6 
#
# 1 60.0073 27.8305 38.5366 -1.1211 -1.5224 -18.6342
# 2 27.8305 120.4083 27.4627 -6.2878 -1.1079 -27.9375
# 3 38.5366 27.4627 106.1168 14.5167 5.1315 -19.0446
# 4 -1.1211 -6.2878 14.5167 33.9016 -5.3018 5.1279
# 5 -1.5224 -1.1079 5.1315 -5.3018 36.4660 10.7152
# 6 -18.6342 -27.9375 -19.0446 5.1279 10.7152 31.7725
#
#
#
# Elastic Compliance Matrix: (Units=1/GPa)
#
#
# Indices 1 2 3 4 5 6 
#
# 1 0.024903 -0.002104 -0.007414 0.002420 0.000048 0.007904
# 2 -0.002104 0.010935 -0.000450 0.000479 -0.002202 0.008777
# 3 -0.007414 -0.000450 0.015154 -0.008948 -0.006056 0.007827
# 4 0.002420 0.000479 -0.008948 0.037141 0.010624 -0.013100
# 5 0.000048 -0.002202 -0.006056 0.010624 0.035393 -0.019189
# 6 0.007904 0.008777 0.007827 -0.013100 -0.019189 0.057104
#
#
# Mechanical properties :
#
#
# Convention : Reuss Voigt Hill
#
# Bulk Modulus (GPa) = 32.19947 52.68800 42.44373
# Shear Modulus (GPa) = 23.70599 33.27485 28.49042
#
# Velocity S-wave (km/s) = 3.27093 3.87526 3.58585
# Velocity P-wave (km/s) = 5.36634 6.61835 6.02496
#
# Compressibility (1/GPa) = 0.03105641
#
# Stress axis : x y z
#
# Youngs Moduli (GPa) = 40.15657 91.44788 65.98950
#
# Poissons Ratio (x) = 0.19242 0.48922
# Poissons Ratio (y) = 0.08450 0.02968
# Poissons Ratio (z) = 0.29771 0.04114
#
# Static dielectric constant tensor:
#      x y z
#    x 1.874640 0.008850 -0.000020 
#    y 0.008850 1.809740 0.023230 
#    z -0.000020 0.023230 1.878170 
# 
# From -- ./inp_files/202879.got.cif
#   From: 2010.05.17/outbox.cif.g08.bks.cpg/sg2_102_cif.got.tgz:202879.got - 2010.06.03 11:33:40.
