data_PCOD9100505
_publ_section_title
;
Structure prediction by ZEFSAII (Michael W. Deem and Ramdas Pophale) SiO2 
 PCOD9100505
Probable space group: P -1
;
_chemical_formula_sum "Si O2"
_cell_formula_units_Z 16
_cell_length_a 10.958499
_cell_length_b 20.777781
_cell_length_c 16.109299
_cell_angle_alpha 27.254779
_cell_angle_beta 133.196963
_cell_angle_gamma 151.000671
_cell_volume 739.422580
_symmetry_space_group_name_H-M "P -1"
_symmetry_group_IT_number 2
_symmetry_cell_setting 'triclinic'
loop_
_space_group_symop_operation_xyz
x,y,z
-x,-y,-z
loop_
_atom_site_type_symbol
_atom_site_label
_atom_site_fract_x
_atom_site_fract_y
_atom_site_fract_z
Si Si1 0.449754 0.790414 0.415392
Si Si2 0.964558 0.485769 0.795477
Si Si3 0.376739 0.396452 0.335881
Si Si4 0.996720 0.162289 0.589502
Si Si5 0.532201 0.130851 0.135054
Si Si6 0.878875 0.729410 0.298501
Si Si7 0.149794 0.623658 0.312819
Si Si8 0.596778 0.345803 0.077085
O O1 0.613413 0.758171 0.512296
O O2 0.375685 0.819999 0.260147
O O3 0.150967 0.546392 0.593522
O O4 0.569846 0.989407 0.302705
O O5 0.861002 0.346040 0.822639
O O6 0.074866 0.719287 0.566537
O O7 0.200837 0.549844 0.873065
O O8 0.713715 0.327500 0.924704
O O9 0.673673 0.645219 0.228408
O O10 0.167048 0.264344 0.467182
O O11 0.331020 0.466299 0.156073
O O12 0.160821 0.235617 0.667483
O O13 0.721735 0.883578 0.780058
O O14 0.631322 0.245995 0.138969
O O15 0.207589 0.952199 0.178712
O O16 0.808603 0.516891 0.510026
#
# Coordination Sequence:
#
# PCOD9100505 Si02
#       8
#     2   2   2   2   2   2   2   2
#     4   9  19  39  61  89 121 157 199 250 313 358
#     4  11  21  40  64  90 120 159 216 252 282 363
#     4  11  21  40  61  89 130 158 192 256 311 362
#     4  10  21  37  61  91 117 161 205 254 304 346
#     4  10  20  37  64  92 118 160 205 245 301 356
#     4   8  18  36  59  91 120 154 200 253 305 353
#     4   8  17  37  62  83 118 162 202 250 294 353
#     4  11  24  41  63  91 121 163 209 249 296 355
#
# _framework density 21.638507000000001
#
# number of rings (size 3 to 8) (size 9 to 14) (size 15 to 20)
#    0.000    2.250    1.250    2.625    0.000    2.500 
#    9.000    1.250    0.000    0.000    0.000    0.000 
#    0.000    0.000    0.000    0.000    0.000    0.000 
#
# Total GULP energy -89321.876782 kJ/mol
# GULP energy per Si atom -5582.617299 kJ/mol
# Density = 2.158926 g / cm^3
# Si number density = 21.638507 Si / 1000 Ang^3
#
#
#
# Elastic Constant Matrix: (Units=GPa)
#
#
# Indices 1 2 3 4 5 6 
#
# 1 106.1604 24.9513 21.2759 8.4723 -12.3687 -21.0839
# 2 24.9513 76.2914 0.1420 26.1077 -26.1758 -21.4564
# 3 21.2759 0.1420 67.2606 -9.0738 8.1119 1.3077
# 4 8.4723 26.1077 -9.0738 28.5093 -3.5056 -12.0562
# 5 -12.3687 -26.1758 8.1119 -3.5056 52.0235 13.4446
# 6 -21.0839 -21.4564 1.3077 -12.0562 13.4446 23.5731
#
#
#
# Elastic Compliance Matrix: (Units=1/GPa)
#
#
# Indices 1 2 3 4 5 6 
#
# 1 0.012622 -0.001232 -0.004167 0.000517 0.000364 0.010457
# 2 -0.001232 0.025871 -0.003816 -0.020643 0.010322 0.006213
# 3 -0.004167 -0.003816 0.018113 0.009718 -0.004978 -0.000396
# 4 0.000517 -0.020643 0.009718 0.064408 -0.012991 0.021484
# 5 0.000364 0.010322 -0.004978 -0.012991 0.027605 -0.012392
# 6 0.010457 0.006213 -0.000396 0.021484 -0.012392 0.075505
#
#
# Mechanical properties :
#
#
# Convention : Reuss Voigt Hill
#
# Bulk Modulus (GPa) = 26.19424 38.05010 32.12217
# Shear Modulus (GPa) = 19.58637 34.37739 26.98188
#
# Velocity S-wave (km/s) = 3.01186 3.99019 3.53503
# Velocity P-wave (km/s) = 4.92206 6.23309 5.61597
#
# Compressibility (1/GPa) = 0.03817633
#
# Stress axis : x y z
#
# Youngs Moduli (GPa) = 79.22539 38.65348 55.20932
#
# Poissons Ratio (x) = 0.04761 0.23008
# Poissons Ratio (y) = 0.09759 0.21066
# Poissons Ratio (z) = 0.33017 0.14749
#
# Static dielectric constant tensor:
#      x y z
#    x 1.798950 -0.004150 -0.012450 
#    y -0.004150 1.814930 0.022520 
#    z -0.012450 0.022520 1.822130 
# 
# From -- ./inp_files/457788.got.cif
#   From: 2010.05.17/outbox.cif.g08.bks.cpg/sg2_229_cif.got.tgz:457788.got - 2010.06.03 11:33:40.
