data_PCOD9100319
_publ_section_title
;
Structure prediction by ZEFSAII (Michael W. Deem and Ramdas Pophale) SiO2 
 PCOD9100319
Probable space group: P -1
;
_chemical_formula_sum "Si O2"
_cell_formula_units_Z 16
_cell_length_a 15.989225
_cell_length_b 8.242478
_cell_length_c 12.241013
_cell_angle_alpha 65.877066
_cell_angle_beta 54.393574
_cell_angle_gamma 30.217826
_cell_volume 642.320631
_symmetry_space_group_name_H-M "P -1"
_symmetry_group_IT_number 2
_symmetry_cell_setting 'triclinic'
loop_
_space_group_symop_operation_xyz
x,y,z
-x,-y,-z
loop_
_atom_site_type_symbol
_atom_site_label
_atom_site_fract_x
_atom_site_fract_y
_atom_site_fract_z
Si Si1 0.093889 0.161216 0.701402
Si Si2 0.236940 0.991483 0.874032
Si Si3 0.308670 0.424230 0.108745
Si Si4 0.596462 0.711760 0.158343
Si Si5 0.918673 0.381713 0.169026
Si Si6 0.241274 0.663518 0.551591
Si Si7 0.371033 0.024326 0.446529
Si Si8 0.340609 0.491019 0.297420
O O1 0.187286 0.980738 0.797201
O O2 0.868191 0.455094 0.803852
O O3 0.176785 0.909294 0.615888
O O4 0.170394 0.239508 0.580381
O O5 0.145610 0.323580 0.843744
O O6 0.459351 0.697750 0.804913
O O7 0.122896 0.079452 0.039011
O O8 0.262050 0.600551 0.204893
O O9 0.499867 0.038141 0.103212
O O10 0.347219 0.457869 0.952963
O O11 0.776421 0.499074 0.155308
O O12 0.441492 0.853401 0.320037
O O13 0.879738 0.331394 0.322197
O O14 0.463632 0.287127 0.511699
O O15 0.220767 0.742604 0.419646
O O16 0.371046 0.237505 0.377399
#
# Coordination Sequence:
#
# PCOD9100319 Si02
#       8
#     2   2   2   2   2   2   2   2
#     4  12  24  35  59  89 122 150 191 234 292 346
#     4  11  20  36  61  94 106 148 196 244 279 333
#     4  10  21  38  56  86 117 156 186 234 292 346
#     4   9  18  37  60  83 114 149 188 243 282 332
#     4  10  20  37  63  93 110 143 202 241 286 329
#     4  11  22  38  57  89 119 153 186 244 288 340
#     4  10  20  38  60  90 109 152 197 244 277 334
#     4  11  21  39  63  81 119 154 193 238 287 334
#
# _framework density 24.909679000000001
#
# number of rings (size 3 to 8) (size 9 to 14) (size 15 to 20)
#    0.000    1.500    6.250    1.500    0.000    3.000 
#    0.000    1.250    0.000    1.500    0.000    0.000 
#    0.000    0.000    0.000    0.000    0.000    0.000 
#
# Total GULP energy -89555.575870 kJ/mol
# GULP energy per Si atom -5597.223492 kJ/mol
# Density = 2.485298 g / cm^3
# Si number density = 24.909679 Si / 1000 Ang^3
#
#
#
# Elastic Constant Matrix: (Units=GPa)
#
#
# Indices 1 2 3 4 5 6 
#
# 1 88.9625 16.8923 67.5008 2.5993 6.0564 -10.2784
# 2 16.8923 45.4777 9.6040 -3.4467 -7.3460 -2.4763
# 3 67.5008 9.6040 195.7664 -3.7817 8.5232 -24.7874
# 4 2.5993 -3.4467 -3.7817 27.9857 -9.6066 3.5862
# 5 6.0564 -7.3460 8.5232 -9.6066 54.5290 10.2418
# 6 -10.2784 -2.4763 -24.7874 3.5862 10.2418 29.9218
#
#
#
# Elastic Compliance Matrix: (Units=1/GPa)
#
#
# Indices 1 2 3 4 5 6 
#
# 1 0.016924 -0.005895 -0.005158 -0.004415 -0.003145 0.002658
# 2 -0.005895 0.025301 0.000393 0.005863 0.005443 -0.002171
# 3 -0.005158 0.000393 0.007565 0.000429 -0.001413 0.004960
# 4 -0.004415 0.005863 0.000429 0.041625 0.010271 -0.009180
# 5 -0.003145 0.005443 -0.001413 0.010271 0.023534 -0.011086
# 6 0.002658 -0.002171 0.004960 -0.009180 -0.011086 0.043158
#
#
# Mechanical properties :
#
#
# Convention : Reuss Voigt Hill
#
# Bulk Modulus (GPa) = 35.12526 57.57787 46.35156
# Shear Modulus (GPa) = 26.46683 38.23458 32.35071
#
# Velocity S-wave (km/s) = 3.26316 3.92207 3.60769
# Velocity P-wave (km/s) = 5.32252 6.60871 6.00018
#
# Compressibility (1/GPa) = 0.02846954
#
# Stress axis : x y z
#
# Youngs Moduli (GPa) = 59.08810 39.52459 132.18508
#
# Poissons Ratio (x) = 0.23299 0.68181
# Poissons Ratio (y) = 0.34831 -0.05191
# Poissons Ratio (z) = 0.30478 -0.01552
#
# Static dielectric constant tensor:
#      x y z
#    x 1.984920 0.056810 0.029860 
#    y 0.056810 1.989870 0.014850 
#    z 0.029860 0.014850 1.971920 
# 
# From -- ./inp_files/337998.got.cif
#   From: 2010.05.17/outbox.cif.g08.bks.cpg/sg2_169_cif.got.tgz:337998.got - 2010.06.03 11:33:40.
