data_PCOD9100284
_publ_section_title
;
Structure prediction by ZEFSAII (Michael W. Deem and Ramdas Pophale) SiO2 
 PCOD9100284
Probable space group: P -1
;
_chemical_formula_sum "Si O2"
_cell_formula_units_Z 16
_cell_length_a 9.086195
_cell_length_b 13.068056
_cell_length_c 7.884553
_cell_angle_alpha 120.150766
_cell_angle_beta 116.787777
_cell_angle_gamma 91.453268
_cell_volume 683.154748
_symmetry_space_group_name_H-M "P -1"
_symmetry_group_IT_number 2
_symmetry_cell_setting 'triclinic'
loop_
_space_group_symop_operation_xyz
x,y,z
-x,-y,-z
loop_
_atom_site_type_symbol
_atom_site_label
_atom_site_fract_x
_atom_site_fract_y
_atom_site_fract_z
Si Si1 0.404266 0.362895 0.413734
Si Si2 0.802386 0.952562 0.703513
Si Si3 0.079588 0.643225 0.528103
Si Si4 0.710337 0.495231 0.269666
Si Si5 0.679337 0.230252 0.540099
Si Si6 0.475577 0.752809 0.184921
Si Si7 0.970447 0.797577 0.890706
Si Si8 0.535334 0.025260 0.845140
O O1 0.500000 0.500000 0.500000
O O2 0.362131 0.398318 0.611117
O O3 0.525772 0.276179 0.413525
O O4 0.209337 0.288156 0.185561
O O5 0.656303 0.850921 0.431309
O O6 0.917570 0.876745 0.780069
O O7 0.697172 0.988341 0.833020
O O8 0.919597 0.094185 0.832295
O O9 0.200889 0.560902 0.577642
O O10 0.166526 0.723985 0.476927
O O11 0.883527 0.559403 0.304069
O O12 0.056030 0.713465 0.750107
O O13 0.552781 0.382231 0.020156
O O14 0.672014 0.274071 0.766104
O O15 0.625006 0.081184 0.411750
O O16 0.439183 0.836197 0.083828
O O17 0.500000 0.000000 0.000000
#
# Coordination Sequence:
#
# PCOD9100284 Si02
#       8
#     2   2   2   2   2   2   2   2
#     4  11  21  38  65  94 124 171 214 259 304 377
#     4  10  20  38  63  91 126 168 208 258 319 370
#     4  10  21  39  62  93 122 170 217 257 309 377
#     4  10  22  39  64  92 128 166 215 261 313 375
#     4  11  21  39  61  94 128 161 217 259 315 372
#     4  11  23  39  65  96 126 167 207 266 325 373
#     4  10  20  37  63  91 128 171 210 258 310 372
#     4  11  22  38  67  93 122 163 212 265 316 380
#
# _framework density 23.420756999999998
#
# number of rings (size 3 to 8) (size 9 to 14) (size 15 to 20)
#    0.000    1.500    3.750    3.750    0.000    1.000 
#    0.000    0.000    2.750   15.750    0.000    0.000 
#    0.000    0.000    0.000    0.000    0.000    0.000 
#
# Total GULP energy -89187.642858 kJ/mol
# GULP energy per Si atom -5574.227679 kJ/mol
# Density = 2.336745 g / cm^3
# Si number density = 23.420757 Si / 1000 Ang^3
#
#
#
# Elastic Constant Matrix: (Units=GPa)
#
#
# Indices 1 2 3 4 5 6 
#
# 1 83.1968 28.5562 33.4518 13.0217 27.3164 19.7194
# 2 28.5562 72.1159 15.8985 23.9558 19.8250 16.8592
# 3 33.4518 15.8985 121.9491 31.9473 28.6024 -3.4143
# 4 13.0217 23.9558 31.9473 44.9527 6.9613 5.2124
# 5 27.3164 19.8250 28.6024 6.9613 27.6226 11.7851
# 6 19.7194 16.8592 -3.4143 5.2124 11.7851 41.1782
#
#
#
# Elastic Compliance Matrix: (Units=1/GPa)
#
#
# Indices 1 2 3 4 5 6 
#
# 1 0.019021 -0.002302 -0.001825 -0.000415 -0.013256 -0.004471
# 2 -0.002302 0.022024 0.003939 -0.011481 -0.013781 -0.002191
# 3 -0.001825 0.003939 0.015048 -0.010432 -0.016808 0.006640
# 4 -0.000415 -0.011481 -0.010432 0.034423 0.012434 -0.003881
# 5 -0.013256 -0.013781 -0.016808 0.012434 0.079307 -0.013675
# 6 -0.004471 -0.002191 0.006640 -0.003881 -0.013675 0.032278
#
#
# Mechanical properties :
#
#
# Convention : Reuss Voigt Hill
#
# Bulk Modulus (GPa) = 17.94793 48.11943 33.03368
# Shear Modulus (GPa) = 22.61925 36.04105 29.33015
#
# Velocity S-wave (km/s) = 3.11107 3.92707 3.54264
# Velocity P-wave (km/s) = 4.53706 6.41504 5.55597
#
# Compressibility (1/GPa) = 0.05571674
#
# Stress axis : x y z
#
# Youngs Moduli (GPa) = 52.57448 45.40426 66.45254
#
# Poissons Ratio (x) = 0.10454 0.12127
# Poissons Ratio (y) = 0.12104 -0.26175
# Poissons Ratio (z) = 0.09594 -0.17884
#
# Static dielectric constant tensor:
#      x y z
#    x 1.637120 -0.142250 0.572750 
#    y -0.142250 1.797910 0.286480 
#    z 0.572750 0.286480 1.092700 
# 
# From -- ./inp_files/204439.got.cif
#   From: 2010.05.17/outbox.cif.g08.bks.cpg/sg2_103_cif.got.tgz:204439.got - 2010.06.03 11:33:40.
