data_PCOD9100903
_publ_section_title
;
Structure prediction by ZEFSAII (Michael W. Deem and Ramdas Pophale) SiO2 
 PCOD9100903
Probable space group: P -1
;
_chemical_formula_sum "Si O2"
_cell_formula_units_Z 16
_cell_length_a 7.659389
_cell_length_b 15.480954
_cell_length_c 14.636712
_cell_angle_alpha 41.365858
_cell_angle_beta 131.149023
_cell_angle_gamma 134.234384
_cell_volume 787.951675
_symmetry_space_group_name_H-M "P -1"
_symmetry_group_IT_number 2
_symmetry_cell_setting 'triclinic'
loop_
_space_group_symop_operation_xyz
x,y,z
-x,-y,-z
loop_
_atom_site_type_symbol
_atom_site_label
_atom_site_fract_x
_atom_site_fract_y
_atom_site_fract_z
Si Si1 0.449360 0.996163 0.092708
Si Si2 0.700049 0.640621 0.165565
Si Si3 0.743746 0.133024 0.439142
Si Si4 0.744533 0.812792 0.366421
Si Si5 0.482029 0.842238 0.846058
Si Si6 0.404085 0.555120 0.560695
Si Si7 0.975519 0.901875 0.174525
Si Si8 0.862775 0.398529 0.404812
O O1 0.523402 0.869896 0.252855
O O2 0.612523 0.127339 0.111939
O O3 0.500000 0.000000 0.000000
O O4 0.180458 0.009292 0.988156
O O5 0.528716 0.547881 0.265209
O O6 0.921200 0.768931 0.193942
O O7 0.805726 0.532697 0.242364
O O8 0.567334 0.712723 0.995959
O O9 0.694034 0.173422 0.288130
O O10 0.799530 0.269730 0.415728
O O11 0.996987 0.102851 0.555333
O O12 0.500000 0.000000 0.500000
O O13 0.621299 0.653834 0.490780
O O14 0.842177 0.835885 0.277373
O O15 0.735392 0.988701 0.798113
O O16 0.318385 0.646992 0.531522
O O17 0.149059 0.464503 0.488815
#
# Coordination Sequence:
#
# PCOD9100903 Si02
#       8
#     2   2   2   2   2   2   2   2
#     4   9  21  38  60  97 124 153 211 266 318 355
#     4   9  19  38  64  90 118 161 216 263 306 367
#     4  12  26  42  59  92 132 177 216 242 313 402
#     4  11  23  38  64  94 133 161 210 270 317 368
#     4  11  23  38  68  88 133 172 205 257 311 393
#     4   9  21  38  67  91 122 158 213 275 315 358
#     4  10  20  37  66  98 122 161 214 265 324 360
#     4   9  22  40  64  91 123 169 212 258 321 373
#
# _framework density 20.305813000000001
#
# number of rings (size 3 to 8) (size 9 to 14) (size 15 to 20)
#    0.750    1.250    1.250    2.250    5.250    3.000 
#    0.000    0.625    0.000    0.000    0.000    0.000 
#    0.000    0.000    0.000    0.000    0.000    0.000 
#
# Total GULP energy -89096.483933 kJ/mol
# GULP energy per Si atom -5568.530246 kJ/mol
# Density = 2.025960 g / cm^3
# Si number density = 20.305813 Si / 1000 Ang^3
#
#
#
# Elastic Constant Matrix: (Units=GPa)
#
#
# Indices 1 2 3 4 5 6 
#
# 1 70.7430 30.5903 26.9282 1.0758 -4.8747 -3.6015
# 2 30.5903 74.7246 35.4030 6.1839 -3.6635 -6.6434
# 3 26.9282 35.4030 135.7941 7.1572 -6.2067 2.5365
# 4 1.0758 6.1839 7.1572 40.4841 -1.7721 -8.4232
# 5 -4.8747 -3.6635 -6.2067 -1.7721 29.2647 -6.7657
# 6 -3.6015 -6.6434 2.5365 -8.4232 -6.7657 34.2917
#
#
#
# Elastic Compliance Matrix: (Units=1/GPa)
#
#
# Indices 1 2 3 4 5 6 
#
# 1 0.017762 -0.006233 -0.001890 0.001230 0.002207 0.001535
# 2 -0.006233 0.017964 -0.003383 -0.001314 0.001100 0.002970
# 3 -0.001890 -0.003383 0.008751 -0.001304 0.000647 -0.001694
# 4 0.001230 -0.001314 -0.001304 0.026716 0.003030 0.007131
# 5 0.002207 0.001100 0.000647 0.003030 0.036946 0.008431
# 6 0.001535 0.002970 -0.001694 0.007131 0.008431 0.033439
#
#
# Mechanical properties :
#
#
# Convention : Reuss Voigt Hill
#
# Bulk Modulus (GPa) = 46.58913 51.90054 49.24483
# Shear Modulus (GPa) = 29.11313 33.36413 31.23863
#
# Velocity S-wave (km/s) = 3.79058 4.05789 3.92651
# Velocity P-wave (km/s) = 6.49242 6.89712 6.69783
#
# Compressibility (1/GPa) = 0.02146424
#
# Stress axis : x y z
#
# Youngs Moduli (GPa) = 56.30068 55.66769 114.27456
#
# Poissons Ratio (x) = 0.34697 0.21596
# Poissons Ratio (y) = 0.35092 0.38662
# Poissons Ratio (z) = 0.10640 0.18834
#
# Static dielectric constant tensor:
#      x y z
#    x 1.824650 -0.017890 -0.000600 
#    y -0.017890 1.718050 -0.022630 
#    z -0.000600 -0.022630 1.785860 
# 
# From -- ./inp_files/504021.got.cif
#   From: 2010.05.17/outbox.cif.g08.bks.cpg/sg2_253_cif.got.tgz:504021.got - 2010.06.03 11:33:40.
