data_PCOD9100744
_publ_section_title
;
Structure prediction by ZEFSAII (Michael W. Deem and Ramdas Pophale) SiO2 
 PCOD9100744
Probable space group: P -1
;
_chemical_formula_sum "Si O2"
_cell_formula_units_Z 16
_cell_length_a 12.406623
_cell_length_b 8.793336
_cell_length_c 8.577484
_cell_angle_alpha 51.151435
_cell_angle_beta 78.406086
_cell_angle_gamma 73.062223
_cell_volume 696.958527
_symmetry_space_group_name_H-M "P -1"
_symmetry_group_IT_number 2
_symmetry_cell_setting 'triclinic'
loop_
_space_group_symop_operation_xyz
x,y,z
-x,-y,-z
loop_
_atom_site_type_symbol
_atom_site_label
_atom_site_fract_x
_atom_site_fract_y
_atom_site_fract_z
Si Si1 0.527291 0.759029 0.313344
Si Si2 0.266891 0.726911 0.036764
Si Si3 0.750561 0.680122 0.830104
Si Si4 0.863265 0.540356 0.211278
Si Si5 0.501443 0.785535 0.936433
Si Si6 0.691875 0.361619 0.568872
Si Si7 0.049038 0.183860 0.428522
Si Si8 0.914747 0.891134 0.186124
O O1 0.616596 0.584504 0.481267
O O2 0.400213 0.750084 0.404009
O O3 0.548034 0.976690 0.193862
O O4 0.531392 0.719851 0.149970
O O5 0.397689 0.694089 0.969602
O O6 0.192545 0.930415 0.861429
O O7 0.221231 0.533512 0.127259
O O8 0.264943 0.742971 0.214883
O O9 0.615880 0.749238 0.829760
O O10 0.820086 0.829766 0.638823
O O11 0.795498 0.641049 0.017694
O O12 0.789278 0.399748 0.405415
O O13 0.882554 0.716132 0.205917
O O14 0.980465 0.387981 0.239400
O O15 0.033574 0.198784 0.608656
O O16 0.000000 0.000000 0.500000
O O17 0.000000 0.000000 0.000000
#
# Coordination Sequence:
#
# PCOD9100744 Si02
#       8
#     2   2   2   2   2   2   2   2
#     4   9  19  37  62  97 127 167 224 271 304 387
#     4  11  24  42  66  97 139 171 217 275 329 389
#     4  12  25  43  64  99 138 175 211 271 340 391
#     4  12  24  42  72  95 127 176 224 268 328 392
#     4  10  21  39  66  94 136 176 218 263 332 387
#     4  10  20  37  65  94 127 168 220 267 319 379
#     4  12  27  46  67  99 135 169 219 277 336 392
#     4  12  25  46  71  97 127 175 228 274 323 387
#
# _framework density 22.956887999999999
#
# number of rings (size 3 to 8) (size 9 to 14) (size 15 to 20)
#    0.000    1.000    1.250    5.625    5.250    0.000 
#    0.000    1.250    0.000    0.000    0.000    0.000 
#    0.000    0.000    0.000    0.000    0.000    0.000 
#
# Total GULP energy -89569.035037 kJ/mol
# GULP energy per Si atom -5598.064690 kJ/mol
# Density = 2.290464 g / cm^3
# Si number density = 22.956888 Si / 1000 Ang^3
#
#
#
# Elastic Constant Matrix: (Units=GPa)
#
#
# Indices 1 2 3 4 5 6 
#
# 1 105.7289 16.4801 21.8588 2.0822 -30.8744 0.3550
# 2 16.4801 46.1803 -11.2050 -16.5820 -2.8982 8.7023
# 3 21.8588 -11.2050 73.9794 -3.8872 -15.2779 3.6150
# 4 2.0822 -16.5820 -3.8872 28.7600 -4.3269 -3.7565
# 5 -30.8744 -2.8982 -15.2779 -4.3269 52.0033 -0.3293
# 6 0.3550 8.7023 3.6150 -3.7565 -0.3293 32.5459
#
#
#
# Elastic Compliance Matrix: (Units=1/GPa)
#
#
# Indices 1 2 3 4 5 6 
#
# 1 0.013271 -0.007397 -0.004164 -0.004668 0.005866 0.001816
# 2 -0.007397 0.036217 0.009689 0.022006 0.002253 -0.008117
# 3 -0.004164 0.009689 0.017639 0.008406 0.003927 -0.003494
# 4 -0.004668 0.022006 0.008406 0.049561 0.005042 -0.000995
# 5 0.005866 0.002253 0.003927 0.005042 0.024410 -0.000274
# 6 0.001816 -0.008117 -0.003494 -0.000995 -0.000274 0.033147
#
#
# Mechanical properties :
#
#
# Convention : Reuss Voigt Hill
#
# Bulk Modulus (GPa) = 15.77682 31.12848 23.45265
# Shear Modulus (GPa) = 25.11114 35.91215 30.51165
#
# Velocity S-wave (km/s) = 3.31091 3.95945 3.64962
# Velocity P-wave (km/s) = 4.63718 5.87299 5.29129
#
# Compressibility (1/GPa) = 0.06338415
#
# Stress axis : x y z
#
# Youngs Moduli (GPa) = 75.35294 27.61110 56.69371
#
# Poissons Ratio (x) = 0.20423 0.23607
# Poissons Ratio (y) = 0.55735 -0.54932
# Poissons Ratio (z) = 0.31377 -0.26753
#
# Static dielectric constant tensor:
#      x y z
#    x 1.874850 -0.042480 -0.030850 
#    y -0.042480 1.836140 0.015020 
#    z -0.030850 0.015020 1.812790 
# 
# From -- ./inp_files/242000.got.cif
#   From: 2010.05.17/outbox.cif.g08.bks.cpg/sg2_121_cif.got.tgz:242000.got - 2010.06.03 11:33:40.
