data_PCOD9100947
_publ_section_title
;
Structure prediction by ZEFSAII (Michael W. Deem and Ramdas Pophale) SiO2 
 PCOD9100947
Probable space group: P -1
;
_chemical_formula_sum "Si O2"
_cell_formula_units_Z 16
_cell_length_a 12.345338
_cell_length_b 9.292842
_cell_length_c 15.179933
_cell_angle_alpha 36.799184
_cell_angle_beta 71.991031
_cell_angle_gamma 55.132460
_cell_volume 815.838501
_symmetry_space_group_name_H-M "P -1"
_symmetry_group_IT_number 2
_symmetry_cell_setting 'triclinic'
loop_
_space_group_symop_operation_xyz
x,y,z
-x,-y,-z
loop_
_atom_site_type_symbol
_atom_site_label
_atom_site_fract_x
_atom_site_fract_y
_atom_site_fract_z
Si Si1 0.585263 0.069820 0.236359
Si Si2 0.409578 0.424441 0.803691
Si Si3 0.650213 0.943976 0.468973
Si Si4 0.868937 0.356178 0.798475
Si Si5 0.534647 0.226421 0.683428
Si Si6 0.368246 0.720450 0.045743
Si Si7 0.780598 0.714644 0.971254
Si Si8 0.989811 0.245485 0.010414
O O1 0.486403 0.397345 0.138242
O O2 0.674459 0.882286 0.388806
O O3 0.488178 0.973092 0.275503
O O4 0.663956 0.069189 0.131006
O O5 0.433658 0.332728 0.741068
O O6 0.556291 0.245487 0.907420
O O7 0.359782 0.761028 0.653374
O O8 0.310612 0.363290 0.911335
O O9 0.772635 0.671068 0.624703
O O10 0.500000 0.000000 0.500000
O O11 0.762035 0.277550 0.895179
O O12 0.946177 0.353999 0.867578
O O13 0.969043 0.085931 0.840964
O O14 0.500000 0.500000 0.500000
O O15 0.685255 0.015271 0.792838
O O16 0.866219 0.456473 0.004803
O O17 0.884091 0.741051 0.993867
#
# Coordination Sequence:
#
# PCOD9100947 Si02
#       8
#     2   2   2   2   2   2   2   2
#     4  10  21  34  56 104 121 157 187 252 352 353
#     4  11  23  39  65 101 124 169 197 269 336 369
#     4  11  22  38  65 100 128 154 200 277 333 362
#     4  11  22  43  69  89 127 160 235 245 311 381
#     4  12  25  36  67 102 131 157 197 272 340 369
#     4  10  20  37  67  92 126 156 204 270 316 379
#     4  11  24  46  64  88 138 163 227 242 314 396
#     4  10  26  42  68  86 119 194 211 257 291 371
#
# _framework density 19.611723999999999
#
# number of rings (size 3 to 8) (size 9 to 14) (size 15 to 20)
#    0.000    1.250    3.750    2.625    8.750    0.000 
#    0.000    1.250    0.000    0.000    0.000    0.000 
#    0.000    0.000    0.000    0.000    0.000    0.000 
#
# Total GULP energy -89375.024505 kJ/mol
# GULP energy per Si atom -5585.939032 kJ/mol
# Density = 1.956709 g / cm^3
# Si number density = 19.611724 Si / 1000 Ang^3
#
#
#
# Elastic Constant Matrix: (Units=GPa)
#
#
# Indices 1 2 3 4 5 6 
#
# 1 73.9905 30.9774 47.8279 -1.3881 10.9138 8.0769
# 2 30.9774 88.8714 47.6226 -3.0221 10.1079 15.4978
# 3 47.8279 47.6226 155.4535 0.0530 15.5561 -0.3527
# 4 -1.3881 -3.0221 0.0530 22.1919 -2.1076 0.0002
# 5 10.9138 10.1079 15.5561 -2.1076 31.1330 4.5953
# 6 8.0769 15.4978 -0.3527 0.0002 4.5953 30.2617
#
#
#
# Elastic Compliance Matrix: (Units=1/GPa)
#
#
# Indices 1 2 3 4 5 6 
#
# 1 0.018457 -0.003229 -0.004421 0.000464 -0.002753 -0.002906
# 2 -0.003229 0.015816 -0.003775 0.001872 -0.000936 -0.007140
# 3 -0.004421 -0.003775 0.009200 -0.001043 -0.002422 0.003588
# 4 0.000464 0.001872 -0.001043 0.045640 0.003071 -0.001561
# 5 -0.002753 -0.000936 -0.002422 0.003071 0.035426 -0.004194
# 6 -0.002906 -0.007140 0.003588 -0.001561 -0.004194 0.038156
#
#
# Mechanical properties :
#
#
# Convention : Reuss Voigt Hill
#
# Bulk Modulus (GPa) = 48.48784 63.46350 55.97567
# Shear Modulus (GPa) = 25.98524 29.50981 27.74752
#
# Velocity S-wave (km/s) = 3.64398 3.88326 3.76552
# Velocity P-wave (km/s) = 6.51785 7.24821 6.89271
#
# Compressibility (1/GPa) = 0.02062373
#
# Stress axis : x y z
#
# Youngs Moduli (GPa) = 54.18139 63.22859 108.69417
#
# Poissons Ratio (x) = 0.20416 0.48050
# Poissons Ratio (y) = 0.17494 0.41030
# Poissons Ratio (z) = 0.23952 0.23868
#
# Static dielectric constant tensor:
#      x y z
#    x 1.677830 -0.002160 0.008920 
#    y -0.002160 1.726570 -0.004810 
#    z 0.008920 -0.004810 1.705750 
# 
# From -- ./inp_files/216549.got.cif
#   From: 2010.05.17/outbox.cif.g08.bks.cpg/sg2_109_cif.got.tgz:216549.got - 2010.06.03 11:33:40.
