data_PCOD9100529
_publ_section_title
;
Structure prediction by ZEFSAII (Michael W. Deem and Ramdas Pophale) SiO2 
 PCOD9100529
Probable space group: P -1
;
_chemical_formula_sum "Si O2"
_cell_formula_units_Z 15
_cell_length_a 11.547138
_cell_length_b 7.902906
_cell_length_c 8.655443
_cell_angle_alpha 63.506420
_cell_angle_beta 123.521839
_cell_angle_gamma 101.997011
_cell_volume 588.550853
_symmetry_space_group_name_H-M "P -1"
_symmetry_group_IT_number 2
_symmetry_cell_setting 'triclinic'
loop_
_space_group_symop_operation_xyz
x,y,z
-x,-y,-z
loop_
_atom_site_type_symbol
_atom_site_label
_atom_site_fract_x
_atom_site_fract_y
_atom_site_fract_z
Si Si1 0.825049 0.170579 0.100598
Si Si2 0.098651 0.083259 0.183490
Si Si3 0.485198 0.684883 0.675626
Si Si4 0.019310 0.357417 0.745802
Si Si5 0.791204 0.358495 0.318765
Si Si6 0.644476 0.043140 0.758362
Si Si7 0.500000 0.500000 0.500000
Si Si8 0.808635 0.550274 0.730713
O O1 0.836683 0.369168 0.936407
O O2 0.707145 0.063067 0.964829
O O3 0.796011 0.214065 0.238802
O O4 0.972560 0.060425 0.219236
O O5 0.228679 0.949219 0.274473
O O6 0.177300 0.256234 0.248782
O O7 0.034726 0.176885 0.940683
O O8 0.354686 0.647791 0.700013
O O9 0.565544 0.854188 0.742557
O O10 0.558366 0.498085 0.735031
O O11 0.450893 0.768329 0.436711
O O12 0.170905 0.432311 0.795377
O O13 0.922625 0.318625 0.545227
O O14 0.930484 0.520609 0.706030
O O15 0.659837 0.547061 0.542628
#
# Coordination Sequence:
#
# PCOD9100529 Si02
#       8
#     2   2   2   2   2   2   1   2
#     4  11  21  38  63  91 125 156 198 249 300 352
#     4  11  20  39  65  93 115 163 203 242 293 368
#     4  11  24  41  64  88 119 162 203 250 296 360
#     4  10  20  37  64  93 122 148 200 259 304 341
#     4  11  21  37  63  90 126 152 195 261 306 339
#     4  11  24  41  61  86 123 164 207 237 295 370
#     4  12  20  40  68  86 114 154 214 246 286 352
#     4  11  19  38  66  94 112 161 208 244 286 365
#
# _framework density 25.486325999999998
#
# number of rings (size 3 to 8) (size 9 to 14) (size 15 to 20)
#    0.000    1.067    6.667    2.000    0.000    0.533 
#    0.000    5.333    2.933    0.000    0.000    0.000 
#    0.000    0.000    0.000    0.000    0.000    0.000 
#
# Total GULP energy -83754.042612 kJ/mol
# GULP energy per Si atom -5583.602841 kJ/mol
# Density = 2.542832 g / cm^3
# Si number density = 25.486326 Si / 1000 Ang^3
#
#
#
# Elastic Constant Matrix: (Units=GPa)
#
#
# Indices 1 2 3 4 5 6 
#
# 1 170.4454 44.7124 25.5177 20.4104 -4.6064 3.4216
# 2 44.7124 75.0469 34.0049 29.1668 -8.2268 -10.6213
# 3 25.5177 34.0049 72.9985 39.8722 -4.6837 -1.6169
# 4 20.4104 29.1668 39.8722 59.9512 -10.1676 4.8024
# 5 -4.6064 -8.2268 -4.6837 -10.1676 39.7365 14.8940
# 6 3.4216 -10.6213 -1.6169 4.8024 14.8940 48.0761
#
#
#
# Elastic Compliance Matrix: (Units=1/GPa)
#
#
# Indices 1 2 3 4 5 6 
#
# 1 0.007084 -0.004206 -0.000697 0.000330 0.000578 -0.001669
# 2 -0.004206 0.021192 -0.004995 -0.006049 -0.000302 0.005511
# 3 -0.000697 -0.004995 0.023570 -0.013585 -0.002516 0.001875
# 4 0.000330 -0.006049 -0.013585 0.030429 0.007683 -0.007237
# 5 0.000578 -0.000302 -0.002516 0.007683 0.030773 -0.010493
# 6 -0.001669 0.005511 0.001875 -0.007237 -0.010493 0.026173
#
#
# Mechanical properties :
#
#
# Convention : Reuss Voigt Hill
#
# Bulk Modulus (GPa) = 31.20138 58.55122 44.87630
# Shear Modulus (GPa) = 29.46369 43.83647 36.65008
#
# Velocity S-wave (km/s) = 3.40377 4.15179 3.79625
# Velocity P-wave (km/s) = 5.26465 6.78281 6.07137
#
# Compressibility (1/GPa) = 0.03204987
#
# Stress axis : x y z
#
# Youngs Moduli (GPa) = 141.15702 47.18799 42.42702
#
# Poissons Ratio (x) = 0.19847 0.02958
# Poissons Ratio (y) = 0.59369 0.21192
# Poissons Ratio (z) = 0.09842 0.23571
#
# Static dielectric constant tensor:
#      x y z
#    x -0.133980 4.089470 0.012640 
#    y 4.089470 -5.456360 0.054670 
#    z 0.012640 0.054670 2.135130 
# 
# From -- ./inp_files/180571.got.cif
#   From: 2010.05.17/outbox.cif.g08.bks.cpg/sg2_91_cif.got.tgz:180571.got - 2010.06.03 11:33:40.
