data_PCOD9100868
_publ_section_title
;
Structure prediction by ZEFSAII (Michael W. Deem and Ramdas Pophale) SiO2 
 PCOD9100868
Probable space group: P -1
;
_chemical_formula_sum "Si O2"
_cell_formula_units_Z 13
_cell_length_a 8.683574
_cell_length_b 9.985046
_cell_length_c 8.681603
_cell_angle_alpha 121.534248
_cell_angle_beta 106.976027
_cell_angle_gamma 58.452261
_cell_volume 546.588662
_symmetry_space_group_name_H-M "P -1"
_symmetry_group_IT_number 2
_symmetry_cell_setting 'triclinic'
loop_
_space_group_symop_operation_xyz
x,y,z
-x,-y,-z
loop_
_atom_site_type_symbol
_atom_site_label
_atom_site_fract_x
_atom_site_fract_y
_atom_site_fract_z
Si Si1 0.567199 0.180636 0.984114
Si Si2 0.015876 0.180686 0.432834
Si Si3 0.000000 0.000000 0.000000
Si Si4 0.242848 0.541315 0.052209
Si Si5 0.716277 0.174511 0.571327
Si Si6 0.428610 0.174423 0.283745
Si Si7 0.052150 0.458727 0.242885
O O1 0.526870 0.028440 0.806573
O O2 0.778239 0.113717 0.996817
O O3 0.432423 0.368570 0.987362
O O4 0.516846 0.187294 0.154779
O O5 0.003428 0.113635 0.221760
O O6 0.845007 0.187632 0.483109
O O7 0.012782 0.368528 0.567562
O O8 0.193192 0.028423 0.473342
O O9 0.270248 0.705946 0.216290
O O10 0.141161 0.500045 0.141231
O O11 0.108787 0.578895 0.891202
O O12 0.518601 0.234630 0.481394
O O13 0.216270 0.294100 0.270319
#
# Coordination Sequence:
#
# PCOD9100868 Si02
#       7
#     2   2   1   2   2   2   2
#     4  10  22  37  62  88 132 161 203 249 312 363
#     4  10  22  37  62  88 132 161 203 249 312 363
#     4  12  24  40  60  96 126 172 190 262 306 376
#     4   9  19  35  61  93 123 157 206 260 302 353
#     4  10  20  37  66  95 117 159 214 256 295 361
#     4  10  20  37  66  95 117 159 214 256 295 361
#     4   9  19  35  61  93 123 157 206 260 302 353
#
# _framework density 23.783881000000001
#
# number of rings (size 3 to 8) (size 9 to 14) (size 15 to 20)
#    0.000    2.154    1.538    0.923    4.308    5.538 
#    0.000    4.615    0.000    0.000    0.000    0.000 
#    0.000    0.000    0.000    0.000    0.000    0.000 
#
# Total GULP energy -72546.562407 kJ/mol
# GULP energy per Si atom -5580.504801 kJ/mol
# Density = 2.372975 g / cm^3
# Si number density = 23.783881 Si / 1000 Ang^3
#
#
#
# Elastic Constant Matrix: (Units=GPa)
#
#
# Indices 1 2 3 4 5 6 
#
# 1 91.6253 63.6575 67.3084 -10.4587 -4.5430 -31.3213
# 2 63.6575 143.4561 74.6102 18.6158 19.9720 -37.1430
# 3 67.3084 74.6102 205.1973 10.6605 24.9696 -28.3116
# 4 -10.4587 18.6158 10.6605 34.9376 -13.2137 6.0874
# 5 -4.5430 19.9720 24.9696 -13.2137 37.6825 -7.7484
# 6 -31.3213 -37.1430 -28.3116 6.0874 -7.7484 46.3880
#
#
#
# Elastic Compliance Matrix: (Units=1/GPa)
#
#
# Indices 1 2 3 4 5 6 
#
# 1 0.051017 -0.027377 -0.014906 0.052441 0.049932 0.004887
# 2 -0.027377 0.027428 0.006071 -0.038695 -0.034079 0.006567
# 3 -0.014906 0.006071 0.010829 -0.018077 -0.018384 0.000707
# 4 0.052441 -0.038695 -0.018077 0.098993 0.071964 -0.007578
# 5 0.049932 -0.034079 -0.018384 0.071964 0.088136 0.000485
# 6 0.004887 0.006567 0.000707 -0.007578 0.000485 0.031622
#
#
# Mechanical properties :
#
#
# Convention : Reuss Voigt Hill
#
# Bulk Modulus (GPa) = 59.35123 94.60344 76.97734
# Shear Modulus (GPa) = 12.95110 39.44845 26.19978
#
# Velocity S-wave (km/s) = 2.33605 4.07704 3.32260
# Velocity P-wave (km/s) = 5.68197 7.87563 6.86696
#
# Compressibility (1/GPa) = 0.01684885
#
# Stress axis : x y z
#
# Youngs Moduli (GPa) = 19.60130 36.45901 92.34122
#
# Poissons Ratio (x) = 0.99814 1.37647
# Poissons Ratio (y) = 0.53663 -0.56057
# Poissons Ratio (z) = 0.29218 -0.22133
#
# Static dielectric constant tensor:
#      x y z
#    x 1.920410 0.067020 -0.044370 
#    y 0.067020 1.872520 -0.002290 
#    z -0.044370 -0.002290 1.825030 
# 
# From -- ./inp_files/153127.got.cif
#   From: 2010.05.17/outbox.cif.g08.bks.cpg/sg2_77_cif.got.tgz:153127.got - 2010.06.03 11:33:40.
