data_PCOD9100030
_publ_section_title
;
Structure prediction by ZEFSAII (Michael W. Deem and Ramdas Pophale) SiO2 
 PCOD9100030
Probable space group: P -1
;
_chemical_formula_sum "Si O2"
_cell_formula_units_Z 14
_cell_length_a 11.667384
_cell_length_b 12.467725
_cell_length_c 18.190089
_cell_angle_alpha 26.947624
_cell_angle_beta 34.356042
_cell_angle_gamma 42.608455
_cell_volume 676.703291
_symmetry_space_group_name_H-M "P -1"
_symmetry_group_IT_number 2
_symmetry_cell_setting 'triclinic'
loop_
_space_group_symop_operation_xyz
x,y,z
-x,-y,-z
loop_
_atom_site_type_symbol
_atom_site_label
_atom_site_fract_x
_atom_site_fract_y
_atom_site_fract_z
Si Si1 0.005683 0.162814 0.256119
Si Si2 0.065688 0.577521 0.084575
Si Si3 0.962807 0.618299 0.619009
Si Si4 0.439651 0.852711 0.549946
Si Si5 0.348213 0.622071 0.314406
Si Si6 0.265098 0.126455 0.998875
Si Si7 0.513644 0.669251 0.818871
O O1 0.798043 0.202193 0.296887
O O2 0.012798 0.348830 0.203796
O O3 0.186653 0.181605 0.089870
O O4 0.999792 0.893841 0.451386
O O5 0.038981 0.528415 0.215290
O O6 0.304088 0.623100 0.916097
O O7 0.912617 0.783001 0.014982
O O8 0.739046 0.611950 0.704214
O O9 0.144126 0.557665 0.505412
O O10 0.564219 0.614013 0.622994
O O11 0.500000 0.000000 0.500000
O O12 0.482987 0.046766 0.343801
O O13 0.300906 0.844834 0.150185
O O14 0.525121 0.729926 0.208007
O O15 0.500000 0.500000 0.000000
#
# Coordination Sequence:
#
# PCOD9100030 Si02
#       7
#     2   2   2   2   2   2   2
#     4  10  20  37  62  91 119 158 211 251 293 358
#     4  11  19  36  67  91 118 162 210 245 297 364
#     4   9  21  40  60  88 125 159 198 253 312 358
#     4  11  22  39  64  88 119 166 206 247 301 365
#     4  10  22  41  59  88 134 156 197 255 309 362
#     4  10  21  37  62  93 125 155 201 257 303 351
#     4   9  21  40  60  87 120 158 208 245 296 362
#
# _framework density 20.688535000000002
#
# number of rings (size 3 to 8) (size 9 to 14) (size 15 to 20)
#    0.000    2.000    1.429    1.714    2.000    0.571 
#    0.000   15.714    0.000    0.000    0.000    0.000 
#    0.000    0.000    0.000    0.000    0.000    0.000 
#
# Total GULP energy -78134.493146 kJ/mol
# GULP energy per Si atom -5581.035225 kJ/mol
# Density = 2.064145 g / cm^3
# Si number density = 20.688535 Si / 1000 Ang^3
#
#
#
# Elastic Constant Matrix: (Units=GPa)
#
#
# Indices 1 2 3 4 5 6 
#
# 1 93.7374 39.9778 30.8604 2.7481 -8.3984 -36.9746
# 2 39.9778 146.1872 44.6826 -9.0006 -4.2671 -29.8499
# 3 30.8604 44.6826 95.0591 14.3998 -8.1407 -17.2235
# 4 2.7481 -9.0006 14.3998 35.1997 -16.8462 -4.2287
# 5 -8.3984 -4.2671 -8.1407 -16.8462 37.7321 -1.2859
# 6 -36.9746 -29.8499 -17.2235 -4.2287 -1.2859 29.8959
#
#
#
# Elastic Compliance Matrix: (Units=1/GPa)
#
#
# Indices 1 2 3 4 5 6 
#
# 1 0.023759 0.001518 -0.003310 0.008044 0.009378 0.030535
# 2 0.001518 0.010669 -0.004250 0.007888 0.004538 0.011392
# 3 -0.003310 -0.004250 0.014396 -0.007599 -0.001544 -0.001184
# 4 0.008044 0.007888 -0.007599 0.046116 0.022346 0.020931
# 5 0.009378 0.004538 -0.001544 0.022346 0.039431 0.020096
# 6 0.030535 0.011392 -0.001184 0.020931 0.020096 0.085732
#
#
# Mechanical properties :
#
#
# Convention : Reuss Voigt Hill
#
# Bulk Modulus (GPa) = 27.21752 62.89171 45.05461
# Shear Modulus (GPa) = 20.45547 35.19641 27.82594
#
# Velocity S-wave (km/s) = 3.14783 4.12910 3.67139
# Velocity P-wave (km/s) = 5.13772 7.29369 6.30849
#
# Compressibility (1/GPa) = 0.03674104
#
# Stress axis : x y z
#
# Youngs Moduli (GPa) = 42.08920 93.73197 69.46269
#
# Poissons Ratio (x) = -0.14229 0.22990
# Poissons Ratio (y) = -0.06389 0.29521
# Poissons Ratio (z) = 0.13930 0.39835
#
# Static dielectric constant tensor:
#      x y z
#    x 1.761260 -0.033940 0.019810 
#    y -0.033940 1.710900 0.000070 
#    z 0.019810 0.000070 1.793350 
# 
# From -- ./inp_files/153887.got.cif
#   From: 2010.05.17/outbox.cif.g08.bks.cpg/sg2_77_cif.got.tgz:153887.got - 2010.06.03 11:33:40.
