data_PCOD9100113
_publ_section_title
;
Structure prediction by ZEFSAII (Michael W. Deem and Ramdas Pophale) SiO2 
 PCOD9100113
Probable space group: P -1
;
_chemical_formula_sum "Si O2"
_cell_formula_units_Z 16
_cell_length_a 11.107995
_cell_length_b 12.631863
_cell_length_c 10.845929
_cell_angle_alpha 109.098483
_cell_angle_beta 60.088648
_cell_angle_gamma 59.662796
_cell_volume 720.832161
_symmetry_space_group_name_H-M "P -1"
_symmetry_group_IT_number 2
_symmetry_cell_setting 'triclinic'
loop_
_space_group_symop_operation_xyz
x,y,z
-x,-y,-z
loop_
_atom_site_type_symbol
_atom_site_label
_atom_site_fract_x
_atom_site_fract_y
_atom_site_fract_z
Si Si1 0.284969 0.656259 0.767819
Si Si2 0.385714 0.707917 0.402505
Si Si3 0.813411 0.855098 0.966062
Si Si4 0.665776 0.859712 0.528881
Si Si5 0.573822 0.321607 0.910970
Si Si6 0.141639 0.954855 0.111692
Si Si7 0.606335 0.777017 0.285312
Si Si8 0.145186 0.432341 0.167324
O O1 0.500000 0.500000 0.500000
O O2 0.413366 0.518515 0.769729
O O3 0.052710 0.739646 0.872223
O O4 0.214899 0.827373 0.910931
O O5 0.337142 0.762454 0.304808
O O6 0.514016 0.734656 0.395470
O O7 0.144004 0.846611 0.652013
O O8 0.840142 0.707859 0.851649
O O9 0.770454 0.976077 0.928539
O O10 0.584926 0.012301 0.233270
O O11 0.697334 0.803647 0.349294
O O12 0.890349 0.658902 0.407273
O O13 0.616225 0.024568 0.603607
O O14 0.763334 0.166921 0.860165
O O15 0.500000 0.500000 0.000000
O O16 0.349909 0.386553 0.083058
O O17 0.804550 0.613498 0.022807
#
# Coordination Sequence:
#
# PCOD9100113 Si02
#       8
#     2   2   2   2   2   2   2   2
#     4  12  25  42  69 104 140 175 223 278 349 404
#     4  11  23  42  71  99 134 179 224 285 338 398
#     4  11  25  41  66 103 136 176 225 275 341 415
#     4  10  20  37  62  94 136 173 216 274 344 399
#     4  11  25  48  70 100 133 183 237 282 333 399
#     4  12  26  44  69 100 140 182 229 276 339 405
#     4   9  20  34  60  98 126 171 220 273 339 403
#     4  10  23  42  65  92 134 178 225 282 333 394
#
# _framework density 22.196569
#
# number of rings (size 3 to 8) (size 9 to 14) (size 15 to 20)
#    0.000    1.250    2.500    2.625    5.250    5.500 
#    2.250    0.625    0.000    0.000    0.000    0.000 
#    0.000    0.000    0.000    0.000    0.000    0.000 
#
# Total GULP energy -89229.771088 kJ/mol
# GULP energy per Si atom -5576.860693 kJ/mol
# Density = 2.214605 g / cm^3
# Si number density = 22.196569 Si / 1000 Ang^3
#
#
#
# Elastic Constant Matrix: (Units=GPa)
#
#
# Indices 1 2 3 4 5 6 
#
# 1 50.3692 31.3372 23.4166 11.7450 0.0910 21.0192
# 2 31.3372 132.5501 27.1800 19.6432 -3.8908 22.1970
# 3 23.4166 27.1800 106.5268 26.1627 -13.3289 13.0703
# 4 11.7450 19.6432 26.1627 37.0624 1.5771 0.6341
# 5 0.0910 -3.8908 -13.3289 1.5771 19.1515 -3.3015
# 6 21.0192 22.1970 13.0703 0.6341 -3.3015 46.0471
#
#
#
# Elastic Compliance Matrix: (Units=1/GPa)
#
#
# Indices 1 2 3 4 5 6 
#
# 1 0.029564 -0.003924 -0.003764 -0.004231 -0.005078 -0.010841
# 2 -0.003924 0.009539 -0.000110 -0.003764 0.001742 -0.002599
# 3 -0.003764 -0.000110 0.013874 -0.008953 0.010162 -0.001315
# 4 -0.004231 -0.003764 -0.008953 0.036938 -0.009134 0.005123
# 5 -0.005078 0.001742 0.010162 -0.009134 0.060951 0.003089
# 6 -0.010841 -0.002599 -0.001315 0.005123 0.003089 0.028443
#
#
# Mechanical properties :
#
#
# Convention : Reuss Voigt Hill
#
# Bulk Modulus (GPa) = 26.75110 50.36821 38.55966
# Shear Modulus (GPa) = 24.11198 34.28635 29.19916
#
# Velocity S-wave (km/s) = 3.29947 3.93449 3.63089
# Velocity P-wave (km/s) = 5.15688 6.58646 5.91502
#
# Compressibility (1/GPa) = 0.03738164
#
# Stress axis : x y z
#
# Youngs Moduli (GPa) = 33.82452 104.83491 72.07491
#
# Poissons Ratio (x) = 0.41142 0.27127
# Poissons Ratio (y) = 0.13274 0.00792
# Poissons Ratio (z) = 0.12730 0.01152
#
# Static dielectric constant tensor:
#      x y z
#    x 1.862880 0.016380 -0.024310 
#    y 0.016380 1.921500 0.004710 
#    z -0.024310 0.004710 1.818440 
# 
# From -- ./inp_files/427207.got.cif
#   From: 2010.05.17/outbox.cif.g08.bks.cpg/sg2_214_cif.got.tgz:427207.got - 2010.06.03 11:33:40.
