data_PCOD9100689
_publ_section_title
;
Structure prediction by ZEFSAII (Michael W. Deem and Ramdas Pophale) SiO2 
 PCOD9100689
Probable space group: P -1
;
_chemical_formula_sum "Si O2"
_cell_formula_units_Z 16
_cell_length_a 8.019123
_cell_length_b 18.567428
_cell_length_c 8.899260
_cell_angle_alpha 64.980177
_cell_angle_beta 50.199174
_cell_angle_gamma 45.944595
_cell_volume 731.015036
_symmetry_space_group_name_H-M "P -1"
_symmetry_group_IT_number 2
_symmetry_cell_setting 'triclinic'
loop_
_space_group_symop_operation_xyz
x,y,z
-x,-y,-z
loop_
_atom_site_type_symbol
_atom_site_label
_atom_site_fract_x
_atom_site_fract_y
_atom_site_fract_z
Si Si1 0.487876 0.245018 0.196320
Si Si2 0.084455 0.764820 0.820137
Si Si3 0.483163 0.620424 0.461029
Si Si4 0.947483 0.428447 0.505622
Si Si5 0.074853 0.068744 0.461592
Si Si6 0.792061 0.221373 0.749026
Si Si7 0.594432 0.877135 0.451270
Si Si8 0.196628 0.289526 0.745638
O O1 0.722128 0.232754 0.175110
O O2 0.203028 0.348409 0.322362
O O3 0.463551 0.157635 0.330950
O O4 0.576534 0.240115 0.979233
O O5 0.274583 0.675914 0.670642
O O6 0.920566 0.866563 0.728577
O O7 0.905019 0.742461 0.034142
O O8 0.310516 0.673972 0.362060
O O9 0.674441 0.656975 0.321726
O O10 0.684404 0.503473 0.488125
O O11 0.957899 0.364724 0.695951
O O12 0.000000 0.500000 0.500000
O O13 0.853798 0.147078 0.642670
O O14 0.367396 0.992043 0.441209
O O15 0.000000 0.000000 0.500000
O O16 0.093380 0.163778 0.697375
O O17 0.586182 0.808865 0.390919
#
# Coordination Sequence:
#
# PCOD9100689 Si02
#       8
#     2   2   2   2   2   2   2   2
#     4  11  21  40  62  90 128 162 201 257 312 353
#     4  11  20  38  65  89 121 164 203 254 306 364
#     4  10  21  42  59  94 128 160 210 254 298 365
#     4   9  18  38  66  91 124 163 204 258 297 362
#     4  11  23  43  65  91 122 162 208 257 303 367
#     4  11  25  39  63  90 127 162 199 257 314 363
#     4  11  21  41  62  89 127 161 202 255 313 360
#     4  10  20  37  65  91 119 167 204 254 304 361
#
# _framework density 21.887377000000001
#
# number of rings (size 3 to 8) (size 9 to 14) (size 15 to 20)
#    0.000    1.500    6.250    1.125    0.000    4.000 
#    0.000    2.500    0.000    0.000    0.000    0.000 
#    0.000    0.000    0.000    0.000    0.000    0.000 
#
# Total GULP energy -89428.882956 kJ/mol
# GULP energy per Si atom -5589.305185 kJ/mol
# Density = 2.183756 g / cm^3
# Si number density = 21.887377 Si / 1000 Ang^3
#
#
#
# Elastic Constant Matrix: (Units=GPa)
#
#
# Indices 1 2 3 4 5 6 
#
# 1 65.3377 31.7501 13.2664 -0.4612 10.2434 -15.5617
# 2 31.7501 184.9098 71.3001 -21.0846 12.6067 -28.3173
# 3 13.2664 71.3001 185.3024 -22.0127 10.5348 -0.1344
# 4 -0.4612 -21.0846 -22.0127 16.2226 -2.4689 1.4000
# 5 10.2434 12.6067 10.5348 -2.4689 24.1810 -6.7155
# 6 -15.5617 -28.3173 -0.1344 1.4000 -6.7155 38.4624
#
#
#
# Elastic Compliance Matrix: (Units=1/GPa)
#
#
# Indices 1 2 3 4 5 6 
#
# 1 0.018590 -0.002321 -0.000679 -0.004674 -0.005449 0.005029
# 2 -0.002321 0.008199 -0.002103 0.007278 -0.000307 0.004771
# 3 -0.000679 -0.002103 0.007171 0.006924 -0.001684 -0.002344
# 4 -0.004674 0.007278 0.006924 0.080831 0.003757 0.001205
# 5 -0.005449 -0.000307 -0.001684 0.003757 0.046479 0.005542
# 6 0.005029 0.004771 -0.002344 0.001205 0.005542 0.032462
#
#
# Mechanical properties :
#
#
# Convention : Reuss Voigt Hill
#
# Bulk Modulus (GPa) = 42.10117 74.24258 58.17188
# Shear Modulus (GPa) = 23.60063 37.05544 30.32804
#
# Velocity S-wave (km/s) = 3.28727 4.11908 3.72646
# Velocity P-wave (km/s) = 5.80391 7.52438 6.71944
#
# Compressibility (1/GPa) = 0.02375231
#
# Stress axis : x y z
#
# Youngs Moduli (GPa) = 53.79199 121.96453 139.45072
#
# Poissons Ratio (x) = 0.28312 0.09476
# Poissons Ratio (y) = 0.12487 0.29328
# Poissons Ratio (z) = 0.03655 0.25651
#
# Static dielectric constant tensor:
#      x y z
#    x 1.923470 -0.011230 0.006630 
#    y -0.011230 1.806750 -0.017570 
#    z 0.006630 -0.017570 1.744840 
# 
# From -- ./inp_files/214618.got.cif
#   From: 2010.05.17/outbox.cif.g08.bks.cpg/sg2_108_cif.got.tgz:214618.got - 2010.06.03 11:33:40.
