data_PCOD9100853
_publ_section_title
;
Structure prediction by ZEFSAII (Michael W. Deem and Ramdas Pophale) SiO2 
 PCOD9100853
Probable space group: P -1
;
_chemical_formula_sum "Si O2"
_cell_formula_units_Z 14
_cell_length_a 11.800233
_cell_length_b 20.552671
_cell_length_c 18.161925
_cell_angle_alpha 28.236810
_cell_angle_beta 152.217527
_cell_angle_gamma 158.254291
_cell_volume 714.507685
_symmetry_space_group_name_H-M "P -1"
_symmetry_group_IT_number 2
_symmetry_cell_setting 'triclinic'
loop_
_space_group_symop_operation_xyz
x,y,z
-x,-y,-z
loop_
_atom_site_type_symbol
_atom_site_label
_atom_site_fract_x
_atom_site_fract_y
_atom_site_fract_z
Si Si1 0.998453 0.445414 0.894102
Si Si2 0.072265 0.120268 0.493504
Si Si3 0.677040 0.489161 0.543239
Si Si4 0.598745 0.864966 0.043986
Si Si5 0.174169 0.907919 0.356848
Si Si6 0.526860 0.142924 0.183960
Si Si7 0.226894 0.921484 0.859260
O O1 0.866252 0.440147 0.743862
O O2 0.694718 0.340737 0.883392
O O3 0.293289 0.657698 0.873947
O O4 0.052658 0.302467 0.069618
O O5 0.422153 0.330780 0.495508
O O6 0.807035 0.138055 0.331936
O O7 0.080919 0.014469 0.671238
O O8 0.000000 0.000000 0.500000
O O9 0.500000 0.500000 0.500000
O O10 0.929808 0.688244 0.450999
O O11 0.939022 0.951562 0.192457
O O12 0.626643 0.864535 0.973228
O O13 0.452140 0.960160 0.880639
O O14 0.500000 0.000000 0.500000
O O15 0.291984 0.978660 0.270991
O O16 0.500000 0.000000 0.000000
#
# Coordination Sequence:
#
# PCOD9100853 Si02
#       7
#     2   2   2   2   2   2   2
#     4  10  20  37  66  93 118 164 221 257 308 374
#     4  12  22  40  67  98 126 165 213 266 323 383
#     4  12  20  40  66  95 123 166 223 266 301 383
#     4  10  22  39  59  92 127 163 207 265 317 367
#     4  12  24  38  64  96 127 169 217 268 313 376
#     4  12  23  39  65  96 129 163 213 265 327 375
#     4  10  21  35  64  91 123 158 212 260 318 364
#
# _framework density 19.593912
#
# number of rings (size 3 to 8) (size 9 to 14) (size 15 to 20)
#    0.857    0.000    7.143    0.857    2.000    1.143 
#    0.000    0.714    3.143    2.571    0.000    0.000 
#    0.000    0.000    0.000    0.000    0.000    0.000 
#
# Total GULP energy -77957.375656 kJ/mol
# GULP energy per Si atom -5568.383975 kJ/mol
# Density = 1.954932 g / cm^3
# Si number density = 19.593912 Si / 1000 Ang^3
#
#
#
# Elastic Constant Matrix: (Units=GPa)
#
#
# Indices 1 2 3 4 5 6 
#
# 1 39.4122 43.9883 1.9832 -2.8319 -31.4853 -1.1698
# 2 43.9883 122.9450 45.1261 -13.0457 -13.5041 -4.2769
# 3 1.9832 45.1261 111.1239 4.2262 -8.8084 3.0634
# 4 -2.8319 -13.0457 4.2262 35.4687 0.0329 -6.6569
# 5 -31.4853 -13.5041 -8.8084 0.0329 36.2686 -8.6379
# 6 -1.1698 -4.2769 3.0634 -6.6569 -8.6379 27.6166
#
#
#
# Elastic Compliance Matrix: (Units=1/GPa)
#
#
# Indices 1 2 3 4 5 6 
#
# 1 -0.773673 0.249482 -0.134890 0.012728 -0.654587 -0.180844
# 2 0.249482 -0.069472 0.039027 0.001365 0.215223 0.063125
# 3 -0.134890 0.039027 -0.012469 -0.001235 -0.113730 -0.034156
# 4 0.012728 0.001365 -0.001235 0.032318 0.014365 0.013171
# 5 -0.654587 0.215223 -0.113730 0.014365 -0.521896 -0.141555
# 6 -0.180844 0.063125 -0.034156 0.013171 -0.141555 0.001014
#
#
# Mechanical properties :
#
#
# Convention : Reuss Voigt Hill
#
# Bulk Modulus (GPa) = -1.82357 50.63070 24.40356
# Shear Modulus (GPa) = -2.72597 32.02967 14.65185
#
# Velocity S-wave (km/s) = -1.18079 4.04750 2.73752
# Velocity P-wave (km/s) = 1.67084 6.90935 4.74064
#
# Compressibility (1/GPa) = -0.54837412
#
# Stress axis : x y z
#
# Youngs Moduli (GPa) = -1.29254 -14.39421 -80.20084
#
# Poissons Ratio (x) = 3.59110 -10.81827
# Poissons Ratio (y) = 0.32246 3.13003
# Poissons Ratio (z) = -0.17435 0.56177
#
# Static dielectric constant tensor:
#      x y z
#    x 1.764310 -0.044370 -0.007510 
#    y -0.044370 1.704560 0.020450 
#    z -0.007510 0.020450 1.730670 
# 
# From -- ./inp_files/327498.got.cif
#   From: 2010.05.17/outbox.cif.g08.bks.cpg/sg2_164_cif.got.tgz:327498.got - 2010.06.03 11:33:40.
