data_PCOD9100966
_publ_section_title
;
Structure prediction by ZEFSAII (Michael W. Deem and Ramdas Pophale) SiO2 
 PCOD9100966
Probable space group: P -1
;
_chemical_formula_sum "Si O2"
_cell_formula_units_Z 12
_cell_length_a 10.656276
_cell_length_b 7.942892
_cell_length_c 7.482880
_cell_angle_alpha 121.020809
_cell_angle_beta 105.716790
_cell_angle_gamma 71.543881
_cell_volume 510.321062
_symmetry_space_group_name_H-M "P -1"
_symmetry_group_IT_number 2
_symmetry_cell_setting 'triclinic'
loop_
_space_group_symop_operation_xyz
x,y,z
-x,-y,-z
loop_
_atom_site_type_symbol
_atom_site_label
_atom_site_fract_x
_atom_site_fract_y
_atom_site_fract_z
Si Si1 0.919310 0.197968 0.181465
Si Si2 0.365304 0.289790 0.198246
Si Si3 0.362736 0.850757 0.883880
Si Si4 0.145959 0.467484 0.955976
Si Si5 0.107190 0.111710 0.511871
Si Si6 0.635440 0.997809 0.656176
O O1 0.787747 0.165214 0.214620
O O2 0.863925 0.362898 0.103288
O O3 0.023682 0.240782 0.390062
O O4 0.000000 0.000000 0.000000
O O5 0.519897 0.302511 0.254159
O O6 0.328529 0.217169 0.339545
O O7 0.256990 0.454436 0.145755
O O8 0.369211 0.081849 0.973602
O O9 0.386100 0.841581 0.102680
O O10 0.160821 0.257665 0.744985
O O11 0.000000 0.500000 0.000000
O O12 0.239562 0.977137 0.400548
O O13 0.000000 0.000000 0.500000
O O14 0.500000 0.000000 0.500000
#
# Coordination Sequence:
#
# PCOD9100966 Si02
#       6
#     2   2   2   2   2   2
#     4  12  23  43  65  95 131 175 219 274 329 385
#     4   9  20  39  64  95 125 172 214 264 329 382
#     4   9  19  38  67  90 131 169 216 258 332 391
#     4  12  25  41  65  93 135 171 221 275 323 385
#     4  12  25  39  68  99 131 171 224 263 331 389
#     4  10  20  37  67  96 130 169 219 262 324 395
#
# _framework density 23.514606000000001
#
# number of rings (size 3 to 8) (size 9 to 14) (size 15 to 20)
#    1.000    0.333    1.667    5.500    2.333    0.667 
#    0.000    0.000    0.000    3.000    0.000    0.000 
#    0.000    0.000    0.000    0.000    0.000    0.000 
#
# Total GULP energy -66993.561494 kJ/mol
# GULP energy per Si atom -5582.796791 kJ/mol
# Density = 2.346109 g / cm^3
# Si number density = 23.514606 Si / 1000 Ang^3
#
#
#
# Elastic Constant Matrix: (Units=GPa)
#
#
# Indices 1 2 3 4 5 6 
#
# 1 174.9235 32.3966 11.0132 -13.6075 -0.1337 -13.8837
# 2 32.3966 110.6513 19.4107 -34.4007 5.9950 -1.0057
# 3 11.0132 19.4107 65.9815 -25.2643 7.2460 -10.5340
# 4 -13.6075 -34.4007 -25.2643 37.4067 -12.5348 10.3826
# 5 -0.1337 5.9950 7.2460 -12.5348 35.3490 -11.3061
# 6 -13.8837 -1.0057 -10.5340 10.3826 -11.3061 29.6808
#
#
#
# Elastic Compliance Matrix: (Units=1/GPa)
#
#
# Indices 1 2 3 4 5 6 
#
# 1 0.006346 -0.001867 -0.000100 0.000074 0.001477 0.003406
# 2 -0.001867 0.013743 0.000832 0.014161 0.001017 -0.004678
# 3 -0.000100 0.000832 0.020763 0.014505 0.001679 0.002916
# 4 0.000074 0.014161 0.014505 0.056077 0.011441 -0.009596
# 5 0.001477 0.001017 0.001679 0.011441 0.035276 0.010756
# 6 0.003406 -0.004678 0.002916 -0.009596 0.010756 0.043615
#
#
# Mechanical properties :
#
#
# Convention : Reuss Voigt Hill
#
# Bulk Modulus (GPa) = 25.91865 53.02194 39.47029
# Shear Modulus (GPa) = 26.18498 39.73635 32.96066
#
# Velocity S-wave (km/s) = 3.34063 4.11525 3.74800
# Velocity P-wave (km/s) = 5.09176 6.72144 5.96254
#
# Compressibility (1/GPa) = 0.03858226
#
# Stress axis : x y z
#
# Youngs Moduli (GPa) = 157.57925 72.76554 48.16298
#
# Poissons Ratio (x) = 0.13582 0.00483
# Poissons Ratio (y) = 0.29414 -0.04008
# Poissons Ratio (z) = 0.01581 -0.06056
#
# Static dielectric constant tensor:
#      x y z
#    x 2.042460 0.000710 -0.081600 
#    y 0.000710 1.889910 -0.006690 
#    z -0.081600 -0.006690 1.942610 
# 
# From -- ./inp_files/236044.got.cif
#   From: 2010.05.17/outbox.cif.g08.bks.cpg/sg2_119_cif.got.tgz:236044.got - 2010.06.03 11:33:40.
