data_PCOD9100556
_publ_section_title
;
Structure prediction by ZEFSAII (Michael W. Deem and Ramdas Pophale) SiO2 
 PCOD9100556
Probable space group: P -1
;
_chemical_formula_sum "Si O2"
_cell_formula_units_Z 16
_cell_length_a 9.321629
_cell_length_b 11.713721
_cell_length_c 14.611140
_cell_angle_alpha 107.491967
_cell_angle_beta 26.615277
_cell_angle_gamma 102.550354
_cell_volume 676.732055
_symmetry_space_group_name_H-M "P -1"
_symmetry_group_IT_number 2
_symmetry_cell_setting 'triclinic'
loop_
_space_group_symop_operation_xyz
x,y,z
-x,-y,-z
loop_
_atom_site_type_symbol
_atom_site_label
_atom_site_fract_x
_atom_site_fract_y
_atom_site_fract_z
Si Si1 0.172034 0.116577 0.955252
Si Si2 0.475115 0.545103 0.269896
Si Si3 0.165764 0.441943 0.657250
Si Si4 0.070627 0.311501 0.857673
Si Si5 0.320528 0.117323 0.079876
Si Si6 0.374504 0.697103 0.755173
Si Si7 0.195111 0.390184 0.240991
Si Si8 0.420973 0.886475 0.460856
O O1 0.435071 0.120843 0.725737
O O2 0.329520 0.101414 0.961272
O O3 0.890065 0.231996 0.144452
O O4 0.000000 0.000000 0.000000
O O5 0.764477 0.625400 0.135042
O O6 0.582209 0.435629 0.252800
O O7 0.370227 0.484545 0.222964
O O8 0.144083 0.617038 0.513978
O O9 0.500000 0.500000 0.500000
O O10 0.015240 0.401775 0.827232
O O11 0.284895 0.324151 0.497488
O O12 0.921749 0.541391 0.769089
O O13 0.369811 0.221179 0.631594
O O14 0.783256 0.241985 0.045260
O O15 0.387447 0.257019 0.091143
O O16 0.953231 0.119289 0.322290
O O17 0.500000 0.000000 0.000000
O O18 0.500000 0.000000 0.500000
#
# Coordination Sequence:
#
# PCOD9100556 Si02
#       8
#     2   2   2   2   2   2   2   2
#     4  11  24  41  70  99 126 177 229 273 329 395
#     4  10  20  37  64  94 129 169 207 267 329 385
#     4  11  19  36  63  91 122 164 212 258 323 379
#     4  11  21  38  67  95 124 167 215 265 326 381
#     4  12  26  45  69  94 140 183 218 276 338 392
#     4  10  22  36  65  93 127 158 219 265 322 388
#     4  10  22  40  62  95 134 170 215 264 333 387
#     4  11  23  44  70  98 135 170 231 279 324 396
#
# _framework density 23.643035999999999
#
# number of rings (size 3 to 8) (size 9 to 14) (size 15 to 20)
#    0.000    1.250    5.000    1.875    1.750    0.500 
#    0.000    0.625    5.500    1.500    0.000    0.000 
#    0.000    0.000    0.000    0.000    0.000    0.000 
#
# Total GULP energy -89116.454943 kJ/mol
# GULP energy per Si atom -5569.778434 kJ/mol
# Density = 2.358922 g / cm^3
# Si number density = 23.643036 Si / 1000 Ang^3
#
#
#
# Elastic Constant Matrix: (Units=GPa)
#
#
# Indices 1 2 3 4 5 6 
#
# 1 147.2162 67.5811 24.2877 15.9842 13.0124 -22.1425
# 2 67.5811 89.6115 20.5197 30.0541 1.3719 -12.3280
# 3 24.2877 20.5197 103.2892 10.3627 4.2720 -8.6430
# 4 15.9842 30.0541 10.3627 50.8982 -16.1577 -0.6010
# 5 13.0124 1.3719 4.2720 -16.1577 29.6849 3.0566
# 6 -22.1425 -12.3280 -8.6430 -0.6010 3.0566 40.2520
#
#
#
# Elastic Compliance Matrix: (Units=1/GPa)
#
#
# Indices 1 2 3 4 5 6 
#
# 1 0.011651 -0.007768 -0.000544 -0.000646 -0.005466 0.004319
# 2 -0.007768 0.021316 -0.000960 -0.011103 -0.003709 0.002165
# 3 -0.000544 -0.000960 0.010482 -0.002205 -0.002613 0.001823
# 4 -0.000646 -0.011103 -0.002205 0.033024 0.019627 -0.005227
# 5 -0.005466 -0.003709 -0.002613 0.019627 0.048144 -0.008067
# 6 0.004319 0.002165 0.001823 -0.005227 -0.008067 0.028808
#
#
# Mechanical properties :
#
#
# Convention : Reuss Voigt Hill
#
# Bulk Modulus (GPa) = 40.15172 62.76600 51.45886
# Shear Modulus (GPa) = 27.73606 39.34890 33.54248
#
# Velocity S-wave (km/s) = 3.42880 4.08400 3.77066
# Velocity P-wave (km/s) = 5.71794 6.98883 6.38508
#
# Compressibility (1/GPa) = 0.02490553
#
# Stress axis : x y z
#
# Youngs Moduli (GPa) = 85.82733 46.91380 95.40187
#
# Poissons Ratio (x) = 0.36442 0.05193
# Poissons Ratio (y) = 0.66670 0.09154
# Poissons Ratio (z) = 0.04671 0.04502
#
# Static dielectric constant tensor:
#      x y z
#    x 2.010680 -0.029440 0.051530 
#    y -0.029440 2.004840 0.070610 
#    z 0.051530 0.070610 2.142550 
# 
# From -- ./inp_files/500498.got.cif
#   From: 2010.05.17/outbox.cif.g08.bks.cpg/sg2_251_cif.got.tgz:500498.got - 2010.06.03 11:33:40.
