data_PCOD9100593
_publ_section_title
;
Structure prediction by ZEFSAII (Michael W. Deem and Ramdas Pophale) SiO2 
 PCOD9100593
Probable space group: P -1
;
_chemical_formula_sum "Si O2"
_cell_formula_units_Z 12
_cell_length_a 10.880373
_cell_length_b 10.931214
_cell_length_c 7.349428
_cell_angle_alpha 94.226673
_cell_angle_beta 58.447998
_cell_angle_gamma 51.832827
_cell_volume 471.708986
_symmetry_space_group_name_H-M "P -1"
_symmetry_group_IT_number 2
_symmetry_cell_setting 'triclinic'
loop_
_space_group_symop_operation_xyz
x,y,z
-x,-y,-z
loop_
_atom_site_type_symbol
_atom_site_label
_atom_site_fract_x
_atom_site_fract_y
_atom_site_fract_z
Si Si1 0.131581 0.933608 0.181835
Si Si2 0.309565 0.894297 0.650287
Si Si3 0.827729 0.318074 0.651876
Si Si4 0.684163 0.484308 0.385542
Si Si5 0.825368 0.759803 0.145198
Si Si6 0.918934 0.512392 0.763870
O O1 0.892488 0.030802 0.305861
O O2 0.739378 0.256005 0.822830
O O3 0.061424 0.099933 0.370213
O O4 0.260335 0.887096 0.896109
O O5 0.553106 0.677403 0.402838
O O6 0.324480 0.029472 0.648168
O O7 0.719677 0.447705 0.570013
O O8 0.223858 0.285731 0.004759
O O9 0.836439 0.427376 0.791200
O O10 0.500000 0.500000 0.500000
O O11 0.939305 0.318839 0.094083
O O12 0.880301 0.636724 0.260377
O O13 0.000000 0.500000 0.500000
#
# Coordination Sequence:
#
# PCOD9100593 Si02
#       6
#     2   2   2   2   2   2
#     4  10  20  37  64  96 129 173 211 266 326 386
#     4  11  20  40  65  93 132 166 212 267 330 383
#     4  11  21  38  65  95 130 170 220 262 322 383
#     4  12  23  39  65 101 135 164 211 273 331 385
#     4  11  24  44  68  95 128 178 217 262 328 381
#     4  11  22  43  72  86 128 184 220 260 316 392
#
# _framework density 25.439413999999999
#
# number of rings (size 3 to 8) (size 9 to 14) (size 15 to 20)
#    0.000    1.000    6.667    1.000    0.000    0.667 
#    0.000    4.167    0.000    0.000    0.000    0.000 
#    0.000    0.000    0.000    0.000    0.000    0.000 
#
# Total GULP energy -67010.963016 kJ/mol
# GULP energy per Si atom -5584.246918 kJ/mol
# Density = 2.538151 g / cm^3
# Si number density = 25.439414 Si / 1000 Ang^3
#
#
#
# Elastic Constant Matrix: (Units=GPa)
#
#
# Indices 1 2 3 4 5 6 
#
# 1 107.8293 7.3063 15.6624 5.6949 14.2678 21.2415
# 2 7.3063 119.1900 14.8305 6.5243 12.8815 5.3622
# 3 15.6624 14.8305 60.9094 -18.3797 18.0298 1.0209
# 4 5.6949 6.5243 -18.3797 56.4496 3.2561 22.7331
# 5 14.2678 12.8815 18.0298 3.2561 50.5117 -4.1656
# 6 21.2415 5.3622 1.0209 22.7331 -4.1656 41.2871
#
#
#
# Elastic Compliance Matrix: (Units=1/GPa)
#
#
# Indices 1 2 3 4 5 6 
#
# 1 0.011180 0.000080 -0.001390 0.001342 -0.003330 -0.006803
# 2 0.000080 0.008918 -0.002199 -0.001478 -0.001456 -0.000478
# 3 -0.001390 -0.002199 0.023341 0.011144 -0.008639 -0.006584
# 4 0.001342 -0.001478 0.011144 0.028789 -0.007267 -0.017359
# 5 -0.003330 -0.001456 -0.008639 -0.007267 0.025377 0.008678
# 6 -0.006803 -0.000478 -0.006584 -0.017359 0.008678 0.038379
#
#
# Mechanical properties :
#
#
# Convention : Reuss Voigt Hill
#
# Bulk Modulus (GPa) = 27.45576 40.39189 33.92382
# Shear Modulus (GPa) = 32.22835 46.32498 39.27667
#
# Velocity S-wave (km/s) = 3.56317 4.27194 3.93355
# Velocity P-wave (km/s) = 5.26728 6.34388 5.83048
#
# Compressibility (1/GPa) = 0.03642223
#
# Stress axis : x y z
#
# Youngs Moduli (GPa) = 89.44361 112.12654 42.84285
#
# Poissons Ratio (x) = -0.00898 0.05954
# Poissons Ratio (y) = -0.00716 0.09422
# Poissons Ratio (z) = 0.12430 0.24658
#
# Static dielectric constant tensor:
#      x y z
#    x 2.093640 0.103510 -0.020570 
#    y 0.103510 2.104120 0.026610 
#    z -0.020570 0.026610 2.067720 
# 
# From -- ./inp_files/219539.got.cif
#   From: 2010.05.17/outbox.cif.g08.bks.cpg/sg2_110_cif.got.tgz:219539.got - 2010.06.03 11:33:40.
