data_PCOD9100647
_publ_section_title
;
Structure prediction by ZEFSAII (Michael W. Deem and Ramdas Pophale) SiO2 
 PCOD9100647
Probable space group: P -1
;
_chemical_formula_sum "Si O2"
_cell_formula_units_Z 16
_cell_length_a 15.703141
_cell_length_b 17.504975
_cell_length_c 7.663406
_cell_angle_alpha 48.991646
_cell_angle_beta 36.778454
_cell_angle_gamma 33.925371
_cell_volume 703.685732
_symmetry_space_group_name_H-M "P -1"
_symmetry_group_IT_number 2
_symmetry_cell_setting 'triclinic'
loop_
_space_group_symop_operation_xyz
x,y,z
-x,-y,-z
loop_
_atom_site_type_symbol
_atom_site_label
_atom_site_fract_x
_atom_site_fract_y
_atom_site_fract_z
Si Si1 0.525890 0.485324 0.689243
Si Si2 0.089639 0.784554 0.646177
Si Si3 0.703371 0.109755 0.218545
Si Si4 0.100343 0.951018 0.638906
Si Si5 0.351812 0.377074 0.201424
Si Si6 0.575635 0.869814 0.172324
Si Si7 0.645610 0.636412 0.198209
Si Si8 0.058384 0.357147 0.877212
O O1 0.500000 0.500000 0.500000
O O2 0.738362 0.333743 0.587224
O O3 0.544293 0.594306 0.534752
O O4 0.358360 0.496791 0.028919
O O5 0.175744 0.827112 0.573716
O O6 0.927513 0.926680 0.593687
O O7 0.022920 0.711963 0.959817
O O8 0.535756 0.257944 0.191012
O O9 0.581514 0.066896 0.511727
O O10 0.794118 0.093137 0.283119
O O11 0.881858 0.020607 0.931259
O O12 0.176625 0.386861 0.530887
O O13 0.384598 0.346478 0.986594
O O14 0.577289 0.772858 0.187024
O O15 0.788359 0.761673 0.061251
O O16 0.500000 0.000000 0.000000
O O17 0.873240 0.502594 0.041322
#
# Coordination Sequence:
#
# PCOD9100647 Si02
#       8
#     2   2   2   2   2   2   2   2
#     4   9  19  36  62  89 115 156 210 258 291 363
#     4  10  20  37  65  87 118 168 211 243 313 372
#     4  10  22  37  57  92 130 159 204 264 302 366
#     4  10  21  37  62  88 129 165 206 254 314 370
#     4  10  20  39  65  93 127 156 211 262 306 362
#     4  11  24  41  63  92 130 164 207 254 314 372
#     4  10  22  40  69  87 126 168 213 245 312 379
#     4  10  22  41  63  95 128 160 205 262 313 371
#
# _framework density 22.737421000000001
#
# number of rings (size 3 to 8) (size 9 to 14) (size 15 to 20)
#    0.000    2.000    1.250    1.500    3.500    2.000 
#    0.000    5.000    5.500    0.000    0.000    0.000 
#    0.000    0.000    0.000    0.000    0.000    0.000 
#
# Total GULP energy -89162.039222 kJ/mol
# GULP energy per Si atom -5572.627451 kJ/mol
# Density = 2.268567 g / cm^3
# Si number density = 22.737421 Si / 1000 Ang^3
#
#
#
# Elastic Constant Matrix: (Units=GPa)
#
#
# Indices 1 2 3 4 5 6 
#
# 1 50.4869 28.0890 6.9189 -5.8032 -5.6071 -10.5568
# 2 28.0890 122.4563 65.8847 -13.5414 -17.0631 1.3257
# 3 6.9189 65.8847 139.4025 -26.3204 -20.7696 -5.3358
# 4 -5.8032 -13.5414 -26.3204 41.8793 4.1563 -7.6328
# 5 -5.6071 -17.0631 -20.7696 4.1563 21.7419 -7.9362
# 6 -10.5568 1.3257 -5.3358 -7.6328 -7.9362 40.0000
#
#
#
# Elastic Compliance Matrix: (Units=1/GPa)
#
#
# Indices 1 2 3 4 5 6 
#
# 1 0.026930 -0.007003 0.004754 0.005542 0.008870 0.010791
# 2 -0.007003 0.013124 -0.005877 -0.001149 0.002048 -0.002880
# 3 0.004754 -0.005877 0.012734 0.006959 0.009790 0.006418
# 4 0.005542 -0.001149 0.006959 0.029827 0.004785 0.009070
# 5 0.008870 0.002048 0.009790 0.004785 0.064648 0.017319
# 6 0.010791 -0.002880 0.006418 0.009070 0.017319 0.033966
#
#
# Mechanical properties :
#
#
# Convention : Reuss Voigt Hill
#
# Bulk Modulus (GPa) = 27.37061 57.12567 42.24814
# Shear Modulus (GPa) = 23.84810 34.82112 29.33461
#
# Velocity S-wave (km/s) = 3.24211 3.91761 3.59576
# Velocity P-wave (km/s) = 5.10674 6.75590 5.98837
#
# Compressibility (1/GPa) = 0.03653554
#
# Stress axis : x y z
#
# Youngs Moduli (GPa) = 37.13270 76.19532 78.53281
#
# Poissons Ratio (x) = 0.53361 -0.37336
# Poissons Ratio (y) = 0.26005 0.46156
# Poissons Ratio (z) = -0.17654 0.44782
#
# Static dielectric constant tensor:
#      x y z
#    x 1.922600 -0.040470 -0.027620 
#    y -0.040470 1.886960 -0.032010 
#    z -0.027620 -0.032010 1.979370 
# 
# From -- ./inp_files/327649.got.cif
#   From: 2010.05.17/outbox.cif.g08.bks.cpg/sg2_164_cif.got.tgz:327649.got - 2010.06.03 11:33:40.
