data_PCOD9100911
_publ_section_title
;
Structure prediction by ZEFSAII (Michael W. Deem and Ramdas Pophale) SiO2 
 PCOD9100911
Probable space group: P -1
;
_chemical_formula_sum "Si O2"
_cell_formula_units_Z 16
_cell_length_a 7.570335
_cell_length_b 16.036787
_cell_length_c 9.293764
_cell_angle_alpha 65.192335
_cell_angle_beta 65.462023
_cell_angle_gamma 37.655686
_cell_volume 618.618514
_symmetry_space_group_name_H-M "P -1"
_symmetry_group_IT_number 2
_symmetry_cell_setting 'triclinic'
loop_
_space_group_symop_operation_xyz
x,y,z
-x,-y,-z
loop_
_atom_site_type_symbol
_atom_site_label
_atom_site_fract_x
_atom_site_fract_y
_atom_site_fract_z
Si Si1 0.087108 0.794725 0.778702
Si Si2 0.223930 0.084825 0.630867
Si Si3 0.534891 0.650916 0.155559
Si Si4 0.296597 0.818520 0.401642
Si Si5 0.971591 0.637376 0.920739
Si Si6 0.858750 0.685075 0.461400
Si Si7 0.246718 0.466152 0.243422
Si Si8 0.946980 0.913348 0.037997
O O1 0.167533 0.822162 0.589861
O O2 0.411177 0.645176 0.822358
O O3 0.915857 0.762681 0.828901
O O4 0.928352 0.905141 0.880612
O O5 0.073895 0.238278 0.557703
O O6 0.013694 0.075719 0.656619
O O7 0.295867 0.039272 0.806096
O O8 0.500000 0.000000 0.500000
O O9 0.487718 0.696011 0.304821
O O10 0.220160 0.754476 0.114839
O O11 0.763287 0.488435 0.179319
O O12 0.681577 0.678879 0.986201
O O13 0.549790 0.797189 0.393217
O O14 0.080744 0.571160 0.091637
O O15 0.809968 0.622092 0.641271
O O16 0.121913 0.558889 0.361263
O O17 0.000000 0.000000 0.000000
#
# Coordination Sequence:
#
# PCOD9100911 Si02
#       8
#     2   2   2   2   2   2   2   2
#     4  11  24  41  68 100 136 175 220 276 339 403
#     4  11  27  46  73  95 129 181 228 281 331 400
#     4  10  23  41  63  98 135 177 215 280 331 407
#     4  10  24  45  65  99 134 175 226 270 335 394
#     4  11  21  37  67  99 139 170 221 266 347 399
#     4  10  22  42  68  98 138 175 224 268 336 402
#     4  10  20  37  66  98 135 178 208 274 335 401
#     4  11  26  47  67  95 133 177 228 282 336 393
#
# _framework density 25.864083000000001
#
# number of rings (size 3 to 8) (size 9 to 14) (size 15 to 20)
#    0.000    1.500    2.500    1.125    7.000    4.000 
#    2.250    1.250    0.000    0.000    0.000    0.000 
#    0.000    0.000    0.000    0.000    0.000    0.000 
#
# Total GULP energy -89381.694516 kJ/mol
# GULP energy per Si atom -5586.355907 kJ/mol
# Density = 2.580521 g / cm^3
# Si number density = 25.864083 Si / 1000 Ang^3
#
#
#
# Elastic Constant Matrix: (Units=GPa)
#
#
# Indices 1 2 3 4 5 6 
#
# 1 73.1447 37.0722 19.6550 0.5010 -10.7387 5.7141
# 2 37.0722 70.2040 39.2653 22.5210 -15.5068 1.6389
# 3 19.6550 39.2653 173.1018 39.1682 -3.0236 11.0476
# 4 0.5010 22.5210 39.1682 33.3167 -0.7797 2.0577
# 5 -10.7387 -15.5068 -3.0236 -0.7797 34.4352 -5.1010
# 6 5.7141 1.6389 11.0476 2.0577 -5.1010 51.5054
#
#
#
# Elastic Compliance Matrix: (Units=1/GPa)
#
#
# Indices 1 2 3 4 5 6 
#
# 1 0.021166 -0.013677 -0.001661 0.011008 0.000253 -0.001971
# 2 -0.013677 0.030023 -0.000984 -0.018870 0.009101 0.002428
# 3 -0.001661 -0.000984 0.008295 -0.008998 -0.000624 -0.001266
# 4 0.011008 -0.018870 -0.008998 0.053150 -0.004843 -0.001294
# 5 0.000253 0.009101 -0.000624 -0.004843 0.033546 0.003332
# 6 -0.001971 0.002428 -0.001266 -0.001294 0.003332 0.020210
#
#
# Mechanical properties :
#
#
# Convention : Reuss Voigt Hill
#
# Bulk Modulus (GPa) = 37.25814 56.49285 46.87550
# Shear Modulus (GPa) = 24.04073 38.54866 31.29469
#
# Velocity S-wave (km/s) = 3.05208 3.86480 3.48223
# Velocity P-wave (km/s) = 5.18236 6.46569 5.85927
#
# Compressibility (1/GPa) = 0.02683977
#
# Stress axis : x y z
#
# Youngs Moduli (GPa) = 47.24644 33.30728 120.56038
#
# Poissons Ratio (x) = 0.45554 0.20030
# Poissons Ratio (y) = 0.64618 0.11859
# Poissons Ratio (z) = 0.07850 0.03276
#
# Static dielectric constant tensor:
#      x y z
#    x 2.097740 -0.015950 0.046840 
#    y -0.015950 2.078810 -0.008250 
#    z 0.046840 -0.008250 2.024030 
# 
# From -- ./inp_files/217465.got.cif
#   From: 2010.05.17/outbox.cif.g08.bks.cpg/sg2_109_cif.got.tgz:217465.got - 2010.06.03 11:33:40.
