data_PCOD9100196
_publ_section_title
;
Structure prediction by ZEFSAII (Michael W. Deem and Ramdas Pophale) SiO2 
 PCOD9100196
Probable space group: P -1
;
_chemical_formula_sum "Si O2"
_cell_formula_units_Z 14
_cell_length_a 19.001298
_cell_length_b 12.069985
_cell_length_c 9.273776
_cell_angle_alpha 102.424370
_cell_angle_beta 122.759694
_cell_angle_gamma 29.185027
_cell_volume 679.180337
_symmetry_space_group_name_H-M "P -1"
_symmetry_group_IT_number 2
_symmetry_cell_setting 'triclinic'
loop_
_space_group_symop_operation_xyz
x,y,z
-x,-y,-z
loop_
_atom_site_type_symbol
_atom_site_label
_atom_site_fract_x
_atom_site_fract_y
_atom_site_fract_z
Si Si1 0.082315 0.752287 0.435706
Si Si2 0.664829 0.779813 0.493450
Si Si3 0.621374 0.928883 0.003546
Si Si4 0.270847 0.863732 0.604275
Si Si5 0.911160 0.676108 0.592913
Si Si6 0.617116 0.553924 0.057006
Si Si7 0.981865 0.984821 0.809196
O O1 0.155859 0.541833 0.387079
O O2 0.264501 0.587512 0.693974
O O3 0.896801 0.955023 0.402108
O O4 0.012882 0.918792 0.273714
O O5 0.764373 0.773246 0.546708
O O6 0.500000 0.000000 0.500000
O O7 0.515428 0.914421 0.244395
O O8 0.576319 0.113377 0.055341
O O9 0.863535 0.588114 0.150338
O O10 0.500000 0.000000 0.000000
O O11 0.228756 0.822335 0.421617
O O12 0.202803 0.066029 0.506941
O O13 0.806083 0.351880 0.097477
O O14 0.000000 0.500000 0.500000
O O15 0.499985 0.592502 0.863228
O O16 0.000000 0.000000 0.000000
#
# Coordination Sequence:
#
# PCOD9100196 Si02
#       7
#     2   2   2   2   2   2   2
#     4  10  22  41  62  88 124 163 211 259 302 373
#     4  11  24  39  61  95 133 165 200 260 321 369
#     4  11  19  35  63  91 122 164 209 252 302 374
#     4  11  21  40  68  91 119 162 216 259 299 370
#     4  12  20  38  66  98 126 158 213 256 304 374
#     4  10  20  37  63  87 112 161 213 249 301 364
#     4  11  26  42  58  89 127 163 203 260 322 370
#
# _framework density 20.613083
#
# number of rings (size 3 to 8) (size 9 to 14) (size 15 to 20)
#    0.000    1.143    4.286    3.429    0.000    6.857 
#    0.000    2.857    0.000    0.000    0.000    0.000 
#    0.000    0.000    0.000    0.000    0.000    0.000 
#
# Total GULP energy -78022.498599 kJ/mol
# GULP energy per Si atom -5573.035614 kJ/mol
# Density = 2.056617 g / cm^3
# Si number density = 20.613083 Si / 1000 Ang^3
#
#
#
# Elastic Constant Matrix: (Units=GPa)
#
#
# Indices 1 2 3 4 5 6 
#
# 1 115.8026 35.7398 38.3214 7.5260 -2.8138 0.1677
# 2 35.7398 66.6925 17.2860 18.5884 -15.7786 -8.9064
# 3 38.3214 17.2860 84.9303 -0.4323 12.9931 -0.8159
# 4 7.5260 18.5884 -0.4323 30.1790 -1.0321 -1.5361
# 5 -2.8138 -15.7786 12.9931 -1.0321 37.5095 -4.8056
# 6 0.1677 -8.9064 -0.8159 -1.5361 -4.8056 27.6747
#
#
#
# Elastic Compliance Matrix: (Units=1/GPa)
#
#
# Indices 1 2 3 4 5 6 
#
# 1 0.011713 -0.005687 -0.004092 0.000407 -0.000349 -0.002060
# 2 -0.005687 0.028514 -0.005414 -0.015185 0.014398 0.010709
# 3 -0.004092 -0.005414 0.015994 0.004175 -0.008325 -0.002460
# 4 0.000407 -0.015185 0.004175 0.042017 -0.007117 -0.003670
# 5 -0.000349 0.014398 -0.008325 -0.007117 0.036706 0.010369
# 6 -0.002060 0.010709 -0.002460 -0.003670 0.010369 0.041117
#
#
# Mechanical properties :
#
#
# Convention : Reuss Voigt Hill
#
# Bulk Modulus (GPa) = 38.70899 50.01331 44.36115
# Shear Modulus (GPa) = 23.24949 30.81118 27.03033
#
# Velocity S-wave (km/s) = 3.36207 3.87038 3.62514
# Velocity P-wave (km/s) = 5.82159 6.65497 6.25218
#
# Compressibility (1/GPa) = 0.02583379
#
# Stress axis : x y z
#
# Youngs Moduli (GPa) = 85.37741 35.07067 62.52427
#
# Poissons Ratio (x) = 0.19946 0.25583
# Poissons Ratio (y) = 0.48556 0.33853
# Poissons Ratio (z) = 0.34934 0.18989
#
# Static dielectric constant tensor:
#      x y z
#    x 1.745210 0.048330 0.070560 
#    y 0.048330 1.763910 0.000970 
#    z 0.070560 0.000970 1.811730 
# 
# From -- ./inp_files/332070.got.cif
#   From: 2010.05.17/outbox.cif.g08.bks.cpg/sg2_167_cif.got.tgz:332070.got - 2010.06.03 11:33:40.
