data_PCOD9100839
_publ_section_title
;
Structure prediction by ZEFSAII (Michael W. Deem and Ramdas Pophale) SiO2 
 PCOD9100839
Probable space group: P -1
;
_chemical_formula_sum "Si O2"
_cell_formula_units_Z 16
_cell_length_a 9.830701
_cell_length_b 9.159783
_cell_length_c 11.918313
_cell_angle_alpha 138.129720
_cell_angle_beta 68.495308
_cell_angle_gamma 105.076201
_cell_volume 666.302470
_symmetry_space_group_name_H-M "P -1"
_symmetry_group_IT_number 2
_symmetry_cell_setting 'triclinic'
loop_
_space_group_symop_operation_xyz
x,y,z
-x,-y,-z
loop_
_atom_site_type_symbol
_atom_site_label
_atom_site_fract_x
_atom_site_fract_y
_atom_site_fract_z
Si Si1 0.515504 0.157435 0.768110
Si Si2 0.277634 0.371307 0.509692
Si Si3 0.034350 0.195642 0.847711
Si Si4 0.498190 0.414132 0.134275
Si Si5 0.867490 0.177808 0.660840
Si Si6 0.412458 0.705167 0.535346
Si Si7 0.195054 0.527020 0.858261
Si Si8 0.012506 0.712214 0.540734
O O1 0.490009 0.370974 0.823089
O O2 0.694838 0.123169 0.688682
O O3 0.426534 0.951684 0.630040
O O4 0.457945 0.224000 0.949324
O O5 0.281737 0.617319 0.599528
O O6 0.445186 0.295919 0.425683
O O7 0.224689 0.380691 0.657351
O O8 0.159225 0.234922 0.402855
O O9 0.919255 0.249434 0.809649
O O10 0.166506 0.345468 0.858443
O O11 0.069154 0.941422 0.702577
O O12 0.940128 0.311554 0.038314
O O13 0.420523 0.519418 0.328659
O O14 0.658496 0.345816 0.090039
O O15 0.895443 0.324553 0.624269
O O16 0.000000 0.000000 0.500000
O O17 0.000000 0.500000 0.500000
#
# Coordination Sequence:
#
# PCOD9100839 Si02
#       8
#     2   2   2   2   2   2   2   2
#     4  11  22  40  62  94 127 161 212 263 323 368
#     4  10  22  40  58  88 120 160 215 250 310 389
#     4  10  20  38  66  90 118 166 209 265 305 379
#     4  10  23  37  62  96 122 163 213 264 312 382
#     4  10  20  37  66  91 117 166 212 257 308 380
#     4  10  22  41  61  83 128 172 201 261 310 379
#     4  10  20  39  63  90 119 160 224 254 310 381
#     4  11  24  38  60  94 125 162 202 264 327 371
#
# _framework density 24.013117000000001
#
# number of rings (size 3 to 8) (size 9 to 14) (size 15 to 20)
#    0.000    1.750    2.500    1.875    7.000    1.000 
#    2.250    2.500    0.000    0.000    0.000    0.000 
#    0.000    0.000    0.000    0.000    0.000    0.000 
#
# Total GULP energy -89081.974668 kJ/mol
# GULP energy per Si atom -5567.623417 kJ/mol
# Density = 2.395846 g / cm^3
# Si number density = 24.013117 Si / 1000 Ang^3
#
#
#
# Elastic Constant Matrix: (Units=GPa)
#
#
# Indices 1 2 3 4 5 6 
#
# 1 69.5314 -2.6455 1.6717 -0.6381 -6.9626 8.4220
# 2 -2.6455 94.7952 15.2015 10.0632 -4.9493 0.7434
# 3 1.6717 15.2015 62.8040 13.3106 -0.0460 -0.9199
# 4 -0.6381 10.0632 13.3106 19.8402 -1.7769 3.8384
# 5 -6.9626 -4.9493 -0.0460 -1.7769 13.3956 3.0391
# 6 8.4220 0.7434 -0.9199 3.8384 3.0391 30.0793
#
#
#
# Elastic Compliance Matrix: (Units=1/GPa)
#
#
# Indices 1 2 3 4 5 6 
#
# 1 0.016280 0.000951 -0.001405 0.003112 0.010604 -0.006093
# 2 0.000951 0.011549 -0.001976 -0.004008 0.004345 -0.000540
# 3 -0.001405 -0.001976 0.019205 -0.012858 -0.003793 0.003053
# 4 0.003112 -0.004008 -0.012858 0.064170 0.010979 -0.010463
# 5 0.010604 0.004345 -0.003793 0.010979 0.086230 -0.013306
# 6 -0.006093 -0.000540 0.003053 -0.010463 -0.013306 0.037738
#
#
# Mechanical properties :
#
#
# Convention : Reuss Voigt Hill
#
# Bulk Modulus (GPa) = 23.71082 28.39844 26.05463
# Shear Modulus (GPa) = 19.67804 26.85655 23.26729
#
# Velocity S-wave (km/s) = 2.86574 3.34789 3.11616
# Velocity P-wave (km/s) = 4.56569 5.17653 4.88067
#
# Compressibility (1/GPa) = 0.04217484
#
# Stress axis : x y z
#
# Youngs Moduli (GPa) = 61.42369 86.58736 52.06911
#
# Poissons Ratio (x) = -0.08231 0.07313
# Poissons Ratio (y) = -0.05839 0.10289
# Poissons Ratio (z) = 0.08627 0.17109
#
# Static dielectric constant tensor:
#      x y z
#    x 2.039110 -0.046960 -0.031660 
#    y -0.046960 2.016590 -0.052020 
#    z -0.031660 -0.052020 2.241890 
# 
# From -- ./inp_files/418383.got.cif
#   From: 2010.05.17/outbox.cif.g08.bks.cpg/sg2_210_cif.got.tgz:418383.got - 2010.06.03 11:33:40.
