data_PCOD9100875
_publ_section_title
;
Structure prediction by ZEFSAII (Michael W. Deem and Ramdas Pophale) SiO2 
 PCOD9100875
Probable space group: P -1
;
_chemical_formula_sum "Si O2"
_cell_formula_units_Z 14
_cell_length_a 13.083784
_cell_length_b 10.426634
_cell_length_c 12.294015
_cell_angle_alpha 81.662484
_cell_angle_beta 156.466897
_cell_angle_gamma 84.615321
_cell_volume 542.524324
_symmetry_space_group_name_H-M "P -1"
_symmetry_group_IT_number 2
_symmetry_cell_setting 'triclinic'
loop_
_space_group_symop_operation_xyz
x,y,z
-x,-y,-z
loop_
_atom_site_type_symbol
_atom_site_label
_atom_site_fract_x
_atom_site_fract_y
_atom_site_fract_z
Si Si1 0.671976 0.260553 0.307971
Si Si2 0.008791 0.350236 0.067530
Si Si3 0.642501 0.686349 0.376341
Si Si4 0.056758 0.965601 0.865939
Si Si5 0.411487 0.859629 0.454741
Si Si6 0.563580 0.433070 0.386794
Si Si7 0.135752 0.316694 0.640874
O O1 0.468293 0.401187 0.180451
O O2 0.858632 0.298280 0.402184
O O3 0.441053 0.226969 0.028286
O O4 0.947754 0.115392 0.666046
O O5 0.199764 0.288356 0.372356
O O6 0.220300 0.225949 0.195323
O O7 0.000000 0.500000 0.000000
O O8 0.663923 0.427979 0.766641
O O9 0.752869 0.503945 0.519969
O O10 0.743064 0.722874 0.358805
O O11 0.271471 0.813779 0.018608
O O12 0.241255 0.932997 0.164362
O O13 0.726403 0.021337 0.592603
O O14 0.358458 0.722794 0.452838
O O15 0.000000 0.500000 0.500000
#
# Coordination Sequence:
#
# PCOD9100875 Si02
#       7
#     2   2   2   2   2   2   2
#     4  11  25  45  70  97 139 173 223 272 336 391
#     4   9  19  35  59  93 126 165 213 274 323 386
#     4  11  23  37  65  95 131 171 225 274 330 391
#     4   9  20  41  62  94 133 176 214 272 336 402
#     4   8  17  38  65  87 135 169 219 270 335 398
#     4  10  20  37  66  95 129 170 224 277 324 392
#     4  12  25  44  72 102 128 176 226 281 325 390
#
# _framework density 25.805295000000001
#
# number of rings (size 3 to 8) (size 9 to 14) (size 15 to 20)
#    0.000    2.000    1.429    1.286    2.000    6.286 
#    5.143    0.714    0.000    0.000    0.000    0.000 
#    0.000    0.000    0.000    0.000    0.000    0.000 
#
# Total GULP energy -78043.899390 kJ/mol
# GULP energy per Si atom -5574.564242 kJ/mol
# Density = 2.574656 g / cm^3
# Si number density = 25.805295 Si / 1000 Ang^3
#
#
#
# Elastic Constant Matrix: (Units=GPa)
#
#
# Indices 1 2 3 4 5 6 
#
# 1 182.2368 22.1334 54.5078 -2.0844 12.1489 -10.3485
# 2 22.1334 46.3007 20.0471 -4.8481 9.4761 13.0764
# 3 54.5078 20.0471 65.4375 -0.7248 4.4884 -2.8510
# 4 -2.0844 -4.8481 -0.7248 33.3877 0.4027 -4.1246
# 5 12.1489 9.4761 4.4884 0.4027 38.8341 -0.2865
# 6 -10.3485 13.0764 -2.8510 -4.1246 -0.2865 46.1021
#
#
#
# Elastic Compliance Matrix: (Units=1/GPa)
#
#
# Indices 1 2 3 4 5 6 
#
# 1 0.007550 -0.001303 -0.005715 0.000389 -0.001375 0.001737
# 2 -0.001303 0.029768 -0.007979 0.003029 -0.006032 -0.008996
# 3 -0.005715 -0.007979 0.022500 -0.000755 0.001159 0.002311
# 4 0.000389 0.003029 -0.000755 0.030649 -0.001077 0.001917
# 5 -0.001375 -0.006032 0.001159 -0.001077 0.027541 0.001549
# 6 0.001737 -0.008996 0.002311 0.001917 0.001549 0.024956
#
#
# Mechanical properties :
#
#
# Convention : Reuss Voigt Hill
#
# Bulk Modulus (GPa) = 33.53126 54.15021 43.84073
# Shear Modulus (GPa) = 27.33753 36.81722 32.07738
#
# Velocity S-wave (km/s) = 3.25834 3.78131 3.52952
# Velocity P-wave (km/s) = 5.21324 6.33199 5.79965
#
# Compressibility (1/GPa) = 0.02982291
#
# Stress axis : x y z
#
# Youngs Moduli (GPa) = 132.45300 33.59347 44.44509
#
# Poissons Ratio (x) = 0.04377 0.25402
# Poissons Ratio (y) = 0.17259 0.35462
# Poissons Ratio (z) = 0.75702 0.26803
#
# Static dielectric constant tensor:
#      x y z
#    x 2.014180 -0.009030 0.070530 
#    y -0.009030 2.067260 -0.065850 
#    z 0.070530 -0.065850 2.206950 
# 
# From -- ./inp_files/72652.got.cif
#   From: 2010.05.17/outbox.cif.g08.bks.cpg/sg2_37_cif.got.tgz:72652.got - 2010.06.03 11:33:40.
