data_PCOD9100357
_publ_section_title
;
Structure prediction by ZEFSAII (Michael W. Deem and Ramdas Pophale) SiO2 
 PCOD9100357
Probable space group: P -1
;
_chemical_formula_sum "Si O2"
_cell_formula_units_Z 14
_cell_length_a 21.316435
_cell_length_b 11.419901
_cell_length_c 16.969950
_cell_angle_alpha 37.985320
_cell_angle_beta 161.727485
_cell_angle_gamma 150.711295
_cell_volume 611.692663
_symmetry_space_group_name_H-M "P -1"
_symmetry_group_IT_number 2
_symmetry_cell_setting 'triclinic'
loop_
_space_group_symop_operation_xyz
x,y,z
-x,-y,-z
loop_
_atom_site_type_symbol
_atom_site_label
_atom_site_fract_x
_atom_site_fract_y
_atom_site_fract_z
Si Si1 0.099256 0.969881 0.987105
Si Si2 0.770702 0.253927 0.218740
Si Si3 0.753850 0.683328 0.310047
Si Si4 0.384874 0.146330 0.082831
Si Si5 0.706868 0.062963 0.413932
Si Si6 0.457288 0.487833 0.211525
Si Si7 0.374497 0.528001 0.261429
O O1 0.208875 0.952236 0.045195
O O2 0.910605 0.029669 0.704109
O O3 0.327615 0.207351 0.184160
O O4 0.927076 0.716516 0.965697
O O5 0.810787 0.228986 0.371671
O O6 0.996263 0.292785 0.417854
O O7 0.748999 0.466296 0.071019
O O8 0.500000 0.000000 0.000000
O O9 0.759861 0.867277 0.161194
O O10 0.688062 0.679350 0.324596
O O11 0.508089 0.407808 0.132656
O O12 0.614390 0.150794 0.323915
O O13 0.446851 0.791062 0.219697
O O14 0.516221 0.538854 0.346567
O O15 0.500000 0.500000 0.500000
#
# Coordination Sequence:
#
# PCOD9100357 Si02
#       7
#     2   2   2   2   2   2   2
#     4  10  22  40  66  87 126 163 209 250 293 370
#     4  12  23  38  59  96 131 158 197 253 315 370
#     4  10  22  37  61  95 128 155 202 251 308 371
#     4  10  20  37  63  95 122 162 200 250 309 361
#     4  11  21  39  61  93 128 162 200 248 313 362
#     4  11  22  41  65  93 118 164 206 256 308 355
#     4  10  23  43  61  86 123 168 208 249 303 363
#
# _framework density 22.887309999999999
#
# number of rings (size 3 to 8) (size 9 to 14) (size 15 to 20)
#    0.000    1.429    4.286    1.286    0.000    2.286 
#    5.143    2.857    0.000   10.286    0.000    0.000 
#    0.000    0.000    0.000    0.000    0.000    0.000 
#
# Total GULP energy -78280.914993 kJ/mol
# GULP energy per Si atom -5591.493928 kJ/mol
# Density = 2.283522 g / cm^3
# Si number density = 22.887310 Si / 1000 Ang^3
#
#
#
# Elastic Constant Matrix: (Units=GPa)
#
#
# Indices 1 2 3 4 5 6 
#
# 1 158.7062 25.4781 14.1278 -10.4551 24.8322 19.0351
# 2 25.4781 43.6772 -10.4612 12.7262 -10.6582 1.7314
# 3 14.1278 -10.4612 51.8037 -6.3723 25.0131 7.7142
# 4 -10.4551 12.7262 -6.3723 18.1916 -3.0834 -5.0527
# 5 24.8322 -10.6582 25.0131 -3.0834 36.8662 5.5190
# 6 19.0351 1.7314 7.7142 -5.0527 5.5190 25.4344
#
#
#
# Elastic Compliance Matrix: (Units=1/GPa)
#
#
# Indices 1 2 3 4 5 6 
#
# 1 0.010948 -0.012137 0.001643 0.012733 -0.010475 -0.003064
# 2 -0.012137 0.045694 -0.000680 -0.037392 0.019542 -0.005489
# 3 0.001643 -0.000680 0.030175 0.007282 -0.020503 -0.004440
# 4 0.012733 -0.037392 0.007282 0.091456 -0.018627 0.013018
# 5 -0.010475 0.019542 -0.020503 -0.018627 0.052539 -0.002373
# 6 -0.003064 -0.005489 -0.004440 0.013018 -0.002373 0.046431
#
#
# Mechanical properties :
#
#
# Convention : Reuss Voigt Hill
#
# Bulk Modulus (GPa) = 15.51163 34.71959 25.11561
# Shear Modulus (GPa) = 15.57242 31.10126 23.33684
#
# Velocity S-wave (km/s) = 2.61127 3.69031 3.19665
# Velocity P-wave (km/s) = 3.98544 5.77586 4.96207
#
# Compressibility (1/GPa) = 0.06446777
#
# Stress axis : x y z
#
# Youngs Moduli (GPa) = 91.33760 21.88491 33.14033
#
# Poissons Ratio (x) = 0.26563 -0.05446
# Poissons Ratio (y) = 1.10861 0.02255
# Poissons Ratio (z) = -0.15010 0.01489
#
# Static dielectric constant tensor:
#      x y z
#    x 1.869800 -0.006860 -0.033940 
#    y -0.006860 1.896500 0.064130 
#    z -0.033940 0.064130 1.843030 
# 
# From -- ./inp_files/234763.got.cif
#   From: 2010.05.17/outbox.cif.g08.bks.cpg/sg2_118_cif.got.tgz:234763.got - 2010.06.03 11:33:40.
