data_PCOD9100423
_publ_section_title
;
Structure prediction by ZEFSAII (Michael W. Deem and Ramdas Pophale) SiO2 
 PCOD9100423
Probable space group: P -1
;
_chemical_formula_sum "Si O2"
_cell_formula_units_Z 16
_cell_length_a 6.908124
_cell_length_b 15.986635
_cell_length_c 7.697963
_cell_angle_alpha 109.282559
_cell_angle_beta 57.789778
_cell_angle_gamma 112.402834
_cell_volume 656.183462
_symmetry_space_group_name_H-M "P -1"
_symmetry_group_IT_number 2
_symmetry_cell_setting 'triclinic'
loop_
_space_group_symop_operation_xyz
x,y,z
-x,-y,-z
loop_
_atom_site_type_symbol
_atom_site_label
_atom_site_fract_x
_atom_site_fract_y
_atom_site_fract_z
Si Si1 0.461473 0.227968 0.874841
Si Si2 0.424362 0.525857 0.782111
Si Si3 0.291228 0.588171 0.235384
Si Si4 0.814540 0.633941 0.470332
Si Si5 0.512054 0.092561 0.452368
Si Si6 0.751300 0.004504 0.788691
Si Si7 0.068953 0.793890 0.227731
Si Si8 0.010413 0.877911 0.962457
O O1 0.481511 0.327261 0.853885
O O2 0.479482 0.166469 0.655560
O O3 0.696233 0.241185 0.886303
O O4 0.238785 0.164049 0.037654
O O5 0.627469 0.477501 0.714970
O O6 0.585908 0.621440 0.694059
O O7 0.269942 0.455730 0.672324
O O8 0.263332 0.537875 0.028419
O O9 0.065516 0.624635 0.421959
O O10 0.876716 0.727335 0.393616
O O11 0.500000 0.000000 0.500000
O O12 0.317794 0.073967 0.376707
O O13 0.768197 0.119259 0.260338
O O14 0.837466 0.097952 0.698407
O O15 0.938193 0.028805 0.877729
O O16 0.500000 0.000000 0.000000
O O17 0.001875 0.801261 0.064956
#
# Coordination Sequence:
#
# PCOD9100423 Si02
#       8
#     2   2   2   2   2   2   2   2
#     4  11  22  36  61  88 111 155 197 230 284 353
#     4  10  21  39  63  83 118 154 188 241 288 346
#     4  10  22  39  57  89 120 148 192 236 293 337
#     4  10  20  37  64  87 113 154 195 233 287 346
#     4  11  20  38  60  85 117 152 195 240 283 338
#     4   8  17  37  58  76 121 150 183 238 286 325
#     4   9  19  38  57  84 123 145 185 250 276 335
#     4   9  21  39  57  80 118 154 187 240 288 331
#
# _framework density 24.383426
#
# number of rings (size 3 to 8) (size 9 to 14) (size 15 to 20)
#    0.750    1.500    1.250    1.500    0.000    3.000 
#    0.000   11.250    0.000    0.000    0.000    0.000 
#    0.000    0.000    0.000    0.000    0.000    0.000 
#
# Total GULP energy -89279.610390 kJ/mol
# GULP energy per Si atom -5579.975649 kJ/mol
# Density = 2.432793 g / cm^3
# Si number density = 24.383426 Si / 1000 Ang^3
#
#
#
# Elastic Constant Matrix: (Units=GPa)
#
#
# Indices 1 2 3 4 5 6 
#
# 1 42.6392 5.3601 21.3570 -11.3941 -4.0462 15.8949
# 2 5.3601 102.8891 20.2964 -28.9935 -5.2573 10.4675
# 3 21.3570 20.2964 62.3066 -18.1497 -5.3227 -3.2071
# 4 -11.3941 -28.9935 -18.1497 41.2508 8.5670 -4.1626
# 5 -4.0462 -5.2573 -5.3227 8.5670 24.7688 -2.5024
# 6 15.8949 10.4675 -3.2071 -4.1626 -2.5024 29.9661
#
#
#
# Elastic Compliance Matrix: (Units=1/GPa)
#
#
# Indices 1 2 3 4 5 6 
#
# 1 0.041094 0.004946 -0.015310 0.005617 0.000067 -0.024378
# 2 0.004946 0.013248 -0.003960 0.008442 -0.000815 -0.006570
# 3 -0.015310 -0.003960 0.024814 0.004880 0.001614 0.012972
# 4 0.005617 0.008442 0.004880 0.035552 -0.008659 -0.001190
# 5 0.000067 -0.000815 0.001614 -0.008659 0.043844 0.002880
# 6 -0.024378 -0.006570 0.012972 -0.001190 0.002880 0.050060
#
#
# Mechanical properties :
#
#
# Convention : Reuss Voigt Hill
#
# Bulk Modulus (GPa) = 19.79838 33.54021 26.66929
# Shear Modulus (GPa) = 19.67750 29.91855 24.79802
#
# Velocity S-wave (km/s) = 2.84386 3.50666 3.19251
# Velocity P-wave (km/s) = 4.34979 5.49370 4.95487
#
# Compressibility (1/GPa) = 0.05050919
#
# Stress axis : x y z
#
# Youngs Moduli (GPa) = 24.33443 75.48139 40.29920
#
# Poissons Ratio (x) = -0.37330 0.61697
# Poissons Ratio (y) = -0.12035 0.15957
# Poissons Ratio (z) = 0.37256 0.29887
#
# Static dielectric constant tensor:
#      x y z
#    x 2.053510 -0.014140 -0.012780 
#    y -0.014140 1.988160 -0.026940 
#    z -0.012780 -0.026940 1.974860 
# 
# From -- ./inp_files/222288.got.cif
#   From: 2010.05.17/outbox.cif.g08.bks.cpg/sg2_112_cif.got.tgz:222288.got - 2010.06.03 11:33:40.
