data_PCOD9100699
_publ_section_title
;
Structure prediction by ZEFSAII (Michael W. Deem and Ramdas Pophale) SiO2 
 PCOD9100699
Probable space group: P -1
;
_chemical_formula_sum "Si O2"
_cell_formula_units_Z 14
_cell_length_a 16.889558
_cell_length_b 5.390177
_cell_length_c 7.187060
_cell_angle_alpha 112.119390
_cell_angle_beta 89.082344
_cell_angle_gamma 121.394672
_cell_volume 503.796328
_symmetry_space_group_name_H-M "P -1"
_symmetry_group_IT_number 2
_symmetry_cell_setting 'triclinic'
loop_
_space_group_symop_operation_xyz
x,y,z
-x,-y,-z
loop_
_atom_site_type_symbol
_atom_site_label
_atom_site_fract_x
_atom_site_fract_y
_atom_site_fract_z
Si Si1 0.368527 0.933551 0.834634
Si Si2 0.312004 0.504024 0.205319
Si Si3 0.163951 0.649850 0.339975
Si Si4 0.850421 0.390230 0.112348
Si Si5 0.572020 0.764811 0.713538
Si Si6 0.686725 0.716744 0.276372
Si Si7 0.036973 0.893083 0.793052
O O1 0.442793 0.157695 0.052511
O O2 0.257122 0.769431 0.855014
O O3 0.368052 0.620355 0.710409
O O4 0.379479 0.152467 0.726112
O O5 0.221466 0.477084 0.293147
O O6 0.352430 0.330024 0.266295
O O7 0.384331 0.885979 0.282356
O O8 0.293214 0.370753 0.955097
O O9 0.061404 0.411257 0.367299
O O10 0.224006 0.992764 0.536159
O O11 0.153274 0.684414 0.129406
O O12 0.906518 0.778857 0.236184
O O13 0.901586 0.237706 0.166358
O O14 0.500000 0.500000 0.500000
O O15 0.000000 0.000000 0.000000
#
# Coordination Sequence:
#
# PCOD9100699 Si02
#       7
#     2   2   2   2   2   2   2
#     4  10  21  40  61  84 123 156 193 250 296 350
#     4  10  22  39  64  88 122 157 192 246 295 352
#     4  11  22  40  66  86 118 165 203 238 300 352
#     4  11  21  40  61  82 120 161 199 246 299 342
#     4  10  20  37  65  92 115 155 197 236 299 359
#     4  10  22  38  60  90 117 155 204 242 291 354
#     4  10  23  34  58  89 117 155 204 253 285 339
#
# _framework density 27.789007999999999
#
# number of rings (size 3 to 8) (size 9 to 14) (size 15 to 20)
#    0.000    1.714    2.857    3.000    6.000    5.714 
#    0.000    4.286    0.000   20.571    0.000    0.000 
#    0.000    0.000    0.000    0.000    0.000    0.000 
#
# Total GULP energy -78512.134862 kJ/mol
# GULP energy per Si atom -5608.009633 kJ/mol
# Density = 2.772576 g / cm^3
# Si number density = 27.789008 Si / 1000 Ang^3
#
#
#
# Elastic Constant Matrix: (Units=GPa)
#
#
# Indices 1 2 3 4 5 6 
#
# 1 98.4779 42.9888 50.3564 6.9011 -8.9262 -30.1487
# 2 42.9888 191.6155 64.8411 54.6245 7.5502 -35.8986
# 3 50.3564 64.8411 217.5572 46.9624 -3.0257 0.3366
# 4 6.9011 54.6245 46.9624 40.0221 16.3377 -7.3435
# 5 -8.9262 7.5502 -3.0257 16.3377 44.7388 1.5896
# 6 -30.1487 -35.8986 0.3366 -7.3435 1.5896 53.7335
#
#
#
# Elastic Compliance Matrix: (Units=1/GPa)
#
#
# Indices 1 2 3 4 5 6 
#
# 1 0.015509 -0.002625 -0.004433 0.007487 0.000219 0.007993
# 2 -0.002625 0.010434 0.000917 -0.015645 0.003375 0.003254
# 3 -0.004433 0.000917 0.008077 -0.012343 0.004147 -0.003735
# 4 0.007487 -0.015645 -0.012343 0.069298 -0.022147 0.003952
# 5 0.000219 0.003375 0.004147 -0.022147 0.030250 -0.001570
# 6 0.007993 0.003254 -0.003735 0.003952 -0.001570 0.025879
#
#
# Mechanical properties :
#
#
# Convention : Reuss Voigt Hill
#
# Bulk Modulus (GPa) = 46.00179 91.55815 68.77997
# Shear Modulus (GPa) = 27.93663 50.99647 39.46655
#
# Velocity S-wave (km/s) = 3.17411 4.28849 3.77267
# Velocity P-wave (km/s) = 5.47934 7.58556 6.61679
#
# Compressibility (1/GPa) = 0.02173829
#
# Stress axis : x y z
#
# Youngs Moduli (GPa) = 64.47670 95.83935 123.80554
#
# Poissons Ratio (x) = 0.25159 0.54883
# Poissons Ratio (y) = 0.16926 -0.11351
# Poissons Ratio (z) = 0.28583 -0.08787
#
# Static dielectric constant tensor:
#      x y z
#    x 2.217280 0.022150 0.019570 
#    y 0.022150 2.206340 0.019980 
#    z 0.019570 0.019980 2.176100 
# 
# From -- ./inp_files/339984.got.cif
#   From: 2010.05.17/outbox.cif.g08.bks.cpg/sg2_170_cif.got.tgz:339984.got - 2010.06.03 11:33:40.
