data_PCOD9100255
_publ_section_title
;
Structure prediction by ZEFSAII (Michael W. Deem and Ramdas Pophale) SiO2 
 PCOD9100255
Probable space group: P -1
;
_chemical_formula_sum "Si O2"
_cell_formula_units_Z 14
_cell_length_a 14.739021
_cell_length_b 7.821855
_cell_length_c 9.591392
_cell_angle_alpha 83.309215
_cell_angle_beta 86.434246
_cell_angle_gamma 36.682045
_cell_volume 655.141827
_symmetry_space_group_name_H-M "P -1"
_symmetry_group_IT_number 2
_symmetry_cell_setting 'triclinic'
loop_
_space_group_symop_operation_xyz
x,y,z
-x,-y,-z
loop_
_atom_site_type_symbol
_atom_site_label
_atom_site_fract_x
_atom_site_fract_y
_atom_site_fract_z
Si Si1 0.609914 0.476448 0.230933
Si Si2 0.667243 0.828398 0.406323
Si Si3 0.726905 0.108581 0.781888
Si Si4 0.986042 0.481468 0.340112
Si Si5 0.209211 0.069863 0.905874
Si Si6 0.633713 0.806623 0.115733
Si Si7 0.596801 0.576386 0.540564
O O1 0.428190 0.766096 0.199281
O O2 0.692265 0.520955 0.155546
O O3 0.633077 0.438682 0.399466
O O4 0.666032 0.221778 0.169726
O O5 0.835717 0.591411 0.353338
O O6 0.570939 0.939718 0.264715
O O7 0.660785 0.672588 0.518069
O O8 0.585293 0.114425 0.457970
O O9 0.665193 0.369203 0.681713
O O10 0.857930 0.831862 0.699582
O O11 0.799221 0.014307 0.937981
O O12 0.933955 0.700246 0.207524
O O13 0.000000 0.500000 0.500000
O O14 0.259057 0.191478 0.925685
O O15 0.500000 0.000000 0.000000
#
# Coordination Sequence:
#
# PCOD9100255 Si02
#       7
#     2   2   2   2   2   2   2
#     4  11  22  39  66  95 121 165 210 259 311 369
#     4   9  21  40  63  91 127 163 209 262 304 371
#     4  12  22  35  63  92 125 163 204 257 311 372
#     4  11  23  41  61  85 128 173 204 252 317 374
#     4  11  24  42  63  95 128 161 212 262 309 367
#     4  10  20  37  63  90 125 160 202 259 313 354
#     4  10  21  39  65  95 122 160 216 260 309 366
#
# _framework density 21.369416999999999
#
# number of rings (size 3 to 8) (size 9 to 14) (size 15 to 20)
#    0.000    1.429    1.429    4.714    2.000    0.571 
#    0.000    1.429    0.000    9.429    0.000    0.000 
#    0.000    0.000    0.000    0.000    0.000    0.000 
#
# Total GULP energy -78004.736677 kJ/mol
# GULP energy per Si atom -5571.766905 kJ/mol
# Density = 2.132078 g / cm^3
# Si number density = 21.369417 Si / 1000 Ang^3
#
#
#
# Elastic Constant Matrix: (Units=GPa)
#
#
# Indices 1 2 3 4 5 6 
#
# 1 44.1899 42.0906 28.3472 -10.5889 -3.9457 14.3736
# 2 42.0906 129.3867 48.3868 3.6519 -7.9306 -2.9214
# 3 28.3472 48.3868 150.0144 -28.1088 0.4542 11.8382
# 4 -10.5889 3.6519 -28.1088 44.1798 2.9111 -8.8481
# 5 -3.9457 -7.9306 0.4542 2.9111 31.2182 -6.6312
# 6 14.3736 -2.9214 11.8382 -8.8481 -6.6312 24.7558
#
#
#
# Elastic Compliance Matrix: (Units=1/GPa)
#
#
# Indices 1 2 3 4 5 6 
#
# 1 0.050761 -0.017745 0.000015 0.007953 -0.005235 -0.030134
# 2 -0.017745 0.015719 -0.003849 -0.005666 0.005172 0.013358
# 3 0.000015 -0.003849 0.009249 0.005662 -0.002382 -0.003500
# 4 0.007953 -0.005666 0.005662 0.029131 -0.002884 0.001646
# 5 -0.005235 0.005172 -0.002382 -0.002884 0.035825 0.013354
# 6 -0.030134 0.013358 -0.003500 0.001646 0.013354 0.065306
#
#
# Mechanical properties :
#
#
# Convention : Reuss Voigt Hill
#
# Bulk Modulus (GPa) = 30.69971 62.36003 46.52987
# Shear Modulus (GPa) = 19.23037 33.68185 26.45611
#
# Velocity S-wave (km/s) = 3.00309 3.97441 3.52239
# Velocity P-wave (km/s) = 5.14024 7.09271 6.19389
#
# Compressibility (1/GPa) = 0.03257360
#
# Stress axis : x y z
#
# Youngs Moduli (GPa) = 19.70010 63.61690 108.12138
#
# Poissons Ratio (x) = 1.12885 -0.00167
# Poissons Ratio (y) = 0.34957 0.41612
# Poissons Ratio (z) = -0.00030 0.24484
#
# Static dielectric constant tensor:
#      x y z
#    x 1.899640 -0.009670 0.026940 
#    y -0.009670 1.807310 -0.047070 
#    z 0.026940 -0.047070 1.851040 
# 
# From -- ./inp_files/265550.got.cif
#   From: 2010.05.17/outbox.cif.g08.bks.cpg/sg2_133_cif.got.tgz:265550.got - 2010.06.03 11:33:40.
