data_PCOD9100286
_publ_section_title
;
Structure prediction by ZEFSAII (Michael W. Deem and Ramdas Pophale) SiO2 
 PCOD9100286
Probable space group: P -1
;
_chemical_formula_sum "Si O2"
_cell_formula_units_Z 15
_cell_length_a 11.826237
_cell_length_b 10.403117
_cell_length_c 8.953812
_cell_angle_alpha 120.590949
_cell_angle_beta 109.449262
_cell_angle_gamma 44.312388
_cell_volume 661.541812
_symmetry_space_group_name_H-M "P -1"
_symmetry_group_IT_number 2
_symmetry_cell_setting 'triclinic'
loop_
_space_group_symop_operation_xyz
x,y,z
-x,-y,-z
loop_
_atom_site_type_symbol
_atom_site_label
_atom_site_fract_x
_atom_site_fract_y
_atom_site_fract_z
Si Si1 0.162171 0.988969 0.853226
Si Si2 0.485412 0.188471 0.598469
Si Si3 0.699583 0.521450 0.856107
Si Si4 0.353022 0.717111 0.493632
Si Si5 0.408499 0.722682 0.028142
Si Si6 0.113293 0.371952 0.115594
Si Si7 0.856576 0.443696 0.210631
Si Si8 0.000000 0.000000 0.000000
O O1 0.236446 0.868365 0.663925
O O2 0.182262 0.148259 0.980732
O O3 0.227058 0.857999 0.964894
O O4 0.985813 0.074827 0.859140
O O5 0.569869 0.205389 0.510692
O O6 0.579329 0.168965 0.774264
O O7 0.296736 0.393807 0.655569
O O8 0.500000 0.000000 0.500000
O O9 0.724582 0.338790 0.686114
O O10 0.758450 0.602091 0.818179
O O11 0.507224 0.690141 0.906486
O O12 0.772620 0.492389 0.036794
O O13 0.500000 0.500000 0.500000
O O14 0.500000 0.500000 0.000000
O O15 0.991566 0.459188 0.253221
O O16 0.000000 0.500000 0.000000
O O17 0.955575 0.215395 0.164441
#
# Coordination Sequence:
#
# PCOD9100286 Si02
#       8
#     2   2   2   2   2   2   2   1
#     4  11  23  38  66  92 125 169 219 263 323 386
#     4  11  25  40  66  97 135 167 210 280 339 379
#     4  10  20  37  63  91 129 165 210 269 319 378
#     4  12  23  39  62 103 130 159 216 279 323 374
#     4  11  20  40  63  90 125 173 215 260 325 404
#     4   9  21  40  60  89 123 170 216 259 312 392
#     4   9  20  40  67  87 127 178 212 254 325 401
#     4  10  20  40  64  90 122 176 216 254 312 398
#
# _framework density 22.674303999999999
#
# number of rings (size 3 to 8) (size 9 to 14) (size 15 to 20)
#    0.000    1.600    2.667    2.400    5.600    1.600 
#    0.000    7.333    0.000    4.000    0.000    0.000 
#    0.000    0.000    0.000    0.000    0.000    0.000 
#
# Total GULP energy -83503.922435 kJ/mol
# GULP energy per Si atom -5566.928162 kJ/mol
# Density = 2.262270 g / cm^3
# Si number density = 22.674304 Si / 1000 Ang^3
#
#
#
# Elastic Constant Matrix: (Units=GPa)
#
#
# Indices 1 2 3 4 5 6 
#
# 1 171.9914 45.4295 55.3853 14.4714 -27.9151 42.6892
# 2 45.4295 97.8372 32.5320 14.9847 5.2741 16.3178
# 3 55.3853 32.5320 105.0799 14.1637 -21.9835 13.8614
# 4 14.4714 14.9847 14.1637 28.7855 -4.8485 9.3803
# 5 -27.9151 5.2741 -21.9835 -4.8485 50.4048 2.2113
# 6 42.6892 16.3178 13.8614 9.3803 2.2113 44.4709
#
#
#
# Elastic Compliance Matrix: (Units=1/GPa)
#
#
# Indices 1 2 3 4 5 6 
#
# 1 0.010294 -0.003055 -0.002378 0.001301 0.005485 -0.008566
# 2 -0.003055 0.013633 -0.002987 -0.004967 -0.004906 0.000153
# 3 -0.002378 -0.002987 0.013042 -0.002820 0.004426 -0.000312
# 4 0.001301 -0.004967 -0.002820 0.041212 0.004302 -0.007454
# 5 0.005485 -0.004906 0.004426 0.004302 0.026044 -0.007047
# 6 -0.008566 0.000153 -0.000312 -0.007454 -0.007047 0.032673
#
#
# Mechanical properties :
#
#
# Convention : Reuss Voigt Hill
#
# Bulk Modulus (GPa) = 49.68239 71.28913 60.48576
# Shear Modulus (GPa) = 31.16284 40.83635 35.99959
#
# Velocity S-wave (km/s) = 3.71127 4.24842 3.98890
# Velocity P-wave (km/s) = 6.35008 7.45481 6.92451
#
# Compressibility (1/GPa) = 0.02012786
#
# Stress axis : x y z
#
# Youngs Moduli (GPa) = 97.14504 73.35296 76.67641
#
# Poissons Ratio (x) = 0.22412 0.18231
# Poissons Ratio (y) = 0.29681 0.22905
# Poissons Ratio (z) = 0.23098 0.21912
#
# Static dielectric constant tensor:
#      x y z
#    x 3.714550 -0.791750 -0.151960 
#    y -0.791750 2.312880 0.081010 
#    z -0.151960 0.081010 1.850800 
# 
# From -- ./inp_files/241059.got.cif
#   From: 2010.05.17/outbox.cif.g08.bks.cpg/sg2_121_cif.got.tgz:241059.got - 2010.06.03 11:33:40.
