data_PCOD9100121
_publ_section_title
;
Structure prediction by ZEFSAII (Michael W. Deem and Ramdas Pophale) SiO2 
 PCOD9100121
Probable space group: P -1
;
_chemical_formula_sum "Si O2"
_cell_formula_units_Z 14
_cell_length_a 11.439742
_cell_length_b 9.998791
_cell_length_c 7.723321
_cell_angle_alpha 65.490013
_cell_angle_beta 82.502595
_cell_angle_gamma 121.588690
_cell_volume 611.910968
_symmetry_space_group_name_H-M "P -1"
_symmetry_group_IT_number 2
_symmetry_cell_setting 'triclinic'
loop_
_space_group_symop_operation_xyz
x,y,z
-x,-y,-z
loop_
_atom_site_type_symbol
_atom_site_label
_atom_site_fract_x
_atom_site_fract_y
_atom_site_fract_z
Si Si1 0.330007 0.936298 0.045627
Si Si2 0.368150 0.513500 0.990474
Si Si3 0.294797 0.445202 0.664876
Si Si4 0.636341 0.940608 0.660050
Si Si5 0.857045 0.478592 0.833253
Si Si6 0.659076 0.809327 0.382651
Si Si7 0.815564 0.349225 0.314124
O O1 0.299746 0.005546 0.187350
O O2 0.215279 0.710224 0.161481
O O3 0.316807 0.034540 0.833296
O O4 0.500000 0.000000 0.000000
O O5 0.283839 0.395778 0.896584
O O6 0.464104 0.741228 0.819131
O O7 0.500000 0.500000 0.000000
O O8 0.247603 0.459132 0.191328
O O9 0.474945 0.630989 0.506039
O O10 0.261049 0.275617 0.650816
O O11 0.198233 0.517585 0.634825
O O12 0.704011 0.891606 0.523353
O O13 0.665770 0.129661 0.488108
O O14 0.036534 0.630499 0.679778
O O15 0.839737 0.419235 0.073020
#
# Coordination Sequence:
#
# PCOD9100121 Si02
#       7
#     2   2   2   2   2   2   2
#     4  12  22  35  64  95 121 163 211 263 305 370
#     4  10  20  37  62  95 126 159 209 262 310 364
#     4   9  20  35  63  88 124 168 200 261 315 364
#     4  11  22  38  67  91 122 164 212 257 301 377
#     4  10  22  39  65  91 128 166 203 262 313 369
#     4  10  21  39  59  94 125 160 213 257 311 362
#     4  10  21  42  64  91 125 167 212 249 316 378
#
# _framework density 22.879145999999999
#
# number of rings (size 3 to 8) (size 9 to 14) (size 15 to 20)
#    0.000    1.714    2.857    1.714    0.000    2.857 
#    2.571    1.429    3.143    0.000    0.000    0.000 
#    0.000    0.000    0.000    0.000    0.000    0.000 
#
# Total GULP energy -78176.718206 kJ/mol
# GULP energy per Si atom -5584.051300 kJ/mol
# Density = 2.282707 g / cm^3
# Si number density = 22.879146 Si / 1000 Ang^3
#
#
#
# Elastic Constant Matrix: (Units=GPa)
#
#
# Indices 1 2 3 4 5 6 
#
# 1 110.3386 47.1451 23.0531 -0.5663 -21.2790 -29.0484
# 2 47.1451 137.5260 33.2751 40.5178 -8.2296 -24.6990
# 3 23.0531 33.2751 60.7215 13.9585 0.4975 -5.5439
# 4 -0.5663 40.5178 13.9585 39.3870 -2.8438 -4.0800
# 5 -21.2790 -8.2296 0.4975 -2.8438 18.8870 3.0366
# 6 -29.0484 -24.6990 -5.5439 -4.0800 3.0366 31.7912
#
#
#
# Elastic Compliance Matrix: (Units=1/GPa)
#
#
# Indices 1 2 3 4 5 6 
#
# 1 0.019464 -0.004739 -0.006120 0.010025 0.019532 0.012457
# 2 -0.004739 0.014179 -0.002436 -0.013438 -0.001879 0.004715
# 3 -0.006120 -0.002436 0.021272 -0.006145 -0.008844 -0.003718
# 4 0.010025 -0.013438 -0.006145 0.042586 0.011692 0.001997
# 5 0.019532 -0.001879 -0.008844 0.011692 0.074646 0.009216
# 6 0.012457 0.004715 -0.003718 0.001997 0.009216 0.045228
#
#
# Mechanical properties :
#
#
# Convention : Reuss Voigt Hill
#
# Bulk Modulus (GPa) = 35.30307 57.28139 46.29223
# Shear Modulus (GPa) = 19.73109 31.68722 25.70916
#
# Velocity S-wave (km/s) = 2.93986 3.72557 3.35579
# Velocity P-wave (km/s) = 5.19494 6.60283 5.94074
#
# Compressibility (1/GPa) = 0.02832614
#
# Stress axis : x y z
#
# Youngs Moduli (GPa) = 51.37595 70.52703 47.00953
#
# Poissons Ratio (x) = 0.33425 0.28769
# Poissons Ratio (y) = 0.24349 0.11450
# Poissons Ratio (z) = 0.31441 0.17178
#
# Static dielectric constant tensor:
#      x y z
#    x 1.913900 -0.017840 0.035960 
#    y -0.017840 1.838930 0.026870 
#    z 0.035960 0.026870 1.898680 
# 
# From -- ./inp_files/182264.got.cif
#   From: 2010.05.17/outbox.cif.g08.bks.cpg/sg2_92_cif.got.tgz:182264.got - 2010.06.03 11:33:40.
