data_PCOD9100778
_publ_section_title
;
Structure prediction by ZEFSAII (Michael W. Deem and Ramdas Pophale) SiO2 
 PCOD9100778
Probable space group: P -1
;
_chemical_formula_sum "Si O2"
_cell_formula_units_Z 13
_cell_length_a 7.052669
_cell_length_b 10.108671
_cell_length_c 13.832961
_cell_angle_alpha 46.008304
_cell_angle_beta 86.478247
_cell_angle_gamma 57.293853
_cell_volume 510.512014
_symmetry_space_group_name_H-M "P -1"
_symmetry_group_IT_number 2
_symmetry_cell_setting 'triclinic'
loop_
_space_group_symop_operation_xyz
x,y,z
-x,-y,-z
loop_
_atom_site_type_symbol
_atom_site_label
_atom_site_fract_x
_atom_site_fract_y
_atom_site_fract_z
Si Si1 0.141371 0.570646 0.314025
Si Si2 0.055695 0.810331 0.675508
Si Si3 0.416428 0.253160 0.744630
Si Si4 0.460214 0.987849 0.345430
Si Si5 0.500000 0.500000 0.500000
Si Si6 0.703012 0.194163 0.152402
Si Si7 0.361372 0.738317 0.095210
O O1 0.233911 0.612718 0.387578
O O2 0.205668 0.666247 0.176479
O O3 0.852210 0.675871 0.272277
O O4 0.341228 0.262251 0.468049
O O5 0.070447 0.896913 0.736087
O O6 0.334226 0.523776 0.798211
O O7 0.818067 0.827464 0.686678
O O8 0.000000 0.000000 0.500000
O O9 0.372323 0.499560 0.602972
O O10 0.612728 0.119887 0.896565
O O11 0.547691 0.115640 0.706147
O O12 0.563974 0.115554 0.247484
O O13 0.500000 0.500000 0.000000
O O14 0.757014 0.121935 0.074612
#
# Coordination Sequence:
#
# PCOD9100778 Si02
#       7
#     2   2   2   2   1   2   2
#     4  10  20  37  65  97 135 171 215 266 328 390
#     4  11  24  44  69  98 128 174 227 278 319 391
#     4  10  22  38  67  99 135 171 217 269 336 389
#     4  11  23  40  69 100 128 175 226 269 327 399
#     4   8  16  32  52  90 130 160 202 260 312 368
#     4  10  26  45  64  95 139 176 218 274 334 390
#     4  10  23  44  64  97 140 170 213 276 334 390
#
# _framework density 25.46463
#
# number of rings (size 3 to 8) (size 9 to 14) (size 15 to 20)
#    0.000    1.846    1.538    1.846    2.154   11.077 
#    0.000    1.538    0.000    0.000    0.000    0.000 
#    0.000    0.000    0.000    0.000    0.000    0.000 
#
# Total GULP energy -72538.008756 kJ/mol
# GULP energy per Si atom -5579.846827 kJ/mol
# Density = 2.540667 g / cm^3
# Si number density = 25.464630 Si / 1000 Ang^3
#
#
#
# Elastic Constant Matrix: (Units=GPa)
#
#
# Indices 1 2 3 4 5 6 
#
# 1 174.1218 67.8906 130.7278 50.6720 2.1887 -51.0846
# 2 67.8906 43.2265 -16.9975 -15.9272 0.7772 0.2159
# 3 130.7278 -16.9975 86.1885 -6.1023 -15.7471 22.5161
# 4 50.6720 -15.9272 -6.1023 27.3659 -5.3737 16.7935
# 5 2.1887 0.7772 -15.7471 -5.3737 39.4495 20.4070
# 6 -51.0846 0.2159 22.5161 16.7935 20.4070 35.9142
#
#
#
# Elastic Compliance Matrix: (Units=1/GPa)
#
#
# Indices 1 2 3 4 5 6 
#
# 1 0.000460 0.001812 0.002133 0.004731 0.004162 -0.005272
# 2 0.001812 0.017085 -0.004658 -0.004008 -0.009352 0.012583
# 3 0.002133 -0.004658 0.005123 -0.009041 -0.001873 0.005141
# 4 0.004731 -0.004008 -0.009041 0.018806 -0.004401 0.006130
# 5 0.004162 -0.009352 -0.001873 -0.004401 0.027182 -0.006237
# 6 -0.005272 0.012583 0.005141 0.006130 -0.006237 0.017725
#
#
# Mechanical properties :
#
#
# Convention : Reuss Voigt Hill
#
# Bulk Modulus (GPa) = 47.08063 74.08651 60.58357
# Shear Modulus (GPa) = 52.69396 28.67366 40.68381
#
# Velocity S-wave (km/s) = 4.55389 3.35926 4.00141
# Velocity P-wave (km/s) = 6.79554 6.64855 6.72245
#
# Compressibility (1/GPa) = 0.02124016
#
# Stress axis : x y z
#
# Youngs Moduli (GPa) = 2176.19879 58.53121 195.18651
#
# Poissons Ratio (x) = -0.10605 -0.41630
# Poissons Ratio (y) = -3.94290 0.90927
# Poissons Ratio (z) = -4.64152 0.27267
#
# Static dielectric constant tensor:
#      x y z
#    x 1.888030 -0.043810 0.131080 
#    y -0.043810 1.952900 0.149520 
#    z 0.131080 0.149520 1.826760 
# 
# From -- ./inp_files/89173.got.cif
#   From: 2010.05.17/outbox.cif.g08.bks.cpg/sg2_45_cif.got.tgz:89173.got - 2010.06.03 11:33:40.
