data_PCOD9100263
_publ_section_title
;
Structure prediction by ZEFSAII (Michael W. Deem and Ramdas Pophale) SiO2 
 PCOD9100263
Probable space group: P -1
;
_chemical_formula_sum "Si O2"
_cell_formula_units_Z 16
_cell_length_a 9.151443
_cell_length_b 15.824229
_cell_length_c 15.808460
_cell_angle_alpha 39.659203
_cell_angle_beta 118.450913
_cell_angle_gamma 142.729562
_cell_volume 828.004507
_symmetry_space_group_name_H-M "P -1"
_symmetry_group_IT_number 2
_symmetry_cell_setting 'triclinic'
loop_
_space_group_symop_operation_xyz
x,y,z
-x,-y,-z
loop_
_atom_site_type_symbol
_atom_site_label
_atom_site_fract_x
_atom_site_fract_y
_atom_site_fract_z
Si Si1 0.487237 0.187927 0.286582
Si Si2 0.700266 0.280716 0.583802
Si Si3 0.278319 0.600161 0.994735
Si Si4 0.254454 0.312767 0.132336
Si Si5 0.814698 0.267346 0.448174
Si Si6 0.575451 0.963743 0.917577
Si Si7 0.775460 0.039061 0.085499
Si Si8 0.581437 0.396483 0.602243
O O1 0.572952 0.267142 0.152755
O O2 0.328044 0.213151 0.261447
O O3 0.745919 0.314493 0.312593
O O4 0.303492 0.949853 0.426876
O O5 0.655616 0.231026 0.511358
O O6 0.551414 0.306454 0.571743
O O7 0.000000 0.500000 0.500000
O O8 0.658822 0.119779 0.748614
O O9 0.453350 0.761178 0.995530
O O10 0.226673 0.411697 0.117159
O O11 0.000000 0.500000 0.000000
O O12 0.021821 0.166265 0.114118
O O13 0.500000 0.500000 0.000000
O O14 0.118196 0.439599 0.416823
O O15 0.357223 0.910162 0.951460
O O16 0.796538 0.070516 0.966006
O O17 0.589161 0.799355 0.232744
O O18 0.500000 0.500000 0.500000
#
# Coordination Sequence:
#
# PCOD9100263 Si02
#       8
#     2   2   2   2   2   2   2   2
#     4  10  22  38  61  83 120 157 204 242 298 361
#     4   9  19  36  60  85 115 157 195 240 292 358
#     4  11  21  37  63  87 124 157 197 247 303 359
#     4  10  22  38  57  86 123 159 191 247 302 354
#     4  10  20  39  61  85 113 165 201 240 297 366
#     4  10  20  37  63  91 116 153 203 246 296 365
#     4  10  21  37  61  89 120 157 196 247 306 358
#     4  10  21  37  62  88 123 152 196 253 307 349
#
# _framework density 19.323567000000001
#
# number of rings (size 3 to 8) (size 9 to 14) (size 15 to 20)
#    0.000    2.000    2.500    0.750    1.750    5.000 
#    2.250    2.500    0.000    4.500    0.000    0.000 
#    0.000    0.000    0.000    0.000    0.000    0.000 
#
# Total GULP energy -89187.999115 kJ/mol
# GULP energy per Si atom -5574.249945 kJ/mol
# Density = 1.927959 g / cm^3
# Si number density = 19.323567 Si / 1000 Ang^3
#
#
#
# Elastic Constant Matrix: (Units=GPa)
#
#
# Indices 1 2 3 4 5 6 
#
# 1 87.4271 40.3423 25.6753 -3.0849 28.6612 -13.1748
# 2 40.3423 113.0358 37.2102 -0.1977 17.3838 -6.0234
# 3 25.6753 37.2102 40.2766 3.4602 10.7385 -12.7152
# 4 -3.0849 -0.1977 3.4602 21.7590 -2.2681 -0.9337
# 5 28.6612 17.3838 10.7385 -2.2681 34.2383 -6.3030
# 6 -13.1748 -6.0234 -12.7152 -0.9337 -6.3030 34.4649
#
#
#
# Elastic Compliance Matrix: (Units=1/GPa)
#
#
# Indices 1 2 3 4 5 6 
#
# 1 0.018757 -0.002918 -0.005504 0.002379 -0.011872 0.002523
# 2 -0.002918 0.013752 -0.011592 0.001270 -0.001411 -0.003212
# 3 -0.005504 -0.011592 0.043756 -0.007517 -0.001609 0.011515
# 4 0.002379 0.001270 -0.007517 0.047815 0.002924 0.000188
# 5 -0.011872 -0.001411 -0.001609 0.002924 0.040963 0.002192
# 6 0.002523 -0.003212 0.011515 0.000188 0.002192 0.034072
#
#
# Mechanical properties :
#
#
# Convention : Reuss Voigt Hill
#
# Bulk Modulus (GPa) = 27.59536 49.68834 38.64185
# Shear Modulus (GPa) = 19.90256 27.25988 23.58122
#
# Velocity S-wave (km/s) = 3.21279 3.76001 3.49712
# Velocity P-wave (km/s) = 5.29852 6.67982 6.02886
#
# Compressibility (1/GPa) = 0.03623797
#
# Stress axis : x y z
#
# Youngs Moduli (GPa) = 53.31321 72.71530 22.85379
#
# Poissons Ratio (x) = 0.21220 0.12578
# Poissons Ratio (y) = 0.15558 0.26492
# Poissons Ratio (z) = 0.29342 0.84291
#
# Static dielectric constant tensor:
#      x y z
#    x 1.707340 -0.024130 0.025270 
#    y -0.024130 1.740650 0.038860 
#    z 0.025270 0.038860 1.729280 
# 
# From -- ./inp_files/266800.got.cif
#   From: 2010.05.17/outbox.cif.g08.bks.cpg/sg2_134_cif.got.tgz:266800.got - 2010.06.03 11:33:40.
