data_PCOD9100957
_publ_section_title
;
Structure prediction by ZEFSAII (Michael W. Deem and Ramdas Pophale) SiO2 
 PCOD9100957
Probable space group: P -1
;
_chemical_formula_sum "Si O2"
_cell_formula_units_Z 16
_cell_length_a 9.272451
_cell_length_b 20.997239
_cell_length_c 11.637190
_cell_angle_alpha 145.445687
_cell_angle_beta 141.245376
_cell_angle_gamma 51.315422
_cell_volume 803.496910
_symmetry_space_group_name_H-M "P -1"
_symmetry_group_IT_number 2
_symmetry_cell_setting 'triclinic'
loop_
_space_group_symop_operation_xyz
x,y,z
-x,-y,-z
loop_
_atom_site_type_symbol
_atom_site_label
_atom_site_fract_x
_atom_site_fract_y
_atom_site_fract_z
Si Si1 0.768973 0.255725 0.710611
Si Si2 0.321909 0.557714 0.391321
Si Si3 0.791365 0.514971 0.040947
Si Si4 0.623713 0.185643 0.265560
Si Si5 0.472655 0.117684 0.723513
Si Si6 0.386459 0.263195 0.667840
Si Si7 0.927541 0.126104 0.161982
Si Si8 0.824749 0.893576 0.250439
O O1 0.679842 0.194310 0.447396
O O2 0.595186 0.229364 0.667386
O O3 0.022349 0.214252 0.830087
O O4 0.773307 0.388661 0.888387
O O5 0.500000 0.500000 0.500000
O O6 0.401928 0.686320 0.604785
O O7 0.060437 0.556769 0.275456
O O8 0.290335 0.492112 0.153215
O O9 0.640181 0.603960 0.143435
O O10 0.835353 0.140924 0.256561
O O11 0.391563 0.114105 0.982143
O O12 0.414976 0.211077 0.734212
O O13 0.283911 0.105054 0.687862
O O14 0.500000 0.000000 0.500000
O O15 0.712364 0.149513 0.982649
O O16 0.146143 0.207354 0.391269
O O17 0.000000 0.000000 0.000000
O O18 0.000000 0.000000 0.500000
#
# Coordination Sequence:
#
# PCOD9100957 Si02
#       8
#     2   2   2   2   2   2   2   2
#     4  11  25  43  63  94 135 171 212 265 323 385
#     4  10  20  37  67  95 124 162 213 268 320 376
#     4  10  23  39  65  95 127 168 216 264 321 383
#     4  10  23  43  63  94 125 169 213 262 321 382
#     4  11  24  41  66  93 126 168 218 265 317 381
#     4  12  24  42  65  95 131 173 213 265 322 383
#     4  11  23  41  66  92 125 165 218 267 318 382
#     4  11  25  42  66  95 130 168 212 266 326 381
#
# _framework density 19.912960000000002
#
# number of rings (size 3 to 8) (size 9 to 14) (size 15 to 20)
#    0.000    1.250    2.500    2.625    8.750    2.500 
#    0.000    0.000    0.000    6.000    0.000    0.000 
#    0.000    0.000    0.000    0.000    0.000    0.000 
#
# Total GULP energy -89479.472818 kJ/mol
# GULP energy per Si atom -5592.467051 kJ/mol
# Density = 1.986764 g / cm^3
# Si number density = 19.912960 Si / 1000 Ang^3
#
#
#
# Elastic Constant Matrix: (Units=GPa)
#
#
# Indices 1 2 3 4 5 6 
#
# 1 102.8135 15.5334 20.5655 -3.7123 2.3915 -21.3375
# 2 15.5334 70.7636 10.2908 0.9082 2.4082 -8.7355
# 3 20.5655 10.2908 68.9809 -0.8690 8.9193 -6.0882
# 4 -3.7123 0.9082 -0.8690 33.9563 -12.2526 -4.0411
# 5 2.3915 2.4082 8.9193 -12.2526 31.1464 6.4081
# 6 -21.3375 -8.7355 -6.0882 -4.0411 6.4081 32.6319
#
#
#
# Elastic Compliance Matrix: (Units=1/GPa)
#
#
# Indices 1 2 3 4 5 6 
#
# 1 0.012087 -0.001347 -0.002607 0.001861 -0.000880 0.007460
# 2 -0.001347 0.015078 -0.001372 -0.000801 -0.001626 0.003119
# 3 -0.002607 -0.001372 0.016312 -0.001543 -0.005349 0.001831
# 4 0.001861 -0.000801 -0.001543 0.034812 0.013570 0.002361
# 5 -0.000880 -0.001626 -0.005349 0.013570 0.040889 -0.008358
# 6 0.007460 0.003119 0.001831 0.002361 -0.008358 0.038633
#
#
# Mechanical properties :
#
#
# Convention : Reuss Voigt Hill
#
# Bulk Modulus (GPa) = 30.46500 37.25972 33.86236
# Shear Modulus (GPa) = 27.86970 32.62481 30.24726
#
# Velocity S-wave (km/s) = 3.74515 4.05207 3.90163
# Velocity P-wave (km/s) = 5.83385 6.37529 6.11057
#
# Compressibility (1/GPa) = 0.03282456
#
# Stress axis : x y z
#
# Youngs Moduli (GPa) = 82.73197 66.32378 61.30296
#
# Poissons Ratio (x) = 0.08935 0.15981
# Poissons Ratio (y) = 0.11146 0.08412
# Poissons Ratio (z) = 0.21568 0.09101
#
# Static dielectric constant tensor:
#      x y z
#    x 1.641870 -0.039090 0.045770 
#    y -0.039090 1.654320 0.058680 
#    z 0.045770 0.058680 1.637160 
# 
# From -- ./inp_files/272590.got.cif
#   From: 2010.05.17/outbox.cif.g08.bks.cpg/sg2_137_cif.got.tgz:272590.got - 2010.06.03 11:33:40.
