data_PCOD9100362
_publ_section_title
;
Structure prediction by ZEFSAII (Michael W. Deem and Ramdas Pophale) SiO2 
 PCOD9100362
Probable space group: P -1
;
_chemical_formula_sum "Si O2"
_cell_formula_units_Z 12
_cell_length_a 7.066816
_cell_length_b 17.015246
_cell_length_c 7.186713
_cell_angle_alpha 125.614634
_cell_angle_beta 78.483933
_cell_angle_gamma 134.904448
_cell_volume 462.820737
_symmetry_space_group_name_H-M "P -1"
_symmetry_group_IT_number 2
_symmetry_cell_setting 'triclinic'
loop_
_space_group_symop_operation_xyz
x,y,z
-x,-y,-z
loop_
_atom_site_type_symbol
_atom_site_label
_atom_site_fract_x
_atom_site_fract_y
_atom_site_fract_z
Si Si1 0.423787 0.920242 0.603048
Si Si2 0.259656 0.673781 0.683610
Si Si3 0.350696 0.571910 0.223646
Si Si4 0.084870 0.926767 0.966019
Si Si5 0.310425 0.685923 0.091873
Si Si6 0.239567 0.368622 0.242861
O O1 0.216458 0.914392 0.750051
O O2 0.296096 0.771289 0.350169
O O3 0.677179 0.985703 0.790943
O O4 0.500000 0.000000 0.500000
O O5 0.065303 0.696008 0.721184
O O6 0.000000 0.500000 0.500000
O O7 0.453105 0.688541 0.517259
O O8 0.472144 0.658240 0.125284
O O9 0.332796 0.457728 0.154424
O O10 0.013459 0.463664 0.101297
O O11 0.834062 0.768793 0.889898
O O12 0.588279 0.248632 0.043937
O O13 0.000000 0.000000 0.000000
O O14 0.500000 0.500000 0.500000
#
# Coordination Sequence:
#
# PCOD9100362 Si02
#       6
#     2   2   2   2   2   2
#     4  11  24  46  76  97 139 196 238 292 356 421
#     4   8  16  33  57  90 126 165 214 272 332 407
#     4   9  18  34  61  93 129 167 218 280 336 410
#     4  11  27  48  69 104 144 188 242 291 356 430
#     4   9  17  32  63  94 122 163 228 276 332 405
#     4  10  20  37  63  95 132 172 220 279 347 409
#
# _framework density 25.927962999999998
#
# number of rings (size 3 to 8) (size 9 to 14) (size 15 to 20)
#    0.000    2.667    0.000    3.000    2.333    3.333 
#   12.000    0.000    0.000   20.000    0.000    0.000 
#    0.000    0.000    0.000    0.000    0.000    0.000 
#
# Total GULP energy -66815.887497 kJ/mol
# GULP energy per Si atom -5567.990625 kJ/mol
# Density = 2.586895 g / cm^3
# Si number density = 25.927963 Si / 1000 Ang^3
#
#
#
# Elastic Constant Matrix: (Units=GPa)
#
#
# Indices 1 2 3 4 5 6 
#
# 1 150.9566 69.0109 73.4792 -15.8308 -20.0138 -52.3637
# 2 69.0109 183.7128 78.3306 -11.5419 -6.6325 -40.8433
# 3 73.4792 78.3306 185.2395 -16.5034 2.4559 -20.0240
# 4 -15.8308 -11.5419 -16.5034 40.6850 -12.5896 0.7164
# 5 -20.0138 -6.6325 2.4559 -12.5896 41.2822 5.4779
# 6 -52.3637 -40.8433 -20.0240 0.7164 5.4779 53.0354
#
#
#
# Elastic Compliance Matrix: (Units=1/GPa)
#
#
# Indices 1 2 3 4 5 6 
#
# 1 0.014256 -0.000594 -0.003744 0.005931 0.007339 0.011366
# 2 -0.000594 0.007812 -0.002502 0.001169 0.000891 0.004377
# 3 -0.003744 -0.002502 0.007732 0.000317 -0.002252 -0.002476
# 4 0.005931 0.001169 0.000317 0.030897 0.011771 0.005242
# 5 0.007339 0.000891 -0.002252 0.011771 0.031157 0.003705
# 6 0.011366 0.004377 -0.002476 0.005242 0.003705 0.032060
#
#
# Mechanical properties :
#
#
# Convention : Reuss Voigt Hill
#
# Bulk Modulus (GPa) = 62.03810 106.83894 84.43852
# Shear Modulus (GPa) = 34.97290 46.93975 40.95632
#
# Velocity S-wave (km/s) = 3.67665 4.25948 3.97875
# Velocity P-wave (km/s) = 6.48095 8.09237 7.33107
#
# Compressibility (1/GPa) = 0.01611913
#
# Stress axis : x y z
#
# Youngs Moduli (GPa) = 70.14493 128.00651 129.33212
#
# Poissons Ratio (x) = 0.07610 0.48421
# Poissons Ratio (y) = 0.04170 0.32362
# Poissons Ratio (z) = 0.26262 0.32030
#
# Static dielectric constant tensor:
#      x y z
#    x 2.123960 -0.026260 -0.081690 
#    y -0.026260 2.475050 -0.167830 
#    z -0.081690 -0.167830 2.110460 
# 
# From -- ./inp_files/197864.got.cif
#   From: 2010.05.17/outbox.cif.g08.bks.cpg/sg2_99_cif.got.tgz:197864.got - 2010.06.03 11:33:40.
