data_PCOD9100518
_publ_section_title
;
Structure prediction by ZEFSAII (Michael W. Deem and Ramdas Pophale) SiO2 
 PCOD9100518
Probable space group: P -1
;
_chemical_formula_sum "Si O2"
_cell_formula_units_Z 12
_cell_length_a 14.899633
_cell_length_b 10.027297
_cell_length_c 9.223084
_cell_angle_alpha 111.507014
_cell_angle_beta 36.241817
_cell_angle_gamma 132.773825
_cell_volume 543.416962
_symmetry_space_group_name_H-M "P -1"
_symmetry_group_IT_number 2
_symmetry_cell_setting 'triclinic'
loop_
_space_group_symop_operation_xyz
x,y,z
-x,-y,-z
loop_
_atom_site_type_symbol
_atom_site_label
_atom_site_fract_x
_atom_site_fract_y
_atom_site_fract_z
Si Si1 0.045428 0.094622 0.635906
Si Si2 0.389749 0.113573 0.342231
Si Si3 0.169301 0.681279 0.467162
Si Si4 0.225611 0.127924 0.836711
Si Si5 0.778057 0.564919 0.963823
Si Si6 0.710393 0.543307 0.720695
O O1 0.216559 0.104097 0.491756
O O2 0.161594 0.318061 0.529591
O O3 0.000000 0.000000 0.500000
O O4 0.842183 0.972567 0.956309
O O5 0.368745 0.124140 0.547079
O O6 0.611673 0.326340 0.088766
O O7 0.326801 0.910482 0.304121
O O8 0.300601 0.636029 0.343756
O O9 0.000000 0.500000 0.500000
O O10 0.998826 0.655427 0.778553
O O11 0.312323 0.347989 0.818149
O O12 0.000000 0.000000 0.000000
O O13 0.824292 0.641653 0.767402
O O14 0.500000 0.500000 0.000000
#
# Coordination Sequence:
#
# PCOD9100518 Si02
#       6
#     2   2   2   2   2   2
#     4  11  19  37  63  90 126 163 203 260 312 362
#     4  11  22  39  66  93 122 168 216 252 305 382
#     4  10  22  40  60  91 129 163 206 263 309 368
#     4  10  20  37  64  92 124 165 212 252 309 376
#     4  11  20  39  66  94 122 163 214 255 311 373
#     4  11  22  38  60  93 124 160 207 262 318 366
#
# _framework density 22.082491000000001
#
# number of rings (size 3 to 8) (size 9 to 14) (size 15 to 20)
#    0.000    1.333    6.667    1.500    0.000    2.667 
#    3.000    0.833    0.000    2.000    0.000    0.000 
#    0.000    0.000    0.000    0.000    0.000    0.000 
#
# Total GULP energy -66859.882065 kJ/mol
# GULP energy per Si atom -5571.656839 kJ/mol
# Density = 2.203223 g / cm^3
# Si number density = 22.082491 Si / 1000 Ang^3
#
#
#
# Elastic Constant Matrix: (Units=GPa)
#
#
# Indices 1 2 3 4 5 6 
#
# 1 60.1298 28.9857 37.4467 -1.9874 3.1966 -22.3609
# 2 28.9857 176.6041 44.0851 -23.2097 4.0415 -32.4750
# 3 37.4467 44.0851 118.6712 -19.1473 13.9210 -17.7101
# 4 -1.9874 -23.2097 -19.1473 36.2229 -2.9104 2.6452
# 5 3.1966 4.0415 13.9210 -2.9104 38.6302 1.8085
# 6 -22.3609 -32.4750 -17.7101 2.6452 1.8085 36.5997
#
#
#
# Elastic Compliance Matrix: (Units=1/GPa)
#
#
# Indices 1 2 3 4 5 6 
#
# 1 0.025375 -0.000803 -0.006416 -0.003429 -0.000522 0.011960
# 2 -0.000803 0.007576 -0.001100 0.003808 -0.000297 0.005439
# 3 -0.006416 -0.001100 0.012196 0.005057 -0.003406 0.000808
# 4 -0.003429 0.003808 0.005057 0.032468 0.000445 0.001362
# 5 -0.000522 -0.000297 -0.003406 0.000445 0.027391 -0.003617
# 6 0.011960 0.005439 0.000808 0.001362 -0.003617 0.039927
#
#
# Mechanical properties :
#
#
# Convention : Reuss Voigt Hill
#
# Bulk Modulus (GPa) = 35.07576 64.04890 49.56233
# Shear Modulus (GPa) = 29.22692 38.61639 33.92166
#
# Velocity S-wave (km/s) = 3.64199 4.18632 3.92361
# Velocity P-wave (km/s) = 5.79689 7.24116 6.55890
#
# Compressibility (1/GPa) = 0.02850972
#
# Stress axis : x y z
#
# Youngs Moduli (GPa) = 39.40815 131.99310 81.99362
#
# Poissons Ratio (x) = 0.10593 0.52609
# Poissons Ratio (y) = 0.03163 0.09021
# Poissons Ratio (z) = 0.25285 0.14522
#
# Static dielectric constant tensor:
#      x y z
#    x 1.841820 0.016820 0.019490 
#    y 0.016820 1.956420 0.044800 
#    z 0.019490 0.044800 1.906990 
# 
# From -- ./inp_files/156371.got.cif
#   From: 2010.05.17/outbox.cif.g08.bks.cpg/sg2_79_cif.got.tgz:156371.got - 2010.06.03 11:33:40.
