data_PCOD9100478
_publ_section_title
;
Structure prediction by ZEFSAII (Michael W. Deem and Ramdas Pophale) SiO2 
 PCOD9100478
Probable space group: P -1
;
_chemical_formula_sum "Si O2"
_cell_formula_units_Z 12
_cell_length_a 9.384150
_cell_length_b 19.519489
_cell_length_c 5.503338
_cell_angle_alpha 47.348213
_cell_angle_beta 58.218892
_cell_angle_gamma 36.775151
_cell_volume 443.575429
_symmetry_space_group_name_H-M "P -1"
_symmetry_group_IT_number 2
_symmetry_cell_setting 'triclinic'
loop_
_space_group_symop_operation_xyz
x,y,z
-x,-y,-z
loop_
_atom_site_type_symbol
_atom_site_label
_atom_site_fract_x
_atom_site_fract_y
_atom_site_fract_z
Si Si1 0.565189 0.552255 0.008587
Si Si2 0.988000 0.869011 0.422571
Si Si3 0.205681 0.364177 0.283911
Si Si4 0.393956 0.084973 0.135312
Si Si5 0.093288 0.697466 0.326651
Si Si6 0.598922 0.175213 0.969162
O O1 0.306899 0.670013 0.074609
O O2 0.745361 0.428833 0.326564
O O3 0.500000 0.500000 0.000000
O O4 0.697465 0.595602 0.712277
O O5 0.954252 0.829033 0.293693
O O6 0.883111 0.837334 0.785337
O O7 0.260205 0.794239 0.348502
O O8 0.818469 0.025326 0.232768
O O9 0.416304 0.265490 0.133991
O O10 0.084972 0.313537 0.582020
O O11 0.000000 0.500000 0.000000
O O12 0.468166 0.162568 0.917711
O O13 0.500000 0.000000 0.500000
O O14 0.500000 0.000000 0.000000
#
# Coordination Sequence:
#
# PCOD9100478 Si02
#       6
#     2   2   2   2   2   2
#     4  10  22  40  60  91 127 168 215 268 328 392
#     4  10  20  38  65  95 125 173 216 275 336 397
#     4  10  20  37  64  90 126 171 213 271 328 395
#     4  10  22  42  64  94 134 175 220 272 336 401
#     4  10  20  39  64  87 126 166 215 269 324 399
#     4  10  20  38  65  92 132 169 221 271 335 400
#
# _framework density 27.052894999999999
#
# number of rings (size 3 to 8) (size 9 to 14) (size 15 to 20)
#    0.000    2.000    3.333    0.000    0.000    1.333 
#    6.000    3.333    0.000    0.000    0.000    0.000 
#    0.000    0.000    0.000    0.000    0.000    0.000 
#
# Total GULP energy -67115.164501 kJ/mol
# GULP energy per Si atom -5592.930375 kJ/mol
# Density = 2.699132 g / cm^3
# Si number density = 27.052895 Si / 1000 Ang^3
#
#
#
# Elastic Constant Matrix: (Units=GPa)
#
#
# Indices 1 2 3 4 5 6 
#
# 1 231.9619 9.4830 50.2731 -0.3535 -46.8738 -6.8847
# 2 9.4830 123.5894 15.0118 11.7437 -6.6557 -4.5882
# 3 50.2731 15.0118 140.2773 0.9866 -55.3543 3.2914
# 4 -0.3535 11.7437 0.9866 37.2124 4.3748 1.3391
# 5 -46.8738 -6.6557 -55.3543 4.3748 49.4960 -6.0344
# 6 -6.8847 -4.5882 3.2914 1.3391 -6.0344 55.2343
#
#
#
# Elastic Compliance Matrix: (Units=1/GPa)
#
#
# Indices 1 2 3 4 5 6 
#
# 1 0.005435 -0.000034 0.000258 -0.000655 0.005647 0.001292
# 2 -0.000034 0.008507 -0.000573 -0.002799 0.000827 0.000895
# 3 0.000258 -0.000573 0.013009 -0.001957 0.014998 0.000895
# 4 -0.000655 -0.002799 -0.001957 0.028550 -0.005896 -0.001534
# 5 0.005647 0.000827 0.014998 -0.005896 0.043539 0.004778
# 6 0.001292 0.000895 0.000895 -0.001534 0.004778 0.018846
#
#
# Mechanical properties :
#
#
# Convention : Reuss Voigt Hill
#
# Bulk Modulus (GPa) = 38.09056 71.70714 54.89885
# Shear Modulus (GPa) = 39.26661 56.45925 47.86293
#
# Velocity S-wave (km/s) = 3.81396 4.57332 4.21079
# Velocity P-wave (km/s) = 5.78840 7.37908 6.63161
#
# Compressibility (1/GPa) = 0.02625322
#
# Stress axis : x y z
#
# Youngs Moduli (GPa) = 183.99749 117.54606 76.87270
#
# Poissons Ratio (x) = 0.00401 -0.01987
# Poissons Ratio (y) = 0.00628 0.04405
# Poissons Ratio (z) = -0.04755 0.06736
#
# Static dielectric constant tensor:
#      x y z
#    x 2.333390 0.202460 0.219760 
#    y 0.202460 2.555900 0.143790 
#    z 0.219760 0.143790 2.386560 
# 
# From -- ./inp_files/35161.got.cif
#   From: 2010.05.17/outbox.cif.g08.bks.cpg/sg2_18_cif.got.tgz:35161.got - 2010.06.03 11:33:40.
