data_PCOD9100356
_publ_section_title
;
Structure prediction by ZEFSAII (Michael W. Deem and Ramdas Pophale) SiO2 
 PCOD9100356
Probable space group: P -1
;
_chemical_formula_sum "Si O2"
_cell_formula_units_Z 16
_cell_length_a 8.301433
_cell_length_b 12.150662
_cell_length_c 8.363225
_cell_angle_alpha 72.735282
_cell_angle_beta 111.398340
_cell_angle_gamma 130.422538
_cell_volume 595.773403
_symmetry_space_group_name_H-M "P -1"
_symmetry_group_IT_number 2
_symmetry_cell_setting 'triclinic'
loop_
_space_group_symop_operation_xyz
x,y,z
-x,-y,-z
loop_
_atom_site_type_symbol
_atom_site_label
_atom_site_fract_x
_atom_site_fract_y
_atom_site_fract_z
Si Si1 0.587286 0.369223 0.985637
Si Si2 0.308537 0.239459 0.513035
Si Si3 0.883549 0.784760 0.221272
Si Si4 0.274814 0.051065 0.326102
Si Si5 0.038440 0.425174 0.735998
Si Si6 0.605575 0.192258 0.824858
Si Si7 0.141539 0.411296 0.306988
Si Si8 0.679130 0.115888 0.299231
O O1 0.335396 0.305547 0.924644
O O2 0.571326 0.233624 0.967634
O O3 0.736144 0.488521 0.848247
O O4 0.727726 0.452327 0.155569
O O5 0.172068 0.168241 0.656816
O O6 0.228994 0.150336 0.359140
O O7 0.520022 0.251786 0.635365
O O8 0.300803 0.372836 0.434252
O O9 0.930233 0.670047 0.329060
O O10 0.099867 0.939025 0.179972
O O11 0.516703 0.144566 0.303192
O O12 0.270417 0.949471 0.504236
O O13 0.930884 0.508034 0.644074
O O14 0.863642 0.291481 0.848384
O O15 0.462475 0.023208 0.807991
O O16 0.909528 0.254742 0.261080
#
# Coordination Sequence:
#
# PCOD9100356 Si02
#       8
#     2   2   2   2   2   2   2   2
#     4  10  24  41  62  88 121 171 207 251 297 355
#     4  10  22  35  61 100 122 153 192 258 317 357
#     4  11  21  39  67  87 118 168 206 244 301 379
#     4  10  20  38  62  93 129 156 197 244 317 379
#     4  11  23  43  61  86 124 171 211 244 298 359
#     4   9  19  37  64  85 122 160 203 238 303 375
#     4  11  23  39  62  93 133 152 198 262 306 359
#     4  10  20  37  63  95 122 161 195 252 309 369
#
# _framework density 26.855846
#
# number of rings (size 3 to 8) (size 9 to 14) (size 15 to 20)
#    0.000    1.750    2.500    2.250    3.500    6.000 
#    0.000    2.500    0.000    1.500    0.000    0.000 
#    0.000    0.000    0.000    0.000    0.000    0.000 
#
# Total GULP energy -89366.553529 kJ/mol
# GULP energy per Si atom -5585.409596 kJ/mol
# Density = 2.679472 g / cm^3
# Si number density = 26.855846 Si / 1000 Ang^3
#
#
#
# Elastic Constant Matrix: (Units=GPa)
#
#
# Indices 1 2 3 4 5 6 
#
# 1 93.2459 73.0645 26.1239 14.3669 16.6033 -24.5210
# 2 73.0645 161.1996 46.2870 40.4299 13.1276 4.5056
# 3 26.1239 46.2870 62.1098 15.2481 11.9908 2.2119
# 4 14.3669 40.4299 15.2481 39.6659 4.1918 2.5963
# 5 16.6033 13.1276 11.9908 4.1918 27.0924 11.2929
# 6 -24.5210 4.5056 2.2119 2.5963 11.2929 59.7422
#
#
#
# Elastic Compliance Matrix: (Units=1/GPa)
#
#
# Indices 1 2 3 4 5 6 
#
# 1 0.026467 -0.011743 -0.000451 0.003386 -0.017040 0.014839
# 2 -0.011743 0.014940 -0.004885 -0.009333 0.006294 -0.006550
# 3 -0.000451 -0.004885 0.021884 -0.002585 -0.006978 0.000805
# 4 0.003386 -0.009333 -0.002585 0.034654 -0.002231 0.001105
# 5 -0.017040 0.006294 -0.006978 -0.002231 0.055039 -0.017517
# 6 0.014839 -0.006550 0.000805 0.001105 -0.017517 0.026557
#
#
# Mechanical properties :
#
#
# Convention : Reuss Voigt Hill
#
# Bulk Modulus (GPa) = 34.32566 67.50067 50.91316
# Shear Modulus (GPa) = 22.38035 36.70541 29.54288
#
# Velocity S-wave (km/s) = 2.88991 3.70098 3.32030
# Velocity P-wave (km/s) = 4.89333 6.59181 5.80503
#
# Compressibility (1/GPa) = 0.02913273
#
# Stress axis : x y z
#
# Youngs Moduli (GPa) = 37.78301 66.93350 45.69549
#
# Poissons Ratio (x) = 0.78601 0.02059
# Poissons Ratio (y) = 0.44369 0.22324
# Poissons Ratio (z) = 0.01703 0.32700
#
# Static dielectric constant tensor:
#      x y z
#    x 2.094120 -0.005940 0.044960 
#    y -0.005940 2.089090 -0.071560 
#    z 0.044960 -0.071560 2.199990 
# 
# From -- ./inp_files/392528.got.cif
#   From: 2010.05.17/outbox.cif.g08.bks.cpg/sg2_197_cif.got.tgz:392528.got - 2010.06.03 11:33:40.
