data_PCOD9100336
_publ_section_title
;
Structure prediction by ZEFSAII (Michael W. Deem and Ramdas Pophale) SiO2 
 PCOD9100336
Probable space group: P -1
;
_chemical_formula_sum "Si O2"
_cell_formula_units_Z 12
_cell_length_a 19.706474
_cell_length_b 7.264670
_cell_length_c 5.330988
_cell_angle_alpha 118.567498
_cell_angle_beta 139.241776
_cell_angle_gamma 56.646327
_cell_volume 413.519855
_symmetry_space_group_name_H-M "P -1"
_symmetry_group_IT_number 2
_symmetry_cell_setting 'triclinic'
loop_
_space_group_symop_operation_xyz
x,y,z
-x,-y,-z
loop_
_atom_site_type_symbol
_atom_site_label
_atom_site_fract_x
_atom_site_fract_y
_atom_site_fract_z
Si Si1 0.342453 0.537739 0.541852
Si Si2 0.530140 0.206185 0.606717
Si Si3 0.696719 0.859799 0.542793
Si Si4 0.944645 0.218538 0.707888
Si Si5 0.816509 0.041311 0.582801
Si Si6 0.076887 0.343025 0.809121
O O1 0.416588 0.409674 0.433738
O O2 0.342882 0.347453 0.623588
O O3 0.229085 0.715047 0.245992
O O4 0.394284 0.703126 0.940637
O O5 0.500000 0.000000 0.500000
O O6 0.600746 0.089512 0.488935
O O7 0.746611 0.903297 0.444056
O O8 0.798450 0.805699 0.994792
O O9 0.842709 0.149084 0.464081
O O10 0.001670 0.199355 0.585981
O O11 0.904801 0.485177 0.823179
O O12 0.058698 0.112765 0.112699
O O13 0.000000 0.500000 0.500000
#
# Coordination Sequence:
#
# PCOD9100336 Si02
#       6
#     2   2   2   2   2   2
#     4  10  20  41  65  87 128 171 205 271 334 369
#     4   9  21  41  64  92 124 161 218 269 319 396
#     4  10  21  40  62  96 127 165 224 261 313 392
#     4   9  20  39  56  93 136 167 216 264 310 382
#     4  10  20  38  62  89 128 175 210 258 323 375
#     4  10  20  37  63  93 132 176 215 261 317 377
#
# _framework density 29.019162999999999
#
# number of rings (size 3 to 8) (size 9 to 14) (size 15 to 20)
#    0.000    2.333    1.667    0.000    2.333    0.667 
#    3.000   13.333    0.000    0.000    0.000    0.000 
#    0.000    0.000    0.000    0.000    0.000    0.000 
#
# Total GULP energy -66884.496924 kJ/mol
# GULP energy per Si atom -5573.708077 kJ/mol
# Density = 2.895311 g / cm^3
# Si number density = 29.019163 Si / 1000 Ang^3
#
#
#
# Elastic Constant Matrix: (Units=GPa)
#
#
# Indices 1 2 3 4 5 6 
#
# 1 229.2572 62.2125 36.8091 3.6593 18.6963 9.3428
# 2 62.2125 195.9194 26.3548 8.6409 20.7330 2.6881
# 3 36.8091 26.3548 68.3751 25.5802 25.6901 21.9242
# 4 3.6593 8.6409 25.5802 46.8989 9.4814 10.9268
# 5 18.6963 20.7330 25.6901 9.4814 28.3583 -6.3040
# 6 9.3428 2.6881 21.9242 10.9268 -6.3040 72.6231
#
#
#
# Elastic Compliance Matrix: (Units=1/GPa)
#
#
# Indices 1 2 3 4 5 6 
#
# 1 0.005150 -0.001286 -0.002487 0.001360 -0.000685 -0.000128
# 2 -0.001286 0.005898 -0.000214 -0.000149 -0.003276 -0.000250
# 3 -0.002487 -0.000214 0.033652 -0.010016 -0.027726 -0.010731
# 4 0.001360 -0.000149 -0.010016 0.027247 -0.001122 -0.001343
# 5 -0.000685 -0.003276 -0.027726 -0.001122 0.066837 0.014550
# 6 -0.000128 -0.000250 -0.010731 -0.001343 0.014550 0.018500
#
#
# Mechanical properties :
#
#
# Convention : Reuss Voigt Hill
#
# Bulk Modulus (GPa) = 27.22929 82.70052 54.96491
# Shear Modulus (GPa) = 28.16911 54.12108 41.14509
#
# Velocity S-wave (km/s) = 3.11900 4.32326 3.76953
# Velocity P-wave (km/s) = 4.73016 7.31309 6.15856
#
# Compressibility (1/GPa) = 0.03672515
#
# Stress axis : x y z
#
# Youngs Moduli (GPa) = 194.18784 169.54590 29.71614
#
# Poissons Ratio (x) = 0.21811 0.07389
# Poissons Ratio (y) = 0.24981 0.00636
# Poissons Ratio (z) = 0.48288 0.03630
#
# Static dielectric constant tensor:
#      x y z
#    x 2.390160 -0.156660 -0.174530 
#    y -0.156660 1.784110 -0.345840 
#    z -0.174530 -0.345840 2.269480 
# 
# From -- ./inp_files/117504.got.cif
#   From: 2010.05.17/outbox.cif.g08.bks.cpg/sg2_59_cif.got.tgz:117504.got - 2010.06.03 11:33:40.
