data_PCOD9100235
_publ_section_title
;
Structure prediction by ZEFSAII (Michael W. Deem and Ramdas Pophale) SiO2 
 PCOD9100235
Probable space group: P -1
;
_chemical_formula_sum "Si O2"
_cell_formula_units_Z 12
_cell_length_a 19.517922
_cell_length_b 11.433877
_cell_length_c 5.664048
_cell_angle_alpha 58.388820
_cell_angle_beta 48.068199
_cell_angle_gamma 33.033453
_cell_volume 510.583078
_symmetry_space_group_name_H-M "P -1"
_symmetry_group_IT_number 2
_symmetry_cell_setting 'triclinic'
loop_
_space_group_symop_operation_xyz
x,y,z
-x,-y,-z
loop_
_atom_site_type_symbol
_atom_site_label
_atom_site_fract_x
_atom_site_fract_y
_atom_site_fract_z
Si Si1 0.710010 0.857466 0.255600
Si Si2 0.677013 0.292428 0.313681
Si Si3 0.582855 0.781633 0.302308
Si Si4 0.354885 0.572690 0.254114
Si Si5 0.152629 0.153805 0.436395
Si Si6 0.839055 0.553507 0.654022
O O1 0.624299 0.876779 0.227716
O O2 0.824579 0.618329 0.348469
O O3 0.587497 0.024252 0.558229
O O4 0.781354 0.905133 0.916832
O O5 0.500000 0.500000 0.500000
O O6 0.721954 0.305333 0.449099
O O7 0.749123 0.060286 0.412563
O O8 0.719707 0.311977 0.946145
O O9 0.604823 0.632697 0.592885
O O10 0.694708 0.641962 0.977987
O O11 0.500000 0.500000 0.000000
O O12 0.151012 0.309219 0.384126
O O13 0.984938 0.305928 0.639264
#
# Coordination Sequence:
#
# PCOD9100235 Si02
#       6
#     2   2   2   2   2   2
#     4  10  20  37  63  89 122 162 200 267 309 370
#     4  10  22  38  63  91 119 164 211 261 301 369
#     4  10  22  37  59  94 121 156 214 255 316 367
#     4  10  22  39  61  91 120 165 208 261 308 367
#     4  10  22  39  60  93 120 161 213 246 320 377
#     4  10  22  38  62  89 125 161 197 267 315 371
#
# _framework density 23.502541000000001
#
# number of rings (size 3 to 8) (size 9 to 14) (size 15 to 20)
#    0.000    2.000    0.000    3.000    9.333    0.000 
#    0.000    1.667    0.000    0.000    0.000    0.000 
#    0.000    0.000    0.000    0.000    0.000    0.000 
#
# Total GULP energy -66935.963967 kJ/mol
# GULP energy per Si atom -5577.996997 kJ/mol
# Density = 2.344905 g / cm^3
# Si number density = 23.502541 Si / 1000 Ang^3
#
#
#
# Elastic Constant Matrix: (Units=GPa)
#
#
# Indices 1 2 3 4 5 6 
#
# 1 41.5855 16.6724 27.0423 10.5097 20.5982 -3.6364
# 2 16.6724 145.9472 49.9465 -17.3331 -5.2127 -19.3502
# 3 27.0423 49.9465 102.3496 -24.7543 15.4711 -9.6688
# 4 10.5097 -17.3331 -24.7543 37.1530 -5.1270 3.2069
# 5 20.5982 -5.2127 15.4711 -5.1270 29.5819 -7.9081
# 6 -3.6364 -19.3502 -9.6688 3.2069 -7.9081 26.3419
#
#
#
# Elastic Compliance Matrix: (Units=1/GPa)
#
#
# Indices 1 2 3 4 5 6 
#
# 1 0.089181 -0.014444 -0.021071 -0.053701 -0.068275 -0.019992
# 2 -0.014444 0.012183 -0.001256 0.010440 0.017469 0.010468
# 3 -0.021071 -0.001256 0.019690 0.019353 0.008464 0.003581
# 4 -0.053701 0.010440 0.019353 0.064816 0.043711 0.012591
# 5 -0.068275 0.017469 0.008464 0.043711 0.095560 0.029881
# 6 -0.019992 0.010468 0.003581 0.012591 0.029881 0.051644
#
#
# Mechanical properties :
#
#
# Convention : Reuss Voigt Hill
#
# Bulk Modulus (GPa) = 21.04665 53.02276 37.03471
# Shear Modulus (GPa) = 11.83563 31.69676 21.76619
#
# Velocity S-wave (km/s) = 2.24651 3.67638 3.04652
# Velocity P-wave (km/s) = 3.96278 6.37420 5.30726
#
# Compressibility (1/GPa) = 0.04751350
#
# Stress axis : x y z
#
# Youngs Moduli (GPa) = 11.21317 82.07988 50.78731
#
# Poissons Ratio (x) = 1.18553 1.07013
# Poissons Ratio (y) = 0.16196 0.06378
# Poissons Ratio (z) = 0.23627 0.10308
#
# Static dielectric constant tensor:
#      x y z
#    x 1.917530 0.022650 0.061000 
#    y 0.022650 1.921960 0.047890 
#    z 0.061000 0.047890 1.958250 
# 
# From -- ./inp_files/21747.got.cif
#   From: 2010.05.17/outbox.cif.g08.bks.cpg/sg2_11_cif.got.tgz:21747.got - 2010.06.03 11:33:40.
