data_PCOD9100927
_publ_section_title
;
Structure prediction by ZEFSAII (Michael W. Deem and Ramdas Pophale) SiO2 
 PCOD9100927
Probable space group: P -1
;
_chemical_formula_sum "Si O2"
_cell_formula_units_Z 16
_cell_length_a 20.186518
_cell_length_b 9.569971
_cell_length_c 15.367426
_cell_angle_alpha 48.322414
_cell_angle_beta 19.784429
_cell_angle_gamma 50.326708
_cell_volume 749.583613
_symmetry_space_group_name_H-M "P -1"
_symmetry_group_IT_number 2
_symmetry_cell_setting 'triclinic'
loop_
_space_group_symop_operation_xyz
x,y,z
-x,-y,-z
loop_
_atom_site_type_symbol
_atom_site_label
_atom_site_fract_x
_atom_site_fract_y
_atom_site_fract_z
Si Si1 0.403064 0.980803 0.222959
Si Si2 0.734429 0.013953 0.189278
Si Si3 0.996872 0.809917 0.346534
Si Si4 0.441209 0.562180 0.321289
Si Si5 0.955255 0.608444 0.098683
Si Si6 0.754832 0.373388 0.115594
Si Si7 0.552663 0.361942 0.912254
Si Si8 0.046450 0.552384 0.559578
O O1 0.442605 0.763449 0.282950
O O2 0.171192 0.029543 0.495703
O O3 0.500000 0.000000 0.000000
O O4 0.496815 0.150118 0.088449
O O5 0.803504 0.159542 0.116187
O O6 0.500000 0.000000 0.500000
O O7 0.861024 0.819291 0.118844
O O8 0.805697 0.112552 0.970843
O O9 0.915756 0.653855 0.445073
O O10 0.025558 0.697278 0.446766
O O11 0.223449 0.502238 0.595696
O O12 0.534457 0.416678 0.336847
O O13 0.532055 0.575976 0.104451
O O14 0.000000 0.500000 0.000000
O O15 0.151861 0.602387 0.916027
O O16 0.859244 0.520408 0.862899
O O17 0.784847 0.373683 0.619848
O O18 0.500000 0.500000 0.000000
#
# Coordination Sequence:
#
# PCOD9100927 Si02
#       8
#     2   2   2   2   2   2   2   2
#     4  10  21  39  61  94 145 184 220 287 361 428
#     4  11  24  46  74 103 140 194 245 297 347 426
#     4  10  21  39  65 103 141 178 234 291 352 426
#     4  11  24  45  65  97 143 183 230 289 356 425
#     4  12  26  48  72 101 140 186 245 297 359 423
#     4  11  24  47  75  99 138 188 240 297 360 422
#     4  11  21  37  65 103 136 176 230 279 349 429
#     4  10  20  37  67 103 133 175 226 294 350 413
#
# _framework density 21.345182999999999
#
# number of rings (size 3 to 8) (size 9 to 14) (size 15 to 20)
#    0.000    1.250    3.750    2.625    3.500    0.500 
#    4.500    3.125    0.000    0.000    0.000    0.000 
#    0.000    0.000    0.000    0.000    0.000    0.000 
#
# Total GULP energy -89168.528743 kJ/mol
# GULP energy per Si atom -5573.033046 kJ/mol
# Density = 2.129660 g / cm^3
# Si number density = 21.345183 Si / 1000 Ang^3
#
#
#
# Elastic Constant Matrix: (Units=GPa)
#
#
# Indices 1 2 3 4 5 6 
#
# 1 117.7066 52.5361 16.4347 -0.1022 -5.6071 5.5636
# 2 52.5361 146.2165 15.8068 -0.0532 7.9413 9.8269
# 3 16.4347 15.8068 84.8457 -9.7952 1.5794 -1.7099
# 4 -0.1022 -0.0532 -9.7952 35.1433 2.5334 -4.8662
# 5 -5.6071 7.9413 1.5794 2.5334 28.1785 0.4448
# 6 5.5636 9.8269 -1.7099 -4.8662 0.4448 21.5354
#
#
#
# Elastic Compliance Matrix: (Units=1/GPa)
#
#
# Indices 1 2 3 4 5 6 
#
# 1 0.010602 -0.003728 -0.001547 -0.000844 0.003345 -0.001420
# 2 -0.003728 0.008655 -0.000951 -0.000474 -0.003036 -0.003106
# 3 -0.001547 -0.000951 0.012806 0.004033 -0.001164 0.002786
# 4 -0.000844 -0.000474 0.004033 0.030884 -0.003160 0.007798
# 5 0.003345 -0.003036 -0.001164 -0.003160 0.037375 -0.001057
# 6 -0.001420 -0.003106 0.002786 0.007798 -0.001057 0.050225
#
#
# Mechanical properties :
#
#
# Convention : Reuss Voigt Hill
#
# Bulk Modulus (GPa) = 50.99540 57.59157 54.29349
# Shear Modulus (GPa) = 29.49211 34.57085 32.03148
#
# Velocity S-wave (km/s) = 3.72112 4.02880 3.87801
# Velocity P-wave (km/s) = 6.51191 6.97720 6.74857
#
# Compressibility (1/GPa) = 0.01960961
#
# Stress axis : x y z
#
# Youngs Moduli (GPa) = 94.32518 115.53846 78.08584
#
# Poissons Ratio (x) = 0.43078 0.12082
# Poissons Ratio (y) = 0.35169 0.07426
# Poissons Ratio (z) = 0.14594 0.10988
#
# Static dielectric constant tensor:
#      x y z
#    x 1.792450 -0.046080 -0.037580 
#    y -0.046080 1.755020 -0.068550 
#    z -0.037580 -0.068550 1.724600 
# 
# From -- ./inp_files/540407.got.cif
#   From: 2010.05.17/outbox.cif.g08.bks.cpg/sg2_271_cif.got.tgz:540407.got - 2010.06.03 11:33:40.
