data_PCOD9100508
_publ_section_title
;
Structure prediction by ZEFSAII (Michael W. Deem and Ramdas Pophale) SiO2 
 PCOD9100508
Probable space group: P -1
;
_chemical_formula_sum "Si O2"
_cell_formula_units_Z 16
_cell_length_a 10.577676
_cell_length_b 11.987025
_cell_length_c 8.591521
_cell_angle_alpha 95.414087
_cell_angle_beta 106.507184
_cell_angle_gamma 135.533886
_cell_volume 656.136708
_symmetry_space_group_name_H-M "P -1"
_symmetry_group_IT_number 2
_symmetry_cell_setting 'triclinic'
loop_
_space_group_symop_operation_xyz
x,y,z
-x,-y,-z
loop_
_atom_site_type_symbol
_atom_site_label
_atom_site_fract_x
_atom_site_fract_y
_atom_site_fract_z
Si Si1 0.024138 0.268377 0.780100
Si Si2 0.970115 0.710020 0.840958
Si Si3 0.753849 0.782308 0.731593
Si Si4 0.130379 0.600672 0.353050
Si Si5 0.772860 0.810472 0.102775
Si Si6 0.610937 0.927104 0.125274
Si Si7 0.395245 0.839468 0.744439
Si Si8 0.402985 0.120545 0.459501
O O1 0.013469 0.389487 0.739209
O O2 0.209901 0.300165 0.826069
O O3 0.819407 0.078509 0.598713
O O4 0.024226 0.277392 0.969403
O O5 0.183863 0.901680 0.876073
O O6 0.791472 0.675552 0.709757
O O7 0.947565 0.570154 0.752745
O O8 0.613665 0.757223 0.556513
O O9 0.689359 0.754543 0.887581
O O10 0.984283 0.991119 0.812744
O O11 0.198539 0.659726 0.563992
O O12 0.369270 0.765268 0.382140
O O13 0.650973 0.823910 0.162807
O O14 0.595496 0.020703 0.247929
O O15 0.420462 0.817623 0.926037
O O16 0.582715 0.914520 0.718108
#
# Coordination Sequence:
#
# PCOD9100508 Si02
#       8
#     2   2   2   2   2   2   2   2
#     4  10  17  30  47  64  90 119 145 173 212 262
#     4  10  18  28  47  67  91 115 139 181 218 262
#     4   8  13  25  43  66  87 106 141 178 228 249
#     4  10  20  29  40  70  93 119 142 168 222 260
#     4   8  13  24  46  66  81 109 144 186 209 245
#     4  10  16  32  49  67  84 109 153 183 219 250
#     4   9  19  29  47  67  86 115 146 182 215 255
#     4   9  16  30  44  66  89 112 143 185 213 249
#
# _framework density 24.385162999999999
#
# number of rings (size 3 to 8) (size 9 to 14) (size 15 to 20)
#    0.750    2.000    2.500    2.250    0.000    1.000 
#    0.000    0.625    0.000    0.000    0.000    3.500 
#    0.000    0.000    0.000    0.000    0.000    0.000 
#
# Total GULP energy -89160.473640 kJ/mol
# GULP energy per Si atom -5572.529602 kJ/mol
# Density = 2.432966 g / cm^3
# Si number density = 24.385163 Si / 1000 Ang^3
#
#
#
# Elastic Constant Matrix: (Units=GPa)
#
#
# Indices 1 2 3 4 5 6 
#
# 1 76.3768 56.9976 28.8613 3.2514 28.3256 -52.2829
# 2 56.9976 90.6644 41.0136 2.6282 2.8887 -54.7032
# 3 28.8613 41.0136 61.8240 -2.8998 4.6661 -19.2004
# 4 3.2514 2.6282 -2.8998 24.6031 -11.2543 3.7720
# 5 28.3256 2.8887 4.6661 -11.2543 -18.4844 -3.4297
# 6 -52.2829 -54.7032 -19.2004 3.7720 -3.4297 55.9703
#
#
#
# Elastic Compliance Matrix: (Units=1/GPa)
#
#
# Indices 1 2 3 4 5 6 
#
# 1 0.018085 -0.000637 -0.004518 0.004312 0.020933 0.015713
# 2 -0.000637 0.038029 -0.015566 -0.010136 0.001273 0.031994
# 3 -0.004518 -0.015566 0.025668 0.005195 -0.003957 -0.011221
# 4 0.004312 -0.010136 0.005195 0.036321 -0.014402 -0.007427
# 5 0.020933 0.001273 -0.003957 -0.014402 -0.017640 0.019330
# 6 0.015713 0.031994 -0.011221 -0.007427 0.019330 0.061651
#
#
# Mechanical properties :
#
#
# Convention : Reuss Voigt Hill
#
# Bulk Modulus (GPa) = 24.78888 53.62335 39.20612
# Shear Modulus (GPa) = 23.04134 19.21733 21.12934
#
# Velocity S-wave (km/s) = 3.07724 2.81031 2.94680
# Velocity P-wave (km/s) = 4.77635 5.70687 5.26222
#
# Compressibility (1/GPa) = 0.04034066
#
# Stress axis : x y z
#
# Youngs Moduli (GPa) = 55.29430 26.29580 38.95935
#
# Poissons Ratio (x) = 0.01675 0.17601
# Poissons Ratio (y) = 0.03521 0.60644
# Poissons Ratio (z) = 0.24981 0.40932
#
# Static dielectric constant tensor:
#      x y z
#    x 2.021350 0.032080 0.001220 
#    y 0.032080 2.019040 -0.044020 
#    z 0.001220 -0.044020 1.951250 
# 
# From -- ./inp_files/276107.got.cif
#   From: 2010.05.17/outbox.cif.g08.bks.cpg/sg2_139_cif.got.tgz:276107.got - 2010.06.03 11:33:40.
