data_PCOD9100425
_publ_section_title
;
Structure prediction by ZEFSAII (Michael W. Deem and Ramdas Pophale) SiO2 
 PCOD9100425
Probable space group: P -1
;
_chemical_formula_sum "Si O2"
_cell_formula_units_Z 16
_cell_length_a 5.470848
_cell_length_b 22.951999
_cell_length_c 7.422893
_cell_angle_alpha 57.494778
_cell_angle_beta 64.391686
_cell_angle_gamma 68.046545
_cell_volume 696.446068
_symmetry_space_group_name_H-M "P -1"
_symmetry_group_IT_number 2
_symmetry_cell_setting 'triclinic'
loop_
_space_group_symop_operation_xyz
x,y,z
-x,-y,-z
loop_
_atom_site_type_symbol
_atom_site_label
_atom_site_fract_x
_atom_site_fract_y
_atom_site_fract_z
Si Si1 0.658282 0.557382 0.486460
Si Si2 0.860728 0.318574 0.601070
Si Si3 0.191544 0.596540 0.195712
Si Si4 0.715445 0.893736 0.986339
Si Si5 0.642834 0.967348 0.252324
Si Si6 0.372582 0.361614 0.284720
Si Si7 0.921562 0.094060 0.488636
Si Si8 0.358965 0.783618 0.369627
O O1 0.406778 0.620715 0.431452
O O2 0.656664 0.474701 0.631403
O O3 0.718570 0.575758 0.646984
O O4 0.912817 0.571922 0.259622
O O5 0.929481 0.334966 0.757571
O O6 0.804312 0.242039 0.702992
O O7 0.085643 0.339162 0.357568
O O8 0.417246 0.615602 0.959170
O O9 0.947270 0.890387 0.767899
O O10 0.452031 0.951279 0.904096
O O11 0.788128 0.925422 0.101932
O O12 0.604933 0.822028 0.168388
O O13 0.839972 0.952882 0.386351
O O14 0.350693 0.939491 0.403902
O O15 0.526763 0.289506 0.446521
O O16 0.825369 0.163680 0.522604
#
# Coordination Sequence:
#
# PCOD9100425 Si02
#       8
#     2   2   2   2   2   2   2   2
#     4   9  20  38  59  90 118 154 207 265 321 386
#     4  10  22  38  58  85 126 156 213 260 313 392
#     4  10  20  37  64  87 118 160 206 262 329 378
#     4  10  23  44  70  94 136 173 214 283 334 386
#     4  10  24  44  68 106 130 168 230 281 335 404
#     4  10  22  39  56  86 124 162 206 265 312 394
#     4  11  24  43  69  99 134 174 227 275 341 402
#     4  10  25  41  56  89 125 168 212 256 320 402
#
# _framework density 22.973784999999999
#
# number of rings (size 3 to 8) (size 9 to 14) (size 15 to 20)
#    0.000    2.000    0.000    1.500    3.500   13.000 
#    0.000    0.000    0.000    0.000    0.000    0.000 
#    0.000    0.000    0.000    0.000    0.000    0.000 
#
# Total GULP energy -89323.352671 kJ/mol
# GULP energy per Si atom -5582.709542 kJ/mol
# Density = 2.292150 g / cm^3
# Si number density = 22.973785 Si / 1000 Ang^3
#
#
#
# Elastic Constant Matrix: (Units=GPa)
#
#
# Indices 1 2 3 4 5 6 
#
# 1 39.8781 11.5813 9.0547 9.4881 -7.1777 -8.3601
# 2 11.5813 111.6152 14.9249 -2.7547 -3.2651 12.8015
# 3 9.0547 14.9249 108.0367 23.6177 -17.0285 1.0344
# 4 9.4881 -2.7547 23.6177 38.0111 -5.4571 -0.8496
# 5 -7.1777 -3.2651 -17.0285 -5.4571 21.5733 0.8198
# 6 -8.3601 12.8015 1.0344 -0.8496 0.8198 30.8675
#
#
#
# Elastic Compliance Matrix: (Units=1/GPa)
#
#
# Indices 1 2 3 4 5 6 
#
# 1 0.031475 -0.004445 0.000756 -0.007252 0.008185 0.009926
# 2 -0.004445 0.010311 -0.001645 0.002713 -0.000328 -0.005341
# 3 0.000756 -0.001645 0.012127 -0.006711 0.007874 0.000087
# 4 -0.007252 0.002713 -0.006711 0.032586 0.001019 -0.001994
# 5 0.008185 -0.000328 0.007874 0.001019 0.055476 0.000644
# 6 0.009926 -0.005341 0.000087 -0.001994 0.000644 0.037225
#
#
# Mechanical properties :
#
#
# Convention : Reuss Voigt Hill
#
# Bulk Modulus (GPa) = 23.12399 36.73908 29.93154
# Shear Modulus (GPa) = 24.47582 33.02165 28.74874
#
# Velocity S-wave (km/s) = 3.26756 3.79537 3.54131
# Velocity P-wave (km/s) = 4.93185 5.93573 5.45692
#
# Compressibility (1/GPa) = 0.04324513
#
# Stress axis : x y z
#
# Youngs Moduli (GPa) = 31.77122 96.98797 82.45831
#
# Poissons Ratio (x) = 0.43111 -0.06238
# Poissons Ratio (y) = 0.14122 0.13568
# Poissons Ratio (z) = -0.02403 0.15958
#
# Static dielectric constant tensor:
#      x y z
#    x 2.114210 0.037550 0.007930 
#    y 0.037550 1.835470 0.011260 
#    z 0.007930 0.011260 1.846850 
# 
# From -- ./inp_files/142506.got.cif
#   From: 2010.05.17/outbox.cif.g08.bks.cpg/sg2_72_cif.got.tgz:142506.got - 2010.06.03 11:33:40.
