data_PCOD9100386
_publ_section_title
;
Structure prediction by ZEFSAII (Michael W. Deem and Ramdas Pophale) SiO2 
 PCOD9100386
Probable space group: P -1
;
_chemical_formula_sum "Si O2"
_cell_formula_units_Z 16
_cell_length_a 13.430647
_cell_length_b 7.669730
_cell_length_c 22.031465
_cell_angle_alpha 144.233839
_cell_angle_beta 26.395758
_cell_angle_gamma 130.978288
_cell_volume 567.227373
_symmetry_space_group_name_H-M "P -1"
_symmetry_group_IT_number 2
_symmetry_cell_setting 'triclinic'
loop_
_space_group_symop_operation_xyz
x,y,z
-x,-y,-z
loop_
_atom_site_type_symbol
_atom_site_label
_atom_site_fract_x
_atom_site_fract_y
_atom_site_fract_z
Si Si1 0.733577 0.773513 0.579220
Si Si2 0.851194 0.664135 0.697951
Si Si3 0.710423 0.140560 0.805356
Si Si4 0.275610 0.975920 0.017032
Si Si5 0.883156 0.691455 0.333850
Si Si6 0.445067 0.694400 0.302152
Si Si7 0.649136 0.510137 0.306062
Si Si8 0.775058 0.933598 0.256034
O O1 0.761131 0.064736 0.685657
O O2 0.795781 0.735430 0.463545
O O3 0.464119 0.764425 0.726692
O O4 0.914651 0.500140 0.439995
O O5 0.832649 0.817169 0.684409
O O6 0.690513 0.424575 0.711554
O O7 0.754110 0.965629 0.878161
O O8 0.435891 0.202414 0.979129
O O9 0.843916 0.361611 0.825836
O O10 0.024044 0.001066 0.133640
O O11 0.436979 0.630740 0.822418
O O12 0.803783 0.459262 0.267968
O O13 0.748766 0.039512 0.481265
O O14 0.663076 0.845052 0.229782
O O15 0.779960 0.660468 0.225840
O O16 0.414069 0.773100 0.529249
#
# Coordination Sequence:
#
# PCOD9100386 Si02
#       8
#     2   2   2   2   2   2   2   2
#     4  12  23  40  63  89 127 162 202 249 299 366
#     4  11  22  38  63  92 122 151 206 258 302 349
#     4  11  23  38  64  93 120 160 205 253 295 360
#     4  11  22  39  63  93 125 153 200 261 309 346
#     4  11  24  39  60  92 125 164 205 241 303 366
#     4  10  21  35  60  89 124 154 199 250 302 350
#     4  10  21  37  65  89 124 154 205 253 301 357
#     4  10  20  37  63  98 116 154 203 259 304 350
#
# _framework density 28.207384000000001
#
# number of rings (size 3 to 8) (size 9 to 14) (size 15 to 20)
#    0.000    1.250    2.500    5.250    5.250    0.000 
#    0.000    0.625    5.500    3.750    0.000    0.000 
#    0.000    0.000    0.000    0.000    0.000    0.000 
#
# Total GULP energy -89381.004757 kJ/mol
# GULP energy per Si atom -5586.312797 kJ/mol
# Density = 2.814318 g / cm^3
# Si number density = 28.207384 Si / 1000 Ang^3
#
#
#
# Elastic Constant Matrix: (Units=GPa)
#
#
# Indices 1 2 3 4 5 6 
#
# 1 214.8357 74.3972 36.1154 -27.4600 -14.4326 42.2250
# 2 74.3972 86.4672 28.2419 -32.3880 -23.1961 51.0406
# 3 36.1154 28.2419 57.7796 -25.0902 -28.0773 7.8411
# 4 -27.4600 -32.3880 -25.0902 57.1351 13.2596 -17.5837
# 5 -14.4326 -23.1961 -28.0773 13.2596 56.0956 -17.0089
# 6 42.2250 51.0406 7.8411 -17.5837 -17.0089 75.6104
#
#
#
# Elastic Compliance Matrix: (Units=1/GPa)
#
#
# Indices 1 2 3 4 5 6 
#
# 1 0.006912 -0.005595 -0.002762 -0.000751 -0.001858 -0.000389
# 2 -0.005595 0.029617 -0.004806 0.007060 0.002433 -0.014180
# 3 -0.002762 -0.004806 0.030107 0.008262 0.012348 0.006364
# 4 -0.000751 0.007060 0.008262 0.024734 0.001268 0.000834
# 5 -0.001858 0.002433 0.012348 0.001268 0.025492 0.004144
# 6 -0.000389 -0.014180 0.006364 0.000834 0.004144 0.023482
#
#
# Mechanical properties :
#
#
# Convention : Reuss Voigt Hill
#
# Bulk Modulus (GPa) = 24.80829 70.73240 47.77035
# Shear Modulus (GPa) = 27.76097 52.45675 40.10886
#
# Velocity S-wave (km/s) = 3.14056 4.31708 3.77494
# Velocity P-wave (km/s) = 4.68667 7.06964 5.99770
#
# Compressibility (1/GPa) = 0.04030910
#
# Stress axis : x y z
#
# Youngs Moduli (GPa) = 144.66799 33.76433 33.21452
#
# Poissons Ratio (x) = 0.18892 0.09174
# Poissons Ratio (y) = 0.80947 0.15965
# Poissons Ratio (z) = 0.39957 0.16229
#
# Static dielectric constant tensor:
#      x y z
#    x 2.142550 -0.023370 -0.006810 
#    y -0.023370 2.338300 -0.022160 
#    z -0.006810 -0.022160 2.228940 
# 
# From -- ./inp_files/594232.got.cif
#   From: 2010.05.17/outbox.cif.g08.bks.cpg/sg2_298_cif.got.tgz:594232.got - 2010.06.03 11:33:40.
