data_PCOD9100925
_publ_section_title
;
Structure prediction by ZEFSAII (Michael W. Deem and Ramdas Pophale) SiO2 
 PCOD9100925
Probable space group: P -1
;
_chemical_formula_sum "Si O2"
_cell_formula_units_Z 14
_cell_length_a 9.683539
_cell_length_b 8.524227
_cell_length_c 25.298991
_cell_angle_alpha 141.671281
_cell_angle_beta 24.990166
_cell_angle_gamma 133.920253
_cell_volume 545.929750
_symmetry_space_group_name_H-M "P -1"
_symmetry_group_IT_number 2
_symmetry_cell_setting 'triclinic'
loop_
_space_group_symop_operation_xyz
x,y,z
-x,-y,-z
loop_
_atom_site_type_symbol
_atom_site_label
_atom_site_fract_x
_atom_site_fract_y
_atom_site_fract_z
Si Si1 0.385821 0.027187 0.419147
Si Si2 0.709442 0.054605 0.075296
Si Si3 0.346690 0.773534 0.260782
Si Si4 0.532088 0.248212 0.088960
Si Si5 0.487834 0.450411 0.668104
Si Si6 0.137533 0.716007 0.604956
Si Si7 0.146403 0.774832 0.209073
O O1 0.500728 0.942305 0.298052
O O2 0.409219 0.775963 0.384403
O O3 0.604312 0.224829 0.424184
O O4 0.033033 0.177807 0.575902
O O5 0.803113 0.179137 0.020703
O O6 0.495765 0.281655 0.238465
O O7 0.492110 0.819749 0.072355
O O8 0.000000 0.000000 0.000000
O O9 0.556762 0.505681 0.117831
O O10 0.272639 0.802361 0.231958
O O11 0.194609 0.316950 0.256794
O O12 0.500000 0.000000 0.000000
O O13 0.708882 0.461134 0.541338
O O14 0.108285 0.427720 0.773884
O O15 0.081170 0.977288 0.661220
#
# Coordination Sequence:
#
# PCOD9100925 Si02
#       7
#     2   2   2   2   2   2   2
#     4  10  20  37  67 102 134 166 221 280 347 392
#     4  11  27  46  68 100 135 187 230 270 335 411
#     4  11  21  40  65 100 140 169 217 285 343 394
#     4  11  27  46  64  97 142 179 225 278 340 408
#     4  11  20  44  73 100 137 174 229 280 336 403
#     4  10  21  43  68  97 132 178 224 276 336 401
#     4  10  22  42  69  99 130 177 226 277 329 401
#
# _framework density 25.644326
#
# number of rings (size 3 to 8) (size 9 to 14) (size 15 to 20)
#    0.000    1.429    4.286    0.857    2.000    6.857 
#    5.143    1.429    0.000    0.000    0.000    0.000 
#    0.000    0.000    0.000    0.000    0.000    0.000 
#
# Total GULP energy -78050.175122 kJ/mol
# GULP energy per Si atom -5575.012509 kJ/mol
# Density = 2.558596 g / cm^3
# Si number density = 25.644326 Si / 1000 Ang^3
#
#
#
# Elastic Constant Matrix: (Units=GPa)
#
#
# Indices 1 2 3 4 5 6 
#
# 1 182.5742 25.1207 33.7206 13.6149 3.4481 2.3733
# 2 25.1207 56.2021 23.8045 -2.3106 0.0076 14.1559
# 3 33.7206 23.8045 86.5363 -1.1073 -6.0027 7.2771
# 4 13.6149 -2.3106 -1.1073 31.6025 4.1004 -8.6266
# 5 3.4481 0.0076 -6.0027 4.1004 30.8672 12.2908
# 6 2.3733 14.1559 7.2771 -8.6266 12.2908 33.7298
#
#
#
# Elastic Compliance Matrix: (Units=1/GPa)
#
#
# Indices 1 2 3 4 5 6 
#
# 1 0.006371 -0.002257 -0.002016 -0.002687 -0.000988 0.000607
# 2 -0.002257 0.023178 -0.004417 -0.000686 0.003485 -0.010061
# 3 -0.002016 -0.004417 0.014044 -0.000171 0.003988 -0.002531
# 4 -0.002687 -0.000686 -0.000171 0.037898 -0.010330 0.013971
# 5 -0.000988 0.003485 0.003988 -0.010330 0.042816 -0.020497
# 6 0.000607 -0.010061 -0.002531 0.013971 -0.020497 0.045415
#
#
# Mechanical properties :
#
#
# Convention : Reuss Voigt Hill
#
# Bulk Modulus (GPa) = 38.14940 54.51158 46.33049
# Shear Modulus (GPa) = 25.53101 35.41769 30.47435
#
# Velocity S-wave (km/s) = 3.15871 3.72036 3.45098
# Velocity P-wave (km/s) = 5.31149 6.30537 5.82965
#
# Compressibility (1/GPa) = 0.02621273
#
# Stress axis : x y z
#
# Youngs Moduli (GPa) = 156.95638 43.14401 71.20634
#
# Poissons Ratio (x) = 0.09738 0.14353
# Poissons Ratio (y) = 0.35427 0.31454
# Poissons Ratio (z) = 0.31638 0.19058
#
# Static dielectric constant tensor:
#      x y z
#    x 2.057480 -0.087100 -0.000300 
#    y -0.087100 2.242700 -0.124470 
#    z -0.000300 -0.124470 2.065940 
# 
# From -- ./inp_files/225797.got.cif
#   From: 2010.05.17/outbox.cif.g08.bks.cpg/sg2_113_cif.got.tgz:225797.got - 2010.06.03 11:33:40.
