data_PCOD9100718
_publ_section_title
;
Structure prediction by ZEFSAII (Michael W. Deem and Ramdas Pophale) SiO2 
 PCOD9100718
Probable space group: P -1
;
_chemical_formula_sum "Si O2"
_cell_formula_units_Z 16
_cell_length_a 16.027532
_cell_length_b 14.597748
_cell_length_c 10.730653
_cell_angle_alpha 151.814806
_cell_angle_beta 130.014597
_cell_angle_gamma 37.693262
_cell_volume 712.028249
_symmetry_space_group_name_H-M "P -1"
_symmetry_group_IT_number 2
_symmetry_cell_setting 'triclinic'
loop_
_space_group_symop_operation_xyz
x,y,z
-x,-y,-z
loop_
_atom_site_type_symbol
_atom_site_label
_atom_site_fract_x
_atom_site_fract_y
_atom_site_fract_z
Si Si1 0.697298 0.876176 0.923333
Si Si2 0.635635 0.786061 0.300927
Si Si3 0.014424 0.911619 0.603591
Si Si4 0.837553 0.704961 0.581684
Si Si5 0.456187 0.402577 0.213239
Si Si6 0.021120 0.295998 0.920875
Si Si7 0.320190 0.534980 0.490652
Si Si8 0.828988 0.861988 0.512178
O O1 0.771636 0.788796 0.754130
O O2 0.660852 0.706381 0.738148
O O3 0.814240 0.839575 0.081476
O O4 0.560570 0.150055 0.090740
O O5 0.756147 0.633211 0.336614
O O6 0.685287 0.908192 0.404792
O O7 0.500000 0.000000 0.500000
O O8 0.605641 0.635647 0.009489
O O9 0.159427 0.758390 0.634431
O O10 0.026649 0.729631 0.290461
O O11 0.882030 0.993065 0.653720
O O12 0.995444 0.140304 0.797654
O O13 0.820552 0.898859 0.698150
O O14 0.000000 0.500000 0.500000
O O15 0.334696 0.566663 0.394134
O O16 0.554679 0.469523 0.344991
O O17 0.941042 0.571250 0.229238
#
# Coordination Sequence:
#
# PCOD9100718 Si02
#       8
#     2   2   2   2   2   2   2   2
#     4  12  21  40  61  88 126 163 207 255 319 361
#     4  10  21  40  69  87 125 172 202 257 312 368
#     4  11  22  39  59  95 121 156 213 253 316 369
#     4  10  20  37  65  93 118 160 212 251 306 370
#     4  11  23  42  58  92 127 164 213 253 312 375
#     4  11  22  35  63  91 125 156 199 270 304 367
#     4  11  24  38  64  91 125 168 206 260 311 378
#     4  10  21  39  64  86 120 164 196 257 311 362
#
# _framework density 22.471018999999998
#
# number of rings (size 3 to 8) (size 9 to 14) (size 15 to 20)
#    0.750    0.500    5.000    1.500    1.750    0.000 
#    0.000    3.750    0.000    0.000    0.000    0.000 
#    0.000    0.000    0.000    0.000    0.000    0.000 
#
# Total GULP energy -89260.311861 kJ/mol
# GULP energy per Si atom -5578.769491 kJ/mol
# Density = 2.241987 g / cm^3
# Si number density = 22.471019 Si / 1000 Ang^3
#
#
#
# Elastic Constant Matrix: (Units=GPa)
#
#
# Indices 1 2 3 4 5 6 
#
# 1 139.6428 16.2122 35.7966 -8.8296 39.3748 -14.3642
# 2 16.2122 66.6155 27.5064 -24.6638 11.7468 -22.0545
# 3 35.7966 27.5064 41.1158 -14.8797 16.6333 -2.5608
# 4 -8.8296 -24.6638 -14.8797 40.2414 -1.2382 10.2124
# 5 39.3748 11.7468 16.6333 -1.2382 41.8821 1.4900
# 6 -14.3642 -22.0545 -2.5608 10.2124 1.4900 31.3799
#
#
#
# Elastic Compliance Matrix: (Units=1/GPa)
#
#
# Indices 1 2 3 4 5 6 
#
# 1 0.013161 0.006511 -0.011122 -0.000140 -0.010149 0.010220
# 2 0.006511 0.034183 -0.020727 0.008663 -0.008035 0.022876
# 3 -0.011122 -0.020727 0.050955 0.008174 -0.003085 -0.018014
# 4 -0.000140 0.008663 0.008174 0.034080 -0.004387 -0.004192
# 5 -0.010149 -0.008035 -0.003085 -0.004387 0.037154 -0.010881
# 6 0.010220 0.022876 -0.018014 -0.004192 -0.010881 0.053034
#
#
# Mechanical properties :
#
#
# Convention : Reuss Voigt Hill
#
# Bulk Modulus (GPa) = 20.99834 45.15604 33.07719
# Shear Modulus (GPa) = 17.29404 33.89126 25.59265
#
# Velocity S-wave (km/s) = 2.77720 3.88780 3.37845
# Velocity P-wave (km/s) = 4.43269 6.34761 5.47453
#
# Compressibility (1/GPa) = 0.04762281
#
# Stress axis : x y z
#
# Youngs Moduli (GPa) = 75.98468 29.25437 19.62514
#
# Poissons Ratio (x) = -0.19048 0.21827
# Poissons Ratio (y) = -0.49474 0.40677
# Poissons Ratio (z) = 0.84511 0.60635
#
# Static dielectric constant tensor:
#      x y z
#    x 1.859030 -0.005100 -0.015260 
#    y -0.005100 2.173440 -0.244700 
#    z -0.015260 -0.244700 2.052680 
# 
# From -- ./inp_files/456060.got.cif
#   From: 2010.05.17/outbox.cif.g08.bks.cpg/sg2_229_cif.got.tgz:456060.got - 2010.06.03 11:33:40.
