data_PCOD9100449
_publ_section_title
;
Structure prediction by ZEFSAII (Michael W. Deem and Ramdas Pophale) SiO2 
 PCOD9100449
Probable space group: P -1
;
_chemical_formula_sum "Si O2"
_cell_formula_units_Z 14
_cell_length_a 16.490671
_cell_length_b 4.953112
_cell_length_c 9.563254
_cell_angle_alpha 79.661978
_cell_angle_beta 58.469198
_cell_angle_gamma 79.524651
_cell_volume 651.378933
_symmetry_space_group_name_H-M "P -1"
_symmetry_group_IT_number 2
_symmetry_cell_setting 'triclinic'
loop_
_space_group_symop_operation_xyz
x,y,z
-x,-y,-z
loop_
_atom_site_type_symbol
_atom_site_label
_atom_site_fract_x
_atom_site_fract_y
_atom_site_fract_z
Si Si1 0.402062 0.095022 0.002763
Si Si2 0.661255 0.316492 0.110504
Si Si3 0.763947 0.491678 0.237131
Si Si4 0.043560 0.718454 0.841341
Si Si5 0.205481 0.983961 0.323758
Si Si6 0.149128 0.033429 0.069493
Si Si7 0.829928 0.571598 0.462871
O O1 0.384553 0.416319 0.953530
O O2 0.314638 0.025858 0.186141
O O3 0.390293 0.933581 0.881977
O O4 0.500000 0.000000 0.000000
O O5 0.774331 0.235791 0.981466
O O6 0.671814 0.386131 0.258105
O O7 0.851901 0.244464 0.193979
O O8 0.757717 0.597547 0.392422
O O9 0.801862 0.733908 0.085176
O O10 0.071757 0.557170 0.686666
O O11 0.960725 0.965761 0.877164
O O12 0.000000 0.500000 0.000000
O O13 0.147473 0.100259 0.229619
O O14 0.169311 0.148643 0.479391
O O15 0.198254 0.662855 0.385413
#
# Coordination Sequence:
#
# PCOD9100449 Si02
#       7
#     2   2   2   2   2   2   2
#     4  11  24  42  69  97 119 154 207 263 319 388
#     4  11  20  38  67  94 117 161 209 256 298 372
#     4   9  20  38  60  90 124 177 208 242 299 369
#     4   8  19  39  58  93 124 178 217 250 278 364
#     4  11  22  40  61  91 124 161 202 267 325 354
#     4  10  20  37  64  88 129 170 222 247 289 365
#     4  10  24  38  59  92 131 170 199 258 314 348
#
# _framework density 21.492864999999998
#
# number of rings (size 3 to 8) (size 9 to 14) (size 15 to 20)
#    0.857    1.143    2.857    2.143    2.000    1.714 
#    5.143    0.000    0.000    5.143    0.000    0.000 
#    0.000    0.000    0.000    0.000    0.000    0.000 
#
# Total GULP energy -78059.187219 kJ/mol
# GULP energy per Si atom -5575.656230 kJ/mol
# Density = 2.144395 g / cm^3
# Si number density = 21.492865 Si / 1000 Ang^3
#
#
#
# Elastic Constant Matrix: (Units=GPa)
#
#
# Indices 1 2 3 4 5 6 
#
# 1 111.2660 28.2511 0.7111 1.1975 19.0782 -31.5839
# 2 28.2511 86.8116 1.3044 5.9749 7.7271 -10.4167
# 3 0.7111 1.3044 54.8559 -11.6554 23.3626 -3.4102
# 4 1.1975 5.9749 -11.6554 18.8142 0.8793 2.4437
# 5 19.0782 7.7271 23.3626 0.8793 30.2046 1.9833
# 6 -31.5839 -10.4167 -3.4102 2.4437 1.9833 35.4540
#
#
#
# Elastic Compliance Matrix: (Units=1/GPa)
#
#
# Indices 1 2 3 4 5 6 
#
# 1 0.017617 -0.002456 0.010260 0.004761 -0.019672 0.016731
# 2 -0.002456 0.012992 -0.000529 -0.004489 -0.001361 0.001964
# 3 0.010260 -0.000529 0.041299 0.025217 -0.039906 0.013451
# 4 0.004761 -0.004489 0.025217 0.070764 -0.023541 0.001787
# 5 -0.019672 -0.001361 -0.039906 -0.023541 0.079046 -0.024562
# 6 0.016731 0.001964 0.013451 0.001787 -0.024562 0.046232
#
#
# Mechanical properties :
#
#
# Convention : Reuss Voigt Hill
#
# Bulk Modulus (GPa) = 11.56648 34.82962 23.19805
# Shear Modulus (GPa) = 17.71673 31.73903 24.72788
#
# Velocity S-wave (km/s) = 2.87419 3.84699 3.39561
# Velocity P-wave (km/s) = 4.05066 5.99773 5.11765
#
# Compressibility (1/GPa) = 0.08645673
#
# Stress axis : x y z
#
# Youngs Moduli (GPa) = 56.76471 76.96899 24.21370
#
# Poissons Ratio (x) = 0.18905 -0.24842
# Poissons Ratio (y) = 0.13943 0.01281
# Poissons Ratio (z) = -0.58238 0.04071
#
# Static dielectric constant tensor:
#      x y z
#    x 1.811040 0.020520 0.054400 
#    y 0.020520 1.809820 0.055010 
#    z 0.054400 0.055010 1.824200 
# 
# From -- ./inp_files/322447.got.cif
#   From: 2010.05.17/outbox.cif.g08.bks.cpg/sg2_162_cif.got.tgz:322447.got - 2010.06.03 11:33:40.
