data_PCOD9100124
_publ_section_title
;
Structure prediction by ZEFSAII (Michael W. Deem and Ramdas Pophale) SiO2 
 PCOD9100124
Probable space group: P -1
;
_chemical_formula_sum "Si O2"
_cell_formula_units_Z 16
_cell_length_a 9.900318
_cell_length_b 14.176712
_cell_length_c 5.276300
_cell_angle_alpha 93.070627
_cell_angle_beta 126.139941
_cell_angle_gamma 90.846868
_cell_volume 596.205452
_symmetry_space_group_name_H-M "P -1"
_symmetry_group_IT_number 2
_symmetry_cell_setting 'triclinic'
loop_
_space_group_symop_operation_xyz
x,y,z
-x,-y,-z
loop_
_atom_site_type_symbol
_atom_site_label
_atom_site_fract_x
_atom_site_fract_y
_atom_site_fract_z
Si Si1 0.887798 0.135503 0.002667
Si Si2 0.076800 0.453905 0.330277
Si Si3 0.656296 0.991965 0.490301
Si Si4 0.530370 0.855393 0.951482
Si Si5 0.218395 0.222500 0.117666
Si Si6 0.435002 0.405771 0.565863
Si Si7 0.313025 0.707123 0.447961
Si Si8 0.964289 0.283313 0.469000
O O1 0.820365 0.032617 0.824533
O O2 0.745011 0.200751 0.746053
O O3 0.062018 0.170252 0.074516
O O4 0.906602 0.175383 0.314458
O O5 0.281438 0.452754 0.564995
O O6 0.000000 0.500000 0.500000
O O7 0.996435 0.346565 0.264427
O O8 0.000000 0.500000 0.000000
O O9 0.500000 0.000000 0.500000
O O10 0.636278 0.890394 0.317061
O O11 0.611689 0.069172 0.232047
O O12 0.664904 0.855061 0.875903
O O13 0.451309 0.748488 0.814055
O O14 0.139619 0.276973 0.801000
O O15 0.325244 0.307502 0.379708
O O16 0.500000 0.500000 0.500000
O O17 0.614650 0.356703 0.701847
O O18 0.162827 0.673851 0.464944
#
# Coordination Sequence:
#
# PCOD9100124 Si02
#       8
#     2   2   2   2   2   2   2   2
#     4  10  21  39  65  91 129 173 220 277 336 414
#     4  12  27  47  71 100 140 183 231 292 353 417
#     4  10  20  37  62  95 131 168 220 275 343 406
#     4   9  20  39  62  93 134 171 220 281 336 410
#     4  10  22  43  63  93 130 175 228 277 346 408
#     4  11  23  43  68  96 130 170 228 285 339 405
#     4   9  21  42  65  96 128 177 225 278 345 404
#     4  11  22  42  67  91 131 180 223 279 347 415
#
# _framework density 26.836383999999999
#
# number of rings (size 3 to 8) (size 9 to 14) (size 15 to 20)
#    0.000    1.750    1.250    2.250    3.500    2.500 
#    9.000    4.375    0.000    0.000    0.000    0.000 
#    0.000    0.000    0.000    0.000    0.000    0.000 
#
# Total GULP energy -89128.079488 kJ/mol
# GULP energy per Si atom -5570.504968 kJ/mol
# Density = 2.677530 g / cm^3
# Si number density = 26.836384 Si / 1000 Ang^3
#
#
#
# Elastic Constant Matrix: (Units=GPa)
#
#
# Indices 1 2 3 4 5 6 
#
# 1 158.4841 35.6680 34.3344 -0.6965 2.0627 -13.4678
# 2 35.6680 92.8948 4.1465 0.9437 5.3502 -6.6150
# 3 34.3344 4.1465 28.5936 -0.7244 -8.8121 -10.6680
# 4 -0.6965 0.9437 -0.7244 42.0922 -1.6977 0.6794
# 5 2.0627 5.3502 -8.8121 -1.6977 39.9971 7.2269
# 6 -13.4678 -6.6150 -10.6680 0.6794 7.2269 51.9635
#
#
#
# Elastic Compliance Matrix: (Units=1/GPa)
#
#
# Indices 1 2 3 4 5 6 
#
# 1 0.009607 -0.002995 -0.011932 -0.000090 -0.002735 0.000041
# 2 -0.002995 0.012000 0.001951 -0.000358 -0.001277 0.001334
# 3 -0.011932 0.001951 0.055092 0.001051 0.011293 0.006882
# 4 -0.000090 -0.000358 0.001051 0.023843 0.001360 -0.000354
# 5 -0.002735 -0.001277 0.011293 0.001360 0.028313 -0.002508
# 6 0.000041 0.001334 0.006882 -0.000354 -0.002508 0.021191
#
#
# Mechanical properties :
#
#
# Convention : Reuss Voigt Hill
#
# Bulk Modulus (GPa) = 19.70522 47.58558 33.64540
# Shear Modulus (GPa) = 25.91842 40.53216 33.22529
#
# Velocity S-wave (km/s) = 3.11109 3.89053 3.52244
# Velocity P-wave (km/s) = 4.50154 6.16051 5.39517
#
# Compressibility (1/GPa) = 0.05074797
#
# Stress axis : x y z
#
# Youngs Moduli (GPa) = 104.08593 83.33392 18.15146
#
# Poissons Ratio (x) = 0.24958 0.21658
# Poissons Ratio (y) = 0.31173 -0.03542
# Poissons Ratio (z) = 1.24195 -0.16260
#
# Static dielectric constant tensor:
#      x y z
#    x 2.087290 0.015240 -0.015640 
#    y 0.015240 2.224150 0.035640 
#    z -0.015640 0.035640 2.159260 
# 
# From -- ./inp_files/39518.got.cif
#   From: 2010.05.17/outbox.cif.g08.bks.cpg/sg2_20_cif.got.tgz:39518.got - 2010.06.03 11:33:40.
