data_PCOD9100147
_publ_section_title
;
Structure prediction by ZEFSAII (Michael W. Deem and Ramdas Pophale) SiO2 
 PCOD9100147
Probable space group: P -1
;
_chemical_formula_sum "Si O2"
_cell_formula_units_Z 14
_cell_length_a 26.198943
_cell_length_b 15.520284
_cell_length_c 15.626569
_cell_angle_alpha 18.154250
_cell_angle_beta 18.401296
_cell_angle_gamma 17.952523
_cell_volume 539.378812
_symmetry_space_group_name_H-M "P -1"
_symmetry_group_IT_number 2
_symmetry_cell_setting 'triclinic'
loop_
_space_group_symop_operation_xyz
x,y,z
-x,-y,-z
loop_
_atom_site_type_symbol
_atom_site_label
_atom_site_fract_x
_atom_site_fract_y
_atom_site_fract_z
Si Si1 0.744192 0.969840 0.189796
Si Si2 0.156502 0.163070 0.114797
Si Si3 0.346230 0.930355 0.267379
Si Si4 0.820072 0.329682 0.590624
Si Si5 0.665577 0.461491 0.081823
Si Si6 0.867927 0.372999 0.011906
Si Si7 0.560928 0.988629 0.629421
O O1 0.773399 0.689065 0.343131
O O2 0.581502 0.036408 0.451734
O O3 0.923092 0.860867 0.069602
O O4 0.735531 0.247411 0.884181
O O5 0.044972 0.135686 0.398854
O O6 0.229663 0.834781 0.253495
O O7 0.341855 0.176819 0.823404
O O8 0.000000 0.500000 0.000000
O O9 0.463526 0.711654 0.208442
O O10 0.270037 0.743313 0.621490
O O11 0.500000 0.000000 0.000000
O O12 0.179802 0.293061 0.184390
O O13 0.823870 0.418253 0.938046
O O14 0.663831 0.138166 0.377493
O O15 0.661318 0.621878 0.846817
#
# Coordination Sequence:
#
# PCOD9100147 Si02
#       7
#     2   2   2   2   2   2   2
#     4  12  27  46  68 109 141 192 224 285 347 419
#     4  11  27  50  77 109 128 183 230 296 363 414
#     4  10  20  37  62  98 128 179 240 287 330 380
#     4  11  26  48  75 101 140 176 233 291 356 413
#     4  11  24  42  65 102 144 190 227 292 327 406
#     4  11  23  40  68  99 146 186 235 274 348 404
#     4  12  29  43  71 104 146 181 240 279 350 416
#
# _framework density 25.955784999999999
#
# number of rings (size 3 to 8) (size 9 to 14) (size 15 to 20)
#    0.000    0.857    1.429    6.000   10.000    2.286 
#    0.000    0.000    0.000    0.000    0.000    0.000 
#    0.000    0.000    0.000    0.000    0.000    0.000 
#
# Total GULP energy -78351.803332 kJ/mol
# GULP energy per Si atom -5596.557381 kJ/mol
# Density = 2.589671 g / cm^3
# Si number density = 25.955785 Si / 1000 Ang^3
#
#
#
# Elastic Constant Matrix: (Units=GPa)
#
#
# Indices 1 2 3 4 5 6 
#
# 1 103.3891 14.8510 28.8090 13.4284 -18.4376 -1.3756
# 2 14.8510 44.1142 12.5961 -1.0326 -3.8092 2.5821
# 3 28.8090 12.5961 121.9025 -6.2777 19.4043 -1.0669
# 4 13.4284 -1.0326 -6.2777 37.0834 15.5434 -0.1712
# 5 -18.4376 -3.8092 19.4043 15.5434 32.7713 2.7838
# 6 -1.3756 2.5821 -1.0669 -0.1712 2.7838 43.5407
#
#
#
# Elastic Compliance Matrix: (Units=1/GPa)
#
#
# Indices 1 2 3 4 5 6 
#
# 1 0.019952 -0.002059 -0.009732 -0.019970 0.026326 -0.001248
# 2 -0.002059 0.024544 -0.002689 -0.000596 0.003724 -0.001827
# 3 -0.009732 -0.002689 0.015106 0.015289 -0.022128 0.001697
# 4 -0.019970 -0.000596 0.015289 0.056695 -0.047506 0.003039
# 5 0.026326 0.003724 -0.022128 -0.047506 0.081848 -0.005351
# 6 -0.001248 -0.001827 0.001697 0.003039 -0.005351 0.023432
#
#
# Mechanical properties :
#
#
# Convention : Reuss Voigt Hill
#
# Bulk Modulus (GPa) = 32.63626 42.43535 37.53581
# Shear Modulus (GPa) = 19.17542 36.88907 28.03224
#
# Velocity S-wave (km/s) = 2.72099 3.77401 3.28990
# Velocity P-wave (km/s) = 4.74055 5.94772 5.37811
#
# Compressibility (1/GPa) = 0.03064076
#
# Stress axis : x y z
#
# Youngs Moduli (GPa) = 50.12097 40.74318 66.20016
#
# Poissons Ratio (x) = 0.08389 0.64428
# Poissons Ratio (y) = 0.10320 0.17801
# Poissons Ratio (z) = 0.48779 0.10956
#
# Static dielectric constant tensor:
#      x y z
#    x 1.970410 -0.053480 0.057380 
#    y -0.053480 2.101810 0.033280 
#    z 0.057380 0.033280 1.989050 
# 
# From -- ./inp_files/544218.got.cif
#   From: 2010.05.17/outbox.cif.g08.bks.cpg/sg2_273_cif.got.tgz:544218.got - 2010.06.03 11:33:40.
