data_PCOD9100058
_publ_section_title
;
Structure prediction by ZEFSAII (Michael W. Deem and Ramdas Pophale) SiO2 
 PCOD9100058
Probable space group: P -1
;
_chemical_formula_sum "Si O2"
_cell_formula_units_Z 14
_cell_length_a 9.288067
_cell_length_b 14.980390
_cell_length_c 9.193291
_cell_angle_alpha 50.384202
_cell_angle_beta 121.455562
_cell_angle_gamma 130.839748
_cell_volume 733.309740
_symmetry_space_group_name_H-M "P -1"
_symmetry_group_IT_number 2
_symmetry_cell_setting 'triclinic'
loop_
_space_group_symop_operation_xyz
x,y,z
-x,-y,-z
loop_
_atom_site_type_symbol
_atom_site_label
_atom_site_fract_x
_atom_site_fract_y
_atom_site_fract_z
Si Si1 0.077060 0.373541 0.549902
Si Si2 0.663333 0.470952 0.040659
Si Si3 0.911081 0.360420 0.788486
Si Si4 0.464927 0.394432 0.714754
Si Si5 0.518724 0.988482 0.275334
Si Si6 0.710595 0.211328 0.377651
Si Si7 0.487183 0.150859 0.850501
O O1 0.139061 0.519591 0.369449
O O2 0.258092 0.359803 0.706874
O O3 0.948170 0.345338 0.654834
O O4 0.938711 0.275131 0.457547
O O5 0.656844 0.330937 0.226102
O O6 0.882588 0.583635 0.079442
O O7 0.500000 0.500000 0.000000
O O8 0.620284 0.454537 0.862907
O O9 0.723704 0.230462 0.882264
O O10 0.500000 0.500000 0.500000
O O11 0.443109 0.263278 0.765679
O O12 0.653411 0.123617 0.293320
O O13 0.395925 0.885957 0.442442
O O14 0.593617 0.913534 0.282936
O O15 0.415048 0.036709 0.052653
#
# Coordination Sequence:
#
# PCOD9100058 Si02
#       7
#     2   2   2   2   2   2   2
#     4  10  20  37  62  92 121 159 197 252 307 362
#     4  11  23  38  65  95 122 154 202 256 307 359
#     4  10  20  37  64  89 123 159 201 245 306 366
#     4  12  24  38  60  98 129 151 192 265 319 347
#     4  10  22  39  65  82 122 168 210 241 285 373
#     4  10  21  41  66  89 116 168 212 238 295 371
#     4  11  22  40  62  92 121 162 205 249 305 351
#
# _framework density 19.091522000000001
#
# number of rings (size 3 to 8) (size 9 to 14) (size 15 to 20)
#    0.000    1.429    5.714    0.000    2.000    1.714 
#    0.000    1.429   12.571    0.000    0.000    0.000 
#    0.000    0.000    0.000    0.000    0.000    0.000 
#
# Total GULP energy -77989.149650 kJ/mol
# GULP energy per Si atom -5570.653546 kJ/mol
# Density = 1.904807 g / cm^3
# Si number density = 19.091522 Si / 1000 Ang^3
#
#
#
# Elastic Constant Matrix: (Units=GPa)
#
#
# Indices 1 2 3 4 5 6 
#
# 1 49.2814 24.4037 16.4499 4.9550 10.1213 -8.1826
# 2 24.4037 112.3931 30.4467 15.4106 8.3870 -18.6592
# 3 16.4499 30.4467 92.8506 -1.4536 -9.4956 -3.5136
# 4 4.9550 15.4106 -1.4536 32.6119 -1.3443 -4.1478
# 5 10.1213 8.3870 -9.4956 -1.3443 29.4959 7.1871
# 6 -8.1826 -18.6592 -3.5136 -4.1478 7.1871 29.9600
#
#
#
# Elastic Compliance Matrix: (Units=1/GPa)
#
#
# Indices 1 2 3 4 5 6 
#
# 1 0.027220 -0.001723 -0.005290 -0.003017 -0.012732 0.008378
# 2 -0.001723 0.013042 -0.004442 -0.005359 -0.006742 0.008007
# 3 -0.005290 -0.004442 0.013951 0.003350 0.008748 -0.004210
# 4 -0.003017 -0.005359 0.003350 0.033979 0.005266 -0.000328
# 5 -0.012732 -0.006742 0.008748 0.005266 0.047463 -0.017307
# 6 0.008378 0.008007 -0.004210 -0.000328 -0.017307 0.044265
#
#
# Mechanical properties :
#
#
# Convention : Reuss Voigt Hill
#
# Bulk Modulus (GPa) = 31.94440 44.12510 38.03475
# Shear Modulus (GPa) = 23.44527 30.62853 27.03690
#
# Velocity S-wave (km/s) = 3.50815 4.00972 3.76729
# Velocity P-wave (km/s) = 5.76004 6.67830 6.23609
#
# Compressibility (1/GPa) = 0.03130439
#
# Stress axis : x y z
#
# Youngs Moduli (GPa) = 36.73833 76.67694 71.67726
#
# Poissons Ratio (x) = 0.13208 0.37916
# Poissons Ratio (y) = 0.06328 0.31837
# Poissons Ratio (z) = 0.19434 0.34058
#
# Static dielectric constant tensor:
#      x y z
#    x 1.697520 -0.010030 -0.000680 
#    y -0.010030 1.703030 0.003790 
#    z -0.000680 0.003790 1.656060 
# 
# From -- ./inp_files/168903.got.cif
#   From: 2010.05.17/outbox.cif.g08.bks.cpg/sg2_85_cif.got.tgz:168903.got - 2010.06.03 11:33:40.
