data_PCOD9100526
_publ_section_title
;
Structure prediction by ZEFSAII (Michael W. Deem and Ramdas Pophale) SiO2 
 PCOD9100526
Probable space group: P -1
;
_chemical_formula_sum "Si O2"
_cell_formula_units_Z 12
_cell_length_a 7.854564
_cell_length_b 14.238731
_cell_length_c 11.033278
_cell_angle_alpha 29.205537
_cell_angle_beta 77.593505
_cell_angle_gamma 93.343423
_cell_volume 503.740887
_symmetry_space_group_name_H-M "P -1"
_symmetry_group_IT_number 2
_symmetry_cell_setting 'triclinic'
loop_
_space_group_symop_operation_xyz
x,y,z
-x,-y,-z
loop_
_atom_site_type_symbol
_atom_site_label
_atom_site_fract_x
_atom_site_fract_y
_atom_site_fract_z
Si Si1 0.818665 0.658527 0.800200
Si Si2 0.137946 0.269741 0.691606
Si Si3 0.040105 0.444997 0.735357
Si Si4 0.217374 0.731592 0.624945
Si Si5 0.460151 0.495009 0.210955
Si Si6 0.604276 0.096371 0.246103
O O1 0.685991 0.651839 0.714602
O O2 0.060642 0.821027 0.567085
O O3 0.808920 0.419694 0.081917
O O4 0.688769 0.629999 0.971456
O O5 0.156684 0.370361 0.709643
O O6 0.356793 0.345835 0.512595
O O7 0.030912 0.392997 0.500158
O O8 0.000000 0.000000 0.000000
O O9 0.155429 0.588174 0.673897
O O10 0.843774 0.205072 0.075513
O O11 0.456451 0.907007 0.387926
O O12 0.421431 0.695976 0.011127
O O13 0.500000 0.000000 0.500000
#
# Coordination Sequence:
#
# PCOD9100526 Si02
#       6
#     2   2   2   2   2   2
#     4  10  20  37  64  92 132 155 205 273 315 383
#     4  10  22  43  69  84 128 183 213 255 323 370
#     4  10  23  44  63  97 130 164 220 264 305 399
#     4  11  20  39  65  97 128 164 201 266 334 373
#     4  10  21  40  61  96 126 164 218 260 308 391
#     4  11  20  37  67  96 128 171 201 258 343 372
#
# _framework density 23.821773
#
# number of rings (size 3 to 8) (size 9 to 14) (size 15 to 20)
#    0.000    1.667    5.000    1.000    2.333    0.667 
#    3.000    8.333    0.000    0.000    0.000    0.000 
#    0.000    0.000    0.000    0.000    0.000    0.000 
#
# Total GULP energy -66848.509476 kJ/mol
# GULP energy per Si atom -5570.709123 kJ/mol
# Density = 2.376755 g / cm^3
# Si number density = 23.821773 Si / 1000 Ang^3
#
#
#
# Elastic Constant Matrix: (Units=GPa)
#
#
# Indices 1 2 3 4 5 6 
#
# 1 70.5788 45.5675 12.5732 2.0217 -20.8763 -6.2527
# 2 45.5675 156.2481 63.6406 19.1453 -41.4483 -10.8934
# 3 12.5732 63.6406 107.9729 -3.7467 -26.5790 2.4900
# 4 2.0217 19.1453 -3.7467 31.6978 -2.9182 -12.4249
# 5 -20.8763 -41.4483 -26.5790 -2.9182 32.7755 1.1655
# 6 -6.2527 -10.8934 2.4900 -12.4249 1.1655 36.3118
#
#
#
# Elastic Compliance Matrix: (Units=1/GPa)
#
#
# Indices 1 2 3 4 5 6 
#
# 1 0.019509 -0.004730 0.002789 0.003856 0.008951 0.002781
# 2 -0.004730 0.013198 -0.005365 -0.007205 0.008658 0.000769
# 3 0.002789 -0.005365 0.013960 0.005121 0.006789 -0.000552
# 4 0.003856 -0.007205 0.005121 0.041105 0.000724 0.012193
# 5 0.008951 0.008658 0.006789 0.000724 0.052652 0.002231
# 6 0.002781 0.000769 -0.000552 0.012193 0.002231 0.032388
#
#
# Mechanical properties :
#
#
# Convention : Reuss Voigt Hill
#
# Bulk Modulus (GPa) = 31.19462 64.26249 47.72856
# Shear Modulus (GPa) = 25.23881 34.35825 29.79853
#
# Velocity S-wave (km/s) = 3.25850 3.80189 3.54064
# Velocity P-wave (km/s) = 5.22308 6.80495 6.06580
#
# Compressibility (1/GPa) = 0.03205681
#
# Stress axis : x y z
#
# Youngs Moduli (GPa) = 51.25883 75.77086 71.63131
#
# Poissons Ratio (x) = 0.35836 -0.19978
# Poissons Ratio (y) = 0.24243 0.38427
# Poissons Ratio (z) = -0.14296 0.40648
#
# Static dielectric constant tensor:
#      x y z
#    x 2.009670 0.082220 0.002930 
#    y 0.082220 1.876270 -0.063590 
#    z 0.002930 -0.063590 1.958920 
# 
# From -- ./inp_files/396856.got.cif
#   From: 2010.05.17/outbox.cif.g08.bks.cpg/sg2_199_cif.got.tgz:396856.got - 2010.06.03 11:33:40.
