data_PCOD9100897
_publ_section_title
;
Structure prediction by ZEFSAII (Michael W. Deem and Ramdas Pophale) SiO2 
 PCOD9100897
Probable space group: P -1
;
_chemical_formula_sum "Si O2"
_cell_formula_units_Z 16
_cell_length_a 9.287889
_cell_length_b 11.952010
_cell_length_c 17.066183
_cell_angle_alpha 156.773933
_cell_angle_beta 75.368781
_cell_angle_gamma 112.337184
_cell_volume 666.349970
_symmetry_space_group_name_H-M "P -1"
_symmetry_group_IT_number 2
_symmetry_cell_setting 'triclinic'
loop_
_space_group_symop_operation_xyz
x,y,z
-x,-y,-z
loop_
_atom_site_type_symbol
_atom_site_label
_atom_site_fract_x
_atom_site_fract_y
_atom_site_fract_z
Si Si1 0.699840 0.343256 0.750059
Si Si2 0.196296 0.214910 0.115473
Si Si3 0.969195 0.390997 0.845339
Si Si4 0.468687 0.817255 0.697762
Si Si5 0.765217 0.060915 0.914167
Si Si6 0.882777 0.560742 0.493157
Si Si7 0.895039 0.089648 0.442648
Si Si8 0.619078 0.073798 0.391598
O O1 0.735207 0.658738 0.899621
O O2 0.797966 0.389941 0.846197
O O3 0.793624 0.175019 0.577491
O O4 0.519450 0.120546 0.653475
O O5 0.259708 0.031507 0.051195
O O6 0.276390 0.560624 0.369245
O O7 0.000000 0.000000 0.000000
O O8 0.005149 0.087461 0.647413
O O9 0.000000 0.500000 0.000000
O O10 0.094918 0.612784 0.909324
O O11 0.500000 0.500000 0.500000
O O12 0.604590 0.045592 0.881905
O O13 0.282646 0.722977 0.683191
O O14 0.468550 0.927640 0.679468
O O15 0.833453 0.829351 0.710061
O O16 0.000000 0.500000 0.500000
O O17 0.972565 0.642608 0.451590
O O18 0.757697 0.937230 0.295824
#
# Coordination Sequence:
#
# PCOD9100897 Si02
#       8
#     2   2   2   2   2   2   2   2
#     4  11  25  44  70  97 131 183 227 277 337 409
#     4  11  20  38  65  94 129 172 220 275 333 393
#     4  12  24  42  65  96 137 177 223 279 342 399
#     4  10  20  37  66  97 128 170 219 278 327 400
#     4  11  22  40  64  96 132 176 222 276 340 394
#     4  11  19  38  67  99 130 170 227 276 332 399
#     4  11  23  40  65  97 135 173 226 274 328 414
#     4  11  22  43  69  97 133 178 230 274 336 407
#
# _framework density 24.011405
#
# number of rings (size 3 to 8) (size 9 to 14) (size 15 to 20)
#    0.000    1.000    6.250    3.375    1.750    0.000 
#    0.000    3.750    5.500    3.750    0.000    0.000 
#    0.000    0.000    0.000    0.000    0.000    0.000 
#
# Total GULP energy -89224.821996 kJ/mol
# GULP energy per Si atom -5576.551375 kJ/mol
# Density = 2.395675 g / cm^3
# Si number density = 24.011405 Si / 1000 Ang^3
#
#
#
# Elastic Constant Matrix: (Units=GPa)
#
#
# Indices 1 2 3 4 5 6 
#
# 1 142.7429 56.7868 40.3607 11.0970 42.6049 -11.3639
# 2 56.7868 162.5883 35.3945 30.6525 12.7856 3.5794
# 3 40.3607 35.3945 62.5334 14.9210 7.6206 2.8470
# 4 11.0970 30.6525 14.9210 39.4486 5.3756 13.8348
# 5 42.6049 12.7856 7.6206 5.3756 37.7661 1.7627
# 6 -11.3639 3.5794 2.8470 13.8348 1.7627 57.7116
#
#
#
# Elastic Compliance Matrix: (Units=1/GPa)
#
#
# Indices 1 2 3 4 5 6 
#
# 1 0.014396 -0.002829 -0.006415 0.001319 -0.014337 0.003448
# 2 -0.002829 0.008429 -0.001862 -0.005335 0.001461 0.000246
# 3 -0.006415 -0.001862 0.021973 -0.005250 0.004232 -0.001102
# 4 0.001319 -0.005335 -0.005250 0.034070 -0.003135 -0.007222
# 5 -0.014337 0.001461 0.004232 -0.003135 0.041921 -0.003651
# 6 0.003448 0.000246 -0.001102 -0.007222 -0.003651 0.019888
#
#
# Mechanical properties :
#
#
# Convention : Reuss Voigt Hill
#
# Bulk Modulus (GPa) = 44.27247 70.32764 57.30005
# Shear Modulus (GPa) = 29.33984 42.67343 36.00663
#
# Velocity S-wave (km/s) = 3.49938 4.22028 3.87662
# Velocity P-wave (km/s) = 5.89963 7.28701 6.62971
#
# Compressibility (1/GPa) = 0.02258740
#
# Stress axis : x y z
#
# Youngs Moduli (GPa) = 69.46372 118.63404 45.51110
#
# Poissons Ratio (x) = 0.33558 0.29196
# Poissons Ratio (y) = 0.19649 0.08472
# Poissons Ratio (z) = 0.44561 0.22084
#
# Static dielectric constant tensor:
#      x y z
#    x 2.011810 -0.015660 -0.043860 
#    y -0.015660 1.909410 -0.053640 
#    z -0.043860 -0.053640 2.079890 
# 
# From -- ./inp_files/559391.got.cif
#   From: 2010.05.17/outbox.cif.g08.bks.cpg/sg2_280_cif.got.tgz:559391.got - 2010.06.03 11:33:40.
