data_PCOD9100751
_publ_section_title
;
Structure prediction by ZEFSAII (Michael W. Deem and Ramdas Pophale) SiO2 
 PCOD9100751
Probable space group: P -1
;
_chemical_formula_sum "Si O2"
_cell_formula_units_Z 14
_cell_length_a 5.614029
_cell_length_b 14.633288
_cell_length_c 8.775648
_cell_angle_alpha 110.051550
_cell_angle_beta 121.499512
_cell_angle_gamma 58.370829
_cell_volume 521.033514
_symmetry_space_group_name_H-M "P -1"
_symmetry_group_IT_number 2
_symmetry_cell_setting 'triclinic'
loop_
_space_group_symop_operation_xyz
x,y,z
-x,-y,-z
loop_
_atom_site_type_symbol
_atom_site_label
_atom_site_fract_x
_atom_site_fract_y
_atom_site_fract_z
Si Si1 0.762126 0.080154 0.095207
Si Si2 0.254531 0.121238 0.475790
Si Si3 0.173070 0.285410 0.327738
Si Si4 0.914943 0.926129 0.313276
Si Si5 0.209241 0.722922 0.106140
Si Si6 0.280764 0.318965 0.953839
Si Si7 0.461769 0.600930 0.644502
O O1 0.490525 0.191466 0.003882
O O2 0.965704 0.124985 0.286566
O O3 0.682430 0.014205 0.166676
O O4 0.000000 0.000000 0.000000
O O5 0.377503 0.183449 0.439570
O O6 0.174146 0.146260 0.639153
O O7 0.500000 0.000000 0.500000
O O8 0.405764 0.333663 0.381776
O O9 0.890969 0.350445 0.385398
O O10 0.999329 0.265744 0.110127
O O11 0.136187 0.839235 0.217511
O O12 0.000000 0.000000 0.500000
O O13 0.072943 0.661680 0.138102
O O14 0.565247 0.668562 0.144273
O O15 0.346613 0.397520 0.138295
O O16 0.500000 0.500000 0.500000
#
# Coordination Sequence:
#
# PCOD9100751 Si02
#       7
#     2   2   2   2   2   2   2
#     4  11  20  37  56  81 123 169 211 253 298 366
#     4  11  24  35  52  90 133 170 207 248 304 379
#     4  10  21  40  61  89 125 162 204 256 316 375
#     4  10  23  33  52  84 126 166 213 245 295 363
#     4  10  20  38  57  81 116 166 204 254 295 360
#     4  10  21  35  62  82 117 150 207 248 316 351
#     4  10  20  37  65  95 117 147 207 278 325 354
#
# _framework density 26.869675000000001
#
# number of rings (size 3 to 8) (size 9 to 14) (size 15 to 20)
#    0.000    1.714    4.286    0.429    6.000    1.714 
#    0.000    0.000    0.000    0.000    0.000   24.000 
#    0.000    0.000    0.000    0.000    0.000    0.000 
#
# Total GULP energy -78196.448256 kJ/mol
# GULP energy per Si atom -5585.460590 kJ/mol
# Density = 2.680852 g / cm^3
# Si number density = 26.869675 Si / 1000 Ang^3
#
#
#
# Elastic Constant Matrix: (Units=GPa)
#
#
# Indices 1 2 3 4 5 6 
#
# 1 194.8873 29.2772 54.7589 7.1149 -39.9807 18.6133
# 2 29.2772 48.6200 57.5013 23.4149 -17.0198 7.4504
# 3 54.7589 57.5013 173.3251 28.8091 -4.7899 0.6186
# 4 7.1149 23.4149 28.8091 35.9311 -13.6358 -10.2674
# 5 -39.9807 -17.0198 -4.7899 -13.6358 52.0000 1.0864
# 6 18.6133 7.4504 0.6186 -10.2674 1.0864 34.3991
#
#
#
# Elastic Compliance Matrix: (Units=1/GPa)
#
#
# Indices 1 2 3 4 5 6 
#
# 1 0.007312 0.000719 -0.002594 0.001361 0.006056 -0.003851
# 2 0.000719 0.057976 -0.014375 -0.028270 0.011240 -0.021480
# 3 -0.002594 -0.014375 0.011180 0.000019 -0.005759 0.004503
# 4 0.001361 -0.028270 0.000019 0.054189 0.005558 0.021385
# 5 0.006056 0.011240 -0.005759 0.005558 0.028594 -0.004852
# 6 -0.003851 -0.021480 0.004503 0.021385 -0.004852 0.042262
#
#
# Mechanical properties :
#
#
# Convention : Reuss Voigt Hill
#
# Bulk Modulus (GPa) = 22.74351 77.76747 50.25549
# Shear Modulus (GPa) = 20.10710 42.81905 31.46308
#
# Velocity S-wave (km/s) = 2.73851 3.99630 3.42563
# Velocity P-wave (km/s) = 4.29907 7.09219 5.86435
#
# Compressibility (1/GPa) = 0.04396859
#
# Stress axis : x y z
#
# Youngs Moduli (GPa) = 136.75282 17.24852 89.44943
#
# Poissons Ratio (x) = -0.01240 0.23202
# Poissons Ratio (y) = -0.09832 1.28581
# Poissons Ratio (z) = 0.35472 0.24794
#
# Static dielectric constant tensor:
#      x y z
#    x 2.265930 0.108520 -0.042820 
#    y 0.108520 2.064130 0.104740 
#    z -0.042820 0.104740 1.971950 
# 
# From -- ./inp_files/134508.got.cif
#   From: 2010.05.17/outbox.cif.g08.bks.cpg/sg2_68_cif.got.tgz:134508.got - 2010.06.03 11:33:40.
