data_PCOD9100935
_publ_section_title
;
Structure prediction by ZEFSAII (Michael W. Deem and Ramdas Pophale) SiO2 
 PCOD9100935
Probable space group: P -1
;
_chemical_formula_sum "Si O2"
_cell_formula_units_Z 16
_cell_length_a 20.342782
_cell_length_b 9.323438
_cell_length_c 8.906859
_cell_angle_alpha 65.347172
_cell_angle_beta 121.111673
_cell_angle_gamma 149.672918
_cell_volume 728.671188
_symmetry_space_group_name_H-M "P -1"
_symmetry_group_IT_number 2
_symmetry_cell_setting 'triclinic'
loop_
_space_group_symop_operation_xyz
x,y,z
-x,-y,-z
loop_
_atom_site_type_symbol
_atom_site_label
_atom_site_fract_x
_atom_site_fract_y
_atom_site_fract_z
Si Si1 0.873879 0.770484 0.067673
Si Si2 0.312635 0.479572 0.515486
Si Si3 0.505906 0.096289 0.191562
Si Si4 0.194912 0.658840 0.939727
Si Si5 0.595861 0.570003 0.962344
Si Si6 0.065734 0.298930 0.236762
Si Si7 0.591406 0.409649 0.746690
Si Si8 0.838026 0.046892 0.237795
O O1 0.937293 0.958938 0.205403
O O2 0.837594 0.525885 0.144249
O O3 0.744390 0.629773 0.895671
O O4 0.000000 0.000000 0.000000
O O5 0.429103 0.762186 0.631177
O O6 0.381406 0.527939 0.425278
O O7 0.199297 0.420573 0.370741
O O8 0.235001 0.207549 0.632789
O O9 0.587573 0.368028 0.075295
O O10 0.347805 0.882570 0.084475
O O11 0.505079 0.913319 0.216610
O O12 0.096179 0.455292 0.055949
O O13 0.182555 0.810959 0.794639
O O14 0.748719 0.892158 0.043016
O O15 0.500000 0.500000 0.000000
O O16 0.549537 0.485582 0.770371
O O17 0.999599 0.290535 0.292862
#
# Coordination Sequence:
#
# PCOD9100935 Si02
#       8
#     2   2   2   2   2   2   2   2
#     4   9  17  34  63  90 112 156 221 255 289 371
#     4  11  23  37  64  97 136 162 202 266 317 379
#     4  10  21  39  64  94 126 160 217 259 308 368
#     4  10  20  37  67  87 124 166 219 257 301 374
#     4  11  22  38  64  90 125 160 210 268 307 373
#     4  11  20  39  65  92 123 170 215 251 307 377
#     4  11  20  38  65  92 119 169 212 261 306 374
#     4  11  23  39  60  95 129 162 207 263 319 366
#
# _framework density 21.957778000000001
#
# number of rings (size 3 to 8) (size 9 to 14) (size 15 to 20)
#    0.000    1.500    6.250    1.500    0.000    0.000 
#    0.000    3.125    0.000    4.500    0.000    0.000 
#    0.000    0.000    0.000    0.000    0.000    0.000 
#
# Total GULP energy -89231.853620 kJ/mol
# GULP energy per Si atom -5576.990851 kJ/mol
# Density = 2.190780 g / cm^3
# Si number density = 21.957778 Si / 1000 Ang^3
#
#
#
# Elastic Constant Matrix: (Units=GPa)
#
#
# Indices 1 2 3 4 5 6 
#
# 1 82.2233 -0.2201 17.1365 5.8039 -9.8913 1.5357
# 2 -0.2201 52.9837 -2.9198 1.4175 2.0979 3.4599
# 3 17.1365 -2.9198 54.1440 9.4398 -15.8067 2.7926
# 4 5.8039 1.4175 9.4398 31.2828 -8.8185 -0.8338
# 5 -9.8913 2.0979 -15.8067 -8.8185 29.9970 -3.1904
# 6 1.5357 3.4599 2.7926 -0.8338 -3.1904 25.2724
#
#
#
# Elastic Compliance Matrix: (Units=1/GPa)
#
#
# Indices 1 2 3 4 5 6 
#
# 1 0.013202 -0.000195 -0.003361 -0.000766 0.002357 -0.000132
# 2 -0.000195 0.019240 0.001064 -0.001708 -0.001671 -0.003007
# 3 -0.003361 0.001064 0.023164 -0.003692 0.009791 -0.001387
# 4 -0.000766 -0.001708 -0.003692 0.035854 0.008779 0.002979
# 5 0.002357 -0.001671 0.009791 0.008779 0.042466 0.004654
# 6 -0.000132 -0.003007 -0.001387 0.002979 0.004654 0.040828
#
#
# Mechanical properties :
#
#
# Convention : Reuss Voigt Hill
#
# Bulk Modulus (GPa) = 19.75367 24.14937 21.95152
# Shear Modulus (GPa) = 25.43118 29.00072 27.21595
#
# Velocity S-wave (km/s) = 3.40690 3.63815 3.52443
# Velocity P-wave (km/s) = 4.94891 5.35446 5.15567
#
# Compressibility (1/GPa) = 0.05062351
#
# Stress axis : x y z
#
# Youngs Moduli (GPa) = 75.74665 51.97567 43.17109
#
# Poissons Ratio (x) = 0.01011 0.14508
# Poissons Ratio (y) = 0.01474 -0.04594
# Poissons Ratio (z) = 0.25455 -0.05531
#
# Static dielectric constant tensor:
#      x y z
#    x 1.891400 -0.005080 -0.054800 
#    y -0.005080 1.833410 -0.013590 
#    z -0.054800 -0.013590 1.886510 
# 
# From -- ./inp_files/343604.got.cif
#   From: 2010.05.17/outbox.cif.g08.bks.cpg/sg2_172_cif.got.tgz:343604.got - 2010.06.03 11:33:40.
