data_PCOD9100549
_publ_section_title
;
Structure prediction by ZEFSAII (Michael W. Deem and Ramdas Pophale) SiO2 
 PCOD9100549
Probable space group: P -1
;
_chemical_formula_sum "Si O2"
_cell_formula_units_Z 16
_cell_length_a 8.853029
_cell_length_b 12.251547
_cell_length_c 19.659233
_cell_angle_alpha 151.691718
_cell_angle_beta 119.973915
_cell_angle_gamma 50.641984
_cell_volume 771.746414
_symmetry_space_group_name_H-M "P -1"
_symmetry_group_IT_number 2
_symmetry_cell_setting 'triclinic'
loop_
_space_group_symop_operation_xyz
x,y,z
-x,-y,-z
loop_
_atom_site_type_symbol
_atom_site_label
_atom_site_fract_x
_atom_site_fract_y
_atom_site_fract_z
Si Si1 0.180939 0.651419 0.157486
Si Si2 0.554101 0.918677 0.046435
Si Si3 0.738700 0.083774 0.297854
Si Si4 0.220650 0.790402 0.949299
Si Si5 0.519681 0.916988 0.635679
Si Si6 0.819731 0.134464 0.865241
Si Si7 0.533873 0.776086 0.333276
Si Si8 0.846669 0.388075 0.397920
O O1 0.205127 0.656003 0.083412
O O2 0.323211 0.774809 0.278578
O O3 0.269142 0.376162 0.064125
O O4 0.948407 0.824142 0.211810
O O5 0.620599 0.081026 0.201233
O O6 0.364343 0.911972 0.032046
O O7 0.500000 0.000000 0.000000
O O8 0.606721 0.116385 0.351313
O O9 0.803401 0.303031 0.415350
O O10 0.304131 0.520575 0.778847
O O11 0.227394 0.736848 0.001612
O O12 0.000000 0.000000 0.000000
O O13 0.642750 0.641151 0.472216
O O14 0.671942 0.011856 0.752250
O O15 0.404176 0.136791 0.674777
O O16 0.039093 0.881896 0.767212
O O17 0.500000 0.000000 0.500000
O O18 0.000000 0.500000 0.500000
#
# Coordination Sequence:
#
# PCOD9100549 Si02
#       8
#     2   2   2   2   2   2   2   2
#     4   9  22  41  67  91 128 175 221 267 335 396
#     4  11  25  40  59  96 140 172 211 280 345 385
#     4  11  21  39  64  98 125 170 227 271 327 398
#     4  11  25  41  65  98 133 176 227 271 331 396
#     4  10  20  37  64  94 125 166 218 282 317 385
#     4   9  19  39  65  93 121 171 226 273 313 395
#     4  10  24  43  65  94 132 176 219 270 340 397
#     4   9  20  36  60  90 127 163 209 267 332 379
#
# _framework density 20.732198
#
# number of rings (size 3 to 8) (size 9 to 14) (size 15 to 20)
#    0.000    2.000    1.250    1.500    7.000    3.500 
#    0.000    0.625    0.000    0.000    0.000    0.000 
#    0.000    0.000    0.000    0.000    0.000    0.000 
#
# Total GULP energy -89230.145700 kJ/mol
# GULP energy per Si atom -5576.884106 kJ/mol
# Density = 2.068501 g / cm^3
# Si number density = 20.732198 Si / 1000 Ang^3
#
#
#
# Elastic Constant Matrix: (Units=GPa)
#
#
# Indices 1 2 3 4 5 6 
#
# 1 122.8754 41.2728 33.3771 12.0516 -10.8613 6.1903
# 2 41.2728 108.3310 38.5826 12.7348 -7.6008 1.5124
# 3 33.3771 38.5826 84.3320 -4.5361 -5.5997 5.8847
# 4 12.0516 12.7348 -4.5361 20.2455 6.9298 -5.2954
# 5 -10.8613 -7.6008 -5.5997 6.9298 24.9719 3.6808
# 6 6.1903 1.5124 5.8847 -5.2954 3.6808 36.8856
#
#
#
# Elastic Compliance Matrix: (Units=1/GPa)
#
#
# Indices 1 2 3 4 5 6 
#
# 1 0.011369 -0.001262 -0.003762 -0.010113 0.007026 -0.003409
# 2 -0.001262 0.013555 -0.005827 -0.011453 0.005688 -0.001626
# 3 -0.003762 -0.005827 0.016399 0.010491 -0.002647 0.000024
# 4 -0.010113 -0.011453 0.010491 0.078978 -0.029628 0.014788
# 5 0.007026 0.005688 -0.002647 -0.029628 0.054028 -0.010635
# 6 -0.003409 -0.001626 0.000024 0.014788 -0.010635 0.030930
#
#
# Mechanical properties :
#
#
# Convention : Reuss Voigt Hill
#
# Bulk Modulus (GPa) = 50.96372 60.22261 55.59316
# Shear Modulus (GPa) = 21.41314 29.90768 25.66041
#
# Velocity S-wave (km/s) = 3.21728 3.80224 3.52192
# Velocity P-wave (km/s) = 6.19971 6.95607 6.58876
#
# Compressibility (1/GPa) = 0.01962180
#
# Stress axis : x y z
#
# Youngs Moduli (GPa) = 87.96058 73.77158 60.97788
#
# Poissons Ratio (x) = 0.09312 0.22937
# Poissons Ratio (y) = 0.11103 0.35532
# Poissons Ratio (z) = 0.33087 0.42986
#
# Static dielectric constant tensor:
#      x y z
#    x 1.750070 -0.015080 0.009360 
#    y -0.015080 1.791480 0.024210 
#    z 0.009360 0.024210 1.781430 
# 
# From -- ./inp_files/307676.got.cif
#   From: 2010.05.17/outbox.cif.g08.bks.cpg/sg2_154_cif.got.tgz:307676.got - 2010.06.03 11:33:40.
