data_PCOD9100997
_publ_section_title
;
Structure prediction by ZEFSAII (Michael W. Deem and Ramdas Pophale) SiO2 
 PCOD9100997
Probable space group: P -1
;
_chemical_formula_sum "Si O2"
_cell_formula_units_Z 14
_cell_length_a 8.925943
_cell_length_b 8.331142
_cell_length_c 14.539114
_cell_angle_alpha 56.358450
_cell_angle_beta 38.838957
_cell_angle_gamma 67.792641
_cell_volume 561.505953
_symmetry_space_group_name_H-M "P -1"
_symmetry_group_IT_number 2
_symmetry_cell_setting 'triclinic'
loop_
_space_group_symop_operation_xyz
x,y,z
-x,-y,-z
loop_
_atom_site_type_symbol
_atom_site_label
_atom_site_fract_x
_atom_site_fract_y
_atom_site_fract_z
Si Si1 0.261768 0.797185 0.738321
Si Si2 0.357816 0.812101 0.999682
Si Si3 0.206383 0.070689 0.151734
Si Si4 0.903012 0.241446 0.539020
Si Si5 0.639781 0.935381 0.640241
Si Si6 0.980005 0.768650 0.066532
Si Si7 0.506514 0.477313 0.613548
O O1 0.456838 0.957954 0.638239
O O2 0.408720 0.648934 0.662248
O O3 0.056930 0.865672 0.750353
O O4 0.113264 0.715754 0.926048
O O5 0.587288 0.762807 0.966442
O O6 0.482361 0.875969 0.823814
O O7 0.117667 0.688309 0.115641
O O8 0.271039 0.980884 0.051877
O O9 0.192525 0.893424 0.286954
O O10 0.766376 0.431426 0.540357
O O11 0.187665 0.233890 0.406389
O O12 0.808332 0.125476 0.528718
O O13 0.701318 0.697836 0.215210
O O14 0.000000 0.000000 0.000000
O O15 0.500000 0.500000 0.500000
#
# Coordination Sequence:
#
# PCOD9100997 Si02
#       7
#     2   2   2   2   2   2   2
#     4  11  24  42  70 104 139 176 229 296 350 400
#     4   9  19  35  66  98 124 165 232 284 318 390
#     4  10  20  37  68 106 127 172 235 282 332 406
#     4  10  23  43  67  93 140 190 229 277 335 424
#     4   9  21  41  69  97 132 181 239 272 333 409
#     4  11  21  47  73  98 134 187 239 275 335 422
#     4  12  29  45  67 104 148 180 223 293 364 400
#
# _framework density 24.932949000000001
#
# number of rings (size 3 to 8) (size 9 to 14) (size 15 to 20)
#    0.000    1.714    1.429    3.000    8.000    2.286 
#    0.000    0.714    0.000    0.000    0.000    0.000 
#    0.000    0.000    0.000    0.000    0.000    0.000 
#
# Total GULP energy -78233.037846 kJ/mol
# GULP energy per Si atom -5588.074132 kJ/mol
# Density = 2.487620 g / cm^3
# Si number density = 24.932949 Si / 1000 Ang^3
#
#
#
# Elastic Constant Matrix: (Units=GPa)
#
#
# Indices 1 2 3 4 5 6 
#
# 1 135.4609 23.9260 24.2595 18.2506 -0.2900 -17.7879
# 2 23.9260 80.0341 35.3480 37.2805 6.9170 -12.5474
# 3 24.2595 35.3480 106.4218 36.1597 11.9274 -7.8888
# 4 18.2506 37.2805 36.1597 41.2446 0.0114 -12.8692
# 5 -0.2900 6.9170 11.9274 0.0114 46.7017 16.8135
# 6 -17.7879 -12.5474 -7.8888 -12.8692 16.8135 37.0926
#
#
#
# Elastic Compliance Matrix: (Units=1/GPa)
#
#
# Indices 1 2 3 4 5 6 
#
# 1 0.008304 -0.001087 -0.000908 -0.000798 -0.000821 0.003517
# 2 -0.001087 0.022425 -0.000126 -0.018947 -0.004133 0.002337
# 3 -0.000908 -0.000126 0.014059 -0.011794 -0.003592 0.000048
# 4 -0.000798 -0.018947 -0.011794 0.054691 0.002769 0.008419
# 5 -0.000821 -0.004133 -0.003592 0.002769 0.028095 -0.014330
# 6 0.003517 0.002337 0.000048 0.008419 -0.014330 0.038864
#
#
# Mechanical properties :
#
#
# Convention : Reuss Voigt Hill
#
# Bulk Modulus (GPa) = 24.66394 54.33153 39.49773
# Shear Modulus (GPa) = 27.14495 40.90002 34.02249
#
# Velocity S-wave (km/s) = 3.30315 4.05458 3.69800
# Velocity P-wave (km/s) = 4.94584 6.61497 5.84034
#
# Compressibility (1/GPa) = 0.04054503
#
# Stress axis : x y z
#
# Youngs Moduli (GPa) = 120.41703 44.59334 71.12973
#
# Poissons Ratio (x) = 0.04849 0.06458
# Poissons Ratio (y) = 0.13095 0.00898
# Poissons Ratio (z) = 0.10932 0.00563
#
# Static dielectric constant tensor:
#      x y z
#    x 2.067500 -0.034150 -0.039230 
#    y -0.034150 2.011400 -0.026900 
#    z -0.039230 -0.026900 2.011000 
# 
# From -- ./inp_files/494558.got.cif
#   From: 2010.05.17/outbox.cif.g08.bks.cpg/sg2_248_cif.got.tgz:494558.got - 2010.06.03 11:33:40.
