data_PCOD9100805
_publ_section_title
;
Structure prediction by ZEFSAII (Michael W. Deem and Ramdas Pophale) SiO2 
 PCOD9100805
Probable space group: P -1
;
_chemical_formula_sum "Si O2"
_cell_formula_units_Z 16
_cell_length_a 8.851998
_cell_length_b 9.131720
_cell_length_c 14.852521
_cell_angle_alpha 40.819235
_cell_angle_beta 68.463216
_cell_angle_gamma 66.460826
_cell_volume 715.262828
_symmetry_space_group_name_H-M "P -1"
_symmetry_group_IT_number 2
_symmetry_cell_setting 'triclinic'
loop_
_space_group_symop_operation_xyz
x,y,z
-x,-y,-z
loop_
_atom_site_type_symbol
_atom_site_label
_atom_site_fract_x
_atom_site_fract_y
_atom_site_fract_z
Si Si1 0.689359 0.438646 0.708378
Si Si2 0.677373 0.010019 0.001301
Si Si3 0.172869 0.826795 0.541765
Si Si4 0.305835 0.467860 0.813466
Si Si5 0.675803 0.757654 0.733098
Si Si6 0.313129 0.452554 0.544972
Si Si7 0.166774 0.526551 0.000722
Si Si8 0.673238 0.080773 0.175548
O O1 0.490080 0.455949 0.741834
O O2 0.713437 0.613868 0.699905
O O3 0.738037 0.488828 0.574134
O O4 0.760960 0.180589 0.845145
O O5 0.647556 0.107651 0.061870
O O6 0.766543 0.746005 0.108231
O O7 0.500000 0.000000 0.000000
O O8 0.206075 0.706710 0.687133
O O9 0.196037 0.621374 0.560415
O O10 0.299406 0.987399 0.411610
O O11 0.000000 0.000000 0.500000
O O12 0.303015 0.444420 0.931673
O O13 0.488516 0.790143 0.795226
O O14 0.791029 0.626783 0.848237
O O15 0.500000 0.500000 0.500000
O O16 0.305869 0.188303 0.684910
O O17 0.179591 0.787801 0.895372
O O18 0.000000 0.500000 0.000000
#
# Coordination Sequence:
#
# PCOD9100805 Si02
#       8
#     2   2   2   2   2   2   2   2
#     4  11  22  39  70 112 137 177 243 309 347 417
#     4  10  20  37  66 104 143 174 235 312 354 407
#     4  12  27  46  69 103 152 190 230 295 375 441
#     4  11  22  42  69 100 143 187 240 294 364 419
#     4  12  24  43  72 106 143 187 247 302 359 430
#     4  12  23  44  74 111 141 186 245 301 360 431
#     4  12  27  45  67 105 152 198 238 299 375 433
#     4  12  22  43  75 106 141 190 253 302 344 437
#
# _framework density 22.369399999999999
#
# number of rings (size 3 to 8) (size 9 to 14) (size 15 to 20)
#    0.000    0.500    6.250    3.375    3.500    1.000 
#    0.000    2.500    0.000    0.000    0.000    0.000 
#    0.000    0.000    0.000    0.000    0.000    0.000 
#
# Total GULP energy -89458.895700 kJ/mol
# GULP energy per Si atom -5591.180981 kJ/mol
# Density = 2.231849 g / cm^3
# Si number density = 22.369400 Si / 1000 Ang^3
#
#
#
# Elastic Constant Matrix: (Units=GPa)
#
#
# Indices 1 2 3 4 5 6 
#
# 1 68.1350 36.3304 43.8322 -16.3268 -3.2158 17.1970
# 2 36.3304 102.8967 37.3458 -4.0390 4.0774 29.1461
# 3 43.8322 37.3458 151.2085 -14.7170 17.2229 25.7054
# 4 -16.3268 -4.0390 -14.7170 52.8103 9.5916 4.8362
# 5 -3.2158 4.0774 17.2229 9.5916 26.8456 -4.2408
# 6 17.1970 29.1461 25.7054 4.8362 -4.2408 38.9269
#
#
#
# Elastic Compliance Matrix: (Units=1/GPa)
#
#
# Indices 1 2 3 4 5 6 
#
# 1 0.022757 -0.005466 -0.004809 0.004724 0.004499 -0.002882
# 2 -0.005466 0.014410 0.000278 0.001231 -0.004922 -0.009247
# 3 -0.004809 0.000278 0.010555 0.003863 -0.009813 -0.006602
# 4 0.004724 0.001231 0.003863 0.024757 -0.012524 -0.009999
# 5 0.004499 -0.004922 -0.009813 -0.012524 0.051735 0.015370
# 6 -0.002882 -0.009247 -0.006602 -0.009999 0.015370 0.041163
#
#
# Mechanical properties :
#
#
# Convention : Reuss Voigt Hill
#
# Bulk Modulus (GPa) = 36.06587 61.91743 48.99165
# Shear Modulus (GPa) = 25.69187 37.36535 31.52861
#
# Velocity S-wave (km/s) = 3.39267 4.09146 3.75834
# Velocity P-wave (km/s) = 5.61291 7.07529 6.38610
#
# Compressibility (1/GPa) = 0.02772705
#
# Stress axis : x y z
#
# Youngs Moduli (GPa) = 43.94274 69.39495 94.74216
#
# Poissons Ratio (x) = 0.37931 0.45566
# Poissons Ratio (y) = 0.24019 -0.02632
# Poissons Ratio (z) = 0.21134 -0.01928
#
# Static dielectric constant tensor:
#      x y z
#    x 1.875590 -0.033460 -0.032780 
#    y -0.033460 1.850270 -0.012810 
#    z -0.032780 -0.012810 1.862810 
# 
# From -- ./inp_files/320694.got.cif
#   From: 2010.05.17/outbox.cif.g08.bks.cpg/sg2_161_cif.got.tgz:320694.got - 2010.06.03 11:33:40.
