data_PCOD9100365
_publ_section_title
;
Structure prediction by ZEFSAII (Michael W. Deem and Ramdas Pophale) SiO2 
 PCOD9100365
Probable space group: P -1
;
_chemical_formula_sum "Si O2"
_cell_formula_units_Z 14
_cell_length_a 20.498737
_cell_length_b 9.000721
_cell_length_c 11.301969
_cell_angle_alpha 112.505897
_cell_angle_beta 143.485062
_cell_angle_gamma 39.165756
_cell_volume 602.416096
_symmetry_space_group_name_H-M "P -1"
_symmetry_group_IT_number 2
_symmetry_cell_setting 'triclinic'
loop_
_space_group_symop_operation_xyz
x,y,z
-x,-y,-z
loop_
_atom_site_type_symbol
_atom_site_label
_atom_site_fract_x
_atom_site_fract_y
_atom_site_fract_z
Si Si1 0.294669 0.696919 0.825054
Si Si2 0.906958 0.085301 0.759765
Si Si3 0.731815 0.593026 0.013736
Si Si4 0.070892 0.433219 0.883705
Si Si5 0.461763 0.484085 0.267803
Si Si6 0.120670 0.117462 0.059668
Si Si7 0.121456 0.580122 0.570377
O O1 0.250533 0.564498 0.694633
O O2 0.500000 0.500000 0.000000
O O3 0.330094 0.659560 0.006621
O O4 0.100432 0.053086 0.617523
O O5 0.679890 0.294653 0.500544
O O6 0.062493 0.771609 0.824427
O O7 0.932532 0.230663 0.785234
O O8 0.000000 0.000000 0.000000
O O9 0.748552 0.708626 0.974207
O O10 0.764487 0.612839 0.200816
O O11 0.545256 0.696661 0.765762
O O12 0.940543 0.725165 0.858243
O O13 0.926988 0.510935 0.609321
O O14 0.153450 0.210345 0.036438
O O15 0.326939 0.751986 0.247728
#
# Coordination Sequence:
#
# PCOD9100365 Si02
#       7
#     2   2   2   2   2   2   2
#     4  10  20  37  63  96 120 162 212 259 308 370
#     4  11  22  43  67  92 121 166 213 266 307 368
#     4  10  22  40  63  98 125 168 207 259 316 367
#     4  11  21  42  62  92 136 167 204 259 316 371
#     4  10  22  40  67  93 122 166 217 258 310 371
#     4  10  23  41  63  92 127 170 214 251 314 372
#     4  10  21  38  65  89 130 165 205 259 310 368
#
# _framework density 23.239753
#
# number of rings (size 3 to 8) (size 9 to 14) (size 15 to 20)
#    0.000    1.714    2.857    1.286    4.000    2.286 
#    0.000    7.143    0.000    5.143    0.000    0.000 
#    0.000    0.000    0.000    0.000    0.000    0.000 
#
# Total GULP energy -78323.233686 kJ/mol
# GULP energy per Si atom -5594.516692 kJ/mol
# Density = 2.318686 g / cm^3
# Si number density = 23.239753 Si / 1000 Ang^3
#
#
#
# Elastic Constant Matrix: (Units=GPa)
#
#
# Indices 1 2 3 4 5 6 
#
# 1 142.3428 22.0736 46.0563 7.4811 25.3983 15.9364
# 2 22.0736 35.7451 16.9275 25.6862 10.7252 5.3163
# 3 46.0563 16.9275 110.0028 12.9840 30.9521 6.2785
# 4 7.4811 25.6862 12.9840 31.1776 -4.9122 0.6011
# 5 25.3983 10.7252 30.9521 -4.9122 55.8559 4.3448
# 6 15.9364 5.3163 6.2785 0.6011 4.3448 30.4620
#
#
#
# Elastic Compliance Matrix: (Units=1/GPa)
#
#
# Indices 1 2 3 4 5 6 
#
# 1 0.009310 -0.007438 -0.003077 0.005168 -0.000414 -0.002981
# 2 -0.007438 0.105199 0.006014 -0.091518 -0.027422 -0.009991
# 3 -0.003077 0.006014 0.012985 -0.010845 -0.007844 -0.000784
# 4 0.005168 -0.091518 -0.010845 0.115415 0.030695 0.008848
# 5 -0.000414 -0.027422 -0.007844 0.030695 0.030271 0.001696
# 6 -0.002981 -0.009991 -0.000784 0.008848 0.001696 0.035876
#
#
# Mechanical properties :
#
#
# Convention : Reuss Voigt Hill
#
# Bulk Modulus (GPa) = 8.43932 50.91173 29.67552
# Shear Modulus (GPa) = 13.98380 37.03465 25.50922
#
# Velocity S-wave (km/s) = 2.45566 3.99631 3.31668
# Velocity P-wave (km/s) = 3.41755 6.57638 5.24063
#
# Compressibility (1/GPa) = 0.11849297
#
# Stress axis : x y z
#
# Youngs Moduli (GPa) = 107.40744 9.50579 77.00937
#
# Poissons Ratio (x) = 0.07071 0.23694
# Poissons Ratio (y) = 0.79892 -0.46314
# Poissons Ratio (z) = 0.33047 -0.05717
#
# Static dielectric constant tensor:
#      x y z
#    x 1.944050 0.040740 -0.026210 
#    y 0.040740 1.873450 0.021530 
#    z -0.026210 0.021530 1.876660 
# 
# From -- ./inp_files/278828.got.cif
#   From: 2010.05.17/outbox.cif.g08.bks.cpg/sg2_140_cif.got.tgz:278828.got - 2010.06.03 11:33:40.
