data_PCOD9100800
_publ_section_title
;
Structure prediction by ZEFSAII (Michael W. Deem and Ramdas Pophale) SiO2 
 PCOD9100800
Probable space group: P -1
;
_chemical_formula_sum "Si O2"
_cell_formula_units_Z 14
_cell_length_a 11.820664
_cell_length_b 9.608695
_cell_length_c 8.419190
_cell_angle_alpha 109.467524
_cell_angle_beta 86.433191
_cell_angle_gamma 53.464615
_cell_volume 680.202267
_symmetry_space_group_name_H-M "P -1"
_symmetry_group_IT_number 2
_symmetry_cell_setting 'triclinic'
loop_
_space_group_symop_operation_xyz
x,y,z
-x,-y,-z
loop_
_atom_site_type_symbol
_atom_site_label
_atom_site_fract_x
_atom_site_fract_y
_atom_site_fract_z
Si Si1 0.336377 0.252687 0.912865
Si Si2 0.692791 0.619344 0.695089
Si Si3 0.196159 0.098822 0.681090
Si Si4 0.337715 0.593852 0.978723
Si Si5 0.378318 0.074641 0.399502
Si Si6 0.099068 0.788533 0.333690
Si Si7 0.599884 0.305389 0.309925
O O1 0.244283 0.205581 0.811105
O O2 0.320927 0.430774 0.911991
O O3 0.514062 0.068314 0.806707
O O4 0.285377 0.304440 0.118707
O O5 0.703702 0.708569 0.571353
O O6 0.803101 0.386450 0.613922
O O7 0.523093 0.704444 0.749046
O O8 0.261348 0.063220 0.483470
O O9 0.020419 0.220658 0.738395
O O10 0.281385 0.888331 0.672854
O O11 0.327401 0.671908 0.835316
O O12 0.500000 0.500000 0.000000
O O13 0.212879 0.749975 0.175563
O O14 0.500000 0.000000 0.500000
O O15 0.000000 0.000000 0.500000
O O16 0.500000 0.500000 0.500000
#
# Coordination Sequence:
#
# PCOD9100800 Si02
#       7
#     2   2   2   2   2   2   2
#     4  10  21  40  68 100 135 165 236 284 326 406
#     4  11  22  40  68  98 130 182 226 272 344 399
#     4  11  25  41  66  98 141 176 219 288 341 387
#     4  11  24  42  73  99 129 184 230 271 341 402
#     4  10  20  37  66 102 127 170 225 279 328 394
#     4  11  26  47  66 101 145 176 223 286 344 404
#     4  12  23  40  69 102 131 179 232 279 329 408
#
# _framework density 20.582111000000001
#
# number of rings (size 3 to 8) (size 9 to 14) (size 15 to 20)
#    0.000    1.143    5.714    2.143    4.000    3.429 
#    0.000    0.000    0.000    0.000    0.000    0.000 
#    0.000    0.000    0.000    0.000    0.000    0.000 
#
# Total GULP energy -78211.217586 kJ/mol
# GULP energy per Si atom -5586.515542 kJ/mol
# Density = 2.053527 g / cm^3
# Si number density = 20.582111 Si / 1000 Ang^3
#
#
#
# Elastic Constant Matrix: (Units=GPa)
#
#
# Indices 1 2 3 4 5 6 
#
# 1 97.8135 21.6315 32.2408 -9.9074 -15.0400 -0.4296
# 2 21.6315 169.3234 50.8658 -28.4597 -22.0241 11.0005
# 3 32.2408 50.8658 99.0472 2.3693 -17.5214 12.4488
# 4 -9.9074 -28.4597 2.3693 30.9847 4.9921 -7.9625
# 5 -15.0400 -22.0241 -17.5214 4.9921 35.8804 5.0169
# 6 -0.4296 11.0005 12.4488 -7.9625 5.0169 30.6826
#
#
#
# Elastic Compliance Matrix: (Units=1/GPa)
#
#
# Indices 1 2 3 4 5 6 
#
# 1 0.012458 0.000803 -0.004519 0.005385 0.002378 0.002729
# 2 0.000803 0.008922 -0.004732 0.008611 0.002219 0.000604
# 3 -0.004519 -0.004732 0.016347 -0.010184 0.005802 -0.008591
# 4 0.005385 0.008611 -0.010184 0.047355 -0.006032 0.014395
# 5 0.002378 0.002219 0.005802 -0.006032 0.035365 -0.010464
# 6 0.002729 0.000604 -0.008591 0.014395 -0.010464 0.041345
#
#
# Mechanical properties :
#
#
# Convention : Reuss Voigt Hill
#
# Bulk Modulus (GPa) = 48.00641 63.96226 55.98433
# Shear Modulus (GPa) = 26.93491 36.93927 31.93709
#
# Velocity S-wave (km/s) = 3.62146 4.24102 3.94343
# Velocity P-wave (km/s) = 6.39231 7.42467 6.92775
#
# Compressibility (1/GPa) = 0.02083055
#
# Stress axis : x y z
#
# Youngs Moduli (GPa) = 80.26681 112.08667 61.17277
#
# Poissons Ratio (x) = -0.09000 0.27643
# Poissons Ratio (y) = -0.06445 0.28950
# Poissons Ratio (z) = 0.36271 0.53045
#
# Static dielectric constant tensor:
#      x y z
#    x 1.740560 0.018590 0.035350 
#    y 0.018590 1.758400 -0.005100 
#    z 0.035350 -0.005100 1.799070 
# 
# From -- ./inp_files/159837.got.cif
#   From: 2010.05.17/outbox.cif.g08.bks.cpg/sg2_80_cif.got.tgz:159837.got - 2010.06.03 11:33:40.
