data_PCOD9100390
_publ_section_title
;
Structure prediction by ZEFSAII (Michael W. Deem and Ramdas Pophale) SiO2 
 PCOD9100390
Probable space group: P -1
;
_chemical_formula_sum "Si O2"
_cell_formula_units_Z 14
_cell_length_a 9.011700
_cell_length_b 14.789988
_cell_length_c 22.193135
_cell_angle_alpha 19.955151
_cell_angle_beta 145.894633
_cell_angle_gamma 140.896967
_cell_volume 566.007602
_symmetry_space_group_name_H-M "P -1"
_symmetry_group_IT_number 2
_symmetry_cell_setting 'triclinic'
loop_
_space_group_symop_operation_xyz
x,y,z
-x,-y,-z
loop_
_atom_site_type_symbol
_atom_site_label
_atom_site_fract_x
_atom_site_fract_y
_atom_site_fract_z
Si Si1 0.812095 0.181193 0.782746
Si Si2 0.207206 0.217803 0.604635
Si Si3 0.541022 0.380922 0.155078
Si Si4 0.629505 0.144778 0.612288
Si Si5 0.442512 0.264402 0.778926
Si Si6 0.897681 0.618060 0.699519
Si Si7 0.094799 0.671898 0.868663
O O1 0.897319 0.486353 0.624685
O O2 0.803234 0.109230 0.753101
O O3 0.504990 0.190417 0.694883
O O4 0.000000 0.000000 0.000000
O O5 0.243549 0.190727 0.705546
O O6 0.853785 0.348757 0.280122
O O7 0.045109 0.976696 0.675562
O O8 0.374646 0.108701 0.273365
O O9 0.500000 0.500000 0.000000
O O10 0.407441 0.598413 0.016155
O O11 0.724849 0.361400 0.786970
O O12 0.655959 0.448225 0.406848
O O13 0.319970 0.149437 0.527269
O O14 0.500000 0.000000 0.000000
O O15 0.972691 0.605802 0.803419
O O16 0.000000 0.500000 0.000000
#
# Coordination Sequence:
#
# PCOD9100390 Si02
#       7
#     2   2   2   2   2   2   2
#     4  10  21  41  66  96 131 169 217 282 340 385
#     4  10  22  40  61  97 133 168 218 271 339 395
#     4  10  20  37  63  98 127 170 229 270 327 399
#     4   9  20  39  64  99 129 169 230 275 327 395
#     4   9  19  37  64  90 129 179 215 262 339 391
#     4   9  20  38  68  94 130 172 220 278 323 387
#     4  11  23  41  63  95 137 179 214 272 341 393
#
# _framework density 24.734649999999998
#
# number of rings (size 3 to 8) (size 9 to 14) (size 15 to 20)
#    0.857    1.429    0.000    3.000    0.000    3.429 
#    5.143    2.143    0.000    6.857    0.000    0.000 
#    0.000    0.000    0.000    0.000    0.000    0.000 
#
# Total GULP energy -78199.891734 kJ/mol
# GULP energy per Si atom -5585.706552 kJ/mol
# Density = 2.467835 g / cm^3
# Si number density = 24.734650 Si / 1000 Ang^3
#
#
#
# Elastic Constant Matrix: (Units=GPa)
#
#
# Indices 1 2 3 4 5 6 
#
# 1 43.6916 15.6267 20.6450 -4.0215 0.8280 1.2988
# 2 15.6267 95.1416 38.0926 1.2115 -4.0647 -4.4443
# 3 20.6450 38.0926 181.9396 1.5485 -8.3560 -6.2151
# 4 -4.0215 1.2115 1.5485 44.4870 1.4218 -0.1564
# 5 0.8280 -4.0647 -8.3560 1.4218 33.1425 1.6944
# 6 1.2988 -4.4443 -6.2151 -0.1564 1.6944 18.1749
#
#
#
# Elastic Compliance Matrix: (Units=1/GPa)
#
#
# Indices 1 2 3 4 5 6 
#
# 1 0.025633 -0.003513 -0.002382 0.002535 -0.001610 -0.003334
# 2 -0.003513 0.012047 -0.001992 -0.000599 0.000965 0.002421
# 3 -0.002382 -0.001992 0.006307 -0.000417 0.001336 0.001712
# 4 0.002535 -0.000599 -0.000417 0.022777 -0.001211 -0.000161
# 5 -0.001610 0.000965 0.001336 -0.001211 0.030826 -0.002076
# 6 -0.003334 0.002421 0.001712 -0.000161 -0.002076 0.056629
#
#
# Mechanical properties :
#
#
# Convention : Reuss Voigt Hill
#
# Bulk Modulus (GPa) = 35.44492 52.16681 43.80586
# Shear Modulus (GPa) = 27.87118 35.58812 31.72965
#
# Velocity S-wave (km/s) = 3.36044 3.79726 3.58551
# Velocity P-wave (km/s) = 5.42383 6.35311 5.90677
#
# Compressibility (1/GPa) = 0.02821279
#
# Stress axis : x y z
#
# Youngs Moduli (GPa) = 39.01230 83.00863 158.55345
#
# Poissons Ratio (x) = 0.29161 0.37775
# Poissons Ratio (y) = 0.13705 0.31576
# Poissons Ratio (z) = 0.09295 0.16531
#
# Static dielectric constant tensor:
#      x y z
#    x 2.034360 0.025000 0.034650 
#    y 0.025000 2.019960 0.007680 
#    z 0.034650 0.007680 1.989250 
# 
# From -- ./inp_files/595198.got.cif
#   From: 2010.05.17/outbox.cif.g08.bks.cpg/sg2_298_cif.got.tgz:595198.got - 2010.06.03 11:33:40.
