data_PCOD9100801
_publ_section_title
;
Structure prediction by ZEFSAII (Michael W. Deem and Ramdas Pophale) SiO2 
 PCOD9100801
Probable space group: P -1
;
_chemical_formula_sum "Si O2"
_cell_formula_units_Z 16
_cell_length_a 5.322897
_cell_length_b 23.150502
_cell_length_c 17.536697
_cell_angle_alpha 156.819770
_cell_angle_beta 69.097377
_cell_angle_gamma 99.002045
_cell_volume 702.917264
_symmetry_space_group_name_H-M "P -1"
_symmetry_group_IT_number 2
_symmetry_cell_setting 'triclinic'
loop_
_space_group_symop_operation_xyz
x,y,z
-x,-y,-z
loop_
_atom_site_type_symbol
_atom_site_label
_atom_site_fract_x
_atom_site_fract_y
_atom_site_fract_z
Si Si1 0.516854 0.344214 0.133787
Si Si2 0.468265 0.365842 0.896818
Si Si3 0.576174 0.828355 0.739101
Si Si4 0.532900 0.163425 0.417455
Si Si5 0.716909 0.377540 0.392744
Si Si6 0.892288 0.817938 0.019832
Si Si7 0.088843 0.303913 0.758480
Si Si8 0.253730 0.573484 0.308045
O O1 0.265004 0.494329 0.394671
O O2 0.503293 0.446481 0.184745
O O3 0.384166 0.219711 0.976386
O O4 0.829208 0.263791 0.050003
O O5 0.363518 0.249179 0.721969
O O6 0.810433 0.276829 0.783124
O O7 0.500000 0.500000 0.000000
O O8 0.231709 0.465071 0.109612
O O9 0.466479 0.868728 0.711960
O O10 0.419096 0.730816 0.681095
O O11 0.934048 0.696256 0.531364
O O12 0.500000 0.000000 0.000000
O O13 0.212330 0.217360 0.558870
O O14 0.609163 0.313000 0.601410
O O15 0.779507 0.009315 0.250120
O O16 0.500000 0.500000 0.500000
O O17 0.006323 0.256685 0.166954
O O18 0.000000 0.500000 0.000000
#
# Coordination Sequence:
#
# PCOD9100801 Si02
#       8
#     2   2   2   2   2   2   2   2
#     4  11  25  46  67  95 135 186 241 273 334 412
#     4  10  20  37  66 102 129 161 226 284 336 393
#     4  12  27  41  65 106 147 176 228 293 346 396
#     4  12  26  41  71 102 141 177 229 290 355 395
#     4  10  22  43  64  88 129 189 233 269 322 407
#     4  11  27  44  66  96 137 189 226 286 341 406
#     4  10  20  39  64 103 129 171 219 285 338 412
#     4  12  24  41  74 100 134 182 233 289 336 409
#
# _framework density 22.762280000000001
#
# number of rings (size 3 to 8) (size 9 to 14) (size 15 to 20)
#    0.000    1.000    3.750    4.125    7.000    1.000 
#    0.000    0.000    0.000    4.500    0.000    0.000 
#    0.000    0.000    0.000    0.000    0.000    0.000 
#
# Total GULP energy -89343.435428 kJ/mol
# GULP energy per Si atom -5583.964714 kJ/mol
# Density = 2.271047 g / cm^3
# Si number density = 22.762280 Si / 1000 Ang^3
#
#
#
# Elastic Constant Matrix: (Units=GPa)
#
#
# Indices 1 2 3 4 5 6 
#
# 1 104.8477 6.6840 21.0207 26.4845 28.8425 6.6381
# 2 6.6840 31.9854 78.5794 42.7379 35.3285 8.7314
# 3 21.0207 78.5794 62.7122 -7.4227 0.5247 -9.4559
# 4 26.4845 42.7379 -7.4227 24.8653 -22.4226 -12.4749
# 5 28.8425 35.3285 0.5247 -22.4226 3.6520 -13.0667
# 6 6.6381 8.7314 -9.4559 -12.4749 -13.0667 30.8972
#
#
#
# Elastic Compliance Matrix: (Units=1/GPa)
#
#
# Indices 1 2 3 4 5 6 
#
# 1 0.011652 -0.010326 0.008661 -0.001664 -0.009685 -0.001702
# 2 -0.010326 0.016745 -0.014780 0.011525 0.031344 0.010872
# 3 0.008661 -0.014780 0.029081 -0.012134 -0.036055 -0.008931
# 4 -0.001664 0.011525 -0.012134 0.016006 -0.002224 -0.001091
# 5 -0.009685 0.031344 -0.036055 -0.002224 0.055195 0.004633
# 6 -0.001702 0.010872 -0.008931 -0.001091 0.004633 0.028445
#
#
# Mechanical properties :
#
#
# Convention : Reuss Voigt Hill
#
# Bulk Modulus (GPa) = 40.67103 45.79037 43.23070
# Shear Modulus (GPa) = 25.22561 18.10031 21.66296
#
# Velocity S-wave (km/s) = 3.33260 2.82297 3.08832
# Velocity P-wave (km/s) = 5.71969 5.54851 5.63475
#
# Compressibility (1/GPa) = 0.02458753
#
# Stress axis : x y z
#
# Youngs Moduli (GPa) = 85.82273 59.71790 34.38648
#
# Poissons Ratio (x) = 0.61666 -0.29781
# Poissons Ratio (y) = 0.88622 0.50823
# Poissons Ratio (z) = -0.74328 0.88262
#
# Static dielectric constant tensor:
#      x y z
#    x 1.871290 0.002130 -0.041630 
#    y 0.002130 1.878940 -0.033370 
#    z -0.041630 -0.033370 1.862820 
# 
# From -- ./inp_files/551262.got.cif
#   From: 2010.05.17/outbox.cif.g08.bks.cpg/sg2_276_cif.got.tgz:551262.got - 2010.06.03 11:33:40.
