data_PCOD9100249
_publ_section_title
;
Structure prediction by ZEFSAII (Michael W. Deem and Ramdas Pophale) SiO2 
 PCOD9100249
Probable space group: P -1
;
_chemical_formula_sum "Si O2"
_cell_formula_units_Z 14
_cell_length_a 14.376538
_cell_length_b 14.642555
_cell_length_c 8.357790
_cell_angle_alpha 125.741340
_cell_angle_beta 103.663533
_cell_angle_gamma 30.729959
_cell_volume 560.040521
_symmetry_space_group_name_H-M "P -1"
_symmetry_group_IT_number 2
_symmetry_cell_setting 'triclinic'
loop_
_space_group_symop_operation_xyz
x,y,z
-x,-y,-z
loop_
_atom_site_type_symbol
_atom_site_label
_atom_site_fract_x
_atom_site_fract_y
_atom_site_fract_z
Si Si1 0.388390 0.510061 0.541551
Si Si2 0.651643 0.050914 0.954226
Si Si3 0.559065 0.585318 0.165195
Si Si4 0.651313 0.934372 0.412065
Si Si5 0.095912 0.064796 0.314674
Si Si6 0.903439 0.654073 0.906086
Si Si7 0.168951 0.573228 0.105832
O O1 0.500000 0.500000 0.500000
O O2 0.410414 0.484495 0.713816
O O3 0.111222 0.794986 0.680204
O O4 0.535021 0.250215 0.253796
O O5 0.786267 0.804595 0.843235
O O6 0.833972 0.928967 0.798055
O O7 0.425398 0.265880 0.971989
O O8 0.466009 0.817098 0.379940
O O9 0.785050 0.364038 0.916936
O O10 0.350150 0.747060 0.150817
O O11 0.903702 0.651874 0.317555
O O12 0.500000 0.000000 0.500000
O O13 0.709742 0.842386 0.157605
O O14 0.991148 0.229779 0.604288
O O15 0.044007 0.614227 0.986556
#
# Coordination Sequence:
#
# PCOD9100249 Si02
#       7
#     2   2   2   2   2   2   2
#     4  11  24  42  67  93 118 158 207 253 310 367
#     4  10  22  40  64  90 122 159 203 253 302 363
#     4  11  21  42  63  87 129 160 200 259 299 357
#     4  11  22  35  64  94 119 167 209 241 303 360
#     4  10  22  40  64  90 124 161 201 250 312 361
#     4  11  21  39  61  87 124 165 205 250 298 352
#     4  10  20  37  63  90 120 165 202 246 306 360
#
# _framework density 24.998193000000001
#
# number of rings (size 3 to 8) (size 9 to 14) (size 15 to 20)
#    0.000    1.429    4.286    0.857    0.000    1.143 
#    0.000   13.571    0.000    0.000    0.000    0.000 
#    0.000    0.000    0.000    0.000    0.000    0.000 
#
# Total GULP energy -78394.835900 kJ/mol
# GULP energy per Si atom -5599.631136 kJ/mol
# Density = 2.494130 g / cm^3
# Si number density = 24.998193 Si / 1000 Ang^3
#
#
#
# Elastic Constant Matrix: (Units=GPa)
#
#
# Indices 1 2 3 4 5 6 
#
# 1 97.6818 68.1642 49.6317 -9.0931 -42.8000 -5.0663
# 2 68.1642 127.3224 34.8012 -31.9376 -25.6824 24.7219
# 3 49.6317 34.8012 116.4930 -13.4580 -31.9386 0.9258
# 4 -9.0931 -31.9376 -13.4580 35.0810 7.0635 -1.2472
# 5 -42.8000 -25.6824 -31.9386 7.0635 59.1215 -4.1169
# 6 -5.0663 24.7219 0.9258 -1.2472 -4.1169 41.2900
#
#
#
# Elastic Compliance Matrix: (Units=1/GPa)
#
#
# Indices 1 2 3 4 5 6 
#
# 1 0.033817 -0.020480 -0.005904 -0.014612 0.015369 0.017635
# 2 -0.020480 0.025261 0.001760 0.019024 -0.006410 -0.017742
# 3 -0.005904 0.001760 0.011653 0.004042 0.002185 -0.001700
# 4 -0.014612 0.019024 0.004042 0.044413 -0.006311 -0.012562
# 5 0.015369 -0.006410 0.002185 -0.006311 0.027765 0.008252
# 6 0.017635 -0.017742 -0.001700 -0.012562 0.008252 0.037487
#
#
# Mechanical properties :
#
#
# Convention : Reuss Voigt Hill
#
# Bulk Modulus (GPa) = 46.54643 71.85459 59.20051
# Shear Modulus (GPa) = 21.11453 39.69183 30.40318
#
# Velocity S-wave (km/s) = 2.90943 3.98903 3.49121
# Velocity P-wave (km/s) = 5.47236 7.07268 6.32335
#
# Compressibility (1/GPa) = 0.02148392
#
# Stress axis : x y z
#
# Youngs Moduli (GPa) = 29.57111 39.58642 85.81371
#
# Poissons Ratio (x) = 0.81073 0.50664
# Poissons Ratio (y) = 0.60561 -0.15106
# Poissons Ratio (z) = 0.17459 -0.06968
#
# Static dielectric constant tensor:
#      x y z
#    x 2.083170 0.017780 0.049610 
#    y 0.017780 1.957600 0.055140 
#    z 0.049610 0.055140 2.051260 
# 
# From -- ./inp_files/313499.got.cif
#   From: 2010.05.17/outbox.cif.g08.bks.cpg/sg2_157_cif.got.tgz:313499.got - 2010.06.03 11:33:40.
