data_PCOD9100252
_publ_section_title
;
Structure prediction by ZEFSAII (Michael W. Deem and Ramdas Pophale) SiO2 
 PCOD9100252
Probable space group: P -1
;
_chemical_formula_sum "Si O2"
_cell_formula_units_Z 15
_cell_length_a 11.304925
_cell_length_b 7.916187
_cell_length_c 11.848415
_cell_angle_alpha 85.889144
_cell_angle_beta 83.224578
_cell_angle_gamma 34.822210
_cell_volume 600.665303
_symmetry_space_group_name_H-M "P -1"
_symmetry_group_IT_number 2
_symmetry_cell_setting 'triclinic'
loop_
_space_group_symop_operation_xyz
x,y,z
-x,-y,-z
loop_
_atom_site_type_symbol
_atom_site_label
_atom_site_fract_x
_atom_site_fract_y
_atom_site_fract_z
Si Si1 0.724559 0.237206 0.928162
Si Si2 0.775790 0.823100 0.295343
Si Si3 0.127379 0.609943 0.964225
Si Si4 0.000000 0.500000 0.500000
Si Si5 0.216199 0.292995 0.168281
Si Si6 0.590652 0.693079 0.270178
Si Si7 0.184268 0.654015 0.523622
Si Si8 0.616739 0.567549 0.728359
O O1 0.699670 0.306678 0.795584
O O2 0.500000 0.500000 0.000000
O O3 0.831976 0.279748 0.963614
O O4 0.880552 0.901678 0.952852
O O5 0.620860 0.844726 0.313151
O O6 0.861555 0.766227 0.410681
O O7 0.975121 0.545432 0.211275
O O8 0.632399 0.134151 0.242148
O O9 0.250908 0.505494 0.841711
O O10 0.225304 0.337476 0.034076
O O11 0.082613 0.584280 0.543731
O O12 0.277034 0.392993 0.226692
O O13 0.365081 0.977283 0.221903
O O14 0.674479 0.479407 0.373429
O O15 0.332612 0.484788 0.405979
O O16 0.000000 0.000000 0.500000
#
# Coordination Sequence:
#
# PCOD9100252 Si02
#       8
#     2   2   2   1   2   2   2   2
#     4  10  21  38  62  86 123 173 213 267 340 387
#     4  10  21  36  63  92 118 171 217 262 331 390
#     4  10  21  38  58  88 126 164 213 274 327 390
#     4  10  22  40  68  90 132 178 216 264 336 388
#     4  10  20  37  63  90 121 170 216 266 334 394
#     4  10  23  37  59  93 127 166 210 271 335 384
#     4  11  23  43  67  96 138 173 221 278 328 397
#     4  10  21  38  63  92 125 169 219 270 325 395
#
# _framework density 24.97231
#
# number of rings (size 3 to 8) (size 9 to 14) (size 15 to 20)
#    0.000    1.867    1.333    2.000    1.867    3.200 
#    2.400    0.667    0.000    0.000    0.000    0.000 
#    0.000    0.000    0.000    0.000    0.000    0.000 
#
# Total GULP energy -83537.417040 kJ/mol
# GULP energy per Si atom -5569.161136 kJ/mol
# Density = 2.491547 g / cm^3
# Si number density = 24.972310 Si / 1000 Ang^3
#
#
#
# Elastic Constant Matrix: (Units=GPa)
#
#
# Indices 1 2 3 4 5 6 
#
# 1 51.5640 26.6533 0.1303 -17.8160 -5.7908 20.4624
# 2 26.6533 164.6325 58.8695 -23.1262 -6.4026 -6.9222
# 3 0.1303 58.8695 145.0604 -33.2668 2.5401 4.0673
# 4 -17.8160 -23.1262 -33.2668 42.0712 -3.8983 -3.6779
# 5 -5.7908 -6.4026 2.5401 -3.8983 18.7892 -0.6146
# 6 20.4624 -6.9222 4.0673 -3.6779 -0.6146 29.0234
#
#
#
# Elastic Compliance Matrix: (Units=1/GPa)
#
#
# Indices 1 2 3 4 5 6 
#
# 1 0.044336 -0.008327 0.008424 0.019258 0.012646 -0.031717
# 2 -0.008327 0.009202 -0.004201 -0.000928 0.001225 0.008562
# 3 0.008424 -0.004201 0.010924 0.009391 0.001399 -0.007252
# 4 0.019258 -0.000928 0.009391 0.039099 0.012138 -0.009903
# 5 0.012646 0.001225 0.001399 0.012138 0.059669 -0.006018
# 6 -0.031717 0.008562 -0.007252 -0.009903 -0.006018 0.058492
#
#
# Mechanical properties :
#
#
# Convention : Reuss Voigt Hill
#
# Bulk Modulus (GPa) = 17.77665 59.17365 38.47515
# Shear Modulus (GPa) = 20.10606 36.35037 28.22822
#
# Velocity S-wave (km/s) = 2.84057 3.81941 3.36576
# Velocity P-wave (km/s) = 4.22994 6.57249 5.52676
#
# Compressibility (1/GPa) = 0.05625356
#
# Stress axis : x y z
#
# Youngs Moduli (GPa) = 22.55484 108.67539 91.54544
#
# Poissons Ratio (x) = 0.90489 -0.77114
# Poissons Ratio (y) = 0.18780 0.38460
# Poissons Ratio (z) = -0.18999 0.45656
#
# Static dielectric constant tensor:
#      x y z
#    x 2.011110 -0.012040 -0.006880 
#    y -0.012040 2.041650 -0.036940 
#    z -0.006880 -0.036940 1.999760 
# 
# From -- ./inp_files/419363.got.cif
#   From: 2010.05.17/outbox.cif.g08.bks.cpg/sg2_210_cif.got.tgz:419363.got - 2010.06.03 11:33:40.
