data_PCOD9100387
_publ_section_title
;
Structure prediction by ZEFSAII (Michael W. Deem and Ramdas Pophale) SiO2 
 PCOD9100387
Probable space group: P -1
;
_chemical_formula_sum "Si O2"
_cell_formula_units_Z 16
_cell_length_a 8.234199
_cell_length_b 9.604248
_cell_length_c 13.635079
_cell_angle_alpha 121.938816
_cell_angle_beta 54.328595
_cell_angle_gamma 121.135384
_cell_volume 708.536889
_symmetry_space_group_name_H-M "P -1"
_symmetry_group_IT_number 2
_symmetry_cell_setting 'triclinic'
loop_
_space_group_symop_operation_xyz
x,y,z
-x,-y,-z
loop_
_atom_site_type_symbol
_atom_site_label
_atom_site_fract_x
_atom_site_fract_y
_atom_site_fract_z
Si Si1 0.400729 0.680258 0.164955
Si Si2 0.676236 0.665536 0.456622
Si Si3 0.850024 0.812898 0.265521
Si Si4 0.959229 0.519300 0.183096
Si Si5 0.964174 0.975124 0.887496
Si Si6 0.275553 0.004155 0.304666
Si Si7 0.620683 0.661718 0.888830
Si Si8 0.652685 0.179518 0.093241
O O1 0.335214 0.847500 0.279079
O O2 0.424022 0.542040 0.183938
O O3 0.202866 0.562712 0.127531
O O4 0.585360 0.711861 0.032425
O O5 0.500000 0.500000 0.500000
O O6 0.656419 0.744151 0.383791
O O7 0.870551 0.593417 0.337442
O O8 0.723201 0.829279 0.571292
O O9 0.912297 0.638517 0.157137
O O10 0.050666 0.928308 0.301835
O O11 0.844035 0.921068 0.210744
O O12 0.825876 0.324985 0.145285
O O13 0.858346 0.775526 0.823142
O O14 0.779777 0.060230 0.959509
O O15 0.000000 0.000000 0.000000
O O16 0.468179 0.070676 0.186745
O O17 0.456409 0.724358 0.907284
#
# Coordination Sequence:
#
# PCOD9100387 Si02
#       8
#     2   2   2   2   2   2   2   2
#     4  10  22  38  59  91 129 168 208 259 318 385
#     4  10  20  37  63  98 124 166 213 271 311 373
#     4   9  21  36  60  94 124 160 214 255 309 387
#     4   9  21  37  59  96 125 159 211 261 317 370
#     4  12  24  38  62  95 133 167 208 264 323 376
#     4  11  18  38  66  93 120 168 217 255 319 376
#     4  11  23  39  59  92 133 165 210 258 320 385
#     4  12  21  37  67  90 127 166 211 260 319 388
#
# _framework density 22.581744
#
# number of rings (size 3 to 8) (size 9 to 14) (size 15 to 20)
#    0.750    0.750    3.750    3.000    0.000    4.000 
#    0.000    0.000    0.000    7.500    0.000    0.000 
#    0.000    0.000    0.000    0.000    0.000    0.000 
#
# Total GULP energy -89251.106373 kJ/mol
# GULP energy per Si atom -5578.194148 kJ/mol
# Density = 2.253035 g / cm^3
# Si number density = 22.581744 Si / 1000 Ang^3
#
#
#
# Elastic Constant Matrix: (Units=GPa)
#
#
# Indices 1 2 3 4 5 6 
#
# 1 53.2809 34.2075 5.4096 1.4057 7.7834 -4.3902
# 2 34.2075 161.5925 47.5107 -6.0729 4.4261 1.0580
# 3 5.4096 47.5107 73.9652 4.6419 5.0777 1.6952
# 4 1.4057 -6.0729 4.6419 56.6890 2.0582 -1.9639
# 5 7.7834 4.4261 5.0777 2.0582 16.3940 -0.9283
# 6 -4.3902 1.0580 1.6952 -1.9639 -0.9283 38.5478
#
#
#
# Elastic Compliance Matrix: (Units=1/GPa)
#
#
# Indices 1 2 3 4 5 6 
#
# 1 0.023815 -0.005556 0.002539 -0.000933 -0.010337 0.002457
# 2 -0.005556 0.009019 -0.005586 0.001481 0.001718 -0.000518
# 3 0.002539 -0.005586 0.017390 -0.001927 -0.004872 -0.000538
# 4 -0.000933 0.001481 -0.001927 0.018066 -0.001582 0.000820
# 5 -0.010337 0.001718 -0.004872 -0.001582 0.067179 0.000527
# 6 0.002457 -0.000518 -0.000538 0.000820 0.000527 0.026314
#
#
# Mechanical properties :
#
#
# Convention : Reuss Voigt Hill
#
# Bulk Modulus (GPa) = 30.28662 51.45490 40.87076
# Shear Modulus (GPa) = 26.31670 35.77355 31.04513
#
# Velocity S-wave (km/s) = 3.41749 3.98449 3.71184
# Velocity P-wave (km/s) = 5.38642 6.63353 6.04224
#
# Compressibility (1/GPa) = 0.03301788
#
# Stress axis : x y z
#
# Youngs Moduli (GPa) = 41.99087 110.87916 57.50472
#
# Poissons Ratio (x) = 0.61603 -0.14600
# Poissons Ratio (y) = 0.23329 0.32121
# Poissons Ratio (z) = -0.10661 0.61935
#
# Static dielectric constant tensor:
#      x y z
#    x 1.895240 -0.021540 0.027980 
#    y -0.021540 1.974370 -0.044040 
#    z 0.027980 -0.044040 1.833270 
# 
# From -- ./inp_files/493610.got.cif
#   From: 2010.05.17/outbox.cif.g08.bks.cpg/sg2_247_cif.got.tgz:493610.got - 2010.06.03 11:33:40.
