data_PCOD9100808
_publ_section_title
;
Structure prediction by ZEFSAII (Michael W. Deem and Ramdas Pophale) SiO2 
 PCOD9100808
Probable space group: P -1
;
_chemical_formula_sum "Si O2"
_cell_formula_units_Z 16
_cell_length_a 8.686057
_cell_length_b 15.886845
_cell_length_c 21.100030
_cell_angle_alpha 16.307015
_cell_angle_beta 115.445220
_cell_angle_gamma 119.154717
_cell_volume 705.385126
_symmetry_space_group_name_H-M "P -1"
_symmetry_group_IT_number 2
_symmetry_cell_setting 'triclinic'
loop_
_space_group_symop_operation_xyz
x,y,z
-x,-y,-z
loop_
_atom_site_type_symbol
_atom_site_label
_atom_site_fract_x
_atom_site_fract_y
_atom_site_fract_z
Si Si1 0.924835 0.114202 0.491989
Si Si2 0.519507 0.659873 0.317500
Si Si3 0.888853 0.477900 0.347338
Si Si4 0.671563 0.317030 0.209636
Si Si5 0.794388 0.394630 0.524680
Si Si6 0.331815 0.481224 0.072405
Si Si7 0.326824 0.128529 0.568911
Si Si8 0.732972 0.040650 0.891432
O O1 0.898803 0.258824 0.450263
O O2 0.840534 0.294101 0.295699
O O3 0.803517 0.755383 0.734633
O O4 0.130770 0.133673 0.509450
O O5 0.500000 0.500000 0.500000
O O6 0.721011 0.692116 0.309464
O O7 0.434333 0.940171 0.110049
O O8 0.416011 0.428681 0.410593
O O9 0.786336 0.300845 0.518470
O O10 0.092035 0.682742 0.253563
O O11 0.784971 0.725557 0.132108
O O12 0.521933 0.409105 0.157591
O O13 0.593330 0.979050 0.403703
O O14 0.722421 0.549918 0.989898
O O15 0.703369 0.124358 0.753135
O O16 0.000000 0.500000 0.500000
O O17 0.326305 0.834633 0.826896
#
# Coordination Sequence:
#
# PCOD9100808 Si02
#       8
#     2   2   2   2   2   2   2   2
#     4  12  21  37  65  91 120 159 203 247 300 356
#     4  10  20  37  66  84 119 163 193 247 302 353
#     4  10  21  33  60  85 116 154 197 239 293 354
#     4   9  22  40  60  86 125 157 200 247 303 356
#     4   9  20  37  60  83 116 151 202 240 292 349
#     4   9  22  40  62  86 124 155 205 246 297 358
#     4  10  21  40  61  89 124 157 198 252 302 354
#     4   9  19  40  54  83 121 154 192 244 292 349
#
# _framework density 22.682642999999999
#
# number of rings (size 3 to 8) (size 9 to 14) (size 15 to 20)
#    0.750    1.500    1.250    1.125    1.750    3.500 
#    0.000    0.000    5.500    0.000    0.000    0.000 
#    0.000    0.000    0.000    0.000    0.000    0.000 
#
# Total GULP energy -89241.878092 kJ/mol
# GULP energy per Si atom -5577.617381 kJ/mol
# Density = 2.263102 g / cm^3
# Si number density = 22.682643 Si / 1000 Ang^3
#
#
#
# Elastic Constant Matrix: (Units=GPa)
#
#
# Indices 1 2 3 4 5 6 
#
# 1 102.7024 25.8249 29.0050 11.9694 38.1989 14.0672
# 2 25.8249 66.3006 28.1706 13.2572 8.7932 -1.2363
# 3 29.0050 28.1706 64.7513 13.0709 18.8443 8.9370
# 4 11.9694 13.2572 13.0709 25.2008 3.1610 12.8238
# 5 38.1989 8.7932 18.8443 3.1610 28.1855 5.6911
# 6 14.0672 -1.2363 8.9370 12.8238 5.6911 38.9934
#
#
#
# Elastic Compliance Matrix: (Units=1/GPa)
#
#
# Indices 1 2 3 4 5 6 
#
# 1 0.021759 -0.004804 0.001662 -0.003564 -0.028073 -0.003114
# 2 -0.004804 0.021483 -0.007623 -0.008911 0.004608 0.006419
# 3 0.001662 -0.007623 0.023838 -0.006226 -0.014688 -0.002114
# 4 -0.003564 -0.008911 -0.006226 0.057163 0.008930 -0.017673
# 5 -0.028073 0.004608 -0.014688 0.008930 0.081137 -0.001139
# 6 -0.003114 0.006419 -0.002114 -0.017673 -0.001139 0.033435
#
#
# Mechanical properties :
#
#
# Convention : Reuss Voigt Hill
#
# Bulk Modulus (GPa) = 21.95300 44.41725 33.18513
# Shear Modulus (GPa) = 18.14703 28.52621 23.33662
#
# Velocity S-wave (km/s) = 2.83157 3.55014 3.21102
# Velocity P-wave (km/s) = 4.51550 6.03567 5.33005
#
# Compressibility (1/GPa) = 0.04555185
#
# Stress axis : x y z
#
# Youngs Moduli (GPa) = 45.95890 46.54820 41.94909
#
# Poissons Ratio (x) = 0.22361 -0.06974
# Poissons Ratio (y) = 0.22077 0.31977
# Poissons Ratio (z) = -0.07640 0.35483
#
# Static dielectric constant tensor:
#      x y z
#    x 1.873140 0.013710 -0.033330 
#    y 0.013710 1.869070 0.015290 
#    z -0.033330 0.015290 1.890300 
# 
# From -- ./inp_files/590200.got.cif
#   From: 2010.05.17/outbox.cif.g08.bks.cpg/sg2_296_cif.got.tgz:590200.got - 2010.06.03 11:33:40.
