data_PCOD9100506
_publ_section_title
;
Structure prediction by ZEFSAII (Michael W. Deem and Ramdas Pophale) SiO2 
 PCOD9100506
Probable space group: P -1
;
_chemical_formula_sum "Si O2"
_cell_formula_units_Z 16
_cell_length_a 19.929805
_cell_length_b 16.898125
_cell_length_c 12.220955
_cell_angle_alpha 35.806398
_cell_angle_beta 19.411947
_cell_angle_gamma 32.693998
_cell_volume 735.443808
_symmetry_space_group_name_H-M "P -1"
_symmetry_group_IT_number 2
_symmetry_cell_setting 'triclinic'
loop_
_space_group_symop_operation_xyz
x,y,z
-x,-y,-z
loop_
_atom_site_type_symbol
_atom_site_label
_atom_site_fract_x
_atom_site_fract_y
_atom_site_fract_z
Si Si1 0.759523 0.787617 0.404103
Si Si2 0.768439 0.199860 0.558010
Si Si3 0.628703 0.102032 0.282447
Si Si4 0.251497 0.101535 0.031602
Si Si5 0.596072 0.397885 0.072945
Si Si6 0.768219 0.605510 0.188868
Si Si7 0.182906 0.570961 0.907094
Si Si8 0.332607 0.407173 0.087654
O O1 0.516504 0.838656 0.669854
O O2 0.922290 0.664958 0.211570
O O3 0.801407 0.936604 0.181718
O O4 0.771429 0.708512 0.589677
O O5 0.593669 0.309161 0.789324
O O6 0.017222 0.155253 0.268070
O O7 0.720142 0.054113 0.786304
O O8 0.733091 0.299612 0.392644
O O9 0.710654 0.227410 0.052023
O O10 0.451386 0.086510 0.658922
O O11 0.239800 0.230096 0.988093
O O12 0.410264 0.396968 0.445477
O O13 0.725440 0.473613 0.860073
O O14 0.500000 0.500000 0.000000
O O15 0.750076 0.538860 0.174622
O O16 0.000000 0.500000 0.000000
O O17 0.260461 0.488064 0.993745
#
# Coordination Sequence:
#
# PCOD9100506 Si02
#       8
#     2   2   2   2   2   2   2   2
#     4  11  22  40  61  88 121 166 202 247 304 361
#     4  11  21  38  62  92 120 156 203 250 306 352
#     4  10  20  38  64  89 122 153 205 254 304 350
#     4  10  20  37  64  92 119 151 203 260 301 354
#     4  11  22  38  62  93 119 155 206 256 298 351
#     4  11  21  40  61  90 123 157 201 253 303 355
#     4  12  24  41  61  90 127 165 200 245 304 369
#     4  12  24  40  61  91 126 163 204 244 303 371
#
# _framework density 21.755569999999999
#
# number of rings (size 3 to 8) (size 9 to 14) (size 15 to 20)
#    0.000    1.000    6.250    1.500    0.000    0.000 
#    2.250    2.500    0.000    0.000    0.000    0.000 
#    0.000    0.000    0.000    0.000    0.000    0.000 
#
# Total GULP energy -89366.870240 kJ/mol
# GULP energy per Si atom -5585.429390 kJ/mol
# Density = 2.170605 g / cm^3
# Si number density = 21.755570 Si / 1000 Ang^3
#
#
#
# Elastic Constant Matrix: (Units=GPa)
#
#
# Indices 1 2 3 4 5 6 
#
# 1 103.7378 63.6764 22.3509 -30.0107 27.1916 5.2845
# 2 63.6764 141.4110 42.6000 -46.0720 6.2088 25.5920
# 3 22.3509 42.6000 63.3189 -30.4904 16.4321 -1.0848
# 4 -30.0107 -46.0720 -30.4904 50.2049 -8.3282 1.2691
# 5 27.1916 6.2088 16.4321 -8.3282 30.0066 -5.9873
# 6 5.2845 25.5920 -1.0848 1.2691 -5.9873 33.0766
#
#
#
# Elastic Compliance Matrix: (Units=1/GPa)
#
#
# Indices 1 2 3 4 5 6 
#
# 1 0.019343 -0.008087 0.005307 0.004458 -0.017525 -0.000003
# 2 -0.008087 0.017170 -0.006870 0.008296 0.007613 -0.011159
# 3 0.005307 -0.006870 0.027926 0.011265 -0.015112 0.002215
# 4 0.004458 0.008296 0.011265 0.036680 -0.003502 -0.008803
# 5 -0.017525 0.007613 -0.015112 -0.003502 0.056279 0.006736
# 6 -0.000003 -0.011159 0.002215 -0.008803 0.006736 0.040497
#
#
# Mechanical properties :
#
#
# Convention : Reuss Voigt Hill
#
# Bulk Modulus (GPa) = 22.15243 62.85805 42.50524
# Shear Modulus (GPa) = 21.52938 34.64697 28.08818
#
# Velocity S-wave (km/s) = 3.14921 3.99501 3.59706
# Velocity P-wave (km/s) = 4.84024 7.08772 6.06892
#
# Compressibility (1/GPa) = 0.04514177
#
# Stress axis : x y z
#
# Youngs Moduli (GPa) = 51.69713 58.23958 35.80914
#
# Poissons Ratio (x) = 0.47096 -0.19004
# Poissons Ratio (y) = 0.41805 0.24599
# Poissons Ratio (z) = -0.27437 0.40008
#
# Static dielectric constant tensor:
#      x y z
#    x 1.779550 0.018970 -0.002380 
#    y 0.018970 1.834440 0.009140 
#    z -0.002380 0.009140 1.864300 
# 
# From -- ./inp_files/312310.got.cif
#   From: 2010.05.17/outbox.cif.g08.bks.cpg/sg2_157_cif.got.tgz:312310.got - 2010.06.03 11:33:40.
