data_PCOD9100932
_publ_section_title
;
Structure prediction by ZEFSAII (Michael W. Deem and Ramdas Pophale) SiO2 
 PCOD9100932
Probable space group: P -1
;
_chemical_formula_sum "Si O2"
_cell_formula_units_Z 14
_cell_length_a 10.388584
_cell_length_b 19.497889
_cell_length_c 7.322556
_cell_angle_alpha 96.599061
_cell_angle_beta 72.257178
_cell_angle_gamma 151.598892
_cell_volume 632.366540
_symmetry_space_group_name_H-M "P -1"
_symmetry_group_IT_number 2
_symmetry_cell_setting 'triclinic'
loop_
_space_group_symop_operation_xyz
x,y,z
-x,-y,-z
loop_
_atom_site_type_symbol
_atom_site_label
_atom_site_fract_x
_atom_site_fract_y
_atom_site_fract_z
Si Si1 0.430134 0.688503 0.028739
Si Si2 0.478623 0.569974 0.581057
Si Si3 0.734124 0.388309 0.346915
Si Si4 0.422155 0.143206 0.693555
Si Si5 0.244311 0.809871 0.625553
Si Si6 0.658486 0.499859 0.972726
Si Si7 0.886890 0.103215 0.452162
O O1 0.604560 0.828730 0.098651
O O2 0.086584 0.538388 0.206583
O O3 0.411543 0.685331 0.816015
O O4 0.521456 0.652372 0.037915
O O5 0.500000 0.500000 0.500000
O O6 0.314772 0.555907 0.539145
O O7 0.305577 0.489188 0.823088
O O8 0.817407 0.752320 0.515686
O O9 0.570033 0.262061 0.517510
O O10 0.649754 0.181000 0.602432
O O11 0.125328 0.971989 0.686069
O O12 0.137318 0.838387 0.641220
O O13 0.558807 0.952479 0.644004
O O14 0.978486 0.648494 0.785114
O O15 0.500000 0.500000 0.000000
#
# Coordination Sequence:
#
# PCOD9100932 Si02
#       7
#     2   2   2   2   2   2   2
#     4  10  21  37  58  95 116 162 201 250 301 356
#     4  11  25  38  59  91 122 157 195 260 307 354
#     4  10  22  36  58  90 129 147 208 251 291 366
#     4  10  20  37  67  80 119 168 197 238 309 363
#     4   9  19  37  65  85 115 161 198 253 291 363
#     4  11  21  37  62  88 120 147 208 253 290 356
#     4   9  20  39  59  89 121 157 205 239 307 366
#
# _framework density 22.139057999999999
#
# number of rings (size 3 to 8) (size 9 to 14) (size 15 to 20)
#    0.857    1.143    2.857    0.429    4.000    0.571 
#    0.000    5.000    0.000    0.000    0.000    0.000 
#    0.000    0.000    0.000    0.000    0.000    0.000 
#
# Total GULP energy -78027.735837 kJ/mol
# GULP energy per Si atom -5573.409703 kJ/mol
# Density = 2.208867 g / cm^3
# Si number density = 22.139058 Si / 1000 Ang^3
#
#
#
# Elastic Constant Matrix: (Units=GPa)
#
#
# Indices 1 2 3 4 5 6 
#
# 1 81.5450 16.7412 5.8693 14.1168 -15.5138 -21.2571
# 2 16.7412 97.9970 16.6235 13.1799 -9.5296 -10.2448
# 3 5.8693 16.6235 58.8802 11.8641 -6.5753 -6.5079
# 4 14.1168 13.1799 11.8641 37.8077 -6.6664 -15.3346
# 5 -15.5138 -9.5296 -6.5753 -6.6664 31.6365 2.4344
# 6 -21.2571 -10.2448 -6.5079 -15.3346 2.4344 36.6000
#
#
#
# Elastic Compliance Matrix: (Units=1/GPa)
#
#
# Indices 1 2 3 4 5 6 
#
# 1 0.016093 -0.001174 0.000646 -0.001309 0.006770 0.008134
# 2 -0.001174 0.011372 -0.002359 -0.002006 0.001851 0.001118
# 3 0.000646 -0.002359 0.018883 -0.004486 0.002507 0.001026
# 4 -0.001309 -0.002006 -0.004486 0.034712 0.004201 0.012145
# 5 0.006770 0.001851 0.002507 0.004201 0.036568 0.004224
# 6 0.008134 0.001118 0.001026 0.012145 0.004224 0.037349
#
#
# Mechanical properties :
#
#
# Convention : Reuss Voigt Hill
#
# Bulk Modulus (GPa) = 24.64674 35.21002 29.92838
# Shear Modulus (GPa) = 28.69036 34.48805 31.58920
#
# Velocity S-wave (km/s) = 3.60379 3.95117 3.78147
# Velocity P-wave (km/s) = 5.33603 6.06252 5.71084
#
# Compressibility (1/GPa) = 0.04057332
#
# Stress axis : x y z
#
# Youngs Moduli (GPa) = 62.13970 87.93702 52.95897
#
# Poissons Ratio (x) = 0.10324 -0.03422
# Poissons Ratio (y) = 0.07295 0.12494
# Poissons Ratio (z) = -0.04016 0.20745
#
# Static dielectric constant tensor:
#      x y z
#    x 1.896850 -0.014270 -0.049660 
#    y -0.014270 1.895780 0.039270 
#    z -0.049660 0.039270 1.829810 
# 
# From -- ./inp_files/280567.got.cif
#   From: 2010.05.17/outbox.cif.g08.bks.cpg/sg2_141_cif.got.tgz:280567.got - 2010.06.03 11:33:40.
