data_PCOD9100956
_publ_section_title
;
Structure prediction by ZEFSAII (Michael W. Deem and Ramdas Pophale) SiO2 
 PCOD9100956
Probable space group: P -1
;
_chemical_formula_sum "Si O2"
_cell_formula_units_Z 14
_cell_length_a 10.205882
_cell_length_b 12.105090
_cell_length_c 10.625523
_cell_angle_alpha 62.493512
_cell_angle_beta 135.236998
_cell_angle_gamma 84.936158
_cell_volume 611.333091
_symmetry_space_group_name_H-M "P -1"
_symmetry_group_IT_number 2
_symmetry_cell_setting 'triclinic'
loop_
_space_group_symop_operation_xyz
x,y,z
-x,-y,-z
loop_
_atom_site_type_symbol
_atom_site_label
_atom_site_fract_x
_atom_site_fract_y
_atom_site_fract_z
Si Si1 0.135860 0.011850 0.467922
Si Si2 0.368325 0.600680 0.547387
Si Si3 0.626752 0.733565 0.049596
Si Si4 0.944264 0.622389 0.568215
Si Si5 0.459613 0.306298 0.612834
Si Si6 0.968872 0.951763 0.141930
Si Si7 0.727722 0.344595 0.102672
O O1 0.420033 0.916083 0.750993
O O2 0.000000 0.000000 0.500000
O O3 0.129681 0.940247 0.370785
O O4 0.936820 0.211787 0.213209
O O5 0.410045 0.443168 0.604230
O O6 0.468396 0.654450 0.485580
O O7 0.546696 0.529439 0.826501
O O8 0.083610 0.763225 0.299798
O O9 0.740338 0.724309 0.265098
O O10 0.867363 0.575727 0.223445
O O11 0.453941 0.687474 0.971835
O O12 0.791527 0.661077 0.569823
O O13 0.108586 0.672477 0.664968
O O14 0.686858 0.111883 0.903123
O O15 0.000000 0.000000 0.000000
#
# Coordination Sequence:
#
# PCOD9100956 Si02
#       7
#     2   2   2   2   2   2   2
#     4  10  20  39  61  90 133 164 212 269 312 385
#     4  10  20  37  69  87 125 174 205 263 322 374
#     4  10  22  40  59  89 130 164 215 263 314 385
#     4  11  22  38  61  90 126 163 215 267 310 385
#     4  10  20  40  59  96 127 160 218 261 313 381
#     4  10  20  37  67  95 122 170 216 257 320 381
#     4  11  21  39  64  89 125 171 209 260 329 371
#
# _framework density 22.900772
#
# number of rings (size 3 to 8) (size 9 to 14) (size 15 to 20)
#    0.000    1.714    2.857    2.143    0.000    2.286 
#    2.571    0.000    0.000    2.571    0.000    0.000 
#    0.000    0.000    0.000    0.000    0.000    0.000 
#
# Total GULP energy -78079.601011 kJ/mol
# GULP energy per Si atom -5577.114358 kJ/mol
# Density = 2.284865 g / cm^3
# Si number density = 22.900772 Si / 1000 Ang^3
#
#
#
# Elastic Constant Matrix: (Units=GPa)
#
#
# Indices 1 2 3 4 5 6 
#
# 1 61.9185 24.3903 35.5410 5.1828 10.8400 -4.5402
# 2 24.3903 95.4728 47.2933 -2.5798 8.6627 -8.0049
# 3 35.5410 47.2933 162.3736 -21.2082 19.9657 -2.5165
# 4 5.1828 -2.5798 -21.2082 56.3517 -8.6520 11.0896
# 5 10.8400 8.6627 19.9657 -8.6520 27.7220 -1.7486
# 6 -4.5402 -8.0049 -2.5165 11.0896 -1.7486 26.4655
#
#
#
# Elastic Compliance Matrix: (Units=1/GPa)
#
#
# Indices 1 2 3 4 5 6 
#
# 1 0.021195 -0.002823 -0.003683 -0.005235 -0.006121 0.004222
# 2 -0.002823 0.013129 -0.003202 -0.001186 -0.000834 0.003624
# 3 -0.003683 -0.003202 0.008668 0.003493 -0.002865 -0.002429
# 4 -0.005235 -0.001186 0.003493 0.022397 0.006268 -0.009895
# 5 -0.006121 -0.000834 -0.002865 0.006268 0.042659 -0.001383
# 6 0.004222 0.003624 -0.002429 -0.009895 -0.001383 0.043430
#
#
# Mechanical properties :
#
#
# Convention : Reuss Voigt Hill
#
# Bulk Modulus (GPa) = 42.41376 59.35712 50.88544
# Shear Modulus (GPa) = 27.97144 36.27718 32.12431
#
# Velocity S-wave (km/s) = 3.49867 3.98440 3.74941
# Velocity P-wave (km/s) = 5.90608 6.86606 6.40408
#
# Compressibility (1/GPa) = 0.02357725
#
# Stress axis : x y z
#
# Youngs Moduli (GPa) = 47.17986 76.16681 115.36189
#
# Poissons Ratio (x) = 0.21498 0.42488
# Poissons Ratio (y) = 0.13317 0.36943
# Poissons Ratio (z) = 0.17376 0.24391
#
# Static dielectric constant tensor:
#      x y z
#    x 1.854930 0.017700 -0.043260 
#    y 0.017700 1.967730 -0.060320 
#    z -0.043260 -0.060320 1.978550 
# 
# From -- ./inp_files/428030.got.cif
#   From: 2010.05.17/outbox.cif.g08.bks.cpg/sg2_215_cif.got.tgz:428030.got - 2010.06.03 11:33:40.
