data_PCOD9100180
_publ_section_title
;
Structure prediction by ZEFSAII (Michael W. Deem and Ramdas Pophale) SiO2 
 PCOD9100180
Probable space group: P -1
;
_chemical_formula_sum "Si O2"
_cell_formula_units_Z 15
_cell_length_a 12.639484
_cell_length_b 12.399333
_cell_length_c 14.861550
_cell_angle_alpha 41.920656
_cell_angle_beta 151.320376
_cell_angle_gamma 131.505074
_cell_volume 746.427853
_symmetry_space_group_name_H-M "P -1"
_symmetry_group_IT_number 2
_symmetry_cell_setting 'triclinic'
loop_
_space_group_symop_operation_xyz
x,y,z
-x,-y,-z
loop_
_atom_site_type_symbol
_atom_site_label
_atom_site_fract_x
_atom_site_fract_y
_atom_site_fract_z
Si Si1 0.495555 0.313103 0.634238
Si Si2 0.386323 0.823196 0.012210
Si Si3 0.088773 0.076014 0.424739
Si Si4 0.864256 0.233337 0.473638
Si Si5 0.671742 0.754784 0.108835
Si Si6 0.500000 0.500000 0.000000
Si Si7 0.183895 0.907631 0.087633
Si Si8 0.258255 0.939190 0.333340
O O1 0.500000 0.500000 0.500000
O O2 0.510181 0.289156 0.766482
O O3 0.287479 0.204542 0.510426
O O4 0.708656 0.233749 0.798664
O O5 0.452657 0.768570 0.996609
O O6 0.127396 0.837874 0.826535
O O7 0.500000 0.000000 0.000000
O O8 0.155470 0.932738 0.496120
O O9 0.000000 0.000000 0.500000
O O10 0.798878 0.197433 0.551249
O O11 0.125686 0.272650 0.653793
O O12 0.699059 0.362774 0.232208
O O13 0.648461 0.613136 0.108369
O O14 0.720035 0.923516 0.987480
O O15 0.239651 0.892072 0.244310
O O16 0.921407 0.922634 0.873868
O O17 0.500000 0.000000 0.500000
#
# Coordination Sequence:
#
# PCOD9100180 Si02
#       8
#     2   2   2   2   2   1   2   2
#     4  12  26  42  64 104 142 170 218 288 340 391
#     4  12  21  43  74  97 129 176 230 273 329 408
#     4  12  22  42  74  99 125 182 234 270 336 409
#     4  11  23  39  63  92 128 169 223 275 327 400
#     4  11  22  42  66  95 125 170 224 275 329 397
#     4  12  24  36  58  90 130 160 208 270 330 380
#     4  10  21  41  63  86 125 170 217 269 325 401
#     4  10  20  37  63  86 113 165 218 256 319 392
#
# _framework density 20.095714000000001
#
# number of rings (size 3 to 8) (size 9 to 14) (size 15 to 20)
#    0.000    0.800    4.000    4.400    0.000    1.600 
#    0.000   14.667    0.000    0.000    0.000    0.000 
#    0.000    0.000    0.000    0.000    0.000    0.000 
#
# Total GULP energy -83568.069641 kJ/mol
# GULP energy per Si atom -5571.204643 kJ/mol
# Density = 2.004997 g / cm^3
# Si number density = 20.095714 Si / 1000 Ang^3
#
#
#
# Elastic Constant Matrix: (Units=GPa)
#
#
# Indices 1 2 3 4 5 6 
#
# 1 104.8353 34.3171 41.5000 -14.2957 0.3346 -7.8434
# 2 34.3171 111.4921 59.5557 -9.9143 2.1906 -20.7611
# 3 41.5000 59.5557 114.2292 11.6200 2.5079 -3.0129
# 4 -14.2957 -9.9143 11.6200 29.9584 0.5316 1.0790
# 5 0.3346 2.1906 2.5079 0.5316 35.0383 0.7381
# 6 -7.8434 -20.7611 -3.0129 1.0790 0.7381 18.9484
#
#
#
# Elastic Compliance Matrix: (Units=1/GPa)
#
#
# Indices 1 2 3 4 5 6 
#
# 1 0.013191 0.000822 -0.005977 0.008708 0.000015 0.004914
# 2 0.000822 0.018766 -0.010591 0.010055 -0.000969 0.018682
# 3 -0.005977 -0.010591 0.017469 -0.012750 -0.000115 -0.010571
# 4 0.008708 0.010055 -0.012750 0.045459 -0.000700 0.010032
# 5 0.000015 -0.000969 -0.000115 -0.000700 0.028665 -0.002151
# 6 0.004914 0.018682 -0.010571 0.010032 -0.002151 0.073110
#
#
# Mechanical properties :
#
#
# Convention : Reuss Voigt Hill
#
# Bulk Modulus (GPa) = 55.76695 66.81134 61.28914
# Shear Modulus (GPa) = 21.35565 29.80129 25.57847
#
# Velocity S-wave (km/s) = 3.26344 3.85511 3.57155
# Velocity P-wave (km/s) = 6.48159 7.28935 6.89730
#
# Compressibility (1/GPa) = 0.01793177
#
# Stress axis : x y z
#
# Youngs Moduli (GPa) = 75.80977 53.28808 57.24551
#
# Poissons Ratio (x) = -0.04379 0.34217
# Poissons Ratio (y) = -0.06230 0.60631
# Poissons Ratio (z) = 0.45313 0.56439
#
# Static dielectric constant tensor:
#      x y z
#    x 2.246610 0.585040 0.001240 
#    y 0.585040 2.467790 0.005990 
#    z 0.001240 0.005990 1.768540 
# 
# From -- ./inp_files/518713.got.cif
#   From: 2010.05.17/outbox.cif.g08.bks.cpg/sg2_260_cif.got.tgz:518713.got - 2010.06.03 11:33:40.
