data_PCOD9100479
_publ_section_title
;
Structure prediction by ZEFSAII (Michael W. Deem and Ramdas Pophale) SiO2 
 PCOD9100479
Probable space group: P -1
;
_chemical_formula_sum "Si O2"
_cell_formula_units_Z 12
_cell_length_a 7.623305
_cell_length_b 13.530787
_cell_length_c 10.944873
_cell_angle_alpha 40.322302
_cell_angle_beta 38.680869
_cell_angle_gamma 52.567517
_cell_volume 456.346076
_symmetry_space_group_name_H-M "P -1"
_symmetry_group_IT_number 2
_symmetry_cell_setting 'triclinic'
loop_
_space_group_symop_operation_xyz
x,y,z
-x,-y,-z
loop_
_atom_site_type_symbol
_atom_site_label
_atom_site_fract_x
_atom_site_fract_y
_atom_site_fract_z
Si Si1 0.330898 0.376122 0.969410
Si Si2 0.914040 0.133008 0.516021
Si Si3 0.108027 0.944507 0.812496
Si Si4 0.259243 0.480693 0.254801
Si Si5 0.018576 0.635461 0.039208
Si Si6 0.650441 0.832459 0.357158
O O1 0.150528 0.258862 0.255182
O O2 0.199683 0.541576 0.927170
O O3 0.651445 0.389920 0.819840
O O4 0.273091 0.337202 0.897720
O O5 0.613486 0.185959 0.573468
O O6 0.000000 0.000000 0.500000
O O7 0.940562 0.063710 0.702280
O O8 0.355141 0.027306 0.673086
O O9 0.166388 0.792140 0.843657
O O10 0.897653 0.880259 0.087719
O O11 0.267666 0.319189 0.467369
O O12 0.992559 0.534248 0.269881
O O13 0.500000 0.500000 0.000000
#
# Coordination Sequence:
#
# PCOD9100479 Si02
#       6
#     2   2   2   2   2   2
#     4  10  21  40  60 100 126 159 216 273 308 372
#     4  12  24  42  71  94 127 173 219 267 318 376
#     4  11  25  43  66  96 134 171 211 261 326 389
#     4  10  21  39  65  90 128 167 208 267 316 370
#     4  10  20  37  64  90 127 164 209 258 318 374
#     4  11  26  45  62  96 137 171 210 265 322 384
#
# _framework density 26.295832999999998
#
# number of rings (size 3 to 8) (size 9 to 14) (size 15 to 20)
#    0.000    1.333    1.667    5.500    2.333    1.333 
#    0.000    3.333    0.000    0.000    0.000    0.000 
#    0.000    0.000    0.000    0.000    0.000    0.000 
#
# Total GULP energy -67100.414461 kJ/mol
# GULP energy per Si atom -5591.701205 kJ/mol
# Density = 2.623598 g / cm^3
# Si number density = 26.295833 Si / 1000 Ang^3
#
#
#
# Elastic Constant Matrix: (Units=GPa)
#
#
# Indices 1 2 3 4 5 6 
#
# 1 180.3836 27.0459 71.3695 -21.3334 29.8503 7.2664
# 2 27.0459 63.1398 40.2544 -14.9907 -7.1622 14.7261
# 3 71.3695 40.2544 183.1334 -33.5425 32.7175 0.9429
# 4 -21.3334 -14.9907 -33.5425 35.9747 4.4575 -0.7163
# 5 29.8503 -7.1622 32.7175 4.4575 52.2186 -18.6638
# 6 7.2664 14.7261 0.9429 -0.7163 -18.6638 35.7704
#
#
#
# Elastic Compliance Matrix: (Units=1/GPa)
#
#
# Indices 1 2 3 4 5 6 
#
# 1 0.007676 -0.001587 -0.000943 0.003638 -0.005671 -0.003767
# 2 -0.001587 0.022053 -0.004220 0.003696 0.003930 -0.006520
# 3 -0.000943 -0.004220 0.009399 0.007306 -0.007252 -0.001956
# 4 0.003638 0.003696 0.007306 0.039687 -0.012453 -0.008156
# 5 -0.005671 0.003930 -0.007252 -0.012453 0.034850 0.017659
# 6 -0.003767 -0.006520 -0.001956 -0.008156 0.017659 0.040508
#
#
# Mechanical properties :
#
#
# Convention : Reuss Voigt Hill
#
# Bulk Modulus (GPa) = 39.02350 78.22180 58.62265
# Shear Modulus (GPa) = 28.37423 43.99186 36.18304
#
# Velocity S-wave (km/s) = 3.28844 4.09462 3.71347
# Velocity P-wave (km/s) = 5.41210 7.22260 6.38188
#
# Compressibility (1/GPa) = 0.02562558
#
# Stress axis : x y z
#
# Youngs Moduli (GPa) = 130.28422 45.34614 106.38880
#
# Poissons Ratio (x) = 0.07198 0.10036
# Poissons Ratio (y) = 0.20679 0.44900
# Poissons Ratio (z) = 0.12290 0.19138
#
# Static dielectric constant tensor:
#      x y z
#    x 2.334720 -0.103470 -0.030570 
#    y -0.103470 2.236460 0.036500 
#    z -0.030570 0.036500 2.058400 
# 
# From -- ./inp_files/395021.got.cif
#   From: 2010.05.17/outbox.cif.g08.bks.cpg/sg2_198_cif.got.tgz:395021.got - 2010.06.03 11:33:40.
