data_PCOD9100790
_publ_section_title
;
Structure prediction by ZEFSAII (Michael W. Deem and Ramdas Pophale) SiO2 
 PCOD9100790
Probable space group: P -1
;
_chemical_formula_sum "Si O2"
_cell_formula_units_Z 16
_cell_length_a 11.975684
_cell_length_b 7.816268
_cell_length_c 13.155300
_cell_angle_alpha 32.029343
_cell_angle_beta 99.315913
_cell_angle_gamma 88.590243
_cell_volume 612.878543
_symmetry_space_group_name_H-M "P -1"
_symmetry_group_IT_number 2
_symmetry_cell_setting 'triclinic'
loop_
_space_group_symop_operation_xyz
x,y,z
-x,-y,-z
loop_
_atom_site_type_symbol
_atom_site_label
_atom_site_fract_x
_atom_site_fract_y
_atom_site_fract_z
Si Si1 0.909407 0.265918 0.980913
Si Si2 0.112653 0.521474 0.903669
Si Si3 0.507862 0.809137 0.702613
Si Si4 0.220621 0.594192 0.683214
Si Si5 0.283739 0.214996 0.585806
Si Si6 0.986080 0.505035 0.616547
Si Si7 0.701598 0.113919 0.652653
Si Si8 0.681021 0.135769 0.017311
O O1 0.770689 0.346513 0.892341
O O2 0.989891 0.500370 0.847178
O O3 0.914871 0.265599 0.105115
O O4 0.968318 0.884632 0.146734
O O5 0.184405 0.147701 0.145202
O O6 0.194439 0.636624 0.777988
O O7 0.500000 0.000000 0.500000
O O8 0.382057 0.953300 0.665180
O O9 0.602461 0.922360 0.728705
O O10 0.554787 0.411022 0.882117
O O11 0.274134 0.792764 0.507759
O O12 0.085397 0.664360 0.588214
O O13 0.297443 0.192219 0.885402
O O14 0.152387 0.348502 0.452748
O O15 0.326125 0.540674 0.460136
O O16 0.275672 0.038675 0.780581
O O17 0.000000 0.500000 0.500000
#
# Coordination Sequence:
#
# PCOD9100790 Si02
#       8
#     2   2   2   2   2   2   2   2
#     4  10  20  37  65  99 137 174 215 280 338 405
#     4  11  22  39  67 102 140 176 223 277 347 395
#     4  12  28  45  66  99 134 178 234 284 330 399
#     4  10  24  41  74 105 132 182 223 276 339 412
#     4  11  23  44  72  94 137 184 221 273 343 398
#     4  11  18  41  69 100 138 174 221 274 339 405
#     4  11  23  48  67  96 139 177 229 276 339 396
#     4  10  22  44  69  95 134 176 226 277 339 398
#
# _framework density 26.106314000000001
#
# number of rings (size 3 to 8) (size 9 to 14) (size 15 to 20)
#    0.000    1.250    6.250    0.750    1.750    4.000 
#    2.250    4.375    0.000    0.000    0.000    0.000 
#    0.000    0.000    0.000    0.000    0.000    0.000 
#
# Total GULP energy -89608.346502 kJ/mol
# GULP energy per Si atom -5600.521656 kJ/mol
# Density = 2.604690 g / cm^3
# Si number density = 26.106314 Si / 1000 Ang^3
#
#
#
# Elastic Constant Matrix: (Units=GPa)
#
#
# Indices 1 2 3 4 5 6 
#
# 1 131.2528 35.7299 4.9422 -16.1675 0.4194 -21.7079
# 2 35.7299 90.6208 24.9823 -3.8364 -1.4774 -28.2039
# 3 4.9422 24.9823 61.1689 -12.4938 2.3434 -15.0189
# 4 -16.1675 -3.8364 -12.4938 36.8720 -9.7709 1.2824
# 5 0.4194 -1.4774 2.3434 -9.7709 42.1121 -3.3520
# 6 -21.7079 -28.2039 -15.0189 1.2824 -3.3520 44.3290
#
#
#
# Elastic Compliance Matrix: (Units=1/GPa)
#
#
# Indices 1 2 3 4 5 6 
#
# 1 0.009527 -0.003104 0.002270 0.004783 0.001050 0.003400
# 2 -0.003104 0.015706 -0.004755 -0.001288 0.001103 0.006983
# 3 0.002270 -0.004755 0.020856 0.007609 0.000813 0.004994
# 4 0.004783 -0.001288 0.007609 0.033537 0.007560 0.003702
# 5 0.001050 0.001103 0.000813 0.007560 0.025739 0.003220
# 6 0.003400 0.006983 0.004994 0.003702 0.003220 0.030495
#
#
# Mechanical properties :
#
#
# Convention : Reuss Voigt Hill
#
# Bulk Modulus (GPa) = 28.64461 46.03902 37.34182
# Shear Modulus (GPa) = 31.51095 39.15517 35.33306
#
# Velocity S-wave (km/s) = 3.47799 3.87697 3.68289
# Velocity P-wave (km/s) = 5.20814 6.14123 5.69383
#
# Compressibility (1/GPa) = 0.03491058
#
# Stress axis : x y z
#
# Youngs Moduli (GPa) = 104.96905 63.66880 47.94815
#
# Poissons Ratio (x) = 0.19762 -0.10883
# Poissons Ratio (y) = 0.32581 0.22799
# Poissons Ratio (z) = -0.23824 0.30273
#
# Static dielectric constant tensor:
#      x y z
#    x 2.073240 0.016190 -0.006560 
#    y 0.016190 2.109600 -0.042530 
#    z -0.006560 -0.042530 2.036470 
# 
# From -- ./inp_files/514818.got.cif
#   From: 2010.05.17/outbox.cif.g08.bks.cpg/sg2_258_cif.got.tgz:514818.got - 2010.06.03 11:33:40.
