data_PCOD9100953
_publ_section_title
;
Structure prediction by ZEFSAII (Michael W. Deem and Ramdas Pophale) SiO2 
 PCOD9100953
Probable space group: P -1
;
_chemical_formula_sum "Si O2"
_cell_formula_units_Z 14
_cell_length_a 14.141476
_cell_length_b 9.269409
_cell_length_c 11.459340
_cell_angle_alpha 46.395526
_cell_angle_beta 53.943624
_cell_angle_gamma 35.604950
_cell_volume 631.878914
_symmetry_space_group_name_H-M "P -1"
_symmetry_group_IT_number 2
_symmetry_cell_setting 'triclinic'
loop_
_space_group_symop_operation_xyz
x,y,z
-x,-y,-z
loop_
_atom_site_type_symbol
_atom_site_label
_atom_site_fract_x
_atom_site_fract_y
_atom_site_fract_z
Si Si1 0.586364 0.551015 0.996486
Si Si2 0.090861 0.954124 0.844373
Si Si3 0.354151 0.128137 0.351354
Si Si4 0.884611 0.891583 0.588006
Si Si5 0.169051 0.287444 0.629738
Si Si6 0.325377 0.141155 0.835080
Si Si7 0.064260 0.749438 0.754219
O O1 0.677955 0.609955 0.818672
O O2 0.436059 0.857993 0.985689
O O3 0.500000 0.500000 0.000000
O O4 0.714903 0.311696 0.127686
O O5 0.025772 0.886293 0.829957
O O6 0.070966 0.213196 0.693233
O O7 0.000000 0.000000 0.000000
O O8 0.251640 0.091055 0.372810
O O9 0.303839 0.172793 0.498034
O O10 0.543258 0.876941 0.319842
O O11 0.053037 0.608928 0.566656
O O12 0.915553 0.850499 0.726815
O O13 0.861047 0.147376 0.425234
O O14 0.237383 0.141388 0.788483
O O15 0.197216 0.418481 0.845535
#
# Coordination Sequence:
#
# PCOD9100953 Si02
#       7
#     2   2   2   2   2   2   2
#     4  10  22  41  62  91 130 158 210 256 316 369
#     4  12  24  40  65  93 123 172 212 256 313 377
#     4  10  20  37  67  94 122 164 212 258 305 372
#     4  10  21  39  63  94 129 162 209 264 308 362
#     4  11  20  39  66  92 126 161 216 263 301 369
#     4   9  22  39  62  91 128 164 204 259 315 373
#     4  10  23  41  60  91 136 164 204 261 318 368
#
# _framework density 22.156141999999999
#
# number of rings (size 3 to 8) (size 9 to 14) (size 15 to 20)
#    0.857    0.857    2.857    1.714    2.000    1.143 
#    0.000    7.857    0.000    0.000    0.000    0.000 
#    0.000    0.000    0.000    0.000    0.000    0.000 
#
# Total GULP energy -78121.881133 kJ/mol
# GULP energy per Si atom -5580.134367 kJ/mol
# Density = 2.210571 g / cm^3
# Si number density = 22.156142 Si / 1000 Ang^3
#
#
#
# Elastic Constant Matrix: (Units=GPa)
#
#
# Indices 1 2 3 4 5 6 
#
# 1 107.0840 14.6631 2.3916 8.1519 11.9804 23.5568
# 2 14.6631 61.2295 7.5155 -6.9413 13.6337 23.5165
# 3 2.3916 7.5155 33.2028 -5.3061 -3.3945 12.5881
# 4 8.1519 -6.9413 -5.3061 37.2534 2.3739 4.2422
# 5 11.9804 13.6337 -3.3945 2.3739 29.5382 1.6860
# 6 23.5568 23.5165 12.5881 4.2422 1.6860 32.8319
#
#
#
# Elastic Compliance Matrix: (Units=1/GPa)
#
#
# Indices 1 2 3 4 5 6 
#
# 1 0.011893 0.001914 0.002084 -0.000457 -0.004837 -0.010395
# 2 0.001914 0.028257 0.002198 0.008592 -0.012949 -0.022901
# 3 0.002084 0.002198 0.038059 0.007320 0.002997 -0.018761
# 4 -0.000457 0.008592 0.007320 0.031305 -0.004745 -0.012434
# 5 -0.004837 -0.012949 0.002997 -0.004745 0.041945 0.010056
# 6 -0.010395 -0.022901 -0.018761 -0.012434 0.010056 0.062603
#
#
# Mechanical properties :
#
#
# Convention : Reuss Voigt Hill
#
# Bulk Modulus (GPa) = 11.03758 27.85076 19.44417
# Shear Modulus (GPa) = 21.56370 31.72111 26.64241
#
# Velocity S-wave (km/s) = 3.12310 3.78790 3.47145
# Velocity P-wave (km/s) = 4.24235 5.63280 4.98628
#
# Compressibility (1/GPa) = 0.09059960
#
# Stress axis : x y z
#
# Youngs Moduli (GPa) = 84.08564 35.38979 26.27474
#
# Poissons Ratio (x) = -0.06774 -0.05475
# Poissons Ratio (y) = -0.16095 -0.05774
# Poissons Ratio (z) = -0.17521 -0.07777
#
# Static dielectric constant tensor:
#      x y z
#    x 1.834620 -0.027490 0.026740 
#    y -0.027490 1.816350 -0.023830 
#    z 0.026740 -0.023830 1.833810 
# 
# From -- ./inp_files/174289.got.cif
#   From: 2010.05.17/outbox.cif.g08.bks.cpg/sg2_88_cif.got.tgz:174289.got - 2010.06.03 11:33:40.
