data_PCOD9100021
_publ_section_title
;
Structure prediction by ZEFSAII (Michael W. Deem and Ramdas Pophale) SiO2 
 PCOD9100021
Probable space group: P -1
;
_chemical_formula_sum "Si O2"
_cell_formula_units_Z 14
_cell_length_a 9.770707
_cell_length_b 23.798171
_cell_length_c 6.533203
_cell_angle_alpha 39.018990
_cell_angle_beta 133.647509
_cell_angle_gamma 143.519027
_cell_volume 559.861759
_symmetry_space_group_name_H-M "P -1"
_symmetry_group_IT_number 2
_symmetry_cell_setting 'triclinic'
loop_
_space_group_symop_operation_xyz
x,y,z
-x,-y,-z
loop_
_atom_site_type_symbol
_atom_site_label
_atom_site_fract_x
_atom_site_fract_y
_atom_site_fract_z
Si Si1 0.673288 0.628060 0.571047
Si Si2 0.065439 0.646658 0.112228
Si Si3 0.231688 0.568111 0.179549
Si Si4 0.383177 0.758882 0.502600
Si Si5 0.232500 0.171591 0.626645
Si Si6 0.870890 0.191056 0.620666
Si Si7 0.749381 0.020343 0.691058
O O1 0.206122 0.415910 0.046993
O O2 0.413987 0.539623 0.475325
O O3 0.680822 0.717088 0.476960
O O4 0.860786 0.702888 0.371437
O O5 0.156488 0.583657 0.276605
O O6 0.165455 0.682138 0.339912
O O7 0.172915 0.759645 0.769311
O O8 0.378700 0.684686 0.885160
O O9 0.000000 0.500000 0.000000
O O10 0.615189 0.807968 0.473024
O O11 0.315198 0.832272 0.336272
O O12 0.951675 0.104274 0.501014
O O13 0.267929 0.090548 0.022343
O O14 0.859180 0.086361 0.832700
O O15 0.500000 0.000000 0.500000
#
# Coordination Sequence:
#
# PCOD9100021 Si02
#       7
#     2   2   2   2   2   2   2
#     4   9  20  42  64  86 130 170 202 253 330 366
#     4   9  20  41  61  89 126 164 206 257 316 371
#     4  11  24  42  66  97 127 158 209 271 315 377
#     4  11  21  40  68  90 125 168 215 251 320 378
#     4  10  21  36  64  91 121 175 209 249 309 372
#     4   8  20  38  61  89 127 170 201 258 308 366
#     4  10  20  37  62  90 133 166 209 262 307 359
#
# _framework density 25.006171999999999
#
# number of rings (size 3 to 8) (size 9 to 14) (size 15 to 20)
#    0.857    1.429    1.429    0.857    2.000    2.857 
#    0.000    1.429    0.000    0.000    0.000    0.000 
#    0.000    0.000    0.000    0.000    0.000    0.000 
#
# Total GULP energy -78108.252488 kJ/mol
# GULP energy per Si atom -5579.160892 kJ/mol
# Density = 2.494926 g / cm^3
# Si number density = 25.006172 Si / 1000 Ang^3
#
#
#
# Elastic Constant Matrix: (Units=GPa)
#
#
# Indices 1 2 3 4 5 6 
#
# 1 198.2854 37.0638 32.4997 -1.7236 1.1910 28.4164
# 2 37.0638 65.4822 20.4613 9.6322 10.8393 33.1346
# 3 32.4997 20.4613 53.7272 13.6623 6.0838 16.1945
# 4 -1.7236 9.6322 13.6623 28.4488 10.6334 10.0179
# 5 1.1910 10.8393 6.0838 10.6334 38.5340 5.0374
# 6 28.4164 33.1346 16.1945 10.0179 5.0374 54.7317
#
#
#
# Elastic Compliance Matrix: (Units=1/GPa)
#
#
# Indices 1 2 3 4 5 6 
#
# 1 0.006247 -0.002254 -0.003300 0.003148 0.000290 -0.001505
# 2 -0.002254 0.024696 -0.003676 -0.000779 -0.004495 -0.012136
# 3 -0.003300 -0.003676 0.025146 -0.010581 0.000294 -0.001592
# 4 0.003148 -0.000779 -0.010581 0.046511 -0.010311 -0.005597
# 5 0.000290 -0.004495 0.000294 -0.010311 0.029793 0.001629
# 6 -0.001505 -0.012136 -0.001592 -0.005597 0.001629 0.027745
#
#
# Mechanical properties :
#
#
# Convention : Reuss Voigt Hill
#
# Bulk Modulus (GPa) = 26.57624 55.28272 40.92948
# Shear Modulus (GPa) = 26.15878 39.50756 32.83317
#
# Velocity S-wave (km/s) = 3.23784 3.97912 3.62747
# Velocity P-wave (km/s) = 4.96277 6.57775 5.82649
#
# Compressibility (1/GPa) = 0.03762759
#
# Stress axis : x y z
#
# Youngs Moduli (GPa) = 160.08280 40.49288 39.76799
#
# Poissons Ratio (x) = 0.09127 0.13123
# Poissons Ratio (y) = 0.36084 0.14620
# Poissons Ratio (z) = 0.52826 0.14887
#
# Static dielectric constant tensor:
#      x y z
#    x 1.976260 0.066340 0.001900 
#    y 0.066340 2.119100 -0.024350 
#    z 0.001900 -0.024350 1.983730 
# 
# From -- ./inp_files/55315.got.cif
#   From: 2010.05.17/outbox.cif.g08.bks.cpg/sg2_28_cif.got.tgz:55315.got - 2010.06.03 11:33:40.
