data_PCOD9100950
_publ_section_title
;
Structure prediction by ZEFSAII (Michael W. Deem and Ramdas Pophale) SiO2 
 PCOD9100950
Probable space group: P -1
;
_chemical_formula_sum "Si O2"
_cell_formula_units_Z 16
_cell_length_a 9.332576
_cell_length_b 7.900457
_cell_length_c 13.057727
_cell_angle_alpha 98.027754
_cell_angle_beta 48.276853
_cell_angle_gamma 120.864221
_cell_volume 585.431225
_symmetry_space_group_name_H-M "P -1"
_symmetry_group_IT_number 2
_symmetry_cell_setting 'triclinic'
loop_
_space_group_symop_operation_xyz
x,y,z
-x,-y,-z
loop_
_atom_site_type_symbol
_atom_site_label
_atom_site_fract_x
_atom_site_fract_y
_atom_site_fract_z
Si Si1 0.977299 0.655238 0.003632
Si Si2 0.193955 0.197650 0.358174
Si Si3 0.110733 0.675943 0.550877
Si Si4 0.596948 0.710086 0.045965
Si Si5 0.635279 0.355523 0.033298
Si Si6 0.265117 0.422099 0.544678
Si Si7 0.597344 0.936493 0.266534
Si Si8 0.074254 0.114369 0.773448
O O1 0.137027 0.594650 0.002571
O O2 0.748946 0.603884 0.026196
O O3 0.201773 0.837849 0.851561
O O4 0.888737 0.719395 0.146490
O O5 0.408805 0.217768 0.199979
O O6 0.302965 0.377089 0.407881
O O7 0.068048 0.260773 0.341989
O O8 0.000000 0.000000 0.500000
O O9 0.181490 0.576437 0.596185
O O10 0.348272 0.881266 0.413251
O O11 0.000000 0.500000 0.500000
O O12 0.397170 0.729337 0.070390
O O13 0.551116 0.778594 0.183984
O O14 0.833616 0.910582 0.903530
O O15 0.500000 0.500000 0.000000
O O16 0.500000 0.500000 0.500000
O O17 0.077061 0.205533 0.670920
O O18 0.714337 0.907691 0.307638
#
# Coordination Sequence:
#
# PCOD9100950 Si02
#       8
#     2   2   2   2   2   2   2   2
#     4  11  24  41  63  96 130 171 210 284 330 378
#     4  11  25  44  66  92 134 176 214 268 327 387
#     4  10  23  42  66  96 130 174 219 266 322 390
#     4  10  20  37  67  93 119 171 211 265 322 387
#     4  11  21  40  65  94 129 165 217 266 333 379
#     4  11  21  40  67  94 125 171 217 263 320 386
#     4  11  20  43  69  92 130 169 224 259 330 391
#     4  11  20  41  65  93 127 171 216 262 326 396
#
# _framework density 27.330278
#
# number of rings (size 3 to 8) (size 9 to 14) (size 15 to 20)
#    0.000    1.250    3.750    3.750    1.750    0.000 
#    9.000    1.875    0.000    0.000    0.000    0.000 
#    0.000    0.000    0.000    0.000    0.000    0.000 
#
# Total GULP energy -89409.059882 kJ/mol
# GULP energy per Si atom -5588.066243 kJ/mol
# Density = 2.726807 g / cm^3
# Si number density = 27.330278 Si / 1000 Ang^3
#
#
#
# Elastic Constant Matrix: (Units=GPa)
#
#
# Indices 1 2 3 4 5 6 
#
# 1 191.8032 47.0791 30.9057 10.2817 1.4604 11.8315
# 2 47.0791 68.6501 31.3714 -24.9866 5.0669 -10.2491
# 3 30.9057 31.3714 99.8819 -29.8461 2.1860 10.6913
# 4 10.2817 -24.9866 -29.8461 48.2831 -0.7224 5.9124
# 5 1.4604 5.0669 2.1860 -0.7224 53.5330 -5.4861
# 6 11.8315 -10.2491 10.6913 5.9124 -5.4861 49.4312
#
#
#
# Elastic Compliance Matrix: (Units=1/GPa)
#
#
# Indices 1 2 3 4 5 6 
#
# 1 0.007677 -0.007012 -0.001766 -0.006088 0.000223 -0.002156
# 2 -0.007012 0.026302 -0.002986 0.012487 -0.001379 0.006131
# 3 -0.001766 -0.002986 0.014457 0.008295 -0.000597 -0.004382
# 4 -0.006088 0.012487 0.008295 0.033815 -0.001094 -0.001914
# 5 0.000223 -0.001379 -0.000597 -0.001094 0.019022 0.002032
# 6 -0.002156 0.006131 -0.004382 -0.001914 0.002032 0.023420
#
#
# Mechanical properties :
#
#
# Convention : Reuss Voigt Hill
#
# Bulk Modulus (GPa) = 40.14893 64.33864 52.24379
# Shear Modulus (GPa) = 31.94394 46.98140 39.46267
#
# Velocity S-wave (km/s) = 3.42250 4.15061 3.80401
# Velocity P-wave (km/s) = 5.50819 6.82366 6.20091
#
# Compressibility (1/GPa) = 0.02490726
#
# Stress axis : x y z
#
# Youngs Moduli (GPa) = 130.25842 38.02007 69.17054
#
# Poissons Ratio (x) = 0.26659 0.12218
# Poissons Ratio (y) = 0.91335 0.20655
# Poissons Ratio (z) = 0.23008 0.11353
#
# Static dielectric constant tensor:
#      x y z
#    x 1.612170 0.455070 -0.116900 
#    y 0.455070 1.766290 0.009110 
#    z -0.116900 0.009110 1.967050 
# 
# From -- ./inp_files/494809.got.cif
#   From: 2010.05.17/outbox.cif.g08.bks.cpg/sg2_248_cif.got.tgz:494809.got - 2010.06.03 11:33:40.
