data_PCOD9100703
_publ_section_title
;
Structure prediction by ZEFSAII (Michael W. Deem and Ramdas Pophale) SiO2 
 PCOD9100703
Probable space group: P -1
;
_chemical_formula_sum "Si O2"
_cell_formula_units_Z 16
_cell_length_a 26.769346
_cell_length_b 12.163095
_cell_length_c 8.820875
_cell_angle_alpha 118.982300
_cell_angle_beta 117.950074
_cell_angle_gamma 17.119668
_cell_volume 739.391473
_symmetry_space_group_name_H-M "P -1"
_symmetry_group_IT_number 2
_symmetry_cell_setting 'triclinic'
loop_
_space_group_symop_operation_xyz
x,y,z
-x,-y,-z
loop_
_atom_site_type_symbol
_atom_site_label
_atom_site_fract_x
_atom_site_fract_y
_atom_site_fract_z
Si Si1 0.485004 0.398579 0.494704
Si Si2 0.524947 0.887746 0.298350
Si Si3 0.990748 0.312778 0.558015
Si Si4 0.657614 0.344140 0.215232
Si Si5 0.152856 0.980662 0.254661
Si Si6 0.234144 0.406534 0.682199
Si Si7 0.154807 0.169416 0.115322
Si Si8 0.306060 0.389854 0.050935
O O1 0.500000 0.500000 0.500000
O O2 0.443576 0.498659 0.680780
O O3 0.324698 0.669889 0.368067
O O4 0.634122 0.984847 0.407705
O O5 0.568703 0.651322 0.222013
O O6 0.679618 0.646066 0.288490
O O7 0.500000 0.000000 0.500000
O O8 0.354763 0.258641 0.204952
O O9 0.926620 0.303910 0.448668
O O10 0.854568 0.687489 0.698173
O O11 0.165672 0.973496 0.669499
O O12 0.015518 0.292358 0.400562
O O13 0.692224 0.177745 0.014123
O O14 0.194152 0.749421 0.124372
O O15 0.125635 0.115662 0.153686
O O16 0.214581 0.474870 0.878907
O O17 0.000000 0.500000 0.000000
O O18 0.500000 0.000000 0.000000
#
# Coordination Sequence:
#
# PCOD9100703 Si02
#       8
#     2   2   2   2   2   2   2   2
#     4  11  22  39  64  92 123 167 218 257 309 384
#     4  11  19  39  66  91 127 164 209 266 314 372
#     4  10  23  40  60  92 131 169 211 254 317 384
#     4  10  22  41  66  92 124 176 208 258 331 367
#     4  11  20  41  65  88 124 176 211 250 321 379
#     4  11  22  39  60  95 128 161 215 260 309 370
#     4  10  21  38  62  88 127 169 213 257 312 380
#     4  10  20  37  65  92 121 163 213 259 302 378
#
# _framework density 21.639417999999999
#
# number of rings (size 3 to 8) (size 9 to 14) (size 15 to 20)
#    0.000    1.500    3.750    3.375    0.000    3.000 
#    0.000    6.250    0.000    0.000    0.000    0.000 
#    0.000    0.000    0.000    0.000    0.000    0.000 
#
# Total GULP energy -89296.464847 kJ/mol
# GULP energy per Si atom -5581.029053 kJ/mol
# Density = 2.159017 g / cm^3
# Si number density = 21.639418 Si / 1000 Ang^3
#
#
#
# Elastic Constant Matrix: (Units=GPa)
#
#
# Indices 1 2 3 4 5 6 
#
# 1 71.7905 18.2810 42.0808 -5.7552 -2.8091 10.9518
# 2 18.2810 42.5759 44.4828 -0.5953 2.1669 11.0365
# 3 42.0808 44.4828 180.9639 11.5101 -2.5592 5.0116
# 4 -5.7552 -0.5953 11.5101 29.6910 6.0786 -1.1941
# 5 -2.8091 2.1669 -2.5592 6.0786 32.1090 -7.2392
# 6 10.9518 11.0365 5.0116 -1.1941 -7.2392 32.2424
#
#
#
# Elastic Compliance Matrix: (Units=1/GPa)
#
#
# Indices 1 2 3 4 5 6 
#
# 1 0.017794 -0.002495 -0.003708 0.004755 -0.000496 -0.004549
# 2 -0.002495 0.037013 -0.008575 0.004524 -0.006934 -0.011878
# 3 -0.003708 -0.008575 0.008740 -0.004674 0.002566 0.003239
# 4 0.004755 0.004524 -0.004674 0.038050 -0.008107 -0.002849
# 5 -0.000496 -0.006934 0.002566 -0.008107 0.035521 0.009818
# 6 -0.004549 -0.011878 0.003239 -0.002849 0.009818 0.038222
#
#
# Mechanical properties :
#
#
# Convention : Reuss Voigt Hill
#
# Bulk Modulus (GPa) = 29.41979 56.11327 42.76653
# Shear Modulus (GPa) = 23.12392 31.50754 27.31573
#
# Velocity S-wave (km/s) = 3.27249 3.81993 3.55676
# Velocity P-wave (km/s) = 5.28242 6.74115 6.05587
#
# Compressibility (1/GPa) = 0.03399073
#
# Stress axis : x y z
#
# Youngs Moduli (GPa) = 56.19874 27.01746 114.41896
#
# Poissons Ratio (x) = 0.06742 0.42425
# Poissons Ratio (y) = 0.14024 0.98112
# Poissons Ratio (z) = 0.20838 0.23167
#
# Static dielectric constant tensor:
#      x y z
#    x 1.690030 -0.116900 0.021110 
#    y -0.116900 1.779080 0.035480 
#    z 0.021110 0.035480 1.808480 
# 
# From -- ./inp_files/356989.got.cif
#   From: 2010.05.17/outbox.cif.g08.bks.cpg/sg2_179_cif.got.tgz:356989.got - 2010.06.03 11:33:40.
