data_PCOD9100162
_publ_section_title
;
Structure prediction by ZEFSAII (Michael W. Deem and Ramdas Pophale) SiO2 
 PCOD9100162
Probable space group: P -1
;
_chemical_formula_sum "Si O2"
_cell_formula_units_Z 16
_cell_length_a 10.742387
_cell_length_b 10.851211
_cell_length_c 6.055456
_cell_angle_alpha 64.483522
_cell_angle_beta 78.138522
_cell_angle_gamma 92.910274
_cell_volume 615.615162
_symmetry_space_group_name_H-M "P -1"
_symmetry_group_IT_number 2
_symmetry_cell_setting 'triclinic'
loop_
_space_group_symop_operation_xyz
x,y,z
-x,-y,-z
loop_
_atom_site_type_symbol
_atom_site_label
_atom_site_fract_x
_atom_site_fract_y
_atom_site_fract_z
Si Si1 0.269344 0.029844 0.372625
Si Si2 0.465876 0.879615 0.786131
Si Si3 0.722751 0.281891 0.734845
Si Si4 0.462884 0.631981 0.641842
Si Si5 0.247053 0.269117 0.524318
Si Si6 0.234917 0.500861 0.057723
Si Si7 0.064862 0.118933 0.054270
Si Si8 0.130819 0.743380 0.683084
O O1 0.400314 0.090201 0.150775
O O2 0.265882 0.124245 0.517690
O O3 0.149220 0.047203 0.251608
O O4 0.253209 0.868806 0.568302
O O5 0.462927 0.738704 0.761509
O O6 0.500000 0.000000 0.500000
O O7 0.343179 0.855301 0.007604
O O8 0.615011 0.319143 0.573801
O O9 0.747209 0.404845 0.803681
O O10 0.857163 0.267837 0.577421
O O11 0.614045 0.641315 0.533834
O O12 0.369449 0.499269 0.877849
O O13 0.186051 0.350642 0.287478
O O14 0.156482 0.234194 0.791807
O O15 0.152173 0.591353 0.870891
O O16 0.970390 0.196134 0.175847
O O17 0.000000 0.000000 0.000000
#
# Coordination Sequence:
#
# PCOD9100162 Si02
#       8
#     2   2   2   2   2   2   2   2
#     4  11  24  43  70  95 131 176 224 282 338 392
#     4  10  20  37  63 104 136 170 220 271 338 413
#     4  10  21  38  64  95 143 175 213 272 345 395
#     4   9  20  38  62  98 134 175 217 271 335 415
#     4  11  24  43  69  98 136 173 228 282 337 397
#     4  10  23  42  67 102 136 176 217 278 342 412
#     4  12  27  45  70  97 128 178 241 284 331 390
#     4  11  25  43  67  95 130 179 226 277 336 398
#
# _framework density 25.990262000000001
#
# number of rings (size 3 to 8) (size 9 to 14) (size 15 to 20)
#    0.000    1.500    1.250    3.750    1.750    7.000 
#    0.000    1.250    0.000    0.000    0.000    0.000 
#    0.000    0.000    0.000    0.000    0.000    0.000 
#
# Total GULP energy -89452.751863 kJ/mol
# GULP energy per Si atom -5590.796991 kJ/mol
# Density = 2.593111 g / cm^3
# Si number density = 25.990262 Si / 1000 Ang^3
#
#
#
# Elastic Constant Matrix: (Units=GPa)
#
#
# Indices 1 2 3 4 5 6 
#
# 1 90.3929 10.1189 48.4257 12.5021 -21.8316 -15.8193
# 2 10.1189 63.9210 16.9552 5.2734 -16.8468 -12.7978
# 3 48.4257 16.9552 150.2311 -1.5374 -37.8762 -20.6177
# 4 12.5021 5.2734 -1.5374 45.0987 -3.9328 8.3711
# 5 -21.8316 -16.8468 -37.8762 -3.9328 46.9089 6.7990
# 6 -15.8193 -12.7978 -20.6177 8.3711 6.7990 29.4380
#
#
#
# Elastic Compliance Matrix: (Units=1/GPa)
#
#
# Indices 1 2 3 4 5 6 
#
# 1 0.015638 0.001286 -0.003346 -0.005674 0.003486 0.007428
# 2 0.001286 0.019026 0.000091 -0.003675 0.005936 0.008700
# 3 -0.003346 0.000091 0.009683 0.001143 0.005907 0.003334
# 4 -0.005674 -0.003675 0.001143 0.026436 0.000854 -0.011561
# 5 0.003486 0.005936 0.005907 0.000854 0.029697 0.001489
# 6 0.007428 0.008700 0.003334 -0.011561 0.001489 0.047022
#
#
# Mechanical properties :
#
#
# Convention : Reuss Voigt Hill
#
# Bulk Modulus (GPa) = 24.74634 50.61606 37.68120
# Shear Modulus (GPa) = 30.31964 39.55879 34.93921
#
# Velocity S-wave (km/s) = 3.41922 3.90559 3.67047
# Velocity P-wave (km/s) = 5.01300 6.31312 5.70025
#
# Compressibility (1/GPa) = 0.04041001
#
# Stress axis : x y z
#
# Youngs Moduli (GPa) = 63.94754 52.55912 103.27301
#
# Poissons Ratio (x) = -0.06759 0.34552
# Poissons Ratio (y) = -0.08223 -0.00942
# Poissons Ratio (z) = 0.21395 -0.00479
#
# Static dielectric constant tensor:
#      x y z
#    x 2.213360 -0.001760 0.050930 
#    y -0.001760 2.030650 -0.000590 
#    z 0.050930 -0.000590 2.093990 
# 
# From -- ./inp_files/68466.got.cif
#   From: 2010.05.17/outbox.cif.g08.bks.cpg/sg2_35_cif.got.tgz:68466.got - 2010.06.03 11:33:40.
