data_PCOD9100876
_publ_section_title
;
Structure prediction by ZEFSAII (Michael W. Deem and Ramdas Pophale) SiO2 
 PCOD9100876
Probable space group: P -1
;
_chemical_formula_sum "Si O2"
_cell_formula_units_Z 14
_cell_length_a 18.780575
_cell_length_b 7.085467
_cell_length_c 8.798771
_cell_angle_alpha 57.027540
_cell_angle_beta 39.259155
_cell_angle_gamma 54.504757
_cell_volume 592.982708
_symmetry_space_group_name_H-M "P -1"
_symmetry_group_IT_number 2
_symmetry_cell_setting 'triclinic'
loop_
_space_group_symop_operation_xyz
x,y,z
-x,-y,-z
loop_
_atom_site_type_symbol
_atom_site_label
_atom_site_fract_x
_atom_site_fract_y
_atom_site_fract_z
Si Si1 0.500026 0.779660 0.701512
Si Si2 0.030104 0.803521 0.402935
Si Si3 0.306850 0.640218 0.950589
Si Si4 0.090701 0.793884 0.769493
Si Si5 0.638379 0.818740 0.758513
Si Si6 0.906256 0.603083 0.313885
Si Si7 0.349068 0.689875 0.511357
O O1 0.367565 0.760893 0.924952
O O2 0.554961 0.786503 0.773123
O O3 0.578269 0.547828 0.586591
O O4 0.500000 0.000000 0.500000
O O5 0.023706 0.560945 0.592984
O O6 0.940821 0.944113 0.361819
O O7 0.165879 0.745891 0.149674
O O8 0.000000 0.000000 0.500000
O O9 0.355743 0.680231 0.687578
O O10 0.348631 0.363351 0.044873
O O11 0.019852 0.234523 0.942519
O O12 0.103825 0.593154 0.706786
O O13 0.212057 0.731804 0.684066
O O14 0.772649 0.745727 0.506266
O O15 0.609787 0.094740 0.716934
#
# Coordination Sequence:
#
# PCOD9100876 Si02
#       7
#     2   2   2   2   2   2   2
#     4  12  26  48  74  96 139 185 229 283 344 407
#     4   9  20  38  66  99 132 174 227 272 330 410
#     4  11  25  45  70 104 139 180 230 284 341 403
#     4  10  20  37  66  95 133 179 217 276 340 394
#     4  11  24  46  68 100 139 179 231 282 341 410
#     4   9  19  38  64  95 132 176 226 268 334 409
#     4  12  26  45  69 107 139 176 232 285 340 405
#
# _framework density 23.609456000000002
#
# number of rings (size 3 to 8) (size 9 to 14) (size 15 to 20)
#    0.000    1.429    2.857    1.714    0.000    5.143 
#    2.571    2.857    0.000    0.000    0.000    0.000 
#    0.000    0.000    0.000    0.000    0.000    0.000 
#
# Total GULP energy -78411.037074 kJ/mol
# GULP energy per Si atom -5600.788362 kJ/mol
# Density = 2.355572 g / cm^3
# Si number density = 23.609456 Si / 1000 Ang^3
#
#
#
# Elastic Constant Matrix: (Units=GPa)
#
#
# Indices 1 2 3 4 5 6 
#
# 1 129.6351 24.3374 9.7194 -3.5514 1.6571 -12.5095
# 2 24.3374 140.3090 20.2834 -8.9911 13.5440 -10.8804
# 3 9.7194 20.2834 43.6869 -3.7734 1.0149 -9.8134
# 4 -3.5514 -8.9911 -3.7734 46.6990 -3.9932 -2.3831
# 5 1.6571 13.5440 1.0149 -3.9932 36.4694 2.5398
# 6 -12.5095 -10.8804 -9.8134 -2.3831 2.5398 36.4452
#
#
#
# Elastic Compliance Matrix: (Units=1/GPa)
#
#
# Indices 1 2 3 4 5 6 
#
# 1 0.008215 -0.001101 -0.000753 0.000466 -0.000054 0.002322
# 2 -0.001101 0.008231 -0.003073 0.001082 -0.002909 0.001525
# 3 -0.000753 -0.003073 0.025960 0.001771 0.000235 0.005914
# 4 0.000466 0.001082 0.001771 0.022069 0.001786 0.002278
# 5 -0.000054 -0.002909 0.000235 0.001786 0.028881 -0.002720
# 6 0.002322 0.001525 0.005914 0.002278 -0.002720 0.030622
#
#
# Mechanical properties :
#
#
# Convention : Reuss Voigt Hill
#
# Bulk Modulus (GPa) = 30.72039 46.92348 38.82193
# Shear Modulus (GPa) = 34.55833 41.20877 37.88355
#
# Velocity S-wave (km/s) = 3.83005 4.18237 4.01008
# Velocity P-wave (km/s) = 5.70957 6.57579 6.15793
#
# Compressibility (1/GPa) = 0.03255167
#
# Stress axis : x y z
#
# Youngs Moduli (GPa) = 121.73356 121.49640 38.52036
#
# Poissons Ratio (x) = 0.13374 0.02902
# Poissons Ratio (y) = 0.13400 0.11837
# Poissons Ratio (z) = 0.09170 0.37334
#
# Static dielectric constant tensor:
#      x y z
#    x 1.883120 0.020320 0.023520 
#    y 0.020320 1.886390 0.004600 
#    z 0.023520 0.004600 1.890740 
# 
# From -- ./inp_files/323406.got.cif
#   From: 2010.05.17/outbox.cif.g08.bks.cpg/sg2_162_cif.got.tgz:323406.got - 2010.06.03 11:33:40.
