data_PCOD9100191
_publ_section_title
;
Structure prediction by ZEFSAII (Michael W. Deem and Ramdas Pophale) SiO2 
 PCOD9100191
Probable space group: P -1
;
_chemical_formula_sum "Si O2"
_cell_formula_units_Z 14
_cell_length_a 19.050395
_cell_length_b 14.831262
_cell_length_c 10.589846
_cell_angle_alpha 33.502492
_cell_angle_beta 158.082586
_cell_angle_gamma 145.079627
_cell_volume 600.665301
_symmetry_space_group_name_H-M "P -1"
_symmetry_group_IT_number 2
_symmetry_cell_setting 'triclinic'
loop_
_space_group_symop_operation_xyz
x,y,z
-x,-y,-z
loop_
_atom_site_type_symbol
_atom_site_label
_atom_site_fract_x
_atom_site_fract_y
_atom_site_fract_z
Si Si1 0.518538 0.168746 0.409305
Si Si2 0.286614 0.459150 0.064877
Si Si3 0.405816 0.389686 0.781678
Si Si4 0.912174 0.251509 0.550024
Si Si5 0.089603 0.045507 0.905493
Si Si6 0.872727 0.755975 0.721008
Si Si7 0.155900 0.593945 0.250826
O O1 0.696741 0.224402 0.736454
O O2 0.500000 0.000000 0.500000
O O3 0.558231 0.305437 0.203782
O O4 0.304880 0.155987 0.119847
O O5 0.111532 0.377635 0.775018
O O6 0.248434 0.638418 0.838192
O O7 0.482338 0.483596 0.283983
O O8 0.266468 0.329213 0.298547
O O9 0.247683 0.256106 0.595000
O O10 0.305435 0.475670 0.621941
O O11 0.951644 0.161825 0.591301
O O12 0.885510 0.099666 0.784027
O O13 0.991848 0.938252 0.747829
O O14 0.022758 0.634513 0.094054
O O15 0.000000 0.500000 0.000000
#
# Coordination Sequence:
#
# PCOD9100191 Si02
#       7
#     2   2   2   2   2   2   2
#     4  12  23  38  65  90 127 160 204 253 309 373
#     4  10  20  37  63  86 120 156 216 251 305 354
#     4  11  24  39  62  92 125 162 209 251 313 361
#     4   9  20  35  62  90 115 161 207 259 298 373
#     4  10  20  38  58  89 127 160 204 248 320 356
#     4  10  22  41  60  88 126 162 206 259 300 365
#     4  10  23  43  61  92 125 161 206 254 306 366
#
# _framework density 23.307490000000001
#
# number of rings (size 3 to 8) (size 9 to 14) (size 15 to 20)
#    0.000    1.714    1.429    2.571    6.000    0.571 
#    0.000    0.714    0.000    0.000    0.000    0.000 
#    0.000    0.000    0.000    0.000    0.000    0.000 
#
# Total GULP energy -78093.106737 kJ/mol
# GULP energy per Si atom -5578.079053 kJ/mol
# Density = 2.325444 g / cm^3
# Si number density = 23.307490 Si / 1000 Ang^3
#
#
#
# Elastic Constant Matrix: (Units=GPa)
#
#
# Indices 1 2 3 4 5 6 
#
# 1 73.6312 46.5775 14.2848 5.3436 17.4783 -12.5842
# 2 46.5775 130.3552 22.3796 19.3288 1.7727 -19.1294
# 3 14.2848 22.3796 48.3444 8.5269 6.8883 -7.9242
# 4 5.3436 19.3288 8.5269 37.9907 -9.7607 5.3011
# 5 17.4783 1.7727 6.8883 -9.7607 22.1648 5.3302
# 6 -12.5842 -19.1294 -7.9242 5.3011 5.3302 48.1461
#
#
#
# Elastic Compliance Matrix: (Units=1/GPa)
#
#
# Indices 1 2 3 4 5 6 
#
# 1 0.025597 -0.006689 0.002077 -0.008486 -0.026001 0.008187
# 2 -0.006689 0.011410 -0.002628 -0.003877 0.002880 0.002460
# 3 0.002077 -0.002628 0.026302 -0.009762 -0.015491 0.006617
# 4 -0.008486 -0.003877 -0.009762 0.041683 0.031627 -0.013456
# 5 -0.026001 0.002880 -0.015491 0.031627 0.089319 -0.021572
# 6 0.008187 0.002460 0.006617 -0.013456 -0.021572 0.028846
#
#
# Mechanical properties :
#
#
# Convention : Reuss Voigt Hill
#
# Bulk Modulus (GPa) = 20.48090 46.53495 33.50793
# Shear Modulus (GPa) = 19.69174 32.93292 26.31233
#
# Velocity S-wave (km/s) = 2.90981 3.76304 3.36359
# Velocity P-wave (km/s) = 4.48282 6.23615 5.43071
#
# Compressibility (1/GPa) = 0.04882597
#
# Stress axis : x y z
#
# Youngs Moduli (GPa) = 39.06717 87.64554 38.02046
#
# Poissons Ratio (x) = 0.58629 -0.07895
# Poissons Ratio (y) = 0.26133 0.09993
# Poissons Ratio (z) = -0.08113 0.23037
#
# Static dielectric constant tensor:
#      x y z
#    x 1.953940 0.022070 -0.001580 
#    y 0.022070 1.953170 0.018560 
#    z -0.001580 0.018560 1.980460 
# 
# From -- ./inp_files/179155.got.cif
#   From: 2010.05.17/outbox.cif.g08.bks.cpg/sg2_90_cif.got.tgz:179155.got - 2010.06.03 11:33:40.
