data_PCOD9100109
_publ_section_title
;
Structure prediction by ZEFSAII (Michael W. Deem and Ramdas Pophale) SiO2 
 PCOD9100109
Probable space group: P -1
;
_chemical_formula_sum "Si O2"
_cell_formula_units_Z 16
_cell_length_a 9.152909
_cell_length_b 11.050223
_cell_length_c 16.678481
_cell_angle_alpha 57.427581
_cell_angle_beta 149.431179
_cell_angle_gamma 113.888206
_cell_volume 716.180367
_symmetry_space_group_name_H-M "P -1"
_symmetry_group_IT_number 2
_symmetry_cell_setting 'triclinic'
loop_
_space_group_symop_operation_xyz
x,y,z
-x,-y,-z
loop_
_atom_site_type_symbol
_atom_site_label
_atom_site_fract_x
_atom_site_fract_y
_atom_site_fract_z
Si Si1 0.053380 0.138188 0.082633
Si Si2 0.242424 0.597024 0.389660
Si Si3 0.610721 0.136240 0.735074
Si Si4 0.020058 0.321375 0.436208
Si Si5 0.808942 0.039757 0.164088
Si Si6 0.505296 0.315096 0.982908
Si Si7 0.018536 0.283201 0.629729
Si Si8 0.630607 0.634544 0.919824
O O1 0.139276 0.295246 0.048674
O O2 0.311754 0.017667 0.216411
O O3 0.976370 0.105383 0.147865
O O4 0.770845 0.120718 0.901971
O O5 0.500000 0.500000 0.500000
O O6 0.230718 0.748494 0.282399
O O7 0.032128 0.472204 0.341507
O O8 0.254630 0.646555 0.471139
O O9 0.276665 0.202735 0.567043
O O10 0.068521 0.348281 0.543843
O O11 0.691417 0.293980 0.283020
O O12 0.983273 0.887196 0.326877
O O13 0.733060 0.168956 0.144781
O O14 0.500000 0.000000 0.000000
O O15 0.349577 0.326120 0.991349
O O16 0.283373 0.296892 0.811773
O O17 0.645696 0.461218 0.982836
#
# Coordination Sequence:
#
# PCOD9100109 Si02
#       8
#     2   2   2   2   2   2   2   2
#     4  11  23  40  66  98 130 175 219 274 320 399
#     4  10  20  37  62  94 129 164 217 269 319 378
#     4  10  22  40  66  96 131 171 227 265 320 395
#     4  11  24  41  67 100 130 175 212 276 331 389
#     4  10  22  40  67  94 124 169 226 274 312 378
#     4  10  23  42  66  95 130 179 215 265 332 397
#     4  11  20  41  70  93 125 172 229 266 314 392
#     4  11  25  41  67  95 141 169 213 274 340 390
#
# _framework density 22.34074
#
# number of rings (size 3 to 8) (size 9 to 14) (size 15 to 20)
#    0.000    1.500    2.500    2.625    8.750    1.000 
#    0.000    3.125    0.000    0.000    0.000    0.000 
#    0.000    0.000    0.000    0.000    0.000    0.000 
#
# Total GULP energy -89284.908186 kJ/mol
# GULP energy per Si atom -5580.306762 kJ/mol
# Density = 2.228989 g / cm^3
# Si number density = 22.340740 Si / 1000 Ang^3
#
#
#
# Elastic Constant Matrix: (Units=GPa)
#
#
# Indices 1 2 3 4 5 6 
#
# 1 85.2536 31.4611 12.5939 -6.0772 -3.7266 1.0620
# 2 31.4611 105.6097 12.2902 -23.5392 12.8664 1.9507
# 3 12.5939 12.2902 48.3296 -11.7059 2.3515 -15.3772
# 4 -6.0772 -23.5392 -11.7059 31.9028 -5.6229 4.8891
# 5 -3.7266 12.8664 2.3515 -5.6229 34.5537 -5.8023
# 6 1.0620 1.9507 -15.3772 4.8891 -5.8023 32.0837
#
#
#
# Elastic Compliance Matrix: (Units=1/GPa)
#
#
# Indices 1 2 3 4 5 6 
#
# 1 0.013878 -0.004337 -0.003251 -0.001062 0.002983 -0.001052
# 2 -0.004337 0.013360 -0.001068 0.008337 -0.004563 -0.003277
# 3 -0.003251 -0.001068 0.027410 0.006984 0.001418 0.012502
# 4 -0.001062 0.008337 0.006984 0.040731 0.002449 -0.002888
# 5 0.002983 -0.004563 0.001418 0.002449 0.032326 0.006331
# 6 -0.001052 -0.003277 0.012502 -0.002888 0.006331 0.038980
#
#
# Mechanical properties :
#
#
# Convention : Reuss Voigt Hill
#
# Bulk Modulus (GPa) = 26.78345 39.09815 32.94080
# Shear Modulus (GPa) = 25.45265 31.89788 28.67527
#
# Velocity S-wave (km/s) = 3.37900 3.78271 3.58654
# Velocity P-wave (km/s) = 5.21902 6.05123 5.65047
#
# Compressibility (1/GPa) = 0.03733649
#
# Stress axis : x y z
#
# Youngs Moduli (GPa) = 72.05592 74.85181 36.48238
#
# Poissons Ratio (x) = 0.32461 0.11860
# Poissons Ratio (y) = 0.31248 0.03898
# Poissons Ratio (z) = 0.23424 0.07998
#
# Static dielectric constant tensor:
#      x y z
#    x 1.907680 0.340800 0.175360 
#    y 0.340800 3.046420 0.458020 
#    z 0.175360 0.458020 2.096050 
# 
# From -- ./inp_files/559112.got.cif
#   From: 2010.05.17/outbox.cif.g08.bks.cpg/sg2_280_cif.got.tgz:559112.got - 2010.06.03 11:33:40.
