data_PCOD9100108
_publ_section_title
;
Structure prediction by ZEFSAII (Michael W. Deem and Ramdas Pophale) SiO2 
 PCOD9100108
Probable space group: P -1
;
_chemical_formula_sum "Si O2"
_cell_formula_units_Z 12
_cell_length_a 7.903883
_cell_length_b 12.239412
_cell_length_c 7.237231
_cell_angle_alpha 57.206040
_cell_angle_beta 95.594910
_cell_angle_gamma 60.291713
_cell_volume 442.353142
_symmetry_space_group_name_H-M "P -1"
_symmetry_group_IT_number 2
_symmetry_cell_setting 'triclinic'
loop_
_space_group_symop_operation_xyz
x,y,z
-x,-y,-z
loop_
_atom_site_type_symbol
_atom_site_label
_atom_site_fract_x
_atom_site_fract_y
_atom_site_fract_z
Si Si1 0.419505 0.234791 0.338540
Si Si2 0.599776 0.213590 0.972587
Si Si3 0.990392 0.847492 0.429158
Si Si4 0.840893 0.704851 0.290300
Si Si5 0.501402 0.542596 0.745507
Si Si6 0.158375 0.149847 0.204286
O O1 0.540135 0.220008 0.175570
O O2 0.360653 0.392173 0.304140
O O3 0.215941 0.256026 0.215334
O O4 0.608466 0.046278 0.618616
O O5 0.850304 0.033037 0.150117
O O6 0.411787 0.220899 0.842495
O O7 0.571723 0.381017 0.786539
O O8 0.867303 0.778504 0.407305
O O9 0.981053 0.853715 0.647553
O O10 0.246862 0.712017 0.520933
O O11 0.000000 0.500000 0.500000
O O12 0.918382 0.764969 0.081043
O O13 0.500000 0.500000 0.000000
#
# Coordination Sequence:
#
# PCOD9100108 Si02
#       6
#     2   2   2   2   2   2
#     4   8  17  36  60  89 130 155 199 265 298 354
#     4   9  19  36  59  93 120 160 209 244 304 371
#     4  11  22  39  71  88 120 172 202 249 317 358
#     4  11  21  39  63  93 130 156 204 268 301 357
#     4  10  20  37  62  94 128 161 202 256 306 368
#     4   9  20  38  64  95 116 161 214 248 304 370
#
# _framework density 27.127647
#
# number of rings (size 3 to 8) (size 9 to 14) (size 15 to 20)
#    0.000    2.333    1.667    1.500    0.000    6.667 
#    0.000    0.833    0.000    9.000    0.000    0.000 
#    0.000    0.000    0.000    0.000    0.000    0.000 
#
# Total GULP energy -67225.986729 kJ/mol
# GULP energy per Si atom -5602.165561 kJ/mol
# Density = 2.706590 g / cm^3
# Si number density = 27.127647 Si / 1000 Ang^3
#
#
#
# Elastic Constant Matrix: (Units=GPa)
#
#
# Indices 1 2 3 4 5 6 
#
# 1 73.2631 42.3289 26.6043 -2.6923 9.7605 16.7300
# 2 42.3289 113.9826 36.9781 -0.2191 2.3738 16.7740
# 3 26.6043 36.9781 128.3732 -4.1291 0.2038 -13.9030
# 4 -2.6923 -0.2191 -4.1291 43.4210 -8.1999 -9.8676
# 5 9.7605 2.3738 0.2038 -8.1999 45.9455 2.9046
# 6 16.7300 16.7740 -13.9030 -9.8676 2.9046 57.2661
#
#
#
# Elastic Compliance Matrix: (Units=1/GPa)
#
#
# Indices 1 2 3 4 5 6 
#
# 1 0.019448 -0.005474 -0.002993 -0.000888 -0.003692 -0.004770
# 2 -0.005474 0.012075 -0.002682 -0.001069 0.000537 -0.002800
# 3 -0.002993 -0.002682 0.009706 0.001849 0.000790 0.004295
# 4 -0.000888 -0.001069 0.001849 0.025142 0.004398 0.005130
# 5 -0.003692 0.000537 0.000790 0.004398 0.023259 0.000691
# 6 -0.004770 -0.002800 0.004295 0.005130 0.000691 0.021568
#
#
# Mechanical properties :
#
#
# Convention : Reuss Voigt Hill
#
# Bulk Modulus (GPa) = 52.82506 58.60463 55.71484
# Shear Modulus (GPa) = 35.76366 43.30702 39.53534
#
# Velocity S-wave (km/s) = 3.63484 3.99985 3.82171
# Velocity P-wave (km/s) = 6.09354 6.55606 6.32903
#
# Compressibility (1/GPa) = 0.01893041
#
# Stress axis : x y z
#
# Youngs Moduli (GPa) = 51.42049 82.81477 103.02822
#
# Poissons Ratio (x) = 0.45332 0.30835
# Poissons Ratio (y) = 0.28147 0.27636
# Poissons Ratio (z) = 0.15390 0.22214
#
# Static dielectric constant tensor:
#      x y z
#    x 2.264370 -0.040620 -0.043060 
#    y -0.040620 2.129340 0.004300 
#    z -0.043060 0.004300 2.082460 
# 
# From -- ./inp_files/185198.got.cif
#   From: 2010.05.17/outbox.cif.g08.bks.cpg/sg2_93_cif.got.tgz:185198.got - 2010.06.03 11:33:40.
