data_PCOD9100476
_publ_section_title
;
Structure prediction by ZEFSAII (Michael W. Deem and Ramdas Pophale) SiO2 
 PCOD9100476
Probable space group: P -1
;
_chemical_formula_sum "Si O2"
_cell_formula_units_Z 14
_cell_length_a 8.247888
_cell_length_b 9.236493
_cell_length_c 12.074249
_cell_angle_alpha 50.441223
_cell_angle_beta 118.533465
_cell_angle_gamma 120.133610
_cell_volume 595.870830
_symmetry_space_group_name_H-M "P -1"
_symmetry_group_IT_number 2
_symmetry_cell_setting 'triclinic'
loop_
_space_group_symop_operation_xyz
x,y,z
-x,-y,-z
loop_
_atom_site_type_symbol
_atom_site_label
_atom_site_fract_x
_atom_site_fract_y
_atom_site_fract_z
Si Si1 0.927840 0.595084 0.751573
Si Si2 0.258145 0.720444 0.983186
Si Si3 0.023965 0.057620 0.138239
Si Si4 0.050276 0.404325 0.676434
Si Si5 0.590008 0.732700 0.941085
Si Si6 0.239831 0.094379 0.421045
Si Si7 0.383609 0.749210 0.649778
O O1 0.853468 0.775553 0.596429
O O2 0.128233 0.658230 0.857792
O O3 0.939919 0.460430 0.717520
O O4 0.780432 0.466564 0.857415
O O5 0.478253 0.785212 0.983714
O O6 0.164794 0.869191 0.944658
O O7 0.179278 0.177817 0.039484
O O8 0.133370 0.113588 0.263273
O O9 0.986491 0.826190 0.231481
O O10 0.272970 0.520974 0.718023
O O11 0.000000 0.500000 0.500000
O O12 0.508612 0.819047 0.765585
O O13 0.500000 0.500000 0.000000
O O14 0.468967 0.191735 0.432533
O O15 0.226441 0.868508 0.543305
#
# Coordination Sequence:
#
# PCOD9100476 Si02
#       7
#     2   2   2   2   2   2   2
#     4  10  21  39  64  92 123 162 218 259 306 382
#     4  10  20  41  65  94 121 168 217 259 306 372
#     4  10  23  39  63  95 131 162 211 262 315 381
#     4  12  24  41  59  93 135 167 196 264 333 369
#     4  11  21  40  69  94 122 167 218 264 305 372
#     4   9  19  39  64  87 118 167 223 261 292 377
#     4  10  20  37  64  90 123 166 213 258 317 366
#
# _framework density 23.495025999999999
#
# number of rings (size 3 to 8) (size 9 to 14) (size 15 to 20)
#    0.000    1.714    2.857    3.429    0.000    2.286 
#    2.571    1.429    0.000    0.000    0.000    0.000 
#    0.000    0.000    0.000    0.000    0.000    0.000 
#
# Total GULP energy -78208.767196 kJ/mol
# GULP energy per Si atom -5586.340514 kJ/mol
# Density = 2.344155 g / cm^3
# Si number density = 23.495026 Si / 1000 Ang^3
#
#
#
# Elastic Constant Matrix: (Units=GPa)
#
#
# Indices 1 2 3 4 5 6 
#
# 1 170.4387 67.1625 25.4369 -23.6986 0.5282 -19.2581
# 2 67.1625 126.4876 28.4101 -39.1965 0.0844 -16.6557
# 3 25.4369 28.4101 77.7025 -7.9907 9.6059 -13.9709
# 4 -23.6986 -39.1965 -7.9907 47.6348 -7.5563 3.5887
# 5 0.5282 0.0844 9.6059 -7.5563 33.0195 -10.5088
# 6 -19.2581 -16.6557 -13.9709 3.5887 -10.5088 33.8690
#
#
#
# Elastic Compliance Matrix: (Units=1/GPa)
#
#
# Indices 1 2 3 4 5 6 
#
# 1 0.007717 -0.003217 -0.000911 0.001033 0.001248 0.002708
# 2 -0.003217 0.013766 -0.002785 0.009638 0.004343 0.004118
# 3 -0.000911 -0.002785 0.015123 -0.001023 -0.003543 0.003360
# 4 0.001033 0.009638 -0.001023 0.030298 0.008576 0.004356
# 5 0.001248 0.004343 -0.003543 0.008576 0.037058 0.011973
# 6 0.002708 0.004118 0.003360 0.004356 0.011973 0.037729
#
#
# Mechanical properties :
#
#
# Convention : Reuss Voigt Hill
#
# Bulk Modulus (GPa) = 43.90095 68.51643 56.20869
# Shear Modulus (GPa) = 30.65406 39.81262 35.23334
#
# Velocity S-wave (km/s) = 3.61599 4.12091 3.87668
# Velocity P-wave (km/s) = 6.01328 7.20194 6.63429
#
# Compressibility (1/GPa) = 0.02277855
#
# Stress axis : x y z
#
# Youngs Moduli (GPa) = 129.59184 72.64493 66.12413
#
# Poissons Ratio (x) = 0.23368 0.06025
# Poissons Ratio (y) = 0.41687 0.18418
# Poissons Ratio (z) = 0.11808 0.20234
#
# Static dielectric constant tensor:
#      x y z
#    x 1.955920 -0.001720 -0.018500 
#    y -0.001720 1.889750 0.005740 
#    z -0.018500 0.005740 1.958020 
# 
# From -- ./inp_files/208757.got.cif
#   From: 2010.05.17/outbox.cif.g08.bks.cpg/sg2_105_cif.got.tgz:208757.got - 2010.06.03 11:33:40.
