data_PCOD9100265
_publ_section_title
;
Structure prediction by ZEFSAII (Michael W. Deem and Ramdas Pophale) SiO2 
 PCOD9100265
Probable space group: P -1
;
_chemical_formula_sum "Si O2"
_cell_formula_units_Z 11
_cell_length_a 13.100911
_cell_length_b 9.983814
_cell_length_c 11.606636
_cell_angle_alpha 143.107073
_cell_angle_beta 31.408908
_cell_angle_gamma 144.054913
_cell_volume 434.046303
_symmetry_space_group_name_H-M "P -1"
_symmetry_group_IT_number 2
_symmetry_cell_setting 'triclinic'
loop_
_space_group_symop_operation_xyz
x,y,z
-x,-y,-z
loop_
_atom_site_type_symbol
_atom_site_label
_atom_site_fract_x
_atom_site_fract_y
_atom_site_fract_z
Si Si1 0.500000 0.500000 0.500000
Si Si2 0.075079 0.464695 0.772756
Si Si3 0.654539 0.062338 0.784372
Si Si4 0.146457 0.363266 0.304332
Si Si5 0.440509 0.499123 0.896906
Si Si6 0.950382 0.864464 0.078496
O O1 0.297404 0.450435 0.572965
O O2 0.585438 0.801608 0.613479
O O3 0.085770 0.705828 0.861393
O O4 0.893291 0.232697 0.721726
O O5 0.000000 0.500000 0.000000
O O6 0.580172 0.243877 0.907730
O O7 0.500000 0.000000 0.000000
O O8 0.319341 0.479966 0.317189
O O9 0.000000 0.500000 0.500000
O O10 0.307774 0.371871 0.051302
O O11 0.999692 0.080516 0.270492
O O12 0.292443 0.338334 0.826520
O O13 0.000000 0.000000 0.000000
#
# Coordination Sequence:
#
# PCOD9100265 Si02
#       6
#     1   2   2   2   2   2
#     4  12  24  42  68  96 130 174 214 272 332 388
#     4  11  23  42  67  97 130 171 219 270 327 390
#     4  11  23  44  64  94 133 173 215 268 324 386
#     4  10  20  37  63  91 116 161 206 255 320 380
#     4   9  21  41  59  85 128 156 204 266 309 374
#     4   9  20  41  62  85 127 164 202 265 315 371
#
# _framework density 25.342918000000001
#
# number of rings (size 3 to 8) (size 9 to 14) (size 15 to 20)
#    0.000    1.818    1.818    1.636    0.000    2.182 
#    9.818    0.000    0.000    0.000    0.000    0.000 
#    0.000    0.000    0.000    0.000    0.000    0.000 
#
# Total GULP energy -61236.832627 kJ/mol
# GULP energy per Si atom -5566.984784 kJ/mol
# Density = 2.528524 g / cm^3
# Si number density = 25.342918 Si / 1000 Ang^3
#
#
#
# Elastic Constant Matrix: (Units=GPa)
#
#
# Indices 1 2 3 4 5 6 
#
# 1 101.3502 25.8644 47.1607 -0.3691 -36.2700 23.5359
# 2 25.8644 153.3624 56.0564 32.9695 -30.8122 34.3302
# 3 47.1607 56.0564 78.1842 10.2461 -23.0376 27.3472
# 4 -0.3691 32.9695 10.2461 44.9518 3.6184 -2.1605
# 5 -36.2700 -30.8122 -23.0376 3.6184 66.8456 -15.8311
# 6 23.5359 34.3302 27.3472 -2.1605 -15.8311 62.2916
#
#
#
# Elastic Compliance Matrix: (Units=1/GPa)
#
#
# Indices 1 2 3 4 5 6 
#
# 1 0.016048 0.002170 -0.008741 -0.000060 0.006264 -0.001832
# 2 0.002170 0.011719 -0.006209 -0.007664 0.003951 -0.003815
# 3 -0.008741 -0.006209 0.023965 -0.001151 -0.000204 -0.003889
# 4 -0.000060 -0.007664 -0.001151 0.028707 -0.004421 0.004624
# 5 0.006264 0.003951 -0.000204 -0.004421 0.020491 0.000600
# 6 -0.001832 -0.003815 -0.003889 0.004624 0.000600 0.020868
#
#
# Mechanical properties :
#
#
# Convention : Reuss Voigt Hill
#
# Bulk Modulus (GPa) = 38.20823 65.67331 51.94077
# Shear Modulus (GPa) = 32.03453 48.40549 40.22001
#
# Velocity S-wave (km/s) = 3.55920 4.37512 3.98808
# Velocity P-wave (km/s) = 5.65683 7.17582 6.46112
#
# Compressibility (1/GPa) = 0.02617237
#
# Stress axis : x y z
#
# Youngs Moduli (GPa) = 62.31485 85.33111 41.72677
#
# Poissons Ratio (x) = -0.18519 0.36475
# Poissons Ratio (y) = -0.13524 0.25906
# Poissons Ratio (z) = 0.54472 0.52978
#
# Static dielectric constant tensor:
#      x y z
#    x 2.006720 0.176020 0.089900 
#    y 0.176020 1.999570 0.015720 
#    z 0.089900 0.015720 2.052000 
# 
# From -- ./inp_files/161951.got.cif
#   From: 2010.05.17/outbox.cif.g08.bks.cpg/sg2_81_cif.got.tgz:161951.got - 2010.06.03 11:33:40.
