data_PCOD9100205
_publ_section_title
;
Structure prediction by ZEFSAII (Michael W. Deem and Ramdas Pophale) SiO2 
 PCOD9100205
Probable space group: P -1
;
_chemical_formula_sum "Si O2"
_cell_formula_units_Z 16
_cell_length_a 15.541387
_cell_length_b 11.634109
_cell_length_c 8.696365
_cell_angle_alpha 42.568636
_cell_angle_beta 124.050807
_cell_angle_gamma 103.930519
_cell_volume 838.970197
_symmetry_space_group_name_H-M "P -1"
_symmetry_group_IT_number 2
_symmetry_cell_setting 'triclinic'
loop_
_space_group_symop_operation_xyz
x,y,z
-x,-y,-z
loop_
_atom_site_type_symbol
_atom_site_label
_atom_site_fract_x
_atom_site_fract_y
_atom_site_fract_z
Si Si1 0.760740 0.707320 0.233514
Si Si2 0.630420 0.424887 0.023303
Si Si3 0.771241 0.076254 0.011222
Si Si4 0.622993 0.448628 0.362883
Si Si5 0.233903 0.955521 0.598271
Si Si6 0.996474 0.446697 0.370701
Si Si7 0.233041 0.310071 0.115940
Si Si8 0.008517 0.953923 0.233541
O O1 0.674183 0.607919 0.291257
O O2 0.880623 0.588476 0.530273
O O3 0.740661 0.908054 0.073885
O O4 0.765890 0.711557 0.047737
O O5 0.633911 0.417931 0.219661
O O6 0.691119 0.230188 0.211776
O O7 0.504351 0.494011 0.781152
O O8 0.694842 0.561432 0.903051
O O9 0.770525 0.057913 0.210802
O O10 0.690842 0.265175 0.691076
O O11 0.893727 0.056590 0.095588
O O12 0.112523 0.993057 0.370950
O O13 0.274872 0.118761 0.424454
O O14 0.975079 0.256528 0.526749
O O15 0.000000 0.500000 0.500000
O O16 0.892172 0.593609 0.052873
O O17 0.000000 0.000000 0.000000
#
# Coordination Sequence:
#
# PCOD9100205 Si02
#       8
#     2   2   2   2   2   2   2   2
#     4   9  20  38  59  90 118 157 207 253 304 357
#     4  10  22  42  65  94 113 160 219 257 305 350
#     4  11  25  39  57  93 130 161 199 246 317 373
#     4  10  22  41  68  87 120 159 212 267 295 360
#     4  12  24  39  59  91 130 164 197 249 313 374
#     4   9  17  32  57  92 115 148 198 249 303 352
#     4  10  20  37  63  87 121 158 207 256 300 360
#     4  11  21  38  64  90 125 159 208 254 297 365
#
# _framework density 19.070997999999999
#
# number of rings (size 3 to 8) (size 9 to 14) (size 15 to 20)
#    0.000    1.750    1.250    4.125    5.250    2.500 
#    0.000    6.250    0.000    0.000    0.000    0.000 
#    0.000    0.000    0.000    0.000    0.000    0.000 
#
# Total GULP energy -89386.170352 kJ/mol
# GULP energy per Si atom -5586.635647 kJ/mol
# Density = 1.902759 g / cm^3
# Si number density = 19.070998 Si / 1000 Ang^3
#
#
#
# Elastic Constant Matrix: (Units=GPa)
#
#
# Indices 1 2 3 4 5 6 
#
# 1 88.3739 32.3731 69.1497 -11.9225 10.2710 11.3784
# 2 32.3731 7.8290 55.6320 -22.6508 -2.4469 6.6601
# 3 69.1497 55.6320 126.8442 -23.7660 10.0332 8.5108
# 4 -11.9225 -22.6508 -23.7660 20.8988 -1.4782 -4.5543
# 5 10.2710 -2.4469 10.0332 -1.4782 16.9598 0.1511
# 6 11.3784 6.6601 8.5108 -4.5543 0.1511 13.0846
#
#
#
# Elastic Compliance Matrix: (Units=1/GPa)
#
#
# Indices 1 2 3 4 5 6 
#
# 1 0.021868 0.003417 -0.012310 -0.001050 -0.005443 -0.013051
# 2 0.003417 -0.034751 0.009776 -0.025761 -0.015108 -0.000434
# 3 -0.012310 0.009776 0.013609 0.020063 0.002529 0.003831
# 4 -0.001050 -0.025761 0.020063 0.045009 -0.011176 0.016771
# 5 -0.005443 -0.015108 0.002529 -0.011176 0.057554 0.006223
# 6 -0.013051 -0.000434 0.003831 0.016771 0.006223 0.091269
#
#
# Mechanical properties :
#
#
# Convention : Reuss Voigt Hill
#
# Bulk Modulus (GPa) = 401.52401 59.70631 230.61516
# Shear Modulus (GPa) = 25.82354 14.58147 20.20250
#
# Velocity S-wave (km/s) = 3.68377 2.76812 3.25827
# Velocity P-wave (km/s) = 15.13579 6.44919 11.63366
#
# Compressibility (1/GPa) = 0.00249051
#
# Stress axis : x y z
#
# Youngs Moduli (GPa) = 45.72981 -28.77577 73.48132
#
# Poissons Ratio (x) = 0.09832 0.90458
# Poissons Ratio (y) = -0.15626 -0.71836
# Poissons Ratio (z) = 0.56295 0.28132
#
# Static dielectric constant tensor:
#      x y z
#    x 1.651980 0.006900 0.012120 
#    y 0.006900 1.652410 0.001990 
#    z 0.012120 0.001990 1.637600 
# 
# From -- ./inp_files/258547.got.cif
#   From: 2010.05.17/outbox.cif.g08.bks.cpg/sg2_130_cif.got.tgz:258547.got - 2010.06.03 11:33:40.
