data_PCOD9100332
_publ_section_title
;
Structure prediction by ZEFSAII (Michael W. Deem and Ramdas Pophale) SiO2 
 PCOD9100332
Probable space group: P -1
;
_chemical_formula_sum "Si O2"
_cell_formula_units_Z 14
_cell_length_a 15.026653
_cell_length_b 7.800613
_cell_length_c 11.345434
_cell_angle_alpha 48.918669
_cell_angle_beta 147.905633
_cell_angle_gamma 115.149577
_cell_volume 502.977016
_symmetry_space_group_name_H-M "P -1"
_symmetry_group_IT_number 2
_symmetry_cell_setting 'triclinic'
loop_
_space_group_symop_operation_xyz
x,y,z
-x,-y,-z
loop_
_atom_site_type_symbol
_atom_site_label
_atom_site_fract_x
_atom_site_fract_y
_atom_site_fract_z
Si Si1 0.813948 0.293089 0.771151
Si Si2 0.664996 0.353083 0.166350
Si Si3 0.963107 0.790419 0.248843
Si Si4 0.281731 0.833636 0.039826
Si Si5 0.100011 0.466514 0.942507
Si Si6 0.633290 0.882313 0.407142
Si Si7 0.477088 0.794138 0.649651
O O1 0.684774 0.303695 0.732088
O O2 0.709030 0.244558 0.565226
O O3 0.900099 0.498497 0.752746
O O4 0.098138 0.332547 0.876164
O O5 0.847289 0.362429 0.421281
O O6 0.693792 0.068669 0.309605
O O7 0.500000 0.500000 0.000000
O O8 0.614208 0.527496 0.918016
O O9 0.968644 0.045186 0.086748
O O10 0.833940 0.896495 0.167974
O O11 0.148942 0.710330 0.886658
O O12 0.472557 0.802137 0.210692
O O13 0.231370 0.297455 0.266204
O O14 0.518232 0.082115 0.278783
O O15 0.500000 0.000000 0.500000
#
# Coordination Sequence:
#
# PCOD9100332 Si02
#       7
#     2   2   2   2   2   2   2
#     4  10  20  37  63  93 128 167 224 267 318 397
#     4  10  22  37  68  96 132 177 215 274 342 387
#     4  10  21  40  63  96 131 175 224 271 330 395
#     4  10  23  35  63 101 130 173 224 275 319 399
#     4  12  20  36  67  95 135 180 220 267 335 396
#     4  11  19  38  59  97 138 165 223 277 326 396
#     4  11  20  39  67  98 128 170 225 272 327 403
#
# _framework density 27.834275999999999
#
# number of rings (size 3 to 8) (size 9 to 14) (size 15 to 20)
#    0.857    0.571    4.286    3.000    0.000    0.000 
#    0.000    6.429    0.000   17.143    0.000    0.000 
#    0.000    0.000    0.000    0.000    0.000    0.000 
#
# Total GULP energy -78086.870239 kJ/mol
# GULP energy per Si atom -5577.633589 kJ/mol
# Density = 2.777092 g / cm^3
# Si number density = 27.834276 Si / 1000 Ang^3
#
#
#
# Elastic Constant Matrix: (Units=GPa)
#
#
# Indices 1 2 3 4 5 6 
#
# 1 35.5479 12.1588 -3.1481 3.8061 -0.4637 -11.2833
# 2 12.1588 180.5641 60.6569 21.1320 -13.8694 -6.0656
# 3 -3.1481 60.6569 168.0744 2.8762 2.1658 5.4055
# 4 3.8061 21.1320 2.8762 56.5039 13.6742 4.9731
# 5 -0.4637 -13.8694 2.1658 13.6742 23.8460 4.3846
# 6 -11.2833 -6.0656 5.4055 4.9731 4.3846 45.2810
#
#
#
# Elastic Compliance Matrix: (Units=1/GPa)
#
#
# Indices 1 2 3 4 5 6 
#
# 1 0.031603 -0.002132 0.001157 -0.001801 -0.001124 0.007758
# 2 -0.002132 0.007723 -0.002864 -0.004373 0.007101 0.000638
# 3 0.001157 -0.002864 0.007045 0.001419 -0.002949 -0.000807
# 4 -0.001801 -0.004373 0.001419 0.023380 -0.015701 -0.002252
# 5 -0.001124 0.007101 -0.002949 -0.015701 0.055804 -0.002656
# 6 0.007758 0.000638 -0.000807 -0.002252 -0.002656 0.024704
#
#
# Mechanical properties :
#
#
# Convention : Reuss Voigt Hill
#
# Bulk Modulus (GPa) = 25.84440 58.16908 42.00674
# Shear Modulus (GPa) = 29.26821 46.09410 37.68116
#
# Velocity S-wave (km/s) = 3.24623 4.07384 3.68335
# Velocity P-wave (km/s) = 4.83280 6.56292 5.76315
#
# Compressibility (1/GPa) = 0.03869311
#
# Stress axis : x y z
#
# Youngs Moduli (GPa) = 31.64221 129.49027 141.95032
#
# Poissons Ratio (x) = 0.27604 -0.16425
# Poissons Ratio (y) = 0.06745 0.40657
# Poissons Ratio (z) = -0.03661 0.37088
#
# Static dielectric constant tensor:
#      x y z
#    x 2.521770 0.259890 -0.091030 
#    y 0.259890 2.471020 -0.188370 
#    z -0.091030 -0.188370 2.196700 
# 
# From -- ./inp_files/579141.got.cif
#   From: 2010.05.17/outbox.cif.g08.bks.cpg/sg2_290_cif.got.tgz:579141.got - 2010.06.03 11:33:40.
