data_PCOD9100223
_publ_section_title
;
Structure prediction by ZEFSAII (Michael W. Deem and Ramdas Pophale) SiO2 
 PCOD9100223
Probable space group: P -1
;
_chemical_formula_sum "Si O2"
_cell_formula_units_Z 16
_cell_length_a 9.384085
_cell_length_b 11.453835
_cell_length_c 12.159289
_cell_angle_alpha 74.709163
_cell_angle_beta 110.982841
_cell_angle_gamma 51.517024
_cell_volume 712.796360
_symmetry_space_group_name_H-M "P -1"
_symmetry_group_IT_number 2
_symmetry_cell_setting 'triclinic'
loop_
_space_group_symop_operation_xyz
x,y,z
-x,-y,-z
loop_
_atom_site_type_symbol
_atom_site_label
_atom_site_fract_x
_atom_site_fract_y
_atom_site_fract_z
Si Si1 0.357564 0.968488 0.252251
Si Si2 0.773454 0.071502 0.980150
Si Si3 0.794328 0.373908 0.736534
Si Si4 0.765617 0.912707 0.401446
Si Si5 0.378669 0.775208 0.864787
Si Si6 0.157954 0.960285 0.406753
Si Si7 0.114716 0.559110 0.039326
Si Si8 0.288899 0.592945 0.546036
O O1 0.287218 0.921831 0.340735
O O2 0.578491 0.919291 0.358182
O O3 0.409885 0.865513 0.178883
O O4 0.104484 0.206179 0.102204
O O5 0.933528 0.859734 0.129910
O O6 0.641311 0.217093 0.010892
O O7 0.000000 0.000000 0.000000
O O8 0.800502 0.476549 0.801668
O O9 0.579091 0.413799 0.706826
O O10 0.726779 0.443823 0.574593
O O11 0.757083 0.008026 0.479011
O O12 0.053676 0.686850 0.522191
O O13 0.675063 0.054546 0.239052
O O14 0.645421 0.569935 0.939784
O O15 0.144797 0.844992 0.736924
O O16 0.224387 0.777887 0.485939
O O17 0.000000 0.500000 0.000000
#
# Coordination Sequence:
#
# PCOD9100223 Si02
#       8
#     2   2   2   2   2   2   2   2
#     4  11  24  38  63  88 125 164 195 250 310 355
#     4  11  21  42  64  89 124 156 203 253 299 362
#     4  10  20  37  63  89 116 157 203 245 297 358
#     4  11  21  37  60  92 118 157 205 245 301 362
#     4  11  21  40  65  88 117 165 202 247 304 354
#     4  11  21  39  62  88 121 160 200 252 302 352
#     4  11  23  38  57  93 127 154 199 253 301 356
#     4  10  20  37  64  89 114 157 209 249 287 362
#
# _framework density 22.446802000000002
#
# number of rings (size 3 to 8) (size 9 to 14) (size 15 to 20)
#    0.000    1.250    5.000    3.375    0.000    2.000 
#    2.250    0.000    0.000    3.750    0.000    0.000 
#    0.000    0.000    0.000    0.000    0.000    0.000 
#
# Total GULP energy -89487.927022 kJ/mol
# GULP energy per Si atom -5592.995439 kJ/mol
# Density = 2.239571 g / cm^3
# Si number density = 22.446802 Si / 1000 Ang^3
#
#
#
# Elastic Constant Matrix: (Units=GPa)
#
#
# Indices 1 2 3 4 5 6 
#
# 1 62.9371 3.8169 39.9208 6.5336 29.8184 1.2676
# 2 3.8169 97.1194 58.1400 23.6770 19.9519 -7.5926
# 3 39.9208 58.1400 94.9966 31.7975 27.3401 -10.4685
# 4 6.5336 23.6770 31.7975 44.4906 -0.7304 4.2412
# 5 29.8184 19.9519 27.3401 -0.7304 37.6188 -1.4590
# 6 1.2676 -7.5926 -10.4685 4.2412 -1.4590 24.5778
#
#
#
# Elastic Compliance Matrix: (Units=1/GPa)
#
#
# Indices 1 2 3 4 5 6 
#
# 1 0.038822 0.014142 -0.018729 0.000432 -0.024931 -0.007165
# 2 0.014142 0.021844 -0.014745 -0.003324 -0.012159 -0.000410
# 3 -0.018729 -0.014745 0.034929 -0.015727 -0.002487 0.013854
# 4 0.000432 -0.003324 -0.015727 0.036909 0.013050 -0.013342
# 5 -0.024931 -0.012159 -0.002487 0.013050 0.054755 -0.002531
# 6 -0.007165 -0.000410 0.013854 -0.013342 -0.002531 0.048983
#
#
# Mechanical properties :
#
#
# Convention : Reuss Voigt Hill
#
# Bulk Modulus (GPa) = 17.56506 50.97873 34.27189
# Shear Modulus (GPa) = 17.01356 31.54913 24.28134
#
# Velocity S-wave (km/s) = 2.75608 3.75308 3.29253
# Velocity P-wave (km/s) = 4.23912 6.44523 5.45487
#
# Compressibility (1/GPa) = 0.05693122
#
# Stress axis : x y z
#
# Youngs Moduli (GPa) = 25.75858 45.77839 28.62982
#
# Poissons Ratio (x) = -0.64742 0.53620
# Poissons Ratio (y) = -0.36429 0.42216
# Poissons Ratio (z) = 0.48243 0.67502
#
# Static dielectric constant tensor:
#      x y z
#    x 1.810810 0.009400 -0.033070 
#    y 0.009400 1.856680 -0.036550 
#    z -0.033070 -0.036550 1.867160 
# 
# From -- ./inp_files/274715.got.cif
#   From: 2010.05.17/outbox.cif.g08.bks.cpg/sg2_138_cif.got.tgz:274715.got - 2010.06.03 11:33:40.
