data_PCOD9100437
_publ_section_title
;
Structure prediction by ZEFSAII (Michael W. Deem and Ramdas Pophale) SiO2 
 PCOD9100437
Probable space group: P -1
;
_chemical_formula_sum "Si O2"
_cell_formula_units_Z 16
_cell_length_a 19.210572
_cell_length_b 8.861540
_cell_length_c 7.724710
_cell_angle_alpha 132.431579
_cell_angle_beta 83.877917
_cell_angle_gamma 124.051519
_cell_volume 720.798698
_symmetry_space_group_name_H-M "P -1"
_symmetry_group_IT_number 2
_symmetry_cell_setting 'triclinic'
loop_
_space_group_symop_operation_xyz
x,y,z
-x,-y,-z
loop_
_atom_site_type_symbol
_atom_site_label
_atom_site_fract_x
_atom_site_fract_y
_atom_site_fract_z
Si Si1 0.809810 0.870489 0.985529
Si Si2 0.905356 0.249342 0.558766
Si Si3 0.202986 0.908042 0.178309
Si Si4 0.405644 0.183559 0.275213
Si Si5 0.371178 0.208733 0.939443
Si Si6 0.088419 0.303563 0.149910
Si Si7 0.061632 0.321682 0.766033
Si Si8 0.458341 0.136300 0.567618
O O1 0.879668 0.032030 0.254831
O O2 0.719485 0.823575 0.036182
O O3 0.833456 0.010809 0.899912
O O4 0.817455 0.639989 0.788070
O O5 0.832948 0.111406 0.633707
O O6 0.906672 0.455194 0.598463
O O7 0.000358 0.376487 0.730627
O O8 0.314759 0.135309 0.319242
O O9 0.165962 0.605345 0.908145
O O10 0.500000 0.500000 0.500000
O O11 0.420755 0.046856 0.312937
O O12 0.384024 0.086987 0.008690
O O13 0.379559 0.084870 0.672207
O O14 0.457155 0.535975 0.182433
O O15 0.071532 0.328427 0.974157
O O16 0.000000 0.000000 0.000000
O O17 0.000000 0.000000 0.500000
O O18 0.500000 0.000000 0.500000
#
# Coordination Sequence:
#
# PCOD9100437 Si02
#       8
#     2   2   2   2   2   2   2   2
#     4  11  22  39  61  87 122 159 205 253 300 362
#     4  11  23  40  60  86 125 164 201 254 311 354
#     4  10  22  39  61  89 121 161 205 250 302 369
#     4   9  19  39  63  86 123 158 194 252 307 356
#     4   9  21  38  58  89 120 155 198 247 303 364
#     4  11  23  38  61  88 117 162 210 251 302 365
#     4  11  22  39  58  84 125 161 203 250 304 357
#     4  10  20  37  64  88 119 157 197 247 306 358
#
# _framework density 22.197600000000001
#
# number of rings (size 3 to 8) (size 9 to 14) (size 15 to 20)
#    0.000    1.750    1.250    3.750    1.750    4.500 
#    0.000    0.000    5.500    0.000    0.000    0.000 
#    0.000    0.000    0.000    0.000    0.000    0.000 
#
# Total GULP energy -89085.725641 kJ/mol
# GULP energy per Si atom -5567.857853 kJ/mol
# Density = 2.214708 g / cm^3
# Si number density = 22.197600 Si / 1000 Ang^3
#
#
#
# Elastic Constant Matrix: (Units=GPa)
#
#
# Indices 1 2 3 4 5 6 
#
# 1 128.5059 58.1552 15.5480 0.9437 4.7727 -18.1039
# 2 58.1552 112.9479 21.6738 -13.1151 5.3318 -11.5223
# 3 15.5480 21.6738 33.7294 -3.3848 6.5108 -1.6315
# 4 0.9437 -13.1151 -3.3848 25.7026 -6.0123 11.8329
# 5 4.7727 5.3318 6.5108 -6.0123 31.8489 3.7589
# 6 -18.1039 -11.5223 -1.6315 11.8329 3.7589 46.9149
#
#
#
# Elastic Compliance Matrix: (Units=1/GPa)
#
#
# Indices 1 2 3 4 5 6 
#
# 1 0.011312 -0.005666 -0.001554 -0.006148 -0.002137 0.004642
# 2 -0.005666 0.013523 -0.005642 0.007076 0.001185 -0.000941
# 3 -0.001554 -0.005642 0.035159 0.000656 -0.005832 -0.000461
# 4 -0.006148 0.007076 0.000656 0.052202 0.011189 -0.014675
# 5 -0.002137 0.001185 -0.005832 0.011189 0.035581 -0.006409
# 6 0.004642 -0.000941 -0.000461 -0.014675 -0.006409 0.027074
#
#
# Mechanical properties :
#
#
# Convention : Reuss Voigt Hill
#
# Bulk Modulus (GPa) = 29.17936 51.77081 40.47509
# Shear Modulus (GPa) = 23.58505 32.88037 28.23271
#
# Velocity S-wave (km/s) = 3.26314 3.85289 3.57021
# Velocity P-wave (km/s) = 5.23176 6.57011 5.93875
#
# Compressibility (1/GPa) = 0.03427080
#
# Stress axis : x y z
#
# Youngs Moduli (GPa) = 88.39995 73.94648 28.44239
#
# Poissons Ratio (x) = 0.41897 0.04419
# Poissons Ratio (y) = 0.50086 0.16048
# Poissons Ratio (z) = 0.13734 0.41723
#
# Static dielectric constant tensor:
#      x y z
#    x 1.849260 -0.010160 -0.052650 
#    y -0.010160 1.885140 0.086870 
#    z -0.052650 0.086870 1.939260 
# 
# From -- ./inp_files/207219.got.cif
#   From: 2010.05.17/outbox.cif.g08.bks.cpg/sg2_104_cif.got.tgz:207219.got - 2010.06.03 11:33:40.
