data_PCOD9100951
_publ_section_title
;
Structure prediction by ZEFSAII (Michael W. Deem and Ramdas Pophale) SiO2 
 PCOD9100951
Probable space group: P -1
;
_chemical_formula_sum "Si O2"
_cell_formula_units_Z 14
_cell_length_a 10.536519
_cell_length_b 17.563312
_cell_length_c 11.766814
_cell_angle_alpha 141.715312
_cell_angle_beta 126.976006
_cell_angle_gamma 26.523916
_cell_volume 561.037041
_symmetry_space_group_name_H-M "P -1"
_symmetry_group_IT_number 2
_symmetry_cell_setting 'triclinic'
loop_
_space_group_symop_operation_xyz
x,y,z
-x,-y,-z
loop_
_atom_site_type_symbol
_atom_site_label
_atom_site_fract_x
_atom_site_fract_y
_atom_site_fract_z
Si Si1 0.595510 0.272457 0.040056
Si Si2 0.500098 0.114919 0.047768
Si Si3 0.816930 0.511610 0.141681
Si Si4 0.936284 0.910233 0.214171
Si Si5 0.236238 0.976031 0.484586
Si Si6 0.244293 0.569500 0.405367
Si Si7 0.000466 0.209692 0.248640
O O1 0.438446 0.355479 0.174820
O O2 0.719456 0.330601 0.172043
O O3 0.359249 0.395633 0.961317
O O4 0.869791 0.995108 0.852930
O O5 0.141640 0.359125 0.114665
O O6 0.668437 0.104603 0.205869
O O7 0.500000 0.000000 0.000000
O O8 0.728495 0.930099 0.851440
O O9 0.590289 0.741125 0.365784
O O10 0.877314 0.333117 0.009942
O O11 0.815556 0.963102 0.338788
O O12 0.128927 0.906736 0.322199
O O13 0.019849 0.202852 0.554227
O O14 0.500000 0.500000 0.500000
O O15 0.096308 0.633891 0.522156
#
# Coordination Sequence:
#
# PCOD9100951 Si02
#       7
#     2   2   2   2   2   2   2
#     4  10  20  37  67  94 119 154 206 266 307 356
#     4  10  24  43  61  87 130 171 203 245 307 381
#     4  11  21  40  62  89 127 164 205 248 310 367
#     4  10  23  40  61  90 127 161 213 253 304 362
#     4  11  21  39  66  94 120 161 209 265 301 357
#     4  10  21  37  62  97 121 148 205 264 313 353
#     4  10  21  40  64  89 123 160 205 259 310 357
#
# _framework density 24.953790000000001
#
# number of rings (size 3 to 8) (size 9 to 14) (size 15 to 20)
#    0.000    1.714    2.857    1.286    4.000    2.286 
#    5.143    3.571    0.000    0.000    0.000    0.000 
#    0.000    0.000    0.000    0.000    0.000    0.000 
#
# Total GULP energy -78298.073793 kJ/mol
# GULP energy per Si atom -5592.719557 kJ/mol
# Density = 2.489699 g / cm^3
# Si number density = 24.953790 Si / 1000 Ang^3
#
#
#
# Elastic Constant Matrix: (Units=GPa)
#
#
# Indices 1 2 3 4 5 6 
#
# 1 70.8334 26.5351 29.4708 0.9772 -35.0218 -20.7673
# 2 26.5351 150.1471 37.7625 3.3216 -27.2712 -7.6957
# 3 29.4708 37.7625 120.8172 17.4561 -33.0213 -1.0717
# 4 0.9772 3.3216 17.4561 34.8743 -0.4562 -9.0936
# 5 -35.0218 -27.2712 -33.0213 -0.4562 53.2740 4.6611
# 6 -20.7673 -7.6957 -1.0717 -9.0936 4.6611 38.6517
#
#
#
# Elastic Compliance Matrix: (Units=1/GPa)
#
#
# Indices 1 2 3 4 5 6 
#
# 1 0.026384 -0.000810 -0.002870 0.004422 0.014026 0.013284
# 2 -0.000810 0.007665 -0.001605 0.000348 0.002325 0.000848
# 3 -0.002870 -0.001605 0.011702 -0.006512 0.004808 -0.003649
# 4 0.004422 0.000348 -0.006512 0.034514 -0.001582 0.010575
# 5 0.014026 0.002325 0.004808 -0.001582 0.031805 0.003925
# 6 0.013284 0.000848 -0.003649 0.010575 0.003925 0.035092
#
#
# Mechanical properties :
#
#
# Convention : Reuss Voigt Hill
#
# Bulk Modulus (GPa) = 28.42591 58.81495 43.62043
# Shear Modulus (GPa) = 29.50569 41.89528 35.70049
#
# Velocity S-wave (km/s) = 3.44235 4.10190 3.78652
# Velocity P-wave (km/s) = 5.21688 6.78637 6.05272
#
# Compressibility (1/GPa) = 0.03517918
#
# Stress axis : x y z
#
# Youngs Moduli (GPa) = 37.90204 130.46100 85.45899
#
# Poissons Ratio (x) = 0.10571 0.24526
# Poissons Ratio (y) = 0.03071 0.13720
# Poissons Ratio (z) = 0.10877 0.20945
#
# Static dielectric constant tensor:
#      x y z
#    x 2.181870 0.059810 0.054780 
#    y 0.059810 2.042180 0.050420 
#    z 0.054780 0.050420 1.982000 
# 
# From -- ./inp_files/246513.got.cif
#   From: 2010.05.17/outbox.cif.g08.bks.cpg/sg2_124_cif.got.tgz:246513.got - 2010.06.03 11:33:40.
