data_PCOD9100345
_publ_section_title
;
Structure prediction by ZEFSAII (Michael W. Deem and Ramdas Pophale) SiO2 
 PCOD9100345
Probable space group: P -1
;
_chemical_formula_sum "Si O2"
_cell_formula_units_Z 16
_cell_length_a 17.607287
_cell_length_b 11.662862
_cell_length_c 11.120745
_cell_angle_alpha 99.896771
_cell_angle_beta 161.055345
_cell_angle_gamma 71.092727
_cell_volume 630.444304
_symmetry_space_group_name_H-M "P -1"
_symmetry_group_IT_number 2
_symmetry_cell_setting 'triclinic'
loop_
_space_group_symop_operation_xyz
x,y,z
-x,-y,-z
loop_
_atom_site_type_symbol
_atom_site_label
_atom_site_fract_x
_atom_site_fract_y
_atom_site_fract_z
Si Si1 0.017013 0.033968 0.671120
Si Si2 0.105733 0.805824 0.923618
Si Si3 0.142427 0.676132 0.191222
Si Si4 0.083372 0.277394 0.883705
Si Si5 0.372043 0.596074 0.091198
Si Si6 0.426675 0.193233 0.930968
Si Si7 0.218474 0.425263 0.477872
Si Si8 0.168195 0.351233 0.791675
O O1 0.114752 0.141378 0.852445
O O2 0.718545 0.105705 0.296178
O O3 0.000000 0.000000 0.500000
O O4 0.177822 0.903105 0.974293
O O5 0.790382 0.851887 0.432561
O O6 0.127392 0.784667 0.094356
O O7 0.281549 0.660107 0.097921
O O8 0.455926 0.566755 0.670743
O O9 0.934203 0.744506 0.002488
O O10 0.040338 0.581549 0.957885
O O11 0.821081 0.429906 0.524490
O O12 0.248839 0.322382 0.048239
O O13 0.567221 0.633893 0.319195
O O14 0.096382 0.666945 0.615430
O O15 0.314135 0.335528 0.721286
O O16 0.395791 0.232555 0.030631
O O17 0.000000 0.500000 0.500000
#
# Coordination Sequence:
#
# PCOD9100345 Si02
#       8
#     2   2   2   2   2   2   2   2
#     4  12  25  42  66  90 127 173 218 259 310 378
#     4  10  22  41  61  91 128 171 213 254 306 387
#     4  10  23  41  65  93 128 168 212 265 320 374
#     4  11  23  39  62  91 128 162 209 259 325 365
#     4  10  20  37  63  94 124 165 207 266 327 364
#     4  10  21  39  66  92 124 164 206 271 325 363
#     4  10  20  39  65  95 127 159 210 267 321 380
#     4  11  22  36  61  99 132 149 207 268 326 376
#
# _framework density 25.378927000000001
#
# number of rings (size 3 to 8) (size 9 to 14) (size 15 to 20)
#    0.000    1.500    1.250    5.250    3.500    3.000 
#    2.250    0.000    0.000   12.750    0.000    0.000 
#    0.000    0.000    0.000    0.000    0.000    0.000 
#
# Total GULP energy -89207.244656 kJ/mol
# GULP energy per Si atom -5575.452791 kJ/mol
# Density = 2.532116 g / cm^3
# Si number density = 25.378927 Si / 1000 Ang^3
#
#
#
# Elastic Constant Matrix: (Units=GPa)
#
#
# Indices 1 2 3 4 5 6 
#
# 1 186.4228 19.8068 -9.7637 -13.2816 -4.1057 -2.1952
# 2 19.8068 87.7790 -14.0601 0.8478 -17.7191 14.2896
# 3 -9.7637 -14.0601 32.6285 7.3444 7.3925 -17.9629
# 4 -13.2816 0.8478 7.3444 13.5416 -1.5118 0.7012
# 5 -4.1057 -17.7191 7.3925 -1.5118 38.9717 -10.2433
# 6 -2.1952 14.2896 -17.9629 0.7012 -10.2433 52.8365
#
#
#
# Elastic Compliance Matrix: (Units=1/GPa)
#
#
# Indices 1 2 3 4 5 6 
#
# 1 0.005955 -0.001414 0.000141 0.005858 0.000361 0.000670
# 2 -0.001414 0.013642 0.004681 -0.004194 0.004690 -0.001192
# 3 0.000141 0.004681 0.047803 -0.027299 -0.004160 0.014547
# 4 0.005858 -0.004194 -0.027299 0.095691 0.005468 -0.008113
# 5 0.000361 0.004690 -0.004160 0.005468 0.029620 0.003002
# 6 0.000670 -0.001192 0.014547 -0.008113 0.003002 0.024912
#
#
# Mechanical properties :
#
#
# Convention : Reuss Voigt Hill
#
# Bulk Modulus (GPa) = 13.47401 33.19957 23.33679
# Shear Modulus (GPa) = 21.22719 41.79313 31.51016
#
# Velocity S-wave (km/s) = 2.89521 4.06244 3.52744
# Velocity P-wave (km/s) = 4.06165 5.92575 5.07994
#
# Compressibility (1/GPa) = 0.07421695
#
# Stress axis : x y z
#
# Youngs Moduli (GPa) = 167.92708 73.30154 20.91898
#
# Poissons Ratio (x) = 0.10364 -0.00295
# Poissons Ratio (y) = 0.23742 -0.09792
# Poissons Ratio (z) = -0.02370 -0.34311
#
# Static dielectric constant tensor:
#      x y z
#    x 2.142550 0.059330 -0.024940 
#    y 0.059330 2.118760 0.067100 
#    z -0.024940 0.067100 2.093450 
# 
# From -- ./inp_files/465091.got.cif
#   From: 2010.05.17/outbox.cif.g08.bks.cpg/sg2_233_cif.got.tgz:465091.got - 2010.06.03 11:33:40.
