data_PCOD9100114
_publ_section_title
;
Structure prediction by ZEFSAII (Michael W. Deem and Ramdas Pophale) SiO2 
 PCOD9100114
Probable space group: P -1
;
_chemical_formula_sum "Si O2"
_cell_formula_units_Z 12
_cell_length_a 12.909728
_cell_length_b 4.884189
_cell_length_c 9.236035
_cell_angle_alpha 81.347955
_cell_angle_beta 66.653442
_cell_angle_gamma 69.231983
_cell_volume 499.908426
_symmetry_space_group_name_H-M "P -1"
_symmetry_group_IT_number 2
_symmetry_cell_setting 'triclinic'
loop_
_space_group_symop_operation_xyz
x,y,z
-x,-y,-z
loop_
_atom_site_type_symbol
_atom_site_label
_atom_site_fract_x
_atom_site_fract_y
_atom_site_fract_z
Si Si1 0.976859 0.893384 0.846423
Si Si2 0.623662 0.342643 0.032373
Si Si3 0.262583 0.664909 0.317161
Si Si4 0.109934 0.254240 0.391339
Si Si5 0.506169 0.715322 0.608843
Si Si6 0.842763 0.467743 0.028211
O O1 0.950523 0.853546 0.700466
O O2 0.110765 0.708740 0.834623
O O3 0.813161 0.062793 0.564032
O O4 0.935346 0.230566 0.888842
O O5 0.587043 0.207158 0.209215
O O6 0.709446 0.511231 0.044596
O O7 0.500000 0.500000 0.000000
O O8 0.700236 0.190973 0.860274
O O9 0.200231 0.437892 0.310528
O O10 0.372589 0.460983 0.362169
O O11 0.000000 0.500000 0.500000
O O12 0.884345 0.751424 0.986760
O O13 0.500000 0.500000 0.500000
O O14 0.500000 0.000000 0.500000
#
# Coordination Sequence:
#
# PCOD9100114 Si02
#       6
#     2   2   2   2   2   2
#     4  10  20  37  62  94 138 174 226 285 350 406
#     4  10  22  43  75 103 138 187 242 296 357 431
#     4  11  24  45  70 103 143 185 244 299 345 441
#     4  12  23  40  68 103 140 189 236 293 365 422
#     4  11  26  47  70 105 143 188 236 298 376 428
#     4  10  20  38  63  96 131 176 228 289 342 412
#
# _framework density 24.004397000000001
#
# number of rings (size 3 to 8) (size 9 to 14) (size 15 to 20)
#    0.000    1.333    3.333    1.500    0.000    4.000 
#    0.000   15.833    0.000    0.000    0.000    0.000 
#    0.000    0.000    0.000    0.000    0.000    0.000 
#
# Total GULP energy -66834.813350 kJ/mol
# GULP energy per Si atom -5569.567779 kJ/mol
# Density = 2.394976 g / cm^3
# Si number density = 24.004397 Si / 1000 Ang^3
#
#
#
# Elastic Constant Matrix: (Units=GPa)
#
#
# Indices 1 2 3 4 5 6 
#
# 1 146.0290 39.7928 45.6554 -11.7125 16.0554 -13.0901
# 2 39.7928 137.6628 46.0140 -1.2859 -0.4628 8.6475
# 3 45.6554 46.0140 129.4897 -15.7524 1.8873 -1.0478
# 4 -11.7125 -1.2859 -15.7524 38.4807 -1.0314 5.5389
# 5 16.0554 -0.4628 1.8873 -1.0314 33.0430 -1.6773
# 6 -13.0901 8.6475 -1.0478 5.5389 -1.6773 33.6491
#
#
#
# Elastic Compliance Matrix: (Units=1/GPa)
#
#
# Indices 1 2 3 4 5 6 
#
# 1 0.008955 -0.002083 -0.002191 0.001138 -0.004039 0.003562
# 2 -0.002083 0.008913 -0.002587 -0.000938 0.001105 -0.002972
# 3 -0.002191 -0.002587 0.009809 0.003335 0.000552 -0.000404
# 4 0.001138 -0.000938 0.003335 0.028221 -0.000072 -0.003861
# 5 -0.004039 0.001105 0.000552 -0.000072 0.032197 -0.000221
# 6 0.003562 -0.002972 -0.000404 -0.003861 -0.000221 0.032480
#
#
# Mechanical properties :
#
#
# Convention : Reuss Voigt Hill
#
# Bulk Modulus (GPa) = 71.66036 75.12287 73.39161
# Shear Modulus (GPa) = 35.98472 39.81584 37.90028
#
# Velocity S-wave (km/s) = 3.87601 4.07712 3.97783
# Velocity P-wave (km/s) = 7.06747 7.31623 7.19292
#
# Compressibility (1/GPa) = 0.01395472
#
# Stress axis : x y z
#
# Youngs Moduli (GPa) = 111.66605 112.20165 101.94940
#
# Poissons Ratio (x) = 0.23371 0.22338
# Poissons Ratio (y) = 0.23259 0.26373
# Poissons Ratio (z) = 0.24467 0.29025
#
# Static dielectric constant tensor:
#      x y z
#    x 2.107920 -0.182420 0.024710 
#    y -0.182420 2.771200 -0.196280 
#    z 0.024710 -0.196280 2.097410 
# 
# From -- ./inp_files/228995.got.cif
#   From: 2010.05.17/outbox.cif.g08.bks.cpg/sg2_115_cif.got.tgz:228995.got - 2010.06.03 11:33:40.
