data_PCOD9100214
_publ_section_title
;
Structure prediction by ZEFSAII (Michael W. Deem and Ramdas Pophale) SiO2 
 PCOD9100214
Probable space group: P -1
;
_chemical_formula_sum "Si O2"
_cell_formula_units_Z 16
_cell_length_a 20.809944
_cell_length_b 8.095295
_cell_length_c 6.032679
_cell_angle_alpha 61.323550
_cell_angle_beta 113.054747
_cell_angle_gamma 132.371018
_cell_volume 655.072796
_symmetry_space_group_name_H-M "P -1"
_symmetry_group_IT_number 2
_symmetry_cell_setting 'triclinic'
loop_
_space_group_symop_operation_xyz
x,y,z
-x,-y,-z
loop_
_atom_site_type_symbol
_atom_site_label
_atom_site_fract_x
_atom_site_fract_y
_atom_site_fract_z
Si Si1 0.051436 0.679439 0.759298
Si Si2 0.919342 0.749171 0.451490
Si Si3 0.193941 0.867204 0.534075
Si Si4 0.174065 0.104387 0.979732
Si Si5 0.478316 0.292969 0.774849
Si Si6 0.315158 0.128727 0.907181
Si Si7 0.253313 0.670325 0.376097
Si Si8 0.429008 0.854723 0.695974
O O1 0.120233 0.671413 0.722944
O O2 0.118108 0.927013 0.816642
O O3 0.975243 0.654860 0.534906
O O4 0.000000 0.500000 0.000000
O O5 0.839471 0.582589 0.624777
O O6 0.864100 0.749227 0.175282
O O7 0.000000 0.000000 0.500000
O O8 0.269878 0.087371 0.636222
O O9 0.230511 0.769214 0.487204
O O10 0.152162 0.961652 0.265389
O O11 0.272451 0.201625 0.981244
O O12 0.500000 0.500000 0.500000
O O13 0.416348 0.281504 0.888969
O O14 0.431646 0.052762 0.717540
O O15 0.548096 0.279710 0.018548
O O16 0.285685 0.869619 0.106915
O O17 0.335575 0.680773 0.558915
O O18 0.500000 0.000000 0.500000
#
# Coordination Sequence:
#
# PCOD9100214 Si02
#       8
#     2   2   2   2   2   2   2   2
#     4  10  20  38  59  85 121 164 216 271 329 391
#     4  10  22  40  60  94 131 165 223 282 337 400
#     4  10  20  37  63  88 122 169 221 267 326 411
#     4   9  21  36  57  87 122 167 211 268 335 399
#     4  11  25  44  70 108 143 181 235 299 355 425
#     4  10  20  41  64  92 131 172 221 275 338 417
#     4  11  22  41  68  92 129 184 224 275 348 412
#     4  11  24  46  71 105 145 186 237 290 360 434
#
# _framework density 24.424765000000001
#
# number of rings (size 3 to 8) (size 9 to 14) (size 15 to 20)
#    0.000    1.750    2.500    2.250    0.000    5.000 
#    0.000    7.500    0.000    0.000    0.000    0.000 
#    0.000    0.000    0.000    0.000    0.000    0.000 
#
# Total GULP energy -89225.929579 kJ/mol
# GULP energy per Si atom -5576.620599 kJ/mol
# Density = 2.436917 g / cm^3
# Si number density = 24.424765 Si / 1000 Ang^3
#
#
#
# Elastic Constant Matrix: (Units=GPa)
#
#
# Indices 1 2 3 4 5 6 
#
# 1 112.2456 17.6417 46.7545 -14.9187 12.6462 34.4423
# 2 17.6417 84.2529 25.2086 -7.8048 7.8687 22.4158
# 3 46.7545 25.2086 121.0769 -19.2294 25.2837 16.2855
# 4 -14.9187 -7.8048 -19.2294 37.8843 2.5201 -6.3187
# 5 12.6462 7.8687 25.2837 2.5201 47.1509 1.5563
# 6 34.4423 22.4158 16.2855 -6.3187 1.5563 35.1604
#
#
#
# Elastic Compliance Matrix: (Units=1/GPa)
#
#
# Indices 1 2 3 4 5 6 
#
# 1 0.014767 0.001980 -0.003475 0.002330 -0.002103 -0.013606
# 2 0.001980 0.015067 -0.001946 0.001287 -0.001730 -0.010336
# 3 -0.003475 -0.001946 0.011824 0.004627 -0.005339 0.000236
# 4 0.002330 0.001287 0.004627 0.030328 -0.004956 0.000424
# 5 -0.002103 -0.001730 -0.005339 -0.004956 0.025069 0.003635
# 6 -0.013606 -0.010336 0.000236 0.000424 0.003635 0.048165
#
#
# Mechanical properties :
#
#
# Convention : Reuss Voigt Hill
#
# Bulk Modulus (GPa) = 28.75491 55.19833 41.97662
# Shear Modulus (GPa) = 30.54462 39.23717 34.89089
#
# Velocity S-wave (km/s) = 3.54016 4.01240 3.78366
# Velocity P-wave (km/s) = 5.33936 6.64185 6.02590
#
# Compressibility (1/GPa) = 0.03477667
#
# Stress axis : x y z
#
# Youngs Moduli (GPa) = 67.71824 66.36829 84.57137
#
# Poissons Ratio (x) = -0.13141 0.29392
# Poissons Ratio (y) = -0.13408 0.16455
# Poissons Ratio (z) = 0.23535 0.12913
#
# Static dielectric constant tensor:
#      x y z
#    x 1.945930 -0.122000 0.076620 
#    y -0.122000 2.069290 -0.035170 
#    z 0.076620 -0.035170 1.968190 
# 
# From -- ./inp_files/116690.got.cif
#   From: 2010.05.17/outbox.cif.g08.bks.cpg/sg2_59_cif.got.tgz:116690.got - 2010.06.03 11:33:40.
