data_PCOD9100810
_publ_section_title
;
Structure prediction by ZEFSAII (Michael W. Deem and Ramdas Pophale) SiO2 
 PCOD9100810
Probable space group: P -1
;
_chemical_formula_sum "Si O2"
_cell_formula_units_Z 16
_cell_length_a 15.148331
_cell_length_b 12.877454
_cell_length_c 9.259812
_cell_angle_alpha 114.868084
_cell_angle_beta 128.474584
_cell_angle_gamma 110.892762
_cell_volume 631.625749
_symmetry_space_group_name_H-M "P -1"
_symmetry_group_IT_number 2
_symmetry_cell_setting 'triclinic'
loop_
_space_group_symop_operation_xyz
x,y,z
-x,-y,-z
loop_
_atom_site_type_symbol
_atom_site_label
_atom_site_fract_x
_atom_site_fract_y
_atom_site_fract_z
Si Si1 0.616766 0.859890 0.287846
Si Si2 0.002890 0.627264 0.508898
Si Si3 0.835972 0.848912 0.379807
Si Si4 0.206520 0.796705 0.516206
Si Si5 0.291831 0.625428 0.388416
Si Si6 0.480498 0.846035 0.409548
Si Si7 0.855205 0.695475 0.569010
Si Si8 0.596337 0.524095 0.464845
O O1 0.816781 0.958393 0.487857
O O2 0.651595 0.930300 0.527695
O O3 0.609585 0.966467 0.245164
O O4 0.392965 0.584227 0.876218
O O5 0.016303 0.730324 0.712062
O O6 0.000000 0.500000 0.500000
O O7 0.178732 0.801285 0.658601
O O8 0.759459 0.411143 0.052155
O O9 0.900602 0.822884 0.559345
O O10 0.594706 0.602872 0.918290
O O11 0.000000 0.000000 0.500000
O O12 0.261951 0.712010 0.505655
O O13 0.964702 0.611186 0.080536
O O14 0.459895 0.799380 0.527931
O O15 0.382709 0.591744 0.538469
O O16 0.500000 0.000000 0.500000
O O17 0.823382 0.729937 0.711273
O O18 0.500000 0.500000 0.500000
#
# Coordination Sequence:
#
# PCOD9100810 Si02
#       8
#     2   2   2   2   2   2   2   2
#     4  10  20  37  66  86 117 170 217 247 322 390
#     4  10  21  38  63  86 124 166 216 263 321 380
#     4  11  25  46  67  91 128 175 223 262 327 392
#     4  10  20  38  65  94 126 171 207 270 326 386
#     4  10  22  38  62  94 137 161 214 267 328 374
#     4  10  20  38  58  90 125 167 201 259 326 387
#     4  10  23  45  64  89 132 172 215 264 328 394
#     4  11  25  41  68  96 130 172 220 273 323 383
#
# _framework density 25.331454999999998
#
# number of rings (size 3 to 8) (size 9 to 14) (size 15 to 20)
#    0.000    1.750    1.250    3.000    8.750    0.000 
#    6.750    4.375    0.000    0.000    0.000    0.000 
#    0.000    0.000    0.000    0.000    0.000    0.000 
#
# Total GULP energy -89394.419562 kJ/mol
# GULP energy per Si atom -5587.151223 kJ/mol
# Density = 2.527380 g / cm^3
# Si number density = 25.331455 Si / 1000 Ang^3
#
#
#
# Elastic Constant Matrix: (Units=GPa)
#
#
# Indices 1 2 3 4 5 6 
#
# 1 205.2260 36.7088 18.9040 -1.6532 -9.5287 26.3878
# 2 36.7088 132.1258 -3.9898 -4.7117 1.0736 13.1344
# 3 18.9040 -3.9898 68.6362 -3.1516 -21.1293 7.5859
# 4 -1.6532 -4.7117 -3.1516 29.3984 4.2320 3.0110
# 5 -9.5287 1.0736 -21.1293 4.2320 30.6957 -5.3001
# 6 26.3878 13.1344 7.5859 3.0110 -5.3001 54.7997
#
#
#
# Elastic Compliance Matrix: (Units=1/GPa)
#
#
# Indices 1 2 3 4 5 6 
#
# 1 0.005525 -0.001361 -0.001188 0.000101 0.000565 -0.002121
# 2 -0.001361 0.008192 0.000925 0.001578 -0.000562 -0.001577
# 3 -0.001188 0.000925 0.018895 0.000440 0.012356 -0.001094
# 4 0.000101 0.001578 0.000440 0.035355 -0.005100 -0.002924
# 5 0.000565 -0.000562 0.012356 -0.005100 0.042419 0.002535
# 6 -0.002121 -0.001577 -0.001094 -0.002924 0.002535 0.020205
#
#
# Mechanical properties :
#
#
# Convention : Reuss Voigt Hill
#
# Bulk Modulus (GPa) = 34.05506 56.58153 45.31830
# Shear Modulus (GPa) = 34.81212 46.60311 40.70762
#
# Velocity S-wave (km/s) = 3.71113 4.29386 4.01309
# Velocity P-wave (km/s) = 5.64236 6.85332 6.27711
#
# Compressibility (1/GPa) = 0.02936421
#
# Stress axis : x y z
#
# Youngs Moduli (GPa) = 180.98526 122.06630 52.92311
#
# Poissons Ratio (x) = 0.16615 0.06287
# Poissons Ratio (y) = 0.24635 -0.04894
# Poissons Ratio (z) = 0.21500 -0.11288
#
# Static dielectric constant tensor:
#      x y z
#    x 2.064540 0.032990 0.082660 
#    y 0.032990 1.915660 0.026070 
#    z 0.082660 0.026070 2.202740 
# 
# From -- ./inp_files/226321.got.cif
#   From: 2010.05.17/outbox.cif.g08.bks.cpg/sg2_114_cif.got.tgz:226321.got - 2010.06.03 11:33:40.
