data_PCOD9100460
_publ_section_title
;
Structure prediction by ZEFSAII (Michael W. Deem and Ramdas Pophale) SiO2 
 PCOD9100460
Probable space group: P -1
;
_chemical_formula_sum "Si O2"
_cell_formula_units_Z 16
_cell_length_a 12.408923
_cell_length_b 9.140468
_cell_length_c 13.756263
_cell_angle_alpha 101.550479
_cell_angle_beta 62.073330
_cell_angle_gamma 146.325744
_cell_volume 704.867287
_symmetry_space_group_name_H-M "P -1"
_symmetry_group_IT_number 2
_symmetry_cell_setting 'triclinic'
loop_
_space_group_symop_operation_xyz
x,y,z
-x,-y,-z
loop_
_atom_site_type_symbol
_atom_site_label
_atom_site_fract_x
_atom_site_fract_y
_atom_site_fract_z
Si Si1 0.229284 0.267411 0.093658
Si Si2 0.062108 0.324801 0.894176
Si Si3 0.735732 0.488078 0.375235
Si Si4 0.201786 0.570109 0.153861
Si Si5 0.913343 0.885245 0.644887
Si Si6 0.024958 0.485540 0.601299
Si Si7 0.738768 0.932592 0.589703
Si Si8 0.691285 0.173897 0.056962
O O1 0.178018 0.380796 0.093300
O O2 0.182470 0.234350 0.223880
O O3 0.046547 0.953527 0.088467
O O4 0.500000 0.500000 0.000000
O O5 0.106116 0.391324 0.768994
O O6 0.296238 0.647272 0.879232
O O7 0.880352 0.245488 0.013489
O O8 0.480631 0.259590 0.410590
O O9 0.754313 0.379923 0.435022
O O10 0.864403 0.770260 0.396825
O O11 0.011297 0.420520 0.292978
O O12 0.450652 0.841567 0.137865
O O13 0.247345 0.734776 0.069976
O O14 0.722046 0.768880 0.643329
O O15 0.029688 0.862029 0.545088
O O16 0.000000 0.500000 0.500000
O O17 0.810791 0.144339 0.656545
#
# Coordination Sequence:
#
# PCOD9100460 Si02
#       8
#     2   2   2   2   2   2   2   2
#     4  11  22  38  61  91 129 163 203 260 325 374
#     4  10  20  39  60  93 121 161 212 265 304 382
#     4  10  20  37  64  89 122 163 215 258 313 378
#     4  11  22  39  62  91 125 170 207 258 321 376
#     4   9  21  38  62  91 123 159 209 263 311 381
#     4  11  23  38  58  90 128 164 213 259 312 378
#     4  10  20  39  64  88 118 166 214 259 314 369
#     4  10  21  37  65  86 121 163 215 256 313 376
#
# _framework density 22.699307999999998
#
# number of rings (size 3 to 8) (size 9 to 14) (size 15 to 20)
#    0.000    1.750    2.500    1.875    0.000    2.000 
#    0.000    1.250    0.000    0.000    0.000    0.000 
#    0.000    0.000    0.000    0.000    0.000    0.000 
#
# Total GULP energy -89114.893512 kJ/mol
# GULP energy per Si atom -5569.680844 kJ/mol
# Density = 2.264764 g / cm^3
# Si number density = 22.699308 Si / 1000 Ang^3
#
#
#
# Elastic Constant Matrix: (Units=GPa)
#
#
# Indices 1 2 3 4 5 6 
#
# 1 109.6929 27.1526 5.1405 -8.7031 -10.5230 7.4919
# 2 27.1526 99.3019 12.1383 13.3595 -15.6401 -11.2563
# 3 5.1405 12.1383 48.6230 10.3617 -6.0577 -8.1059
# 4 -8.7031 13.3595 10.3617 29.5144 -1.9272 -3.1043
# 5 -10.5230 -15.6401 -6.0577 -1.9272 32.5475 3.9861
# 6 7.4919 -11.2563 -8.1059 -3.1043 3.9861 38.1842
#
#
#
# Elastic Compliance Matrix: (Units=1/GPa)
#
#
# Indices 1 2 3 4 5 6 
#
# 1 0.010917 -0.003503 -0.001660 0.005184 0.002253 -0.003341
# 2 -0.003503 0.012964 -0.000461 -0.006098 0.004225 0.003474
# 3 -0.001660 -0.000461 0.023591 -0.007941 0.002638 0.004277
# 4 0.005184 -0.006098 -0.007941 0.040825 -0.000173 -0.001163
# 5 0.002253 0.004225 0.002638 -0.000173 0.034236 -0.002225
# 6 -0.003341 0.003474 0.004277 -0.001163 -0.002225 0.028914
#
#
# Mechanical properties :
#
#
# Convention : Reuss Voigt Hill
#
# Bulk Modulus (GPa) = 27.60702 38.49783 33.05242
# Shear Modulus (GPa) = 28.60888 34.26166 31.43527
#
# Velocity S-wave (km/s) = 3.55398 3.88928 3.72540
# Velocity P-wave (km/s) = 5.38790 6.09634 5.75304
#
# Compressibility (1/GPa) = 0.03622267
#
# Stress axis : x y z
#
# Youngs Moduli (GPa) = 91.60056 77.13550 42.38906
#
# Poissons Ratio (x) = 0.27023 0.07039
# Poissons Ratio (y) = 0.32091 0.01954
# Poissons Ratio (z) = 0.15210 0.03556
#
# Static dielectric constant tensor:
#      x y z
#    x 1.951760 0.020660 -0.022720 
#    y 0.020660 1.920380 -0.010090 
#    z -0.022720 -0.010090 1.856100 
# 
# From -- ./inp_files/515769.got.cif
#   From: 2010.05.17/outbox.cif.g08.bks.cpg/sg2_258_cif.got.tgz:515769.got - 2010.06.03 11:33:40.
