data_PCOD9100803
_publ_section_title
;
Structure prediction by ZEFSAII (Michael W. Deem and Ramdas Pophale) SiO2 
 PCOD9100803
Probable space group: P -1
;
_chemical_formula_sum "Si O2"
_cell_formula_units_Z 16
_cell_length_a 9.130699
_cell_length_b 8.867633
_cell_length_c 21.964927
_cell_angle_alpha 57.726009
_cell_angle_beta 152.647414
_cell_angle_gamma 124.476253
_cell_volume 671.326113
_symmetry_space_group_name_H-M "P -1"
_symmetry_group_IT_number 2
_symmetry_cell_setting 'triclinic'
loop_
_space_group_symop_operation_xyz
x,y,z
-x,-y,-z
loop_
_atom_site_type_symbol
_atom_site_label
_atom_site_fract_x
_atom_site_fract_y
_atom_site_fract_z
Si Si1 0.713255 0.560591 0.125873
Si Si2 0.669981 0.965942 0.469644
Si Si3 0.615065 0.677995 0.833285
Si Si4 0.588377 0.930829 0.314664
Si Si5 0.227859 0.877035 0.081908
Si Si6 0.650766 0.697729 0.702491
Si Si7 0.421224 0.873588 0.940234
Si Si8 0.356318 0.412356 0.401497
O O1 0.538264 0.478717 0.141551
O O2 0.029139 0.482017 0.257840
O O3 0.500000 0.500000 0.000000
O O4 0.720579 0.772700 0.077909
O O5 0.692809 0.805274 0.558392
O O6 0.038881 0.065073 0.565123
O O7 0.514967 0.872170 0.369454
O O8 0.472226 0.112782 0.385615
O O9 0.463387 0.858168 0.750238
O O10 0.569947 0.625383 0.757225
O O11 0.998161 0.741623 0.979793
O O12 0.366964 0.806848 0.208974
O O13 0.522622 0.007738 0.126013
O O14 0.000000 0.000000 0.000000
O O15 0.489965 0.570866 0.613557
O O16 0.050258 0.750805 0.832980
O O17 0.500000 0.000000 0.000000
O O18 0.500000 0.500000 0.500000
#
# Coordination Sequence:
#
# PCOD9100803 Si02
#       8
#     2   2   2   2   2   2   2   2
#     4  12  25  47  73  97 148 187 229 290 355 416
#     4  10  21  41  71  95 136 181 229 285 347 412
#     4  10  21  41  70 102 139 183 230 290 356 406
#     4   9  18  37  67  99 133 179 227 282 341 421
#     4  10  20  37  66 103 134 172 236 278 338 428
#     4  11  24  46  69 102 142 181 236 296 348 416
#     4  12  25  44  68 104 138 182 234 287 348 418
#     4  12  27  45  67 103 137 189 233 287 360 422
#
# _framework density 23.833423
#
# number of rings (size 3 to 8) (size 9 to 14) (size 15 to 20)
#    0.000    1.250    3.750    2.625    1.750    1.500 
#    0.000    0.625    0.000    0.000    0.000    0.000 
#    0.000    0.000    0.000    0.000    0.000    0.000 
#
# Total GULP energy -89383.173105 kJ/mol
# GULP energy per Si atom -5586.448319 kJ/mol
# Density = 2.377918 g / cm^3
# Si number density = 23.833423 Si / 1000 Ang^3
#
#
#
# Elastic Constant Matrix: (Units=GPa)
#
#
# Indices 1 2 3 4 5 6 
#
# 1 145.5227 29.1457 48.9467 7.1016 -30.7595 -28.0439
# 2 29.1457 32.9741 25.3559 -10.9002 -18.5654 -11.5734
# 3 48.9467 25.3559 149.3315 -12.5387 -16.9448 -24.7954
# 4 7.1016 -10.9002 -12.5387 33.6738 -6.9259 -7.9690
# 5 -30.7595 -18.5654 -16.9448 -6.9259 44.3284 12.7084
# 6 -28.0439 -11.5734 -24.7954 -7.9690 12.7084 28.6760
#
#
#
# Elastic Compliance Matrix: (Units=1/GPa)
#
#
# Indices 1 2 3 4 5 6 
#
# 1 0.010029 -0.006077 -0.001606 -0.003271 0.002106 0.004123
# 2 -0.006077 0.066089 -0.000933 0.031393 0.022679 0.018597
# 3 -0.001606 -0.000933 0.009072 0.005232 0.000771 0.007010
# 4 -0.003271 0.031393 0.005232 0.050608 0.014595 0.021591
# 5 0.002106 0.022679 0.000771 0.014595 0.036114 -0.000069
# 6 0.004123 0.018597 0.007010 0.021591 -0.000069 0.058502
#
#
# Mechanical properties :
#
#
# Convention : Reuss Voigt Hill
#
# Bulk Modulus (GPa) = 14.71497 59.41388 37.06443
# Shear Modulus (GPa) = 18.49802 36.29431 27.39616
#
# Velocity S-wave (km/s) = 2.78895 3.90658 3.39408
# Velocity P-wave (km/s) = 4.06921 6.73286 5.56282
#
# Compressibility (1/GPa) = 0.06795801
#
# Stress axis : x y z
#
# Youngs Moduli (GPa) = 99.71342 15.13100 110.22927
#
# Poissons Ratio (x) = 0.09196 0.17705
# Poissons Ratio (y) = 0.60600 0.10279
# Poissons Ratio (z) = 0.16016 0.01411
#
# Static dielectric constant tensor:
#      x y z
#    x 1.947850 0.080730 -0.047630 
#    y 0.080730 1.983740 0.020290 
#    z -0.047630 0.020290 1.915620 
# 
# From -- ./inp_files/587954.got.cif
#   From: 2010.05.17/outbox.cif.g08.bks.cpg/sg2_294_cif.got.tgz:587954.got - 2010.06.03 11:33:40.
