data_PCOD9100497
_publ_section_title
;
Structure prediction by ZEFSAII (Michael W. Deem and Ramdas Pophale) SiO2 
 PCOD9100497
Probable space group: P -1
;
_chemical_formula_sum "Si O2"
_cell_formula_units_Z 14
_cell_length_a 8.702817
_cell_length_b 7.101313
_cell_length_c 19.704516
_cell_angle_alpha 115.084290
_cell_angle_beta 121.749056
_cell_angle_gamma 37.965138
_cell_volume 636.949999
_symmetry_space_group_name_H-M "P -1"
_symmetry_group_IT_number 2
_symmetry_cell_setting 'triclinic'
loop_
_space_group_symop_operation_xyz
x,y,z
-x,-y,-z
loop_
_atom_site_type_symbol
_atom_site_label
_atom_site_fract_x
_atom_site_fract_y
_atom_site_fract_z
Si Si1 0.014424 0.733906 0.319789
Si Si2 0.734441 0.294399 0.077005
Si Si3 0.107598 0.327819 0.172274
Si Si4 0.476872 0.664817 0.199984
Si Si5 0.061564 0.644665 0.082795
Si Si6 0.443895 0.533361 0.659139
Si Si7 0.229842 0.631950 0.489092
O O1 0.968835 0.577517 0.237250
O O2 0.266720 0.640861 0.328977
O O3 0.112301 0.586067 0.395542
O O4 0.758240 0.099888 0.322717
O O5 0.709863 0.420672 0.164561
O O6 0.949989 0.270185 0.091509
O O7 0.797399 0.005514 0.066874
O O8 0.500000 0.500000 0.000000
O O9 0.149375 0.465333 0.145944
O O10 0.357969 0.992943 0.209211
O O11 0.530746 0.589390 0.280034
O O12 0.274225 0.652230 0.125656
O O13 0.000000 0.500000 0.000000
O O14 0.311465 0.501740 0.564528
O O15 0.500000 0.500000 0.500000
O O16 0.000000 0.000000 0.500000
#
# Coordination Sequence:
#
# PCOD9100497 Si02
#       7
#     2   2   2   2   2   2   2
#     4  10  20  37  64  92 124 167 210 254 314 373
#     4  11  25  41  60  89 122 162 207 263 316 373
#     4  11  24  39  60  90 123 160 210 258 313 375
#     4  11  24  39  60  89 124 158 209 260 313 372
#     4  11  23  41  62  85 118 158 207 259 315 375
#     4  10  20  37  64  91 126 165 210 257 311 371
#     4   8  16  32  57  91 121 159 207 254 304 369
#
# _framework density 21.979747
#
# number of rings (size 3 to 8) (size 9 to 14) (size 15 to 20)
#    0.000    1.714    1.429    2.571    4.000    6.857 
#    0.000    0.714    0.000    0.857    0.000    0.000 
#    0.000    0.000    0.000    0.000    0.000    0.000 
#
# Total GULP energy -77953.224403 kJ/mol
# GULP energy per Si atom -5568.087457 kJ/mol
# Density = 2.192972 g / cm^3
# Si number density = 21.979747 Si / 1000 Ang^3
#
#
#
# Elastic Constant Matrix: (Units=GPa)
#
#
# Indices 1 2 3 4 5 6 
#
# 1 51.8601 26.3163 6.8345 -4.6084 -6.7039 8.6787
# 2 26.3163 98.7061 -1.5120 -4.8772 -9.5718 11.3966
# 3 6.8345 -1.5120 73.8765 -12.9830 -22.5313 17.9370
# 4 -4.6084 -4.8772 -12.9830 34.3291 -0.4239 -2.1990
# 5 -6.7039 -9.5718 -22.5313 -0.4239 28.2336 -1.3627
# 6 8.6787 11.3966 17.9370 -2.1990 -1.3627 33.9093
#
#
#
# Elastic Compliance Matrix: (Units=1/GPa)
#
#
# Indices 1 2 3 4 5 6 
#
# 1 0.023283 -0.005255 0.000281 0.002274 0.003811 -0.004041
# 2 -0.005255 0.012902 0.004318 0.002528 0.006376 -0.004855
# 3 0.000281 0.004318 0.024822 0.009450 0.020844 -0.013203
# 4 0.002274 0.002528 0.009450 0.033232 0.009249 -0.003904
# 5 0.003811 0.006376 0.020844 0.009249 0.054711 -0.011346
# 6 -0.004041 -0.004855 -0.013203 -0.003904 -0.011346 0.038431
#
#
# Mechanical properties :
#
#
# Convention : Reuss Voigt Hill
#
# Bulk Modulus (GPa) = 16.75153 31.96891 24.36022
# Shear Modulus (GPa) = 23.97036 32.14798 28.05917
#
# Velocity S-wave (km/s) = 3.30595 3.82857 3.57682
# Velocity P-wave (km/s) = 4.71278 5.84125 5.30710
#
# Compressibility (1/GPa) = 0.05969604
#
# Stress axis : x y z
#
# Youngs Moduli (GPa) = 42.94984 77.50735 40.28686
#
# Poissons Ratio (x) = 0.40728 -0.01134
# Poissons Ratio (y) = 0.22569 -0.17395
# Poissons Ratio (z) = -0.01209 -0.33467
#
# Static dielectric constant tensor:
#      x y z
#    x 1.962070 -0.084890 0.026250 
#    y -0.084890 1.831030 -0.004540 
#    z 0.026250 -0.004540 1.840660 
# 
# From -- ./inp_files/7398.got.cif
#   From: 2010.05.17/outbox.cif.g08.bks.cpg/sg2_4_cif.got.tgz:7398.got - 2010.06.03 11:33:40.
