data_PCOD9100042
_publ_section_title
;
Structure prediction by ZEFSAII (Michael W. Deem and Ramdas Pophale) SiO2 
 PCOD9100042
Probable space group: P -1
;
_chemical_formula_sum "Si O2"
_cell_formula_units_Z 16
_cell_length_a 7.213344
_cell_length_b 9.117010
_cell_length_c 14.488522
_cell_angle_alpha 127.790588
_cell_angle_beta 111.456398
_cell_angle_gamma 66.985513
_cell_volume 682.528449
_symmetry_space_group_name_H-M "P -1"
_symmetry_group_IT_number 2
_symmetry_cell_setting 'triclinic'
loop_
_space_group_symop_operation_xyz
x,y,z
-x,-y,-z
loop_
_atom_site_type_symbol
_atom_site_label
_atom_site_fract_x
_atom_site_fract_y
_atom_site_fract_z
Si Si1 0.245615 0.538514 0.648936
Si Si2 0.268969 0.504775 0.257298
Si Si3 0.872184 0.113427 0.718630
Si Si4 0.300464 0.056647 0.099656
Si Si5 0.725984 0.877731 0.460876
Si Si6 0.098370 0.923182 0.852533
Si Si7 0.464676 0.035054 0.712343
Si Si8 0.704247 0.339129 0.487474
O O1 0.486561 0.512390 0.704738
O O2 0.221991 0.325298 0.559621
O O3 0.127745 0.696911 0.758117
O O4 0.186139 0.639331 0.579074
O O5 0.170135 0.661477 0.223473
O O6 0.254032 0.285838 0.166616
O O7 0.194004 0.604407 0.380230
O O8 0.677379 0.063015 0.717270
O O9 0.877164 0.000734 0.578328
O O10 0.059691 0.032446 0.789672
O O11 0.109255 0.008095 0.101434
O O12 0.488371 0.982663 0.176504
O O13 0.286913 0.963188 0.961307
O O14 0.704800 0.825876 0.328393
O O15 0.500000 0.000000 0.500000
O O16 0.386924 0.846813 0.597355
O O17 0.500000 0.500000 0.500000
#
# Coordination Sequence:
#
# PCOD9100042 Si02
#       8
#     2   2   2   2   2   2   2   2
#     4  11  21  36  60  93 115 146 196 251 276 342
#     4  11  19  35  66  86 109 152 205 233 281 345
#     4  10  19  35  59  85 117 158 183 230 296 359
#     4  10  22  41  62  77 116 168 193 229 290 354
#     4  10  17  31  58  91 115 145 185 239 297 340
#     4  10  25  42  55  81 125 157 195 230 296 343
#     4  10  16  31  59  85 109 148 190 236 277 346
#     4  10  17  30  55  92 114 134 186 244 289 332
#
# _framework density 23.442247999999999
#
# number of rings (size 3 to 8) (size 9 to 14) (size 15 to 20)
#    0.000    1.750    6.250    2.250    1.750    1.500 
#    0.000    2.500    0.000    0.000    0.000    0.000 
#    0.000    0.000    0.000    0.000    0.000    0.000 
#
# Total GULP energy -89217.693759 kJ/mol
# GULP energy per Si atom -5576.105860 kJ/mol
# Density = 2.338889 g / cm^3
# Si number density = 23.442248 Si / 1000 Ang^3
#
#
#
# Elastic Constant Matrix: (Units=GPa)
#
#
# Indices 1 2 3 4 5 6 
#
# 1 61.3009 18.9975 14.7932 -12.4627 13.7103 -11.2332
# 2 18.9975 134.5572 42.3212 -19.4581 7.8451 8.9016
# 3 14.7932 42.3212 95.3790 -27.2868 10.4025 -1.5424
# 4 -12.4627 -19.4581 -27.2868 34.3451 -1.0572 12.8244
# 5 13.7103 7.8451 10.4025 -1.0572 23.2677 0.2867
# 6 -11.2332 8.9016 -1.5424 12.8244 0.2867 23.2996
#
#
#
# Elastic Compliance Matrix: (Units=1/GPa)
#
#
# Indices 1 2 3 4 5 6 
#
# 1 0.022354 -0.002845 -0.000149 0.001917 -0.012194 0.010949
# 2 -0.002845 0.010043 -0.002426 0.005949 -0.000248 -0.008640
# 3 -0.000149 -0.002426 0.015775 0.012840 -0.005501 -0.005100
# 4 0.001917 0.005949 0.012840 0.054572 -0.006021 -0.030461
# 5 -0.012194 -0.000248 -0.005501 -0.006021 0.052475 -0.003480
# 6 0.010949 -0.008640 -0.005100 -0.030461 -0.003480 0.067971
#
#
# Mechanical properties :
#
#
# Convention : Reuss Voigt Hill
#
# Bulk Modulus (GPa) = 26.78707 49.27343 38.03025
# Shear Modulus (GPa) = 20.28617 30.52415 25.40516
#
# Velocity S-wave (km/s) = 2.94491 3.61238 3.29558
# Velocity P-wave (km/s) = 4.79739 6.20191 5.54431
#
# Compressibility (1/GPa) = 0.03733144
#
# Stress axis : x y z
#
# Youngs Moduli (GPa) = 44.73426 99.57454 63.39326
#
# Poissons Ratio (x) = 0.28332 0.00945
# Poissons Ratio (y) = 0.12728 0.15376
# Poissons Ratio (z) = 0.00667 0.24153
#
# Static dielectric constant tensor:
#      x y z
#    x 1.882110 -0.077880 0.036990 
#    y -0.077880 1.762500 0.007350 
#    z 0.036990 0.007350 1.907360 
# 
# From -- ./inp_files/493933.got.cif
#   From: 2010.05.17/outbox.cif.g08.bks.cpg/sg2_247_cif.got.tgz:493933.got - 2010.06.03 11:33:40.
