data_PCOD9100260
_publ_section_title
;
Structure prediction by ZEFSAII (Michael W. Deem and Ramdas Pophale) SiO2 
 PCOD9100260
Probable space group: P -1
;
_chemical_formula_sum "Si O2"
_cell_formula_units_Z 16
_cell_length_a 7.986068
_cell_length_b 14.521966
_cell_length_c 11.803294
_cell_angle_alpha 65.367672
_cell_angle_beta 78.334802
_cell_angle_gamma 128.127948
_cell_volume 749.923791
_symmetry_space_group_name_H-M "P -1"
_symmetry_group_IT_number 2
_symmetry_cell_setting 'triclinic'
loop_
_space_group_symop_operation_xyz
x,y,z
-x,-y,-z
loop_
_atom_site_type_symbol
_atom_site_label
_atom_site_fract_x
_atom_site_fract_y
_atom_site_fract_z
Si Si1 0.714715 0.398188 0.530229
Si Si2 0.123369 0.028708 0.846658
Si Si3 0.335123 0.574868 0.961006
Si Si4 0.081890 0.618986 0.692907
Si Si5 0.958785 0.895738 0.397670
Si Si6 0.666004 0.549269 0.623227
Si Si7 0.405230 0.132199 0.383137
Si Si8 0.790183 0.685634 0.006236
O O1 0.450137 0.206981 0.701305
O O2 0.779461 0.405508 0.387065
O O3 0.655774 0.482026 0.542792
O O4 0.000000 0.500000 0.500000
O O5 0.975462 0.031738 0.772302
O O6 0.047894 0.878532 0.899502
O O7 0.000000 0.000000 0.000000
O O8 0.457408 0.711517 0.786601
O O9 0.593287 0.649940 0.958888
O O10 0.177048 0.409867 0.002868
O O11 0.122876 0.517935 0.112339
O O12 0.337476 0.797892 0.623796
O O13 0.898248 0.603646 0.644096
O O14 0.756417 0.706270 0.514564
O O15 0.805017 0.916405 0.472513
O O16 0.221589 0.988047 0.390630
O O17 0.385544 0.407926 0.806186
#
# Coordination Sequence:
#
# PCOD9100260 Si02
#       8
#     2   2   2   2   2   2   2   2
#     4  10  22  42  64  89 127 170 212 261 321 380
#     4  12  23  42  67  95 126 172 220 266 318 381
#     4  10  20  37  63  90 134 168 208 263 318 383
#     4  10  22  39  64  90 128 177 205 255 335 392
#     4  11  24  38  65  97 127 163 215 277 314 376
#     4  10  21  42  64  92 127 170 217 263 317 380
#     4  11  21  39  62  97 133 162 212 268 325 382
#     4  10  20  38  64  96 123 166 218 262 314 375
#
# _framework density 21.335502999999999
#
# number of rings (size 3 to 8) (size 9 to 14) (size 15 to 20)
#    0.000    1.500    5.000    0.375    0.000    1.000 
#    6.750    0.000    0.000    3.750    0.000    0.000 
#    0.000    0.000    0.000    0.000    0.000    0.000 
#
# Total GULP energy -89389.126102 kJ/mol
# GULP energy per Si atom -5586.820381 kJ/mol
# Density = 2.128694 g / cm^3
# Si number density = 21.335503 Si / 1000 Ang^3
#
#
#
# Elastic Constant Matrix: (Units=GPa)
#
#
# Indices 1 2 3 4 5 6 
#
# 1 33.5011 23.2998 24.0912 2.2140 -2.5882 2.2434
# 2 23.2998 126.1018 54.8073 -13.9827 -7.9922 0.1290
# 3 24.0912 54.8073 106.5782 15.3122 -7.0668 -12.9200
# 4 2.2140 -13.9827 15.3122 51.0383 0.1763 0.2767
# 5 -2.5882 -7.9922 -7.0668 0.1763 25.6583 -7.4032
# 6 2.2434 0.1290 -12.9200 0.2767 -7.4032 30.9787
#
#
#
# Elastic Compliance Matrix: (Units=1/GPa)
#
#
# Indices 1 2 3 4 5 6 
#
# 1 0.038259 -0.004011 -0.007324 -0.000524 -0.001158 -0.006080
# 2 -0.004011 0.012051 -0.006263 0.005363 0.000955 -0.002192
# 3 -0.007324 -0.006263 0.016505 -0.006411 0.004364 0.008540
# 4 -0.000524 0.005363 -0.006411 0.023030 -0.001217 -0.003155
# 5 -0.001158 0.000955 0.004364 -0.001217 0.043946 0.012413
# 6 -0.006080 -0.002192 0.008540 -0.003155 0.012413 0.039286
#
#
# Mechanical properties :
#
#
# Convention : Reuss Voigt Hill
#
# Bulk Modulus (GPa) = 31.62791 52.28643 41.95717
# Shear Modulus (GPa) = 22.85057 32.46726 27.65892
#
# Velocity S-wave (km/s) = 3.27618 3.90519 3.60443
# Velocity P-wave (km/s) = 5.40069 6.70030 6.08529
#
# Compressibility (1/GPa) = 0.03161764
#
# Stress axis : x y z
#
# Youngs Moduli (GPa) = 26.13789 82.98136 60.58786
#
# Poissons Ratio (x) = 0.33285 0.44374
# Poissons Ratio (y) = 0.10484 0.37948
# Poissons Ratio (z) = 0.19143 0.51974
#
# Static dielectric constant tensor:
#      x y z
#    x 1.796970 0.033170 -0.010060 
#    y 0.033170 1.806090 0.004470 
#    z -0.010060 0.004470 1.734250 
# 
# From -- ./inp_files/189196.got.cif
#   From: 2010.05.17/outbox.cif.g08.bks.cpg/sg2_95_cif.got.tgz:189196.got - 2010.06.03 11:33:40.
