data_PCOD9100955
_publ_section_title
;
Structure prediction by ZEFSAII (Michael W. Deem and Ramdas Pophale) SiO2 
 PCOD9100955
Probable space group: P -1
;
_chemical_formula_sum "Si O2"
_cell_formula_units_Z 16
_cell_length_a 14.028590
_cell_length_b 10.768798
_cell_length_c 11.553578
_cell_angle_alpha 89.895414
_cell_angle_beta 52.026623
_cell_angle_gamma 46.595690
_cell_volume 677.767189
_symmetry_space_group_name_H-M "P -1"
_symmetry_group_IT_number 2
_symmetry_cell_setting 'triclinic'
loop_
_space_group_symop_operation_xyz
x,y,z
-x,-y,-z
loop_
_atom_site_type_symbol
_atom_site_label
_atom_site_fract_x
_atom_site_fract_y
_atom_site_fract_z
Si Si1 0.039021 0.616809 0.182027
Si Si2 0.374538 0.213147 0.750711
Si Si3 0.212410 0.903592 0.692965
Si Si4 0.985148 0.780277 0.688542
Si Si5 0.352942 0.251734 0.499563
Si Si6 0.351295 0.662607 0.361205
Si Si7 0.421302 0.851857 0.184776
Si Si8 0.781847 0.092915 0.049982
O O1 0.934394 0.848611 0.250329
O O2 0.848568 0.680151 0.354273
O O3 0.292707 0.392546 0.066842
O O4 0.132411 0.489056 0.985397
O O5 0.408762 0.034436 0.724082
O O6 0.399065 0.236894 0.601098
O O7 0.571112 0.086016 0.697942
O O8 0.390925 0.689110 0.460272
O O9 0.292123 0.872372 0.762685
O O10 0.028415 0.954950 0.859125
O O11 0.215697 0.484229 0.536573
O O12 0.102774 0.805500 0.557670
O O13 0.782815 0.915403 0.748865
O O14 0.842404 0.930267 0.915415
O O15 0.357732 0.767191 0.264556
O O16 0.566190 0.376058 0.169115
#
# Coordination Sequence:
#
# PCOD9100955 Si02
#       8
#     2   2   2   2   2   2   2   2
#     4  10  21  39  65  87 124 163 204 255 303 370
#     4   9  22  40  65  92 119 159 211 255 305 369
#     4  10  20  37  67  95 121 160 208 260 312 358
#     4  11  26  40  61  93 131 165 205 254 308 370
#     4  11  22  41  64  93 120 162 209 259 307 358
#     4  11  22  41  63  91 126 166 206 256 307 371
#     4  10  23  44  61  92 124 169 207 250 311 371
#     4  10  21  39  61  96 127 157 206 261 309 363
#
# _framework density 23.606925
#
# number of rings (size 3 to 8) (size 9 to 14) (size 15 to 20)
#    0.750    1.000    1.250    2.625    0.000    6.500 
#    4.500    0.000    0.000    0.000    0.000    0.000 
#    0.000    0.000    0.000    0.000    0.000    0.000 
#
# Total GULP energy -89332.431937 kJ/mol
# GULP energy per Si atom -5583.276996 kJ/mol
# Density = 2.355319 g / cm^3
# Si number density = 23.606925 Si / 1000 Ang^3
#
#
#
# Elastic Constant Matrix: (Units=GPa)
#
#
# Indices 1 2 3 4 5 6 
#
# 1 75.7480 40.4138 2.2647 6.3162 -17.6703 -8.0102
# 2 40.4138 84.3634 9.7366 19.6549 -5.4346 -14.8314
# 3 2.2647 9.7366 56.3682 4.3846 1.4998 1.0436
# 4 6.3162 19.6549 4.3846 31.3044 8.0326 -9.5143
# 5 -17.6703 -5.4346 1.4998 8.0326 13.4303 19.4429
# 6 -8.0102 -14.8314 1.0436 -9.5143 19.4429 33.1326
#
#
#
# Elastic Compliance Matrix: (Units=1/GPa)
#
#
# Indices 1 2 3 4 5 6 
#
# 1 0.010984 -0.007231 -0.000094 0.016655 -0.029982 0.021799
# 2 -0.007231 0.018704 -0.002157 -0.012381 0.007707 -0.001386
# 3 -0.000094 -0.002157 0.018220 -0.000283 -0.003209 0.000240
# 4 0.016655 -0.012381 -0.000283 0.009574 0.062538 -0.035456
# 5 -0.029982 0.007707 -0.003209 0.062538 -0.130003 0.090549
# 6 0.021799 -0.001386 0.000240 -0.035456 0.090549 -0.028494
#
#
# Mechanical properties :
#
#
# Convention : Reuss Voigt Hill
#
# Bulk Modulus (GPa) = 34.54721 35.70107 35.12414
# Shear Modulus (GPa) = -69.05673 26.51111 -21.27281
#
# Velocity S-wave (km/s) = -5.41445 3.35479 -3.00513
# Velocity P-wave (km/s) = 4.94188 5.49200 1.69409
#
# Compressibility (1/GPa) = 0.02894590
#
# Stress axis : x y z
#
# Youngs Moduli (GPa) = 91.03775 53.46571 54.88572
#
# Poissons Ratio (x) = 0.38659 0.00514
# Poissons Ratio (y) = 0.65826 0.11836
# Poissons Ratio (z) = 0.00853 0.11530
#
# Static dielectric constant tensor:
#      x y z
#    x 1.960380 0.012980 -0.044490 
#    y 0.012980 1.852320 -0.023240 
#    z -0.044490 -0.023240 1.950980 
# 
# From -- ./inp_files/452356.got.cif
#   From: 2010.05.17/outbox.cif.g08.bks.cpg/sg2_227_cif.got.tgz:452356.got - 2010.06.03 11:33:40.
