data_PCOD9100259
_publ_section_title
;
Structure prediction by ZEFSAII (Michael W. Deem and Ramdas Pophale) SiO2 
 PCOD9100259
Probable space group: P -1
;
_chemical_formula_sum "Si O2"
_cell_formula_units_Z 14
_cell_length_a 12.554478
_cell_length_b 20.344785
_cell_length_c 15.241913
_cell_angle_alpha 152.720177
_cell_angle_beta 28.381070
_cell_angle_gamma 158.404818
_cell_volume 622.927643
_symmetry_space_group_name_H-M "P -1"
_symmetry_group_IT_number 2
_symmetry_cell_setting 'triclinic'
loop_
_space_group_symop_operation_xyz
x,y,z
-x,-y,-z
loop_
_atom_site_type_symbol
_atom_site_label
_atom_site_fract_x
_atom_site_fract_y
_atom_site_fract_z
Si Si1 0.899479 0.260212 0.773697
Si Si2 0.972281 0.208999 0.468352
Si Si3 0.751433 0.203565 0.112492
Si Si4 0.313888 0.623743 0.158730
Si Si5 0.466823 0.617320 0.854939
Si Si6 0.248865 0.202417 0.800408
Si Si7 0.679957 0.870659 0.527581
O O1 0.047619 0.309431 0.628217
O O2 0.187984 0.384490 0.776225
O O3 0.684161 0.033600 0.679183
O O4 0.692372 0.311418 0.988033
O O5 0.248176 0.309135 0.320015
O O6 0.745883 0.231869 0.621975
O O7 0.849550 0.998215 0.331857
O O8 0.584952 0.243606 0.344696
O O9 0.990056 0.401922 0.119159
O O10 0.958589 0.180409 0.987866
O O11 0.500000 0.000000 0.000000
O O12 0.474095 0.638850 0.148367
O O13 0.522144 0.680318 0.990603
O O14 0.337156 0.234216 0.670853
O O15 0.000000 0.000000 0.500000
#
# Coordination Sequence:
#
# PCOD9100259 Si02
#       7
#     2   2   2   2   2   2   2
#     4   9  20  37  57  96 124 161 213 269 311 371
#     4  10  22  39  67  91 126 173 214 258 321 376
#     4  12  25  43  67  94 127 173 215 262 323 377
#     4  11  26  41  64 100 132 166 216 264 317 389
#     4  10  20  37  63  90 131 163 209 264 320 374
#     4  11  25  45  64  95 134 168 214 266 318 383
#     4  11  23  40  65  90 125 167 214 265 312 376
#
# _framework density 22.474520999999999
#
# number of rings (size 3 to 8) (size 9 to 14) (size 15 to 20)
#    0.000    1.429    1.429    3.000    2.000    4.571 
#    0.000    0.000    0.000    0.000    0.000    0.000 
#    0.000    0.000    0.000    0.000    0.000    0.000 
#
# Total GULP energy -78219.681430 kJ/mol
# GULP energy per Si atom -5587.120102 kJ/mol
# Density = 2.242337 g / cm^3
# Si number density = 22.474521 Si / 1000 Ang^3
#
#
#
# Elastic Constant Matrix: (Units=GPa)
#
#
# Indices 1 2 3 4 5 6 
#
# 1 99.0622 23.4714 42.5957 -18.6547 7.4989 14.1487
# 2 23.4714 60.3373 30.2200 -6.3555 11.3894 -0.9732
# 3 42.5957 30.2200 118.1253 -37.5407 10.6541 2.6312
# 4 -18.6547 -6.3555 -37.5407 37.5775 -20.7522 0.9568
# 5 7.4989 11.3894 10.6541 -20.7522 45.5359 5.2291
# 6 14.1487 -0.9732 2.6312 0.9568 5.2291 35.1638
#
#
#
# Elastic Compliance Matrix: (Units=1/GPa)
#
#
# Indices 1 2 3 4 5 6 
#
# 1 0.013743 -0.004205 -0.002267 0.005348 0.002444 -0.005985
# 2 -0.004205 0.022058 -0.006480 -0.009401 -0.008080 0.004245
# 3 -0.002267 -0.006480 0.015869 0.017169 0.006320 -0.001861
# 4 0.005348 -0.009401 0.017169 0.059106 0.025434 -0.009087
# 5 0.002444 -0.008080 0.006320 0.025434 0.034554 -0.007510
# 6 -0.005985 0.004245 -0.001861 -0.009087 -0.007510 0.032467
#
#
# Mechanical properties :
#
#
# Convention : Reuss Voigt Hill
#
# Bulk Modulus (GPa) = 38.81254 52.23324 45.52289
# Shear Modulus (GPa) = 23.55247 35.73796 29.64522
#
# Velocity S-wave (km/s) = 3.24074 3.99200 3.63583
# Velocity P-wave (km/s) = 5.59556 6.67380 6.15832
#
# Compressibility (1/GPa) = 0.02576487
#
# Stress axis : x y z
#
# Youngs Moduli (GPa) = 72.76498 45.33404 63.01570
#
# Poissons Ratio (x) = 0.19062 0.14288
# Poissons Ratio (y) = 0.30597 0.40837
# Poissons Ratio (z) = 0.16499 0.29379
#
# Static dielectric constant tensor:
#      x y z
#    x 1.837590 -0.008800 0.008540 
#    y -0.008800 1.838770 0.064320 
#    z 0.008540 0.064320 1.848270 
# 
# From -- ./inp_files/456033.got.cif
#   From: 2010.05.17/outbox.cif.g08.bks.cpg/sg2_229_cif.got.tgz:456033.got - 2010.06.03 11:33:40.
