data_PCOD9100520
_publ_section_title
;
Structure prediction by ZEFSAII (Michael W. Deem and Ramdas Pophale) SiO2 
 PCOD9100520
Probable space group: P -1
;
_chemical_formula_sum "Si O2"
_cell_formula_units_Z 14
_cell_length_a 16.145660
_cell_length_b 16.071764
_cell_length_c 9.892670
_cell_angle_alpha 152.291722
_cell_angle_beta 36.090035
_cell_angle_gamma 142.209071
_cell_volume 676.348492
_symmetry_space_group_name_H-M "P -1"
_symmetry_group_IT_number 2
_symmetry_cell_setting 'triclinic'
loop_
_space_group_symop_operation_xyz
x,y,z
-x,-y,-z
loop_
_atom_site_type_symbol
_atom_site_label
_atom_site_fract_x
_atom_site_fract_y
_atom_site_fract_z
Si Si1 0.723991 0.573203 0.121538
Si Si2 0.518444 0.801926 0.151421
Si Si3 0.589556 0.876254 0.856875
Si Si4 0.150691 0.477907 0.827870
Si Si5 0.716082 0.103791 0.791283
Si Si6 0.915355 0.857909 0.068696
Si Si7 0.820062 0.826778 0.856006
O O1 0.610611 0.693449 0.487670
O O2 0.818023 0.552463 0.100209
O O3 0.836150 0.692606 0.035517
O O4 0.624858 0.372473 0.913565
O O5 0.500000 0.000000 0.500000
O O6 0.584323 0.826475 0.948200
O O7 0.648843 0.784077 0.050311
O O8 0.717701 0.034570 0.843913
O O9 0.448593 0.955989 0.135005
O O10 0.171603 0.308867 0.470874
O O11 0.256063 0.677453 0.940356
O O12 0.000000 0.500000 0.000000
O O13 0.827413 0.016180 0.436596
O O14 0.894687 0.791589 0.846052
O O15 0.086584 0.966034 0.014604
#
# Coordination Sequence:
#
# PCOD9100520 Si02
#       7
#     2   2   2   2   2   2   2
#     4  11  24  43  66  93 132 170 217 267 321 381
#     4  12  24  39  67  97 130 166 219 267 322 379
#     4  10  20  38  63  92 125 168 210 262 314 377
#     4  12  23  39  67  95 125 167 217 263 318 383
#     4  10  20  37  64  92 125 167 215 254 315 382
#     4  10  24  44  64  93 134 174 207 267 326 382
#     4  11  24  42  66  94 133 170 212 267 324 376
#
# _framework density 20.699387999999999
#
# number of rings (size 3 to 8) (size 9 to 14) (size 15 to 20)
#    0.000    1.143    4.286    2.143    0.000    3.429 
#    0.000    1.429    0.000    0.000    0.000    0.000 
#    0.000    0.000    0.000    0.000    0.000    0.000 
#
# Total GULP energy -77994.394591 kJ/mol
# GULP energy per Si atom -5571.028185 kJ/mol
# Density = 2.065228 g / cm^3
# Si number density = 20.699388 Si / 1000 Ang^3
#
#
#
# Elastic Constant Matrix: (Units=GPa)
#
#
# Indices 1 2 3 4 5 6 
#
# 1 73.0519 58.8519 23.5797 16.0984 2.4582 11.6985
# 2 58.8519 130.8787 46.0239 12.6948 26.7574 -24.9386
# 3 23.5797 46.0239 35.3616 16.9918 12.8696 12.6588
# 4 16.0984 12.6948 16.9918 23.5528 5.2862 -10.7448
# 5 2.4582 26.7574 12.8696 5.2862 32.3837 -4.4520
# 6 11.6985 -24.9386 12.6588 -10.7448 -4.4520 21.3729
#
#
#
# Elastic Compliance Matrix: (Units=1/GPa)
#
#
# Indices 1 2 3 4 5 6 
#
# 1 0.016380 0.000829 -0.023656 0.009314 0.007642 0.012287
# 2 0.000829 0.002004 0.014598 -0.018648 -0.006892 -0.017572
# 3 -0.023656 0.014598 0.008068 0.020196 -0.012260 0.032803
# 4 0.009314 -0.018648 0.020196 0.018051 -0.000372 -0.029821
# 5 0.007642 -0.006892 -0.012260 -0.000372 0.041405 0.003474
# 6 0.012287 -0.017572 0.032803 -0.029821 0.003474 -0.014137
#
#
# Mechanical properties :
#
#
# Convention : Reuss Voigt Hill
#
# Bulk Modulus (GPa) = 100.06424 55.13369 77.59897
# Shear Modulus (GPa) = 54.60926 22.85100 38.73013
#
# Velocity S-wave (km/s) = 5.14192 3.32617 4.33029
# Velocity P-wave (km/s) = 9.14872 6.43774 7.91023
#
# Compressibility (1/GPa) = 0.00999358
#
# Stress axis : x y z
#
# Youngs Moduli (GPa) = 61.05115 498.97362 123.94778
#
# Poissons Ratio (x) = -0.41348 2.93209
# Poissons Ratio (y) = -0.05059 -1.80941
# Poissons Ratio (z) = 1.44422 -7.28409
#
# Static dielectric constant tensor:
#      x y z
#    x 2.265750 0.375430 -0.307550 
#    y 0.375430 1.948760 -0.272860 
#    z -0.307550 -0.272860 1.878050 
# 
# From -- ./inp_files/159945.got.cif
#   From: 2010.05.17/outbox.cif.g08.bks.cpg/sg2_80_cif.got.tgz:159945.got - 2010.06.03 11:33:40.
