data_PCOD9100987
_publ_section_title
;
Structure prediction by ZEFSAII (Michael W. Deem and Ramdas Pophale) SiO2 
 PCOD9100987
Probable space group: P -1
;
_chemical_formula_sum "Si O2"
_cell_formula_units_Z 16
_cell_length_a 10.772054
_cell_length_b 23.462802
_cell_length_c 5.790407
_cell_angle_alpha 62.518552
_cell_angle_beta 112.531029
_cell_angle_gamma 148.432392
_cell_volume 679.531050
_symmetry_space_group_name_H-M "P -1"
_symmetry_group_IT_number 2
_symmetry_cell_setting 'triclinic'
loop_
_space_group_symop_operation_xyz
x,y,z
-x,-y,-z
loop_
_atom_site_type_symbol
_atom_site_label
_atom_site_fract_x
_atom_site_fract_y
_atom_site_fract_z
Si Si1 0.813233 0.361019 0.004878
Si Si2 0.551543 0.554687 0.684651
Si Si3 0.894008 0.788717 0.595721
Si Si4 0.353654 0.004764 0.820190
Si Si5 0.022683 0.077538 0.982848
Si Si6 0.586729 0.754663 0.706825
Si Si7 0.131291 0.478982 0.405786
Si Si8 0.342720 0.763713 0.268558
O O1 0.864742 0.442107 0.724395
O O2 0.693241 0.252297 0.002731
O O3 0.633557 0.322398 0.134388
O O4 0.056339 0.438126 0.161048
O O5 0.500000 0.500000 0.500000
O O6 0.818821 0.688751 0.643255
O O7 0.372432 0.544363 0.545109
O O8 0.500000 0.500000 0.000000
O O9 0.692423 0.728321 0.754398
O O10 0.868914 0.828136 0.292260
O O11 0.152281 0.905118 0.675811
O O12 0.210644 0.980105 0.977603
O O13 0.500000 0.000000 0.000000
O O14 0.552069 0.138360 0.682777
O O15 0.188666 0.128580 0.221945
O O16 0.000000 0.000000 0.000000
O O17 0.517792 0.772682 0.413801
O O18 0.919426 0.358321 0.607152
#
# Coordination Sequence:
#
# PCOD9100987 Si02
#       8
#     2   2   2   2   2   2   2   2
#     4  10  21  39  70 107 144 185 234 319 383 450
#     4  12  31  49  78 106 147 204 259 312 378 466
#     4  11  26  46  72 100 143 189 248 314 374 456
#     4  11  27  43  68  99 145 190 242 304 374 453
#     4  11  22  41  71 102 140 187 246 306 378 447
#     4  10  20  37  68 101 140 174 235 300 378 429
#     4  10  24  41  69 104 145 185 247 305 388 442
#     4  11  22  40  67 104 143 189 238 300 375 456
#
# _framework density 23.545650999999999
#
# number of rings (size 3 to 8) (size 9 to 14) (size 15 to 20)
#    0.000    1.250    0.000    4.875    8.750    4.500 
#    0.000    0.000    0.000    0.000    0.000    0.000 
#    0.000    0.000    0.000    0.000    0.000    0.000 
#
# Total GULP energy -89194.094411 kJ/mol
# GULP energy per Si atom -5574.630901 kJ/mol
# Density = 2.349206 g / cm^3
# Si number density = 23.545651 Si / 1000 Ang^3
#
#
#
# Elastic Constant Matrix: (Units=GPa)
#
#
# Indices 1 2 3 4 5 6 
#
# 1 32.1750 29.8147 8.6421 13.5463 1.0480 -1.3729
# 2 29.8147 166.3132 28.8064 30.6133 2.4822 -32.1253
# 3 8.6421 28.8064 75.8128 15.7053 3.3320 -9.1435
# 4 13.5463 30.6133 15.7053 49.8124 8.7842 -4.9589
# 5 1.0480 2.4822 3.3320 8.7842 30.9713 7.3015
# 6 -1.3729 -32.1253 -9.1435 -4.9589 7.3015 38.8365
#
#
#
# Elastic Compliance Matrix: (Units=1/GPa)
#
#
# Indices 1 2 3 4 5 6 
#
# 1 0.040627 -0.006888 -0.001317 -0.007512 0.002881 -0.006073
# 2 -0.006888 0.009327 -0.001327 -0.002499 -0.001335 0.007091
# 3 -0.001317 -0.001327 0.014790 -0.003087 -0.001070 0.002145
# 4 -0.007512 -0.002499 -0.003087 0.026012 -0.006961 0.001570
# 5 0.002881 -0.001335 -0.001070 -0.006961 0.036510 -0.009007
# 6 -0.006073 0.007091 0.002145 0.001570 -0.009007 0.033799
#
#
# Mechanical properties :
#
#
# Convention : Reuss Voigt Hill
#
# Bulk Modulus (GPa) = 21.89152 45.42526 33.65839
# Shear Modulus (GPa) = 25.59442 37.72655 31.66049
#
# Velocity S-wave (km/s) = 3.30056 4.00718 3.67092
# Velocity P-wave (km/s) = 4.88289 6.38313 5.68273
#
# Compressibility (1/GPa) = 0.04567979
#
# Stress axis : x y z
#
# Youngs Moduli (GPa) = 24.61446 107.21371 67.61324
#
# Poissons Ratio (x) = 0.73851 0.08902
# Poissons Ratio (y) = 0.16955 0.08973
# Poissons Ratio (z) = 0.03241 0.14229
#
# Static dielectric constant tensor:
#      x y z
#    x 1.851690 -0.032930 -0.098420 
#    y -0.032930 1.977660 -0.008340 
#    z -0.098420 -0.008340 1.967570 
# 
# From -- ./inp_files/84249.got.cif
#   From: 2010.05.17/outbox.cif.g08.bks.cpg/sg2_43_cif.got.tgz:84249.got - 2010.06.03 11:33:40.
