data_PCOD9100553
_publ_section_title
;
Structure prediction by ZEFSAII (Michael W. Deem and Ramdas Pophale) SiO2 
 PCOD9100553
Probable space group: P -1
;
_chemical_formula_sum "Si O2"
_cell_formula_units_Z 16
_cell_length_a 11.413196
_cell_length_b 21.365670
_cell_length_c 8.817839
_cell_angle_alpha 48.819366
_cell_angle_beta 140.016342
_cell_angle_gamma 149.074981
_cell_volume 710.060368
_symmetry_space_group_name_H-M "P -1"
_symmetry_group_IT_number 2
_symmetry_cell_setting 'triclinic'
loop_
_space_group_symop_operation_xyz
x,y,z
-x,-y,-z
loop_
_atom_site_type_symbol
_atom_site_label
_atom_site_fract_x
_atom_site_fract_y
_atom_site_fract_z
Si Si1 0.535274 0.412281 0.686321
Si Si2 0.494456 0.601474 0.657332
Si Si3 0.720129 0.490425 0.078622
Si Si4 0.702429 0.926378 0.266788
Si Si5 0.222389 0.737301 0.320117
Si Si6 0.988852 0.831202 0.921706
Si Si7 0.696217 0.873773 0.757884
Si Si8 0.832261 0.857729 0.243010
O O1 0.500000 0.500000 0.500000
O O2 0.641282 0.426194 0.596730
O O3 0.257690 0.267689 0.653110
O O4 0.681605 0.441606 0.947019
O O5 0.375877 0.581642 0.739795
O O6 0.558708 0.524316 0.851784
O O7 0.779348 0.743901 0.718452
O O8 0.024084 0.613526 0.226551
O O9 0.468147 0.840042 0.289940
O O10 0.663961 0.848886 0.218078
O O11 0.000000 0.000000 0.500000
O O12 0.744638 0.034296 0.082067
O O13 0.056345 0.763515 0.159770
O O14 0.385558 0.762818 0.586883
O O15 0.852183 0.850028 0.869631
O O16 0.737726 0.872825 0.975051
O O17 0.854267 0.011141 0.646117
#
# Coordination Sequence:
#
# PCOD9100553 Si02
#       8
#     2   2   2   2   2   2   2   2
#     4  10  20  37  64  94 127 173 223 267 322 389
#     4   9  18  35  64  88 125 172 211 267 324 380
#     4   9  20  38  57  93 127 164 219 267 316 389
#     4  11  20  39  65  90 129 173 208 272 335 383
#     4  11  22  40  66  96 129 166 221 267 332 394
#     4  10  20  37  67  96 125 168 220 267 326 398
#     4  10  22  41  67  96 132 172 207 277 341 381
#     4  10  21  40  65  92 132 172 216 267 332 397
#
# _framework density 22.533296
#
# number of rings (size 3 to 8) (size 9 to 14) (size 15 to 20)
#    0.000    2.000    2.500    1.875    0.000    1.000 
#    4.500    8.750    2.750    0.000    0.000    0.000 
#    0.000    0.000    0.000    0.000    0.000    0.000 
#
# Total GULP energy -89110.829532 kJ/mol
# GULP energy per Si atom -5569.426846 kJ/mol
# Density = 2.248201 g / cm^3
# Si number density = 22.533296 Si / 1000 Ang^3
#
#
#
# Elastic Constant Matrix: (Units=GPa)
#
#
# Indices 1 2 3 4 5 6 
#
# 1 49.5520 30.8060 50.8997 5.7736 -18.8298 -10.2265
# 2 30.8060 129.8781 33.3978 7.3313 -7.1943 -8.5505
# 3 50.8997 33.3978 98.1793 21.6915 -27.1306 -3.4965
# 4 5.7736 7.3313 21.6915 36.3790 -5.9371 -1.2704
# 5 -18.8298 -7.1943 -27.1306 -5.9371 39.3243 0.5616
# 6 -10.2265 -8.5505 -3.4965 -1.2704 0.5616 28.1808
#
#
#
# Elastic Compliance Matrix: (Units=1/GPa)
#
#
# Indices 1 2 3 4 5 6 
#
# 1 0.056346 -0.005587 -0.026477 0.009985 0.008974 0.015738
# 2 -0.005587 0.009140 -0.000370 -0.000941 -0.001410 0.000686
# 3 -0.026477 -0.000370 0.027669 -0.011699 0.004676 -0.006908
# 4 0.009985 -0.000941 -0.011699 0.033438 0.001538 0.003363
# 5 0.008974 -0.001410 0.004676 0.001538 0.032886 0.002823
# 6 0.015738 0.000686 -0.006908 0.003363 0.002823 0.040643
#
#
# Mechanical properties :
#
#
# Convention : Reuss Voigt Hill
#
# Bulk Modulus (GPa) = 35.35201 56.42405 45.88803
# Shear Modulus (GPa) = 18.22037 31.61054 24.91546
#
# Velocity S-wave (km/s) = 2.84667 3.74951 3.32884
# Velocity P-wave (km/s) = 5.15049 6.62116 5.93158
#
# Compressibility (1/GPa) = 0.02828693
#
# Stress axis : x y z
#
# Youngs Moduli (GPa) = 17.74755 109.40937 36.14166
#
# Poissons Ratio (x) = 0.61124 0.95692
# Poissons Ratio (y) = 0.09915 0.01338
# Poissons Ratio (z) = 0.46990 0.04051
#
# Static dielectric constant tensor:
#      x y z
#    x 1.844630 0.011520 -0.052070 
#    y 0.011520 1.931670 -0.031960 
#    z -0.052070 -0.031960 1.932810 
# 
# From -- ./inp_files/282953.got.cif
#   From: 2010.05.17/outbox.cif.g08.bks.cpg/sg2_142_cif.got.tgz:282953.got - 2010.06.03 11:33:40.
