data_PCOD9100687
_publ_section_title
;
Structure prediction by ZEFSAII (Michael W. Deem and Ramdas Pophale) SiO2 
 PCOD9100687
Probable space group: P -1
;
_chemical_formula_sum "Si O2"
_cell_formula_units_Z 16
_cell_length_a 15.348235
_cell_length_b 12.328437
_cell_length_c 9.385101
_cell_angle_alpha 115.999089
_cell_angle_beta 69.506648
_cell_angle_gamma 154.129534
_cell_volume 691.990391
_symmetry_space_group_name_H-M "P -1"
_symmetry_group_IT_number 2
_symmetry_cell_setting 'triclinic'
loop_
_space_group_symop_operation_xyz
x,y,z
-x,-y,-z
loop_
_atom_site_type_symbol
_atom_site_label
_atom_site_fract_x
_atom_site_fract_y
_atom_site_fract_z
Si Si1 0.423788 0.088448 0.044923
Si Si2 0.950384 0.147827 0.226955
Si Si3 0.837771 0.565372 0.245639
Si Si4 0.114297 0.653363 0.199038
Si Si5 0.184154 0.060324 0.130025
Si Si6 0.112580 0.194260 0.415187
Si Si7 0.273873 0.722321 0.416102
Si Si8 0.769813 0.164639 0.253438
O O1 0.634110 0.314133 0.130975
O O2 0.264447 0.832134 0.084674
O O3 0.346629 0.139430 0.104861
O O4 0.421414 0.039469 0.854494
O O5 0.961030 0.073830 0.314084
O O6 0.163479 0.468860 0.296117
O O7 0.781102 0.058159 0.279320
O O8 0.890151 0.015733 0.035374
O O9 0.785354 0.578581 0.427146
O O10 0.972037 0.605689 0.237292
O O11 0.987134 0.803848 0.188065
O O12 0.246073 0.783190 0.337485
O O13 0.950538 0.358223 0.144837
O O14 0.250839 0.262051 0.283575
O O15 0.000000 0.000000 0.500000
O O16 0.168596 0.655296 0.578771
O O17 0.500000 0.000000 0.500000
#
# Coordination Sequence:
#
# PCOD9100687 Si02
#       8
#     2   2   2   2   2   2   2   2
#     4  10  22  37  61  89 122 163 200 246 299 355
#     4  10  20  39  63  83 123 160 200 247 304 356
#     4  10  21  37  61  87 124 156 199 247 301 355
#     4  10  21  39  58  89 122 164 202 243 295 359
#     4   9  21  39  61  88 119 158 203 251 299 355
#     4  10  20  37  65  91 114 159 203 253 308 351
#     4  11  24  37  61  91 124 161 205 241 298 363
#     4  10  21  39  58  85 127 161 201 245 295 361
#
# _framework density 23.121708000000002
#
# number of rings (size 3 to 8) (size 9 to 14) (size 15 to 20)
#    0.000    2.000    0.000    3.750    5.250    2.000 
#    0.000    0.000    5.500    6.750    0.000    0.000 
#    0.000    0.000    0.000    0.000    0.000    0.000 
#
# Total GULP energy -89157.614358 kJ/mol
# GULP energy per Si atom -5572.350897 kJ/mol
# Density = 2.306908 g / cm^3
# Si number density = 23.121708 Si / 1000 Ang^3
#
#
#
# Elastic Constant Matrix: (Units=GPa)
#
#
# Indices 1 2 3 4 5 6 
#
# 1 126.1557 31.2999 71.0994 10.2492 35.3283 0.8268
# 2 31.2999 30.6104 13.8499 0.6235 16.7629 11.9467
# 3 71.0994 13.8499 149.5833 15.2041 29.5495 10.7057
# 4 10.2492 0.6235 15.2041 25.8327 -6.6556 15.3812
# 5 35.3283 16.7629 29.5495 -6.6556 56.1357 -1.2751
# 6 0.8268 11.9467 10.7057 15.3812 -1.2751 28.8694
#
#
#
# Elastic Compliance Matrix: (Units=1/GPa)
#
#
# Indices 1 2 3 4 5 6 
#
# 1 0.018773 -0.021426 -0.005975 -0.015443 -0.003680 0.018610
# 2 -0.021426 0.076100 0.005496 0.030458 -0.009648 -0.049570
# 3 -0.005975 0.005496 0.010265 -0.001636 -0.003597 -0.005197
# 4 -0.015443 0.030458 -0.001636 0.079361 0.009681 -0.053410
# 5 -0.003680 -0.009648 -0.003597 0.009681 0.026084 0.001426
# 6 0.018610 -0.049570 -0.005197 -0.053410 0.001426 0.085065
#
#
# Mechanical properties :
#
#
# Convention : Reuss Voigt Hill
#
# Bulk Modulus (GPa) = 16.30568 59.87197 38.08882
# Shear Modulus (GPa) = 13.89276 34.84092 24.36684
#
# Velocity S-wave (km/s) = 2.45389 3.88603 3.24983
# Velocity P-wave (km/s) = 3.88538 6.78862 5.53090
#
# Compressibility (1/GPa) = 0.06132831
#
# Stress axis : x y z
#
# Youngs Moduli (GPa) = 53.26819 13.14063 97.41950
#
# Poissons Ratio (x) = 0.28155 0.58204
# Poissons Ratio (y) = 1.14132 -0.53540
# Poissons Ratio (z) = 0.31825 -0.07222
#
# Static dielectric constant tensor:
#      x y z
#    x 2.025250 0.020850 -0.114590 
#    y 0.020850 1.962500 -0.034700 
#    z -0.114590 -0.034700 2.001780 
# 
# From -- ./inp_files/308022.got.cif
#   From: 2010.05.17/outbox.cif.g08.bks.cpg/sg2_155_cif.got.tgz:308022.got - 2010.06.03 11:33:40.
