data_PCOD9100394
_publ_section_title
;
Structure prediction by ZEFSAII (Michael W. Deem and Ramdas Pophale) SiO2 
 PCOD9100394
Probable space group: P -1
;
_chemical_formula_sum "Si O2"
_cell_formula_units_Z 16
_cell_length_a 12.824131
_cell_length_b 19.870110
_cell_length_c 23.756671
_cell_angle_alpha 15.863480
_cell_angle_beta 144.832859
_cell_angle_gamma 152.869330
_cell_volume 717.501355
_symmetry_space_group_name_H-M "P -1"
_symmetry_group_IT_number 2
_symmetry_cell_setting 'triclinic'
loop_
_space_group_symop_operation_xyz
x,y,z
-x,-y,-z
loop_
_atom_site_type_symbol
_atom_site_label
_atom_site_fract_x
_atom_site_fract_y
_atom_site_fract_z
Si Si1 0.860296 0.773863 0.065868
Si Si2 0.277392 0.820693 0.352439
Si Si3 0.696726 0.445694 0.731244
Si Si4 0.032979 0.500550 0.300404
Si Si5 0.636531 0.397210 0.548838
Si Si6 0.549814 0.867199 0.541525
Si Si7 0.766744 0.209016 0.062185
Si Si8 0.090133 0.193185 0.285449
O O1 0.034891 0.788215 0.088332
O O2 0.672092 0.397339 0.304071
O O3 0.724605 0.888937 0.890324
O O4 0.000000 0.000000 0.000000
O O5 0.355216 0.735578 0.400208
O O6 0.447204 0.911442 0.406443
O O7 0.000000 0.500000 0.500000
O O8 0.462882 0.413234 0.652042
O O9 0.780231 0.402021 0.744557
O O10 0.699278 0.240083 0.945555
O O11 0.912505 0.836336 0.522294
O O12 0.111726 0.412750 0.460474
O O13 0.772455 0.198774 0.403149
O O14 0.449534 0.085094 0.757983
O O15 0.658380 0.706514 0.697161
O O16 0.966821 0.176758 0.186148
O O17 0.873369 0.545952 0.867831
#
# Coordination Sequence:
#
# PCOD9100394 Si02
#       8
#     2   2   2   2   2   2   2   2
#     4  12  24  46  73  97 134 178 230 280 341 409
#     4  12  25  44  73 104 130 177 234 283 333 406
#     4  10  22  40  64  95 138 178 226 274 342 398
#     4  11  25  44  66 102 143 179 221 285 347 402
#     4  11  23  42  68  98 136 181 227 273 338 403
#     4  11  24  44  70 101 137 175 225 287 345 397
#     4  10  20  37  63  98 133 181 227 275 330 404
#     4   9  20  36  63  96 137 174 224 278 341 396
#
# _framework density 22.299610000000001
#
# number of rings (size 3 to 8) (size 9 to 14) (size 15 to 20)
#    0.000    1.250    2.500    2.625    0.000    9.000 
#    0.000    8.750    0.000    0.000    0.000    0.000 
#    0.000    0.000    0.000    0.000    0.000    0.000 
#
# Total GULP energy -89477.526968 kJ/mol
# GULP energy per Si atom -5592.345436 kJ/mol
# Density = 2.224886 g / cm^3
# Si number density = 22.299610 Si / 1000 Ang^3
#
#
#
# Elastic Constant Matrix: (Units=GPa)
#
#
# Indices 1 2 3 4 5 6 
#
# 1 121.7066 40.7394 42.7069 29.9652 25.3598 0.0111
# 2 40.7394 127.3493 35.6578 34.5585 1.2458 -0.9623
# 3 42.7069 35.6578 90.4689 31.4427 3.8773 -7.4888
# 4 29.9652 34.5585 31.4427 50.9479 0.3095 4.7691
# 5 25.3598 1.2458 3.8773 0.3095 31.8780 4.5011
# 6 0.0111 -0.9623 -7.4888 4.7691 4.5011 29.5505
#
#
#
# Elastic Compliance Matrix: (Units=1/GPa)
#
#
# Indices 1 2 3 4 5 6 
#
# 1 0.013302 -0.001988 -0.003403 -0.004438 -0.010237 0.001343
# 2 -0.001988 0.010213 -0.001363 -0.004981 0.001313 0.000592
# 3 -0.003403 -0.001363 0.016278 -0.007616 0.000107 0.005295
# 4 -0.004438 -0.004981 -0.007616 0.031026 0.005471 -0.007931
# 5 -0.010237 0.001313 0.000107 0.005471 0.040379 -0.006960
# 6 0.001343 0.000592 0.005295 -0.007931 -0.006960 0.037541
#
#
# Mechanical properties :
#
#
# Convention : Reuss Voigt Hill
#
# Bulk Modulus (GPa) = 38.04546 64.19254 51.11900
# Shear Modulus (GPa) = 29.23823 37.17001 33.20412
#
# Velocity S-wave (km/s) = 3.62491 4.08713 3.86294
# Velocity P-wave (km/s) = 5.88371 7.14995 6.54751
#
# Compressibility (1/GPa) = 0.02628434
#
# Stress axis : x y z
#
# Youngs Moduli (GPa) = 75.17832 97.91222 61.43215
#
# Poissons Ratio (x) = 0.19461 0.20907
# Poissons Ratio (y) = 0.14942 0.08376
# Poissons Ratio (z) = 0.25585 0.13350
#
# Static dielectric constant tensor:
#      x y z
#    x 1.844160 0.020290 0.005070 
#    y 0.020290 1.884590 0.005230 
#    z 0.005070 0.005230 1.816870 
# 
# From -- ./inp_files/595955.got.cif
#   From: 2010.05.17/outbox.cif.g08.bks.cpg/sg2_298_cif.got.tgz:595955.got - 2010.06.03 11:33:40.
