data_PCOD9100373
_publ_section_title
;
Structure prediction by ZEFSAII (Michael W. Deem and Ramdas Pophale) SiO2 
 PCOD9100373
Probable space group: P -1
;
_chemical_formula_sum "Si O2"
_cell_formula_units_Z 13
_cell_length_a 14.257679
_cell_length_b 10.020039
_cell_length_c 10.019978
_cell_angle_alpha 134.879994
_cell_angle_beta 28.548927
_cell_angle_gamma 132.185357
_cell_volume 479.072153
_symmetry_space_group_name_H-M "P -1"
_symmetry_group_IT_number 2
_symmetry_cell_setting 'triclinic'
loop_
_space_group_symop_operation_xyz
x,y,z
-x,-y,-z
loop_
_atom_site_type_symbol
_atom_site_label
_atom_site_fract_x
_atom_site_fract_y
_atom_site_fract_z
Si Si1 0.315847 0.126162 0.153703
Si Si2 0.710515 0.145818 0.523183
Si Si3 0.315854 0.530442 0.557978
Si Si4 0.095592 0.867190 0.455714
Si Si5 0.500000 0.500000 0.000000
Si Si6 0.710525 0.766293 0.143651
Si Si7 0.904418 0.551318 0.962783
O O1 0.364238 0.357875 0.277880
O O2 0.114462 0.078469 0.287845
O O3 0.261081 0.022770 0.289224
O O4 0.506073 0.071273 0.807143
O O5 0.873412 0.146876 0.436241
O O6 0.665440 0.349578 0.677650
O O7 0.735431 0.992803 0.271755
O O8 0.506089 0.686766 0.422628
O O9 0.261074 0.449678 0.716143
O O10 0.114474 0.597698 0.807063
O O11 0.113522 0.663000 0.223467
O O12 0.334542 0.343109 0.015048
O O13 0.873433 0.690357 0.979698
#
# Coordination Sequence:
#
# PCOD9100373 Si02
#       7
#     2   2   2   2   1   2   2
#     4  10  20  37  63  96 131 162 202 260 321 380
#     4  12  24  42  66  89 124 169 212 263 312 366
#     4  10  20  37  63  96 131 162 202 260 321 380
#     4  10  20  37  63  96 131 162 202 260 321 380
#     4  12  26  48  62  90 128 170 230 254 298 378
#     4  12  24  42  66  89 124 169 212 263 312 366
#     4  10  20  37  63  96 131 162 202 260 321 380
#
# _framework density 27.135784999999998
#
# number of rings (size 3 to 8) (size 9 to 14) (size 15 to 20)
#    0.000    1.231    3.077    3.231    0.000    3.692 
#    0.000    3.077    0.000    3.692    0.000    0.000 
#    0.000    0.000    0.000    0.000    0.000    0.000 
#
# Total GULP energy -72788.317423 kJ/mol
# GULP energy per Si atom -5599.101340 kJ/mol
# Density = 2.707402 g / cm^3
# Si number density = 27.135785 Si / 1000 Ang^3
#
#
#
# Elastic Constant Matrix: (Units=GPa)
#
#
# Indices 1 2 3 4 5 6 
#
# 1 161.2136 39.0134 49.3557 28.6088 -9.8687 -3.9879
# 2 39.0134 119.8300 34.3634 26.7428 4.8184 -2.3292
# 3 49.3557 34.3634 97.6450 23.7504 11.2748 8.6699
# 4 28.6088 26.7428 23.7504 64.8539 0.8712 14.9987
# 5 -9.8687 4.8184 11.2748 0.8712 44.7875 -0.8143
# 6 -3.9879 -2.3292 8.6699 14.9987 -0.8143 38.8551
#
#
#
# Elastic Compliance Matrix: (Units=1/GPa)
#
#
# Indices 1 2 3 4 5 6 
#
# 1 0.008327 -0.001144 -0.003789 -0.002467 0.003008 0.002647
# 2 -0.001144 0.010208 -0.002321 -0.003379 -0.000658 0.002303
# 3 -0.003789 -0.002321 0.014164 -0.001789 -0.004172 -0.003085
# 4 -0.002467 -0.003379 -0.001789 0.020394 -0.000271 -0.007935
# 5 0.003008 -0.000658 -0.004172 -0.000271 0.024150 0.001811
# 6 0.002647 0.002303 -0.003085 -0.007935 0.001811 0.029936
#
#
# Mechanical properties :
#
#
# Convention : Reuss Voigt Hill
#
# Bulk Modulus (GPa) = 54.96857 69.35039 62.15948
# Shear Modulus (GPa) = 39.13882 46.76305 42.95093
#
# Velocity S-wave (km/s) = 3.80193 4.15577 3.98278
# Velocity P-wave (km/s) = 6.29076 6.97420 6.64128
#
# Compressibility (1/GPa) = 0.01819221
#
# Stress axis : x y z
#
# Youngs Moduli (GPa) = 120.09187 97.95882 70.60162
#
# Poissons Ratio (x) = 0.11202 0.26750
# Poissons Ratio (y) = 0.13733 0.16388
# Poissons Ratio (z) = 0.45501 0.22738
#
# Static dielectric constant tensor:
#      x y z
#    x 1.778410 0.180880 -0.089600 
#    y 0.180880 1.920580 0.001330 
#    z -0.089600 0.001330 2.040710 
# 
# From -- ./inp_files/393508.got.cif
#   From: 2010.05.17/outbox.cif.g08.bks.cpg/sg2_197_cif.got.tgz:393508.got - 2010.06.03 11:33:40.
