data_PCOD9100020
_publ_section_title
;
Structure prediction by ZEFSAII (Michael W. Deem and Ramdas Pophale) SiO2 
 PCOD9100020
Probable space group: P -1
;
_chemical_formula_sum "Si O2"
_cell_formula_units_Z 16
_cell_length_a 6.156458
_cell_length_b 16.674281
_cell_length_c 8.747915
_cell_angle_alpha 125.957456
_cell_angle_beta 77.608943
_cell_angle_gamma 115.811634
_cell_volume 653.336035
_symmetry_space_group_name_H-M "P -1"
_symmetry_group_IT_number 2
_symmetry_cell_setting 'triclinic'
loop_
_space_group_symop_operation_xyz
x,y,z
-x,-y,-z
loop_
_atom_site_type_symbol
_atom_site_label
_atom_site_fract_x
_atom_site_fract_y
_atom_site_fract_z
Si Si1 0.737144 0.169324 0.030614
Si Si2 0.662829 0.506949 0.753455
Si Si3 0.793411 0.679745 0.713164
Si Si4 0.474712 0.233983 0.908182
Si Si5 0.136063 0.418077 0.874211
Si Si6 0.659471 0.831159 0.697102
Si Si7 0.302903 0.702118 0.366255
Si Si8 0.014301 0.026038 0.706346
O O1 0.708420 0.235324 0.962644
O O2 0.838997 0.084455 0.855702
O O3 0.474172 0.128646 0.105386
O O4 0.928893 0.246256 0.209262
O O5 0.739621 0.557526 0.630122
O O6 0.379633 0.467495 0.793285
O O7 0.732345 0.404093 0.651298
O O8 0.793052 0.586612 0.965170
O O9 0.700551 0.726709 0.636332
O O10 0.644301 0.705708 0.900545
O O11 0.533323 0.287727 0.795694
O O12 0.285299 0.110924 0.787026
O O13 0.952535 0.315564 0.692930
O O14 0.000000 0.500000 0.000000
O O15 0.469416 0.801559 0.553772
O O16 0.915048 0.918125 0.700987
O O17 0.000000 0.000000 0.500000
#
# Coordination Sequence:
#
# PCOD9100020 Si02
#       8
#     2   2   2   2   2   2   2   2
#     4  10  24  43  68  94 127 176 210 259 330 386
#     4  10  20  37  62  90 129 175 214 259 321 371
#     4  10  22  41  63  90 131 175 213 257 320 386
#     4  10  21  40  66  95 125 166 221 265 310 384
#     4   9  18  33  59  92 123 164 217 268 309 366
#     4  11  25  43  62  96 137 166 212 266 324 387
#     4  11  22  38  62  97 131 167 218 269 308 376
#     4  11  23  45  69  96 128 165 214 271 322 381
#
# _framework density 24.489695000000001
#
# number of rings (size 3 to 8) (size 9 to 14) (size 15 to 20)
#    0.000    1.750    1.250    3.375    0.000   11.500 
#    2.250    1.250    0.000    0.000    0.000    0.000 
#    0.000    0.000    0.000    0.000    0.000    0.000 
#
# Total GULP energy -89392.737500 kJ/mol
# GULP energy per Si atom -5587.046094 kJ/mol
# Density = 2.443396 g / cm^3
# Si number density = 24.489695 Si / 1000 Ang^3
#
#
#
# Elastic Constant Matrix: (Units=GPa)
#
#
# Indices 1 2 3 4 5 6 
#
# 1 75.3187 18.0089 17.2057 -3.1758 19.5486 8.5015
# 2 18.0089 115.2954 2.1236 -14.0216 4.0365 12.6913
# 3 17.2057 2.1236 60.7977 -3.6725 8.6381 10.4446
# 4 -3.1758 -14.0216 -3.6725 27.4674 11.4821 5.6670
# 5 19.5486 4.0365 8.6381 11.4821 37.1472 -4.5631
# 6 8.5015 12.6913 10.4446 5.6670 -4.5631 32.4959
#
#
#
# Elastic Compliance Matrix: (Units=1/GPa)
#
#
# Indices 1 2 3 4 5 6 
#
# 1 0.018235 -0.000549 -0.001580 0.008417 -0.012667 -0.007295
# 2 -0.000549 0.010848 0.002338 0.009474 -0.005251 -0.007234
# 3 -0.001580 0.002338 0.020188 0.009113 -0.008128 -0.009719
# 4 0.008417 0.009474 0.009113 0.060462 -0.029149 -0.023468
# 5 -0.012667 -0.005251 -0.008128 -0.029149 0.047480 0.019727
# 6 -0.007295 -0.007234 -0.009719 -0.023468 0.019727 0.045494
#
#
# Mechanical properties :
#
#
# Convention : Reuss Voigt Hill
#
# Bulk Modulus (GPa) = 20.12537 36.23205 28.17871
# Shear Modulus (GPa) = 22.84638 33.69365 28.27002
#
# Velocity S-wave (km/s) = 3.05765 3.71324 3.40128
# Velocity P-wave (km/s) = 4.54988 5.76291 5.19194
#
# Compressibility (1/GPa) = 0.04968852
#
# Stress axis : x y z
#
# Youngs Moduli (GPa) = 54.83952 92.17919 49.53367
#
# Poissons Ratio (x) = 0.05062 0.07826
# Poissons Ratio (y) = 0.03011 -0.11579
# Poissons Ratio (z) = 0.08665 -0.21547
#
# Static dielectric constant tensor:
#      x y z
#    x 1.948620 -0.012940 0.004730 
#    y -0.012940 2.034860 0.022830 
#    z 0.004730 0.022830 1.964410 
# 
# From -- ./inp_files/99574.got.cif
#   From: 2010.05.17/outbox.cif.g08.bks.cpg/sg2_50_cif.got.tgz:99574.got - 2010.06.03 11:33:40.
