data_PCOD9100208
_publ_section_title
;
Structure prediction by ZEFSAII (Michael W. Deem and Ramdas Pophale) SiO2 
 PCOD9100208
Probable space group: P -1
;
_chemical_formula_sum "Si O2"
_cell_formula_units_Z 12
_cell_length_a 5.176149
_cell_length_b 7.910190
_cell_length_c 16.423004
_cell_angle_alpha 51.835454
_cell_angle_beta 101.690227
_cell_angle_gamma 85.232142
_cell_volume 498.412238
_symmetry_space_group_name_H-M "P -1"
_symmetry_group_IT_number 2
_symmetry_cell_setting 'triclinic'
loop_
_space_group_symop_operation_xyz
x,y,z
-x,-y,-z
loop_
_atom_site_type_symbol
_atom_site_label
_atom_site_fract_x
_atom_site_fract_y
_atom_site_fract_z
Si Si1 0.238999 0.706285 0.943272
Si Si2 0.084511 0.501079 0.708348
Si Si3 0.425305 0.634082 0.327909
Si Si4 0.816865 0.567108 0.843877
Si Si5 0.911179 0.295909 0.510296
Si Si6 0.651441 0.030077 0.269993
O O1 0.305702 0.908079 0.839369
O O2 0.971683 0.674848 0.889942
O O3 0.500000 0.500000 0.000000
O O4 0.199157 0.668203 0.047728
O O5 0.887004 0.351619 0.709834
O O6 0.998145 0.545516 0.781779
O O7 0.004413 0.708706 0.578013
O O8 0.400010 0.391176 0.737757
O O9 0.583461 0.400830 0.451957
O O10 0.484218 0.844141 0.313637
O O11 0.522846 0.745694 0.763517
O O12 0.000000 0.500000 0.500000
O O13 0.064784 0.077473 0.633267
#
# Coordination Sequence:
#
# PCOD9100208 Si02
#       6
#     2   2   2   2   2   2
#     4   9  21  39  60  84 118 156 204 244 311 347
#     4  10  22  40  60  91 124 159 195 248 302 347
#     4   9  22  39  60  90 127 157 195 240 306 354
#     4  10  22  38  64  84 118 158 205 254 291 357
#     4   8  19  36  58  88 124 161 189 244 297 361
#     4  10  20  37  63  88 115 164 202 243 292 365
#
# _framework density 24.076454999999999
#
# number of rings (size 3 to 8) (size 9 to 14) (size 15 to 20)
#    1.000    1.667    0.000    0.000    7.000    4.667 
#    0.000    3.333    0.000    0.000    0.000    0.000 
#    0.000    0.000    0.000    0.000    0.000    0.000 
#
# Total GULP energy -66913.352094 kJ/mol
# GULP energy per Si atom -5576.112675 kJ/mol
# Density = 2.402166 g / cm^3
# Si number density = 24.076455 Si / 1000 Ang^3
#
#
#
# Elastic Constant Matrix: (Units=GPa)
#
#
# Indices 1 2 3 4 5 6 
#
# 1 85.4207 13.9229 34.6096 -4.1091 -13.0500 -20.8310
# 2 13.9229 44.6939 35.8965 15.7421 -14.8771 -20.0839
# 3 34.6096 35.8965 150.1975 8.4010 -24.8854 -30.7618
# 4 -4.1091 15.7421 8.4010 29.3366 -11.7497 -13.1498
# 5 -13.0500 -14.8771 -24.8854 -11.7497 41.9904 10.6703
# 6 -20.8310 -20.0839 -30.7618 -13.1498 10.6703 42.2673
#
#
#
# Elastic Compliance Matrix: (Units=1/GPa)
#
#
# Indices 1 2 3 4 5 6 
#
# 1 0.015355 -0.002148 -0.001406 0.008420 0.003702 0.007209
# 2 -0.002148 0.036671 -0.005451 -0.013813 0.003388 0.007246
# 3 -0.001406 -0.005451 0.009384 0.002922 0.003076 0.003679
# 4 0.008420 -0.013813 0.002922 0.052031 0.010657 0.013210
# 5 0.003702 0.003388 0.003076 0.010657 0.030653 0.001250
# 6 0.007209 0.007246 0.003679 0.013210 0.001250 0.037127
#
#
# Mechanical properties :
#
#
# Convention : Reuss Voigt Hill
#
# Bulk Modulus (GPa) = 23.04180 49.90777 36.47478
# Shear Modulus (GPa) = 23.39742 35.77773 29.58757
#
# Velocity S-wave (km/s) = 3.12075 3.85906 3.50937
# Velocity P-wave (km/s) = 4.75147 6.37419 5.62169
#
# Compressibility (1/GPa) = 0.04339939
#
# Stress axis : x y z
#
# Youngs Moduli (GPa) = 65.12494 27.26969 106.55918
#
# Poissons Ratio (x) = 0.05858 0.14982
# Poissons Ratio (y) = 0.13991 0.58087
# Poissons Ratio (z) = 0.09157 0.14865
#
# Static dielectric constant tensor:
#      x y z
#    x 1.984730 0.001870 -0.033150 
#    y 0.001870 1.949880 0.023680 
#    z -0.033150 0.023680 1.993300 
# 
# From -- ./inp_files/40353.got.cif
#   From: 2010.05.17/outbox.cif.g08.bks.cpg/sg2_21_cif.got.tgz:40353.got - 2010.06.03 11:33:40.
