data_PCOD9100272
_publ_section_title
;
Structure prediction by ZEFSAII (Michael W. Deem and Ramdas Pophale) SiO2 
 PCOD9100272
Probable space group: P -1
;
_chemical_formula_sum "Si O2"
_cell_formula_units_Z 11
_cell_length_a 7.091919
_cell_length_b 9.287415
_cell_length_c 10.121018
_cell_angle_alpha 59.335778
_cell_angle_beta 87.378060
_cell_angle_gamma 57.537191
_cell_volume 459.317017
_symmetry_space_group_name_H-M "P -1"
_symmetry_group_IT_number 2
_symmetry_cell_setting 'triclinic'
loop_
_space_group_symop_operation_xyz
x,y,z
-x,-y,-z
loop_
_atom_site_type_symbol
_atom_site_label
_atom_site_fract_x
_atom_site_fract_y
_atom_site_fract_z
Si Si1 0.500000 0.000000 0.000000
Si Si2 0.676119 0.052920 0.224730
Si Si3 0.192457 0.895346 0.259184
Si Si4 0.587293 0.379551 0.871734
Si Si5 0.720538 0.180303 0.424679
Si Si6 0.977204 0.664448 0.022709
O O1 0.556632 0.982475 0.168261
O O2 0.246585 0.229494 0.925441
O O3 0.583749 0.274502 0.054301
O O4 0.960063 0.900374 0.267208
O O5 0.624002 0.097565 0.360130
O O6 0.323708 0.801888 0.157764
O O7 0.347507 0.787777 0.434328
O O8 0.075593 0.139035 0.150288
O O9 0.356867 0.597831 0.731374
O O10 0.790634 0.410924 0.866740
O O11 0.000000 0.000000 0.500000
O O12 0.000000 0.500000 0.000000
#
# Coordination Sequence:
#
# PCOD9100272 Si02
#       6
#     1   2   2   2   2   2
#     4  12  20  38  62  94 122 156 216 252 296 366
#     4  10  20  37  63  91 119 158 211 252 298 372
#     4  10  20  42  62  90 126 158 201 256 319 364
#     4  11  19  41  64  89 120 168 205 249 309 370
#     4  10  22  35  63  94 122 156 210 258 307 368
#     4  11  23  39  66  94 124 164 210 258 305 369
#
# _framework density 23.948602000000001
#
# number of rings (size 3 to 8) (size 9 to 14) (size 15 to 20)
#    0.000    1.455    3.636    3.273    0.000    2.909 
#    0.000    3.636    0.000    4.364    0.000    0.000 
#    0.000    0.000    0.000    0.000    0.000    0.000 
#
# Total GULP energy -61243.054155 kJ/mol
# GULP energy per Si atom -5567.550378 kJ/mol
# Density = 2.389409 g / cm^3
# Si number density = 23.948602 Si / 1000 Ang^3
#
#
#
# Elastic Constant Matrix: (Units=GPa)
#
#
# Indices 1 2 3 4 5 6 
#
# 1 60.8436 29.5739 12.6543 2.5707 18.2551 -0.5581
# 2 29.5739 161.2144 51.9120 5.1956 20.0383 14.9149
# 3 12.6543 51.9120 133.1966 22.7170 16.3303 0.2539
# 4 2.5707 5.1956 22.7170 57.5921 2.2971 12.1656
# 5 18.2551 20.0383 16.3303 2.2971 27.4593 7.4599
# 6 -0.5581 14.9149 0.2539 12.1656 7.4599 42.3204
#
#
#
# Elastic Compliance Matrix: (Units=1/GPa)
#
#
# Indices 1 2 3 4 5 6 
#
# 1 0.021990 -0.002958 0.001032 -0.001453 -0.014102 0.004230
# 2 -0.002958 0.008101 -0.002893 0.001229 -0.001523 -0.002962
# 3 0.001032 -0.002893 0.009832 -0.004106 -0.004899 0.003018
# 4 -0.001453 0.001229 -0.004106 0.020250 0.002641 -0.006714
# 5 -0.014102 -0.001523 -0.004899 0.002641 0.052199 -0.009580
# 6 0.004230 -0.002962 0.003018 -0.006714 -0.009580 0.028329
#
#
# Mechanical properties :
#
#
# Convention : Reuss Voigt Hill
#
# Bulk Modulus (GPa) = 33.01968 60.39276 46.70622
# Shear Modulus (GPa) = 31.16534 42.88199 37.02366
#
# Velocity S-wave (km/s) = 3.61133 4.23612 3.93614
# Velocity P-wave (km/s) = 5.58628 7.01418 6.34055
#
# Compressibility (1/GPa) = 0.03028497
#
# Stress axis : x y z
#
# Youngs Moduli (GPa) = 45.47534 123.44297 101.70477
#
# Poissons Ratio (x) = 0.36515 -0.10500
# Poissons Ratio (y) = 0.13452 0.29428
# Poissons Ratio (z) = -0.04695 0.35718
#
# Static dielectric constant tensor:
#      x y z
#    x 1.821540 -0.045950 0.032020 
#    y -0.045950 1.913780 0.024560 
#    z 0.032020 0.024560 1.881830 
# 
# From -- ./inp_files/166672.got.cif
#   From: 2010.05.17/outbox.cif.g08.bks.cpg/sg2_84_cif.got.tgz:166672.got - 2010.06.03 11:33:40.
