data_PCOD9100012
_publ_section_title
;
Structure prediction by ZEFSAII (Michael W. Deem and Ramdas Pophale) SiO2 
 PCOD9100012
Probable space group: P -1
;
_chemical_formula_sum "Si O2"
_cell_formula_units_Z 16
_cell_length_a 9.131452
_cell_length_b 5.278160
_cell_length_c 23.937662
_cell_angle_alpha 55.612314
_cell_angle_beta 114.882238
_cell_angle_gamma 85.237405
_cell_volume 780.473998
_symmetry_space_group_name_H-M "P -1"
_symmetry_group_IT_number 2
_symmetry_cell_setting 'triclinic'
loop_
_space_group_symop_operation_xyz
x,y,z
-x,-y,-z
loop_
_atom_site_type_symbol
_atom_site_label
_atom_site_fract_x
_atom_site_fract_y
_atom_site_fract_z
Si Si1 0.797006 0.350082 0.538857
Si Si2 0.629472 0.693843 0.100829
Si Si3 0.466539 0.331237 0.318378
Si Si4 0.573983 0.375945 0.605700
Si Si5 0.124112 0.019323 0.567714
Si Si6 0.292795 0.761193 0.923309
Si Si7 0.652829 0.275009 0.863565
Si Si8 0.815401 0.496433 0.957443
O O1 0.719134 0.391723 0.583580
O O2 0.628039 0.346425 0.477834
O O3 0.830460 0.664047 0.480526
O O4 0.995027 0.058244 0.595204
O O5 0.757362 0.396512 0.118542
O O6 0.508627 0.585119 0.134752
O O7 0.724396 0.865060 0.133258
O O8 0.500000 0.000000 0.000000
O O9 0.389523 0.542085 0.336212
O O10 0.380427 0.528726 0.223807
O O11 0.438891 0.983973 0.357873
O O12 0.675522 0.266940 0.358248
O O13 0.000000 0.000000 0.500000
O O14 0.500000 0.500000 0.000000
O O15 0.202374 0.746092 0.968031
O O16 0.799206 0.345360 0.913997
O O17 0.683062 0.890328 0.901436
O O18 0.000000 0.500000 0.000000
#
# Coordination Sequence:
#
# PCOD9100012 Si02
#       8
#     2   2   2   2   2   2   2   2
#     4   9  20  34  63  89 122 153 215 254 284 337
#     4  10  16  31  59  82 103 140 191 242 271 338
#     4  11  24  38  61  85 126 165 200 242 310 363
#     4  10  21  38  59  92 117 169 203 242 292 363
#     4  10  19  36  61  95 121 155 204 260 288 342
#     4  10  16  32  57  84 104 132 188 241 275 337
#     4  12  22  39  60  86 119 154 196 244 307 365
#     4  12  23  37  62  88 111 148 193 254 300 352
#
# _framework density 20.500364000000001
#
# number of rings (size 3 to 8) (size 9 to 14) (size 15 to 20)
#    0.000    1.500    6.250    1.125    1.750    1.500 
#    0.000    0.000    8.250    0.000    0.000    0.000 
#    0.000    0.000    0.000    0.000    0.000    0.000 
#
# Total GULP energy -89089.639853 kJ/mol
# GULP energy per Si atom -5568.102491 kJ/mol
# Density = 2.045370 g / cm^3
# Si number density = 20.500364 Si / 1000 Ang^3
#
#
#
# Elastic Constant Matrix: (Units=GPa)
#
#
# Indices 1 2 3 4 5 6 
#
# 1 123.8121 18.5968 35.3001 15.0225 -16.7704 -12.1384
# 2 18.5968 110.6497 28.5954 29.2389 -1.8236 3.0262
# 3 35.3001 28.5954 56.1674 28.4247 -20.0191 -9.8816
# 4 15.0225 29.2389 28.4247 27.4300 -3.4408 -6.7123
# 5 -16.7704 -1.8236 -20.0191 -3.4408 18.2474 9.6872
# 6 -12.1384 3.0262 -9.8816 -6.7123 9.6872 28.3202
#
#
#
# Elastic Compliance Matrix: (Units=1/GPa)
#
#
# Indices 1 2 3 4 5 6 
#
# 1 0.010116 -0.000795 -0.006305 0.002600 0.001570 0.002300
# 2 -0.000795 0.013400 0.003323 -0.018330 0.004191 -0.006391
# 3 -0.006305 0.003323 0.101776 -0.099145 0.101106 -0.025628
# 4 0.002600 -0.018330 -0.099145 0.154381 -0.099943 0.039256
# 5 0.001570 0.004191 0.101106 -0.099943 0.174081 -0.047730
# 6 0.002300 -0.006391 -0.025628 0.039256 -0.047730 0.053668
#
#
# Mechanical properties :
#
#
# Convention : Reuss Voigt Hill
#
# Bulk Modulus (GPa) = 8.49333 50.62377 29.55855
# Shear Modulus (GPa) = 9.02168 28.67530 18.84849
#
# Velocity S-wave (km/s) = 2.10007 3.74407 3.03549
# Velocity P-wave (km/s) = 3.16740 6.59079 5.17063
#
# Compressibility (1/GPa) = 0.11773951
#
# Stress axis : x y z
#
# Youngs Moduli (GPa) = 98.84888 74.62769 9.82550
#
# Poissons Ratio (x) = 0.05933 0.06195
# Poissons Ratio (y) = 0.07859 -0.03265
# Poissons Ratio (z) = 0.62322 -0.24802
#
# Static dielectric constant tensor:
#      x y z
#    x 2.054020 -0.061950 -0.263820 
#    y -0.061950 1.988720 0.181670 
#    z -0.263820 0.181670 2.237680 
# 
# From -- ./inp_files/585549.got.cif
#   From: 2010.05.17/outbox.cif.g08.bks.cpg/sg2_293_cif.got.tgz:585549.got - 2010.06.03 11:33:40.
