data_PCOD9100324
_publ_section_title
;
Structure prediction by ZEFSAII (Michael W. Deem and Ramdas Pophale) SiO2 
 PCOD9100324
Probable space group: P -1
;
_chemical_formula_sum "Si O2"
_cell_formula_units_Z 16
_cell_length_a 7.849984
_cell_length_b 13.926300
_cell_length_c 12.910913
_cell_angle_alpha 137.827535
_cell_angle_beta 113.428276
_cell_angle_gamma 95.815415
_cell_volume 666.016615
_symmetry_space_group_name_H-M "P -1"
_symmetry_group_IT_number 2
_symmetry_cell_setting 'triclinic'
loop_
_space_group_symop_operation_xyz
x,y,z
-x,-y,-z
loop_
_atom_site_type_symbol
_atom_site_label
_atom_site_fract_x
_atom_site_fract_y
_atom_site_fract_z
Si Si1 0.939993 0.345776 0.600112
Si Si2 0.496428 0.988449 0.244839
Si Si3 0.542670 0.441145 0.214498
Si Si4 0.447291 0.237219 0.581299
Si Si5 0.781196 0.464606 0.481903
Si Si6 0.207333 0.664276 0.074550
Si Si7 0.971577 0.140431 0.055684
Si Si8 0.978786 0.852062 0.175298
O O1 0.775946 0.122984 0.388711
O O2 0.775298 0.368881 0.507610
O O3 0.200266 0.451941 0.694663
O O4 0.009637 0.461970 0.815150
O O5 0.494434 0.123288 0.430014
O O6 0.381650 0.803710 0.134723
O O7 0.302199 0.930278 0.062134
O O8 0.525726 0.604270 0.349404
O O9 0.563669 0.370722 0.273259
O O10 0.301080 0.271415 0.961582
O O11 0.629833 0.327524 0.793186
O O12 0.174644 0.070232 0.423088
O O13 0.000000 0.500000 0.500000
O O14 0.855457 0.660847 0.688724
O O15 0.085018 0.750576 0.154709
O O16 0.022927 0.159837 0.960751
O O17 0.000000 0.000000 0.000000
#
# Coordination Sequence:
#
# PCOD9100324 Si02
#       8
#     2   2   2   2   2   2   2   2
#     4  11  23  41  60  91 125 169 204 246 314 378
#     4  10  21  38  64  90 119 157 209 253 306 374
#     4  11  25  39  58  92 127 161 205 256 304 372
#     4  10  22  41  63  92 120 157 208 261 311 361
#     4  10  21  41  59  88 132 168 204 251 315 379
#     4  10  21  42  65  87 122 161 206 256 312 374
#     4  10  20  37  63  93 121 161 215 261 307 363
#     4  10  21  39  62  90 120 155 206 256 309 361
#
# _framework density 24.023425
#
# number of rings (size 3 to 8) (size 9 to 14) (size 15 to 20)
#    0.000    2.000    2.500    3.750    1.750    5.000 
#    0.000    2.500    0.000    0.000    0.000    0.000 
#    0.000    0.000    0.000    0.000    0.000    0.000 
#
# Total GULP energy -89460.059607 kJ/mol
# GULP energy per Si atom -5591.253725 kJ/mol
# Density = 2.396875 g / cm^3
# Si number density = 24.023425 Si / 1000 Ang^3
#
#
#
# Elastic Constant Matrix: (Units=GPa)
#
#
# Indices 1 2 3 4 5 6 
#
# 1 64.3710 30.0842 15.4725 2.5178 25.2238 -5.9017
# 2 30.0842 80.7098 25.9583 -8.9969 14.0583 -12.7314
# 3 15.4725 25.9583 87.5933 2.7728 40.7986 1.4763
# 4 2.5178 -8.9969 2.7728 36.3274 -1.1706 12.2332
# 5 25.2238 14.0583 40.7986 -1.1706 44.5294 6.8394
# 6 -5.9017 -12.7314 1.4763 12.2332 6.8394 21.0125
#
#
#
# Elastic Compliance Matrix: (Units=1/GPa)
#
#
# Indices 1 2 3 4 5 6 
#
# 1 0.028919 -0.007779 0.008969 -0.011340 -0.025138 0.017563
# 2 -0.007779 0.017889 -0.005527 0.003445 0.002982 0.006066
# 3 0.008969 -0.005527 0.024478 -0.008629 -0.027757 0.011508
# 4 -0.011340 0.003445 -0.008629 0.040651 0.018969 -0.030332
# 5 -0.025138 0.002982 -0.027757 0.018969 0.067251 -0.036237
# 6 0.017563 0.006066 0.011508 -0.030332 -0.036237 0.084845
#
#
# Mechanical properties :
#
#
# Convention : Reuss Voigt Hill
#
# Bulk Modulus (GPa) = 15.97179 41.74490 28.85834
# Shear Modulus (GPa) = 17.03129 31.11779 24.07454
#
# Velocity S-wave (km/s) = 2.66549 3.60295 3.16907
# Velocity P-wave (km/s) = 4.01696 5.89260 5.04275
#
# Compressibility (1/GPa) = 0.06261040
#
# Stress axis : x y z
#
# Youngs Moduli (GPa) = 34.57934 55.90062 40.85355
#
# Poissons Ratio (x) = 0.43484 -0.36641
# Poissons Ratio (y) = 0.26899 0.22582
# Poissons Ratio (z) = -0.31013 0.30899
#
# Static dielectric constant tensor:
#      x y z
#    x 2.026360 0.049860 0.057170 
#    y 0.049860 1.911620 0.021460 
#    z 0.057170 0.021460 1.889950 
# 
# From -- ./inp_files/504294.got.cif
#   From: 2010.05.17/outbox.cif.g08.bks.cpg/sg2_253_cif.got.tgz:504294.got - 2010.06.03 11:33:40.
