data_PCOD9100525
_publ_section_title
;
Structure prediction by ZEFSAII (Michael W. Deem and Ramdas Pophale) SiO2 
 PCOD9100525
Probable space group: P -1
;
_chemical_formula_sum "Si O2"
_cell_formula_units_Z 16
_cell_length_a 12.231289
_cell_length_b 15.683352
_cell_length_c 8.167201
_cell_angle_alpha 54.204308
_cell_angle_beta 30.650176
_cell_angle_gamma 64.538578
_cell_volume 637.571735
_symmetry_space_group_name_H-M "P -1"
_symmetry_group_IT_number 2
_symmetry_cell_setting 'triclinic'
loop_
_space_group_symop_operation_xyz
x,y,z
-x,-y,-z
loop_
_atom_site_type_symbol
_atom_site_label
_atom_site_fract_x
_atom_site_fract_y
_atom_site_fract_z
Si Si1 0.284904 0.764548 0.689306
Si Si2 0.155149 0.530762 0.600105
Si Si3 0.076622 0.299402 0.343187
Si Si4 0.442500 0.412733 0.534325
Si Si5 0.163567 0.370502 0.491152
Si Si6 0.186340 0.083594 0.575260
Si Si7 0.626045 0.814125 0.472041
Si Si8 0.910326 0.069538 0.399124
O O1 0.380655 0.660791 0.632015
O O2 0.442195 0.822154 0.565599
O O3 0.231762 0.835255 0.523440
O O4 0.054508 0.719693 0.117583
O O5 0.376631 0.487655 0.394409
O O6 0.145284 0.655032 0.450221
O O7 0.102741 0.466746 0.568647
O O8 0.000000 0.500000 0.000000
O O9 0.082198 0.180291 0.524487
O O10 0.192472 0.376738 0.252227
O O11 0.226554 0.327327 0.959009
O O12 0.500000 0.500000 0.500000
O O13 0.348282 0.309608 0.397115
O O14 0.373681 0.132218 0.408289
O O15 0.239562 0.014894 0.431450
O O16 0.000000 0.000000 0.000000
O O17 0.857763 0.873205 0.037778
O O18 0.000000 0.000000 0.500000
#
# Coordination Sequence:
#
# PCOD9100525 Si02
#       8
#     2   2   2   2   2   2   2   2
#     4  11  22  40  70  95 132 175 223 277 340 393
#     4  10  20  37  64  92 131 176 210 270 335 397
#     4  10  22  40  67  91 132 177 218 269 334 393
#     4  11  24  42  62 100 139 170 221 275 333 403
#     4  10  20  41  65  94 129 173 220 265 332 404
#     4   9  20  42  65  92 131 173 225 276 326 391
#     4   9  20  40  64  91 130 174 219 274 334 395
#     4  10  23  38  65  94 130 174 222 279 338 394
#
# _framework density 25.095215
#
# number of rings (size 3 to 8) (size 9 to 14) (size 15 to 20)
#    0.000    2.000    1.250    2.625    1.750    3.000 
#    4.500    1.250    5.500    0.000    0.000    0.000 
#    0.000    0.000    0.000    0.000    0.000    0.000 
#
# Total GULP energy -89203.234455 kJ/mol
# GULP energy per Si atom -5575.202153 kJ/mol
# Density = 2.503810 g / cm^3
# Si number density = 25.095215 Si / 1000 Ang^3
#
#
#
# Elastic Constant Matrix: (Units=GPa)
#
#
# Indices 1 2 3 4 5 6 
#
# 1 105.8363 41.7077 3.2876 -9.4453 -7.3813 -22.0156
# 2 41.7077 116.2614 25.8804 -14.1548 0.3013 -34.6123
# 3 3.2876 25.8804 49.9226 -8.1071 1.6096 -13.3344
# 4 -9.4453 -14.1548 -8.1071 29.1244 -3.4341 5.1522
# 5 -7.3813 0.3013 1.6096 -3.4341 30.6438 -6.8629
# 6 -22.0156 -34.6123 -13.3344 5.1522 -6.8629 58.1310
#
#
#
# Elastic Compliance Matrix: (Units=1/GPa)
#
#
# Indices 1 2 3 4 5 6 
#
# 1 0.011920 -0.003515 0.002184 0.002658 0.003791 0.003134
# 2 -0.003515 0.012736 -0.004569 0.002975 0.000727 0.005026
# 3 0.002184 -0.004569 0.023852 0.004621 0.000560 0.003235
# 4 0.002658 0.002975 0.004621 0.038326 0.004891 0.001018
# 5 0.003791 0.000727 0.000560 0.004891 0.035342 0.005736
# 6 0.003134 0.005026 0.003235 0.001018 0.005736 0.022711
#
#
# Mechanical properties :
#
#
# Convention : Reuss Voigt Hill
#
# Bulk Modulus (GPa) = 27.24287 45.97464 36.60876
# Shear Modulus (GPa) = 29.59920 36.98947 33.29434
#
# Velocity S-wave (km/s) = 3.43808 3.84339 3.64637
# Velocity P-wave (km/s) = 5.16138 6.16890 5.68750
#
# Compressibility (1/GPa) = 0.03670685
#
# Stress axis : x y z
#
# Youngs Moduli (GPa) = 83.89594 78.51696 41.92504
#
# Poissons Ratio (x) = 0.27602 -0.09156
# Poissons Ratio (y) = 0.29493 0.19155
# Poissons Ratio (z) = -0.18322 0.35874
#
# Static dielectric constant tensor:
#      x y z
#    x 2.293470 -0.111830 0.034560 
#    y -0.111830 2.070320 0.018700 
#    z 0.034560 0.018700 2.044950 
# 
# From -- ./inp_files/277410.got.cif
#   From: 2010.05.17/outbox.cif.g08.bks.cpg/sg2_139_cif.got.tgz:277410.got - 2010.06.03 11:33:40.
