data_PCOD9100242
_publ_section_title
;
Structure prediction by ZEFSAII (Michael W. Deem and Ramdas Pophale) SiO2 
 PCOD9100242
Probable space group: P -1
;
_chemical_formula_sum "Si O2"
_cell_formula_units_Z 16
_cell_length_a 7.390848
_cell_length_b 12.021148
_cell_length_c 23.309608
_cell_angle_alpha 18.808587
_cell_angle_beta 83.727862
_cell_angle_gamma 90.321944
_cell_volume 624.106941
_symmetry_space_group_name_H-M "P -1"
_symmetry_group_IT_number 2
_symmetry_cell_setting 'triclinic'
loop_
_space_group_symop_operation_xyz
x,y,z
-x,-y,-z
loop_
_atom_site_type_symbol
_atom_site_label
_atom_site_fract_x
_atom_site_fract_y
_atom_site_fract_z
Si Si1 0.567961 0.646941 0.070909
Si Si2 0.760443 0.607349 0.389417
Si Si3 0.783729 0.477224 0.042157
Si Si4 0.315723 0.339581 0.513382
Si Si5 0.082584 0.955964 0.608311
Si Si6 0.264729 0.846551 0.491940
Si Si7 0.801937 0.665145 0.157928
Si Si8 0.775141 0.331762 0.993846
O O1 0.714923 0.695112 0.988053
O O2 0.678961 0.805496 0.048062
O O3 0.446616 0.217424 0.300203
O O4 0.395441 0.785309 0.989683
O O5 0.537289 0.576344 0.400580
O O6 0.796382 0.560970 0.477680
O O7 0.790755 0.304475 0.496439
O O8 0.859316 0.009577 0.163452
O O9 0.692798 0.470348 0.985554
O O10 0.696133 0.068277 0.269439
O O11 0.000000 0.500000 0.000000
O O12 0.230383 0.288971 0.477255
O O13 0.170220 0.687863 0.702658
O O14 0.929181 0.082267 0.516721
O O15 0.947253 0.672348 0.797437
O O16 0.295296 0.528955 0.684930
O O17 0.000000 0.000000 0.000000
#
# Coordination Sequence:
#
# PCOD9100242 Si02
#       8
#     2   2   2   2   2   2   2   2
#     4  11  23  42  65  91 126 171 219 256 320 390
#     4  10  21  39  60  93 133 162 210 260 323 370
#     4  11  18  36  65  93 125 166 207 252 316 379
#     4  10  20  37  63  89 128 171 201 262 318 385
#     4  11  22  43  64  94 126 168 220 259 323 386
#     4  11  24  42  67  92 126 174 214 263 320 387
#     4  12  25  44  66  93 128 168 220 276 320 365
#     4  10  22  37  64  97 125 167 208 262 317 383
#
# _framework density 25.636631999999999
#
# number of rings (size 3 to 8) (size 9 to 14) (size 15 to 20)
#    0.000    1.250    3.750    1.875    0.000    2.500 
#    0.000    6.875    0.000    0.000    0.000    0.000 
#    0.000    0.000    0.000    0.000    0.000    0.000 
#
# Total GULP energy -89302.445440 kJ/mol
# GULP energy per Si atom -5581.402840 kJ/mol
# Density = 2.557828 g / cm^3
# Si number density = 25.636632 Si / 1000 Ang^3
#
#
#
# Elastic Constant Matrix: (Units=GPa)
#
#
# Indices 1 2 3 4 5 6 
#
# 1 74.7676 25.8851 3.2616 -11.9505 -15.8750 12.0120
# 2 25.8851 111.4026 5.1568 -12.7847 -6.2769 9.1832
# 3 3.2616 5.1568 53.3737 2.2933 -6.2967 14.3568
# 4 -11.9505 -12.7847 2.2933 38.3084 6.3085 -2.3653
# 5 -15.8750 -6.2769 -6.2967 6.3085 14.1808 -13.5026
# 6 12.0120 9.1832 14.3568 -2.3653 -13.5026 31.6467
#
#
#
# Elastic Compliance Matrix: (Units=1/GPa)
#
#
# Indices 1 2 3 4 5 6 
#
# 1 0.018968 -0.003289 0.000948 0.001239 0.022535 0.003032
# 2 -0.003289 0.010117 -0.000575 0.002738 -0.003101 -0.002544
# 3 0.000948 -0.000575 0.021566 -0.002212 0.002880 -0.008913
# 4 0.001239 0.002738 -0.002212 0.029947 -0.016545 -0.005082
# 5 0.022535 -0.003101 0.002880 -0.016545 0.157145 0.056852
# 6 0.003032 -0.002544 -0.008913 -0.005082 0.056852 0.059107
#
#
# Mechanical properties :
#
#
# Convention : Reuss Voigt Hill
#
# Bulk Modulus (GPa) = 22.31272 34.23899 28.27586
# Shear Modulus (GPa) = 15.74204 30.50988 23.12596
#
# Velocity S-wave (km/s) = 2.48068 3.45351 3.00670
# Velocity P-wave (km/s) = 4.11429 5.41173 4.80698
#
# Compressibility (1/GPa) = 0.04481748
#
# Stress axis : x y z
#
# Youngs Moduli (GPa) = 52.72082 98.84712 46.36984
#
# Poissons Ratio (x) = 0.32514 -0.04398
# Poissons Ratio (y) = 0.17341 0.02668
# Poissons Ratio (z) = -0.05000 0.05688
#
# Static dielectric constant tensor:
#      x y z
#    x 2.119210 0.025440 -0.012140 
#    y 0.025440 2.225430 -0.049160 
#    z -0.012140 -0.049160 1.984530 
# 
# From -- ./inp_files/607730.got.cif
#   From: 2010.05.17/outbox.cif.g08.bks.cpg/sg2_304_cif.got.tgz:607730.got - 2010.06.03 11:33:40.
