data_PCOD9100366
_publ_section_title
;
Structure prediction by ZEFSAII (Michael W. Deem and Ramdas Pophale) SiO2 
 PCOD9100366
Probable space group: P -1
;
_chemical_formula_sum "Si O2"
_cell_formula_units_Z 14
_cell_length_a 25.519352
_cell_length_b 9.758848
_cell_length_c 9.522164
_cell_angle_alpha 58.576772
_cell_angle_beta 148.978259
_cell_angle_gamma 144.647412
_cell_volume 568.038290
_symmetry_space_group_name_H-M "P -1"
_symmetry_group_IT_number 2
_symmetry_cell_setting 'triclinic'
loop_
_space_group_symop_operation_xyz
x,y,z
-x,-y,-z
loop_
_atom_site_type_symbol
_atom_site_label
_atom_site_fract_x
_atom_site_fract_y
_atom_site_fract_z
Si Si1 0.749474 0.669554 0.200499
Si Si2 0.355892 0.278812 0.612214
Si Si3 0.902668 0.635456 0.359017
Si Si4 0.686289 0.312229 0.449859
Si Si5 0.271782 0.718138 0.132381
Si Si6 0.419815 0.167887 0.078486
Si Si7 0.155720 0.716977 0.359964
O O1 0.760665 0.576131 0.136524
O O2 0.790072 0.594556 0.458054
O O3 0.547548 0.474108 0.874574
O O4 0.902573 0.011852 0.366275
O O5 0.394208 0.519326 0.583112
O O6 0.200765 0.963096 0.355763
O O7 0.341566 0.204265 0.781877
O O8 0.893609 0.458599 0.524550
O O9 0.840377 0.522705 0.116321
O O10 0.780334 0.382621 0.774080
O O11 0.490016 0.128694 0.147825
O O12 0.674088 0.150236 0.399727
O O13 0.500000 0.000000 0.500000
O O14 0.266776 0.895969 0.975374
O O15 0.000000 0.500000 0.000000
#
# Coordination Sequence:
#
# PCOD9100366 Si02
#       7
#     2   2   2   2   2   2   2
#     4   9  21  39  66  94 121 168 207 254 315 360
#     4  10  20  39  66  88 126 161 211 253 309 367
#     4  10  21  42  64  91 130 162 208 258 304 373
#     4   9  21  40  62  90 124 157 213 241 312 371
#     4  10  20  37  63  96 123 160 207 254 306 373
#     4   9  19  38  62  94 118 162 205 253 309 366
#     4  11  24  43  63  93 123 167 209 259 305 367
#
# _framework density 24.646227
#
# number of rings (size 3 to 8) (size 9 to 14) (size 15 to 20)
#    0.000    2.286    1.429    0.000    4.000    3.429 
#   23.143    2.857    0.000    0.000    0.000    0.000 
#    0.000    0.000    0.000    0.000    0.000    0.000 
#
# Total GULP energy -78160.625626 kJ/mol
# GULP energy per Si atom -5582.901830 kJ/mol
# Density = 2.459013 g / cm^3
# Si number density = 24.646227 Si / 1000 Ang^3
#
#
#
# Elastic Constant Matrix: (Units=GPa)
#
#
# Indices 1 2 3 4 5 6 
#
# 1 87.9243 28.7581 9.0845 4.5168 -15.0197 10.1302
# 2 28.7581 96.7034 18.9567 28.0002 -20.3073 4.6526
# 3 9.0845 18.9567 68.2949 23.4432 -21.1173 2.2538
# 4 4.5168 28.0002 23.4432 37.8419 -2.6660 -6.7493
# 5 -15.0197 -20.3073 -21.1173 -2.6660 47.5507 0.6277
# 6 10.1302 4.6526 2.2538 -6.7493 0.6277 37.7096
#
#
#
# Elastic Compliance Matrix: (Units=1/GPa)
#
#
# Indices 1 2 3 4 5 6 
#
# 1 0.013288 -0.003376 -0.000069 0.000601 0.002799 -0.003088
# 2 -0.003376 0.016243 0.002657 -0.013488 0.006344 -0.003776
# 3 -0.000069 0.002657 0.022867 -0.016238 0.010420 -0.004755
# 4 0.000601 -0.013488 -0.016238 0.047664 -0.010257 0.011175
# 5 0.002799 0.006344 0.010420 -0.010257 0.028735 -0.004472
# 6 -0.003088 -0.003776 -0.004755 0.011175 -0.004472 0.030173
#
#
# Mechanical properties :
#
#
# Convention : Reuss Voigt Hill
#
# Bulk Modulus (GPa) = 19.67686 40.72457 30.20071
# Shear Modulus (GPa) = 28.17103 37.69533 32.93318
#
# Velocity S-wave (km/s) = 3.38452 3.91507 3.65942
# Velocity P-wave (km/s) = 4.82435 6.08248 5.48958
#
# Compressibility (1/GPa) = 0.05082113
#
# Stress axis : x y z
#
# Youngs Moduli (GPa) = 75.25722 61.56357 43.73117
#
# Poissons Ratio (x) = 0.20782 0.00304
# Poissons Ratio (y) = 0.25404 -0.11618
# Poissons Ratio (z) = 0.00523 -0.16355
#
# Static dielectric constant tensor:
#      x y z
#    x 2.012900 -0.060760 0.062730 
#    y -0.060760 2.089720 -0.087670 
#    z 0.062730 -0.087670 2.049240 
# 
# From -- ./inp_files/242822.got.cif
#   From: 2010.05.17/outbox.cif.g08.bks.cpg/sg2_122_cif.got.tgz:242822.got - 2010.06.03 11:33:40.
