data_PCOD9100536
_publ_section_title
;
Structure prediction by ZEFSAII (Michael W. Deem and Ramdas Pophale) SiO2 
 PCOD9100536
Probable space group: P -1
;
_chemical_formula_sum "Si O2"
_cell_formula_units_Z 14
_cell_length_a 11.268420
_cell_length_b 13.871417
_cell_length_c 13.322579
_cell_angle_alpha 143.207395
_cell_angle_beta 35.562967
_cell_angle_gamma 151.574315
_cell_volume 548.404970
_symmetry_space_group_name_H-M "P -1"
_symmetry_group_IT_number 2
_symmetry_cell_setting 'triclinic'
loop_
_space_group_symop_operation_xyz
x,y,z
-x,-y,-z
loop_
_atom_site_type_symbol
_atom_site_label
_atom_site_fract_x
_atom_site_fract_y
_atom_site_fract_z
Si Si1 0.937059 0.003887 0.749384
Si Si2 0.138258 0.627124 0.316727
Si Si3 0.177182 0.327670 0.157444
Si Si4 0.620906 0.559518 0.677972
Si Si5 0.931732 0.390063 0.066498
Si Si6 0.398631 0.277553 0.425626
Si Si7 0.304887 0.089581 0.741464
O O1 0.187319 0.061881 0.688877
O O2 0.676440 0.778047 0.797726
O O3 0.868805 0.907653 0.604333
O O4 0.938484 0.199086 0.910360
O O5 0.081261 0.433458 0.253255
O O6 0.404347 0.827597 0.356990
O O7 0.891131 0.616964 0.496421
O O8 0.143472 0.582856 0.159165
O O9 0.380195 0.465015 0.223443
O O10 0.298476 0.260208 0.943258
O O11 0.918855 0.123594 0.221393
O O12 0.396153 0.331978 0.588787
O O13 0.638073 0.282768 0.227650
O O14 0.000000 0.500000 0.000000
O O15 0.500000 0.500000 0.500000
#
# Coordination Sequence:
#
# PCOD9100536 Si02
#       7
#     2   2   2   2   2   2   2
#     4  10  20  41  64  90 126 162 211 256 311 373
#     4  11  22  42  63  96 135 160 211 268 316 374
#     4  10  20  37  64  93 127 169 208 251 322 379
#     4   9  21  39  66  94 128 168 206 259 321 379
#     4  11  24  40  65  92 123 168 212 260 315 371
#     4   9  20  42  64  86 124 164 206 259 306 374
#     4  10  22  38  66  99 126 166 210 264 315 381
#
# _framework density 25.528580999999999
#
# number of rings (size 3 to 8) (size 9 to 14) (size 15 to 20)
#    0.000    2.000    1.429    1.286    0.000    6.857 
#    5.143    6.429    3.143    0.000    0.000    0.000 
#    0.000    0.000    0.000    0.000    0.000    0.000 
#
# Total GULP energy -78217.713690 kJ/mol
# GULP energy per Si atom -5586.979549 kJ/mol
# Density = 2.547048 g / cm^3
# Si number density = 25.528581 Si / 1000 Ang^3
#
#
#
# Elastic Constant Matrix: (Units=GPa)
#
#
# Indices 1 2 3 4 5 6 
#
# 1 194.6956 65.0002 67.4900 13.1761 37.4262 9.1468
# 2 65.0002 115.5116 37.7895 13.6917 14.0212 18.2830
# 3 67.4900 37.7895 100.6105 15.7576 8.6909 -3.6483
# 4 13.1761 13.6917 15.7576 38.1039 6.7799 10.7907
# 5 37.4262 14.0212 8.6909 6.7799 63.8329 10.2353
# 6 9.1468 18.2830 -3.6483 10.7907 10.2353 64.0766
#
#
#
# Elastic Compliance Matrix: (Units=1/GPa)
#
#
# Indices 1 2 3 4 5 6 
#
# 1 0.008223 -0.002853 -0.004229 0.000616 -0.003665 -0.000119
# 2 -0.002853 0.011638 -0.002337 -0.001440 0.000038 -0.002810
# 3 -0.004229 -0.002337 0.014377 -0.004600 0.001093 0.002689
# 4 0.000616 -0.001440 -0.004600 0.030116 -0.001862 -0.004713
# 5 -0.003665 0.000038 0.001093 -0.001862 0.018179 -0.002016
# 6 -0.000119 -0.002810 0.002689 -0.004713 -0.002016 0.017694
#
#
# Mechanical properties :
#
#
# Convention : Reuss Voigt Hill
#
# Bulk Modulus (GPa) = 64.93254 83.48637 74.20945
# Shear Modulus (GPa) = 40.25810 49.23854 44.74832
#
# Velocity S-wave (km/s) = 3.97543 4.39653 4.19127
# Velocity P-wave (km/s) = 6.82367 7.65158 7.24946
#
# Compressibility (1/GPa) = 0.01540060
#
# Stress axis : x y z
#
# Youngs Moduli (GPa) = 121.60941 85.92519 69.55453
#
# Poissons Ratio (x) = 0.24516 0.29412
# Poissons Ratio (y) = 0.34698 0.16255
# Poissons Ratio (z) = 0.51424 0.20081
#
# Static dielectric constant tensor:
#      x y z
#    x 2.125050 0.089830 0.040800 
#    y 0.089830 2.101540 0.001270 
#    z 0.040800 0.001270 2.072350 
# 
# From -- ./inp_files/521002.got.cif
#   From: 2010.05.17/outbox.cif.g08.bks.cpg/sg2_261_cif.got.tgz:521002.got - 2010.06.03 11:33:40.
