data_PCOD9100742
_publ_section_title
;
Structure prediction by ZEFSAII (Michael W. Deem and Ramdas Pophale) SiO2 
 PCOD9100742
Probable space group: P -1
;
_chemical_formula_sum "Si O2"
_cell_formula_units_Z 16
_cell_length_a 8.563530
_cell_length_b 19.043677
_cell_length_c 12.287079
_cell_angle_alpha 151.873616
_cell_angle_beta 121.912963
_cell_angle_gamma 64.694669
_cell_volume 798.074409
_symmetry_space_group_name_H-M "P -1"
_symmetry_group_IT_number 2
_symmetry_cell_setting 'triclinic'
loop_
_space_group_symop_operation_xyz
x,y,z
-x,-y,-z
loop_
_atom_site_type_symbol
_atom_site_label
_atom_site_fract_x
_atom_site_fract_y
_atom_site_fract_z
Si Si1 0.546352 0.302044 0.995730
Si Si2 0.411509 0.390758 0.645592
Si Si3 0.951422 0.847911 0.118717
Si Si4 0.329255 0.731046 0.250362
Si Si5 0.757329 0.953626 0.395806
Si Si6 0.579253 0.852895 0.870109
Si Si7 0.957890 0.467701 0.228594
Si Si8 0.353299 0.625148 0.630040
O O1 0.471954 0.461706 0.159031
O O2 0.666647 0.338767 0.199435
O O3 0.625807 0.265813 0.857627
O O4 0.407723 0.160834 0.782172
O O5 0.510424 0.333943 0.711208
O O6 0.411723 0.263237 0.382868
O O7 0.204357 0.438444 0.655780
O O8 0.876620 0.859854 0.231348
O O9 0.786545 0.886517 0.035723
O O10 0.125388 0.971861 0.357927
O O11 0.994749 0.677707 0.882145
O O12 0.300377 0.903218 0.498473
O O13 0.143395 0.615524 0.027579
O O14 0.450708 0.770075 0.802880
O O15 0.500000 0.000000 0.000000
O O16 0.153911 0.565581 0.426073
O O17 0.500000 0.500000 0.500000
#
# Coordination Sequence:
#
# PCOD9100742 Si02
#       8
#     2   2   2   2   2   2   2   2
#     4  11  20  37  66  91 122 163 211 259 301 374
#     4  11  24  42  66  93 133 168 205 265 320 374
#     4  10  20  38  64  90 128 164 212 257 312 377
#     4  10  23  41  62  94 133 167 202 261 326 369
#     4  10  20  37  65  94 123 167 209 260 308 377
#     4  12  25  44  64  92 133 168 205 267 329 371
#     4  10  21  40  67  94 124 166 218 257 308 380
#     4  12  22  42  68  96 122 163 222 264 308 379
#
# _framework density 20.048255999999999
#
# number of rings (size 3 to 8) (size 9 to 14) (size 15 to 20)
#    0.000    1.250    3.750    2.625    0.000    5.500 
#    4.500    1.250    0.000    0.000    0.000    0.000 
#    0.000    0.000    0.000    0.000    0.000    0.000 
#
# Total GULP energy -89180.006434 kJ/mol
# GULP energy per Si atom -5573.750402 kJ/mol
# Density = 2.000262 g / cm^3
# Si number density = 20.048256 Si / 1000 Ang^3
#
#
#
# Elastic Constant Matrix: (Units=GPa)
#
#
# Indices 1 2 3 4 5 6 
#
# 1 51.9894 48.9170 34.9017 -4.4274 -2.7994 -12.7466
# 2 48.9170 137.3869 50.8660 4.7125 3.2382 -24.9107
# 3 34.9017 50.8660 103.2461 2.4530 10.8253 -10.9614
# 4 -4.4274 4.7125 2.4530 34.8501 -3.9599 0.0062
# 5 -2.7994 3.2382 10.8253 -3.9599 42.4806 -2.2106
# 6 -12.7466 -24.9107 -10.9614 0.0062 -2.2106 31.5272
#
#
#
# Elastic Compliance Matrix: (Units=1/GPa)
#
#
# Indices 1 2 3 4 5 6 
#
# 1 0.035018 -0.009185 -0.007591 0.006886 0.005827 0.004669
# 2 -0.009185 0.012483 -0.002318 -0.002801 -0.000952 0.005277
# 3 -0.007591 -0.002318 0.013829 -0.002086 -0.004062 -0.000377
# 4 0.006886 -0.002801 -0.002086 0.030555 0.004054 0.000124
# 5 0.005827 -0.000952 -0.004062 0.004054 0.025513 0.001979
# 6 0.004669 0.005277 -0.000377 0.000124 0.001979 0.037784
#
#
# Mechanical properties :
#
#
# Convention : Reuss Voigt Hill
#
# Bulk Modulus (GPa) = 43.21341 62.44353 52.82847
# Shear Modulus (GPa) = 24.86529 32.30073 28.58301
#
# Velocity S-wave (km/s) = 3.52557 4.01827 3.77995
# Velocity P-wave (km/s) = 6.17854 7.26243 6.74230
#
# Compressibility (1/GPa) = 0.02314096
#
# Stress axis : x y z
#
# Youngs Moduli (GPa) = 28.55705 80.11144 72.30977
#
# Poissons Ratio (x) = 0.73578 0.54894
# Poissons Ratio (y) = 0.26228 0.16764
# Poissons Ratio (z) = 0.21679 0.18572
#
# Static dielectric constant tensor:
#      x y z
#    x 1.767710 -0.022720 0.010430 
#    y -0.022720 1.711260 -0.013600 
#    z 0.010430 -0.013600 1.770250 
# 
# From -- ./inp_files/403654.got.cif
#   From: 2010.05.17/outbox.cif.g08.bks.cpg/sg2_202_cif.got.tgz:403654.got - 2010.06.03 11:33:40.
