data_PCOD9100958
_publ_section_title
;
Structure prediction by ZEFSAII (Michael W. Deem and Ramdas Pophale) SiO2 
 PCOD9100958
Probable space group: P -1
;
_chemical_formula_sum "Si O2"
_cell_formula_units_Z 12
_cell_length_a 9.415211
_cell_length_b 16.786109
_cell_length_c 10.016058
_cell_angle_alpha 143.640534
_cell_angle_beta 45.680757
_cell_angle_gamma 133.887631
_cell_volume 638.812389
_symmetry_space_group_name_H-M "P -1"
_symmetry_group_IT_number 2
_symmetry_cell_setting 'triclinic'
loop_
_space_group_symop_operation_xyz
x,y,z
-x,-y,-z
loop_
_atom_site_type_symbol
_atom_site_label
_atom_site_fract_x
_atom_site_fract_y
_atom_site_fract_z
Si Si1 0.251600 0.668586 0.162737
Si Si2 0.014508 0.648690 0.042129
Si Si3 0.928022 0.896209 0.282098
Si Si4 0.341967 0.036348 0.045721
Si Si5 0.466696 0.651953 0.742936
Si Si6 0.472082 0.903560 0.518099
O O1 0.310511 0.757122 0.376883
O O2 0.147786 0.504046 0.037088
O O3 0.090065 0.711736 0.226547
O O4 0.449200 0.684428 0.956487
O O5 0.231395 0.634553 0.824350
O O6 0.934256 0.746873 0.132413
O O7 0.696328 0.887885 0.382693
O O8 0.000000 0.000000 0.500000
O O9 0.105763 0.957447 0.137701
O O10 0.387709 0.206089 0.230671
O O11 0.500000 0.000000 0.000000
O O12 0.394977 0.975951 0.789765
O O13 0.500000 0.500000 0.500000
O O14 0.500000 0.000000 0.500000
#
# Coordination Sequence:
#
# PCOD9100958 Si02
#       6
#     2   2   2   2   2   2
#     4   9  20  41  63  91 130 171 211 273 329 382
#     4   9  20  42  63  92 125 176 223 250 344 395
#     4  12  24  40  68  95 131 178 220 271 332 393
#     4  12  23  44  69 100 129 175 226 269 333 398
#     4  10  20  37  67  95 126 165 222 266 320 396
#     4  12  24  44  65  98 138 166 224 281 324 394
#
# _framework density 18.784859000000001
#
# number of rings (size 3 to 8) (size 9 to 14) (size 15 to 20)
#    1.000    0.333    5.000    1.000    2.333    2.667 
#    3.000    0.833    0.000    0.000    0.000    0.000 
#    0.000    0.000    0.000    0.000    0.000    0.000 
#
# Total GULP energy -66899.064369 kJ/mol
# GULP energy per Si atom -5574.922031 kJ/mol
# Density = 1.874210 g / cm^3
# Si number density = 18.784859 Si / 1000 Ang^3
#
#
#
# Elastic Constant Matrix: (Units=GPa)
#
#
# Indices 1 2 3 4 5 6 
#
# 1 111.1319 46.1571 52.7365 10.3042 -7.4774 -6.6507
# 2 46.1571 124.2301 36.0880 5.9283 -6.5568 -11.4646
# 3 52.7365 36.0880 101.1200 -0.4354 6.4908 -11.1948
# 4 10.3042 5.9283 -0.4354 31.9373 -2.0598 -1.3503
# 5 -7.4774 -6.5568 6.4908 -2.0598 35.0296 5.9359
# 6 -6.6507 -11.4646 -11.1948 -1.3503 5.9359 27.8666
#
#
#
# Elastic Compliance Matrix: (Units=1/GPa)
#
#
# Indices 1 2 3 4 5 6 
#
# 1 0.013885 -0.003011 -0.006588 -0.003840 0.003656 -0.001536
# 2 -0.003011 0.010010 -0.001812 -0.000738 0.001117 0.002398
# 3 -0.006588 -0.001812 0.014854 0.002537 -0.005175 0.004875
# 4 -0.003840 -0.000738 0.002537 0.032796 0.000275 0.001330
# 5 0.003656 0.001117 -0.005175 0.000275 0.031783 -0.007504
# 6 -0.001536 0.002398 0.004875 0.001330 -0.007504 0.040127
#
#
# Mechanical properties :
#
#
# Convention : Reuss Voigt Hill
#
# Bulk Modulus (GPa) = 62.78045 67.38278 65.08162
# Shear Modulus (GPa) = 29.13991 32.40007 30.76999
#
# Velocity S-wave (km/s) = 3.94286 4.15757 4.05164
# Velocity P-wave (km/s) = 7.36352 7.68088 7.52387
#
# Compressibility (1/GPa) = 0.01592853
#
# Stress axis : x y z
#
# Youngs Moduli (GPa) = 72.01871 99.90079 67.31969
#
# Poissons Ratio (x) = 0.30077 0.44352
# Poissons Ratio (y) = 0.21683 0.12195
# Poissons Ratio (z) = 0.47448 0.18098
#
# Static dielectric constant tensor:
#      x y z
#    x 1.672700 -0.004790 -0.027890 
#    y -0.004790 1.679090 0.012110 
#    z -0.027890 0.012110 1.710660 
# 
# From -- ./inp_files/204674.got.cif
#   From: 2010.05.17/outbox.cif.g08.bks.cpg/sg2_103_cif.got.tgz:204674.got - 2010.06.03 11:33:40.
