data_PCOD9100064
_publ_section_title
;
Structure prediction by ZEFSAII (Michael W. Deem and Ramdas Pophale) SiO2 
 PCOD9100064
Probable space group: P -1
;
_chemical_formula_sum "Si O2"
_cell_formula_units_Z 14
_cell_length_a 9.589180
_cell_length_b 13.897379
_cell_length_c 9.146786
_cell_angle_alpha 138.752703
_cell_angle_beta 122.696305
_cell_angle_gamma 80.958433
_cell_volume 604.386741
_symmetry_space_group_name_H-M "P -1"
_symmetry_group_IT_number 2
_symmetry_cell_setting 'triclinic'
loop_
_space_group_symop_operation_xyz
x,y,z
-x,-y,-z
loop_
_atom_site_type_symbol
_atom_site_label
_atom_site_fract_x
_atom_site_fract_y
_atom_site_fract_z
Si Si1 0.980907 0.552468 0.885260
Si Si2 0.187607 0.653549 0.843160
Si Si3 0.919860 0.235707 0.338948
Si Si4 0.669092 0.650627 0.846041
Si Si5 0.557398 0.649184 0.091077
Si Si6 0.345696 0.067074 0.011339
Si Si7 0.206880 0.150190 0.316172
O O1 0.884147 0.376473 0.552501
O O2 0.857573 0.646631 0.900115
O O3 0.161737 0.652450 0.001943
O O4 0.000000 0.500000 0.000000
O O5 0.193721 0.804250 0.923508
O O6 0.000000 0.500000 0.500000
O O7 0.373154 0.640839 0.904944
O O8 0.128581 0.282715 0.460769
O O9 0.846253 0.095173 0.257733
O O10 0.500000 0.500000 0.500000
O O11 0.669095 0.630267 0.996769
O O12 0.656517 0.815091 0.982604
O O13 0.669548 0.819611 0.435202
O O14 0.500000 0.500000 0.000000
O O15 0.336373 0.162812 0.265390
O O16 0.500000 0.000000 0.000000
O O17 0.000000 0.000000 0.000000
#
# Coordination Sequence:
#
# PCOD9100064 Si02
#       7
#     2   2   2   2   2   2   2
#     4  11  22  39  64  99 134 170 218 282 337 392
#     4  10  20  37  62  92 126 170 217 266 325 395
#     4  10  21  43  65  89 133 181 218 270 338 406
#     4  12  24  41  68 103 135 174 227 285 342 404
#     4  12  23  40  67  98 131 177 228 275 334 409
#     4  11  23  42  66  95 132 177 224 285 342 396
#     4  10  23  44  66  92 133 181 222 271 337 406
#
# _framework density 23.163975000000001
#
# number of rings (size 3 to 8) (size 9 to 14) (size 15 to 20)
#    0.000    1.143    0.000    8.571    0.000    1.143 
#    0.000   15.714    0.000    0.000    0.000    0.000 
#    0.000    0.000    0.000    0.000    0.000    0.000 
#
# Total GULP energy -77964.741738 kJ/mol
# GULP energy per Si atom -5568.910124 kJ/mol
# Density = 2.311125 g / cm^3
# Si number density = 23.163975 Si / 1000 Ang^3
#
#
#
# Elastic Constant Matrix: (Units=GPa)
#
#
# Indices 1 2 3 4 5 6 
#
# 1 115.9587 17.5267 7.2156 2.5087 -17.8979 -14.2746
# 2 17.5267 125.0282 14.9400 9.3239 -7.0729 4.1154
# 3 7.2156 14.9400 87.1640 -7.9452 -2.2019 9.3168
# 4 2.5087 9.3239 -7.9452 28.5815 4.6064 -5.3393
# 5 -17.8979 -7.0729 -2.2019 4.6064 32.3691 -9.9375
# 6 -14.2746 4.1154 9.3168 -5.3393 -9.9375 54.4405
#
#
#
# Elastic Compliance Matrix: (Units=1/GPa)
#
#
# Indices 1 2 3 4 5 6 
#
# 1 0.010447 -0.000988 -0.001076 -0.001238 0.006936 0.004143
# 2 -0.000988 0.008708 -0.001623 -0.003586 0.001539 -0.000710
# 3 -0.001076 -0.001623 0.012389 0.003880 -0.001316 -0.002139
# 4 -0.001238 -0.003586 0.003880 0.038696 -0.006108 0.001963
# 5 0.006936 0.001539 -0.001316 -0.006108 0.038405 0.008339
# 6 0.004143 -0.000710 -0.002139 0.001963 0.008339 0.021589
#
#
# Mechanical properties :
#
#
# Convention : Reuss Voigt Hill
#
# Bulk Modulus (GPa) = 41.37109 45.27952 43.32530
# Shear Modulus (GPa) = 34.32536 42.30946 38.31741
#
# Velocity S-wave (km/s) = 3.85365 4.27842 4.07157
# Velocity P-wave (km/s) = 6.14001 6.63297 6.39124
#
# Compressibility (1/GPa) = 0.02417147
#
# Stress axis : x y z
#
# Youngs Moduli (GPa) = 95.71902 114.83142 80.71687
#
# Poissons Ratio (x) = 0.11341 0.08685
# Poissons Ratio (y) = 0.09454 0.13100
# Poissons Ratio (z) = 0.10299 0.18636
#
# Static dielectric constant tensor:
#      x y z
#    x 1.855720 -0.030820 -0.038470 
#    y -0.030820 2.114060 0.084300 
#    z -0.038470 0.084300 1.987360 
# 
# From -- ./inp_files/209583.got.cif
#   From: 2010.05.17/outbox.cif.g08.bks.cpg/sg2_105_cif.got.tgz:209583.got - 2010.06.03 11:33:40.
