data_PCOD9100427
_publ_section_title
;
Structure prediction by ZEFSAII (Michael W. Deem and Ramdas Pophale) SiO2 
 PCOD9100427
Probable space group: P -1
;
_chemical_formula_sum "Si O2"
_cell_formula_units_Z 14
_cell_length_a 14.551775
_cell_length_b 11.614798
_cell_length_c 9.243871
_cell_angle_alpha 50.487556
_cell_angle_beta 150.894744
_cell_angle_gamma 134.230868
_cell_volume 542.926308
_symmetry_space_group_name_H-M "P -1"
_symmetry_group_IT_number 2
_symmetry_cell_setting 'triclinic'
loop_
_space_group_symop_operation_xyz
x,y,z
-x,-y,-z
loop_
_atom_site_type_symbol
_atom_site_label
_atom_site_fract_x
_atom_site_fract_y
_atom_site_fract_z
Si Si1 0.018992 0.646333 0.234228
Si Si2 0.604545 0.377870 0.802215
Si Si3 0.955938 0.111457 0.192429
Si Si4 0.467039 0.909197 0.289863
Si Si5 0.677723 0.671161 0.292828
Si Si6 0.556603 0.322851 0.306566
Si Si7 0.077478 0.908594 0.303604
O O1 0.242456 0.643591 0.539964
O O2 0.979221 0.723671 0.266219
O O3 0.028026 0.766104 0.016375
O O4 0.836053 0.482126 0.078335
O O5 0.500000 0.500000 0.500000
O O6 0.590776 0.239193 0.782081
O O7 0.476688 0.298934 0.831203
O O8 0.103143 0.221257 0.429838
O O9 0.725663 0.041525 0.990512
O O10 0.031817 0.979201 0.333167
O O11 0.500006 0.835321 0.547667
O O12 0.680193 0.038344 0.427375
O O13 0.623053 0.478607 0.376718
O O14 0.625071 0.692263 0.038659
O O15 0.000000 0.000000 0.000000
#
# Coordination Sequence:
#
# PCOD9100427 Si02
#       7
#     2   2   2   2   2   2   2
#     4  10  21  37  58  94 120 157 206 253 299 362
#     4  12  19  35  67  91 117 162 209 251 299 357
#     4  10  20  37  64  87 121 157 207 247 297 357
#     4  11  21  39  68  93 117 161 210 247 303 361
#     4  11  21  38  59  94 127 158 197 260 307 355
#     4  10  23  36  58  92 131 155 197 257 314 355
#     4  10  21  38  63  95 122 155 206 260 294 355
#
# _framework density 25.786189
#
# number of rings (size 3 to 8) (size 9 to 14) (size 15 to 20)
#    0.000    1.429    4.286    1.714    0.000    8.000 
#    0.000    0.714    0.000    6.000    3.714    0.000 
#    0.000    0.000    0.000    0.000    0.000    0.000 
#
# Total GULP energy -78526.866551 kJ/mol
# GULP energy per Si atom -5609.061897 kJ/mol
# Density = 2.572750 g / cm^3
# Si number density = 25.786189 Si / 1000 Ang^3
#
#
#
# Elastic Constant Matrix: (Units=GPa)
#
#
# Indices 1 2 3 4 5 6 
#
# 1 128.0593 38.9461 49.2035 6.8277 13.0069 -16.5633
# 2 38.9461 81.1232 37.7530 29.8429 -10.4938 -20.8163
# 3 49.2035 37.7530 117.3992 24.1210 1.9785 -8.8827
# 4 6.8277 29.8429 24.1210 39.0140 0.5162 -8.1800
# 5 13.0069 -10.4938 1.9785 0.5162 37.5471 8.8978
# 6 -16.5633 -20.8163 -8.8827 -8.1800 8.8978 47.4385
#
#
#
# Elastic Compliance Matrix: (Units=1/GPa)
#
#
# Indices 1 2 3 4 5 6 
#
# 1 0.011850 -0.006036 -0.003852 0.005623 -0.006361 0.002930
# 2 -0.006036 0.023710 -0.001806 -0.015274 0.008122 0.003801
# 3 -0.003852 -0.001806 0.011744 -0.005415 0.000515 -0.000969
# 4 0.005623 -0.015274 -0.005415 0.040302 -0.007084 0.002525
# 5 -0.006361 0.008122 0.000515 -0.007084 0.032573 -0.005892
# 6 0.002930 0.003801 -0.000969 0.002525 -0.005892 0.025130
#
#
# Mechanical properties :
#
#
# Convention : Reuss Voigt Hill
#
# Bulk Modulus (GPa) = 41.81272 64.26522 53.03897
# Shear Modulus (GPa) = 28.30164 38.17852 33.24008
#
# Velocity S-wave (km/s) = 3.31652 3.85201 3.59425
# Velocity P-wave (km/s) = 5.56023 6.69032 6.15128
#
# Compressibility (1/GPa) = 0.02391617
#
# Stress axis : x y z
#
# Youngs Moduli (GPa) = 84.39017 42.17634 85.15223
#
# Poissons Ratio (x) = 0.25457 0.32799
# Poissons Ratio (y) = 0.50936 0.15378
# Poissons Ratio (z) = 0.32506 0.07617
#
# Static dielectric constant tensor:
#      x y z
#    x 2.000970 0.016770 -0.036680 
#    y 0.016770 2.035960 -0.058390 
#    z -0.036680 -0.058390 2.018600 
# 
# From -- ./inp_files/245695.got.cif
#   From: 2010.05.17/outbox.cif.g08.bks.cpg/sg2_123_cif.got.tgz:245695.got - 2010.06.03 11:33:40.
