data_PCOD9100840
_publ_section_title
;
Structure prediction by ZEFSAII (Michael W. Deem and Ramdas Pophale) SiO2 
 PCOD9100840
Probable space group: P -1
;
_chemical_formula_sum "Si O2"
_cell_formula_units_Z 16
_cell_length_a 8.983885
_cell_length_b 11.298702
_cell_length_c 10.856990
_cell_angle_alpha 96.822862
_cell_angle_beta 107.751328
_cell_angle_gamma 137.359282
_cell_volume 602.119305
_symmetry_space_group_name_H-M "P -1"
_symmetry_group_IT_number 2
_symmetry_cell_setting 'triclinic'
loop_
_space_group_symop_operation_xyz
x,y,z
-x,-y,-z
loop_
_atom_site_type_symbol
_atom_site_label
_atom_site_fract_x
_atom_site_fract_y
_atom_site_fract_z
Si Si1 0.058061 0.953756 0.394718
Si Si2 0.360150 0.286939 0.953698
Si Si3 0.162679 0.268011 0.150360
Si Si4 0.470895 0.679672 0.603532
Si Si5 0.727066 0.295971 0.986031
Si Si6 0.899746 0.535289 0.715365
Si Si7 0.639016 0.998766 0.842321
Si Si8 0.197547 0.806903 0.348395
O O1 0.869644 0.875214 0.224986
O O2 0.020373 0.787806 0.383799
O O3 0.000000 0.000000 0.500000
O O4 0.364147 0.165943 0.453657
O O5 0.500000 0.500000 0.000000
O O6 0.246577 0.236913 0.053893
O O7 0.575565 0.320388 0.984531
O O8 0.339774 0.310651 0.304074
O O9 0.233117 0.451547 0.220035
O O10 0.840226 0.079834 0.012621
O O11 0.182388 0.474180 0.442567
O O12 0.462304 0.780119 0.715397
O O13 0.796601 0.277886 0.132904
O O14 0.554692 0.084953 0.850580
O O15 0.000000 0.500000 0.000000
O O16 0.858990 0.367509 0.691642
O O17 0.827766 0.146570 0.786398
O O18 0.500000 0.000000 0.500000
#
# Coordination Sequence:
#
# PCOD9100840 Si02
#       8
#     2   2   2   2   2   2   2   2
#     4  11  26  40  66 104 131 165 216 279 321 376
#     4  12  25  41  64 100 130 166 221 275 319 373
#     4  11  24  43  68  94 131 173 218 265 319 397
#     4  11  23  44  68  94 130 174 216 260 334 388
#     4  11  23  37  63  92 131 169 212 265 326 387
#     4  11  22  39  67  94 126 175 216 258 326 394
#     4  10  20  37  66  91 121 171 213 259 315 391
#     4  11  19  36  63  96 128 162 208 261 327 376
#
# _framework density 26.572806
#
# number of rings (size 3 to 8) (size 9 to 14) (size 15 to 20)
#    0.000    1.000    6.250    3.000    5.250    0.000 
#    0.000    1.250    5.500    0.000    0.000    0.000 
#    0.000    0.000    0.000    0.000    0.000    0.000 
#
# Total GULP energy -89232.954382 kJ/mol
# GULP energy per Si atom -5577.059649 kJ/mol
# Density = 2.651233 g / cm^3
# Si number density = 26.572806 Si / 1000 Ang^3
#
#
#
# Elastic Constant Matrix: (Units=GPa)
#
#
# Indices 1 2 3 4 5 6 
#
# 1 224.7212 37.2977 56.0421 3.2770 -29.0838 -64.3704
# 2 37.2977 60.2611 1.5840 2.4327 -11.3445 -26.6957
# 3 56.0421 1.5840 143.4394 -0.0331 -4.5564 -27.3054
# 4 3.2770 2.4327 -0.0331 36.4194 -17.2782 -1.8267
# 5 -29.0838 -11.3445 -4.5564 -17.2782 63.3433 7.3190
# 6 -64.3704 -26.6957 -27.3054 -1.8267 7.3190 47.7512
#
#
#
# Elastic Compliance Matrix: (Units=1/GPa)
#
#
# Indices 1 2 3 4 5 6 
#
# 1 0.007779 -0.000186 -0.001174 0.001041 0.002658 0.009343
# 2 -0.000186 0.023259 0.002530 0.000486 0.002801 0.013788
# 3 -0.001174 0.002530 0.008272 0.000189 0.000033 0.004564
# 4 0.001041 0.000486 0.000189 0.031701 0.009040 0.001610
# 5 0.002658 0.002801 0.000033 0.009040 0.019689 0.002497
# 6 0.009343 0.013788 0.004564 0.001610 0.002497 0.043534
#
#
# Mechanical properties :
#
#
# Convention : Reuss Voigt Hill
#
# Bulk Modulus (GPa) = 24.01017 68.69658 46.35338
# Shear Modulus (GPa) = 34.29874 51.73599 43.01736
#
# Velocity S-wave (km/s) = 3.59659 4.41722 4.02786
# Velocity P-wave (km/s) = 5.12860 7.20583 6.25406
#
# Compressibility (1/GPa) = 0.04164902
#
# Stress axis : x y z
#
# Youngs Moduli (GPa) = 128.55534 42.99406 120.88617
#
# Poissons Ratio (x) = 0.00801 0.14191
# Poissons Ratio (y) = 0.02395 -0.30581
# Poissons Ratio (z) = 0.15091 -0.10876
#
# Static dielectric constant tensor:
#      x y z
#    x 2.195980 0.098590 0.016300 
#    y 0.098590 2.263150 -0.024490 
#    z 0.016300 -0.024490 2.128760 
# 
# From -- ./inp_files/390768.got.cif
#   From: 2010.05.17/outbox.cif.g08.bks.cpg/sg2_196_cif.got.tgz:390768.got - 2010.06.03 11:33:40.
