data_PCOD9100115
_publ_section_title
;
Structure prediction by ZEFSAII (Michael W. Deem and Ramdas Pophale) SiO2 
 PCOD9100115
Probable space group: P -1
;
_chemical_formula_sum "Si O2"
_cell_formula_units_Z 16
_cell_length_a 8.889065
_cell_length_b 9.224025
_cell_length_c 15.876190
_cell_angle_alpha 88.689097
_cell_angle_beta 118.898579
_cell_angle_gamma 43.330722
_cell_volume 611.585464
_symmetry_space_group_name_H-M "P -1"
_symmetry_group_IT_number 2
_symmetry_cell_setting 'triclinic'
loop_
_space_group_symop_operation_xyz
x,y,z
-x,-y,-z
loop_
_atom_site_type_symbol
_atom_site_label
_atom_site_fract_x
_atom_site_fract_y
_atom_site_fract_z
Si Si1 0.154497 0.939290 0.286520
Si Si2 0.147283 0.556357 0.756860
Si Si3 0.466253 0.089884 0.123631
Si Si4 0.362650 0.208851 0.673120
Si Si5 0.837061 0.407167 0.898541
Si Si6 0.496145 0.913222 0.586493
Si Si7 0.224471 0.575304 0.310032
Si Si8 0.729281 0.241021 0.006812
O O1 0.932312 0.214165 0.272294
O O2 0.462138 0.811477 0.344571
O O3 0.239799 0.724688 0.350667
O O4 0.990567 0.015666 0.150355
O O5 0.164228 0.457687 0.675626
O O6 0.481229 0.303213 0.899279
O O7 0.848979 0.700139 0.723177
O O8 0.376883 0.320414 0.114965
O O9 0.418851 0.028510 0.196001
O O10 0.844376 0.807929 0.212454
O O11 0.190712 0.225402 0.986784
O O12 0.248543 0.155780 0.584043
O O13 0.696838 0.480608 0.767473
O O14 0.849718 0.254428 0.961895
O O15 0.533794 0.716521 0.583182
O O16 0.500000 0.000000 0.500000
O O17 0.500000 0.500000 0.000000
#
# Coordination Sequence:
#
# PCOD9100115 Si02
#       8
#     2   2   2   2   2   2   2   2
#     4  10  23  38  63  96 140 171 212 255 321 397
#     4  10  22  40  65  92 128 170 220 260 324 393
#     4  11  22  37  62  98 138 177 216 259 323 395
#     4  11  21  43  66  94 129 176 216 267 326 393
#     4  11  23  37  61  99 145 177 215 260 313 397
#     4  11  26  47  69  92 123 168 227 291 341 380
#     4  12  24  41  64  99 130 177 222 275 323 387
#     4  10  20  37  62  94 138 183 209 245 318 398
#
# _framework density 26.161511000000001
#
# number of rings (size 3 to 8) (size 9 to 14) (size 15 to 20)
#    0.000    1.250    3.750    2.625    1.750    2.500 
#    0.000    2.500    0.000    3.750    0.000    0.000 
#    0.000    0.000    0.000    0.000    0.000    0.000 
#
# Total GULP energy -89408.437084 kJ/mol
# GULP energy per Si atom -5588.027318 kJ/mol
# Density = 2.610197 g / cm^3
# Si number density = 26.161511 Si / 1000 Ang^3
#
#
#
# Elastic Constant Matrix: (Units=GPa)
#
#
# Indices 1 2 3 4 5 6 
#
# 1 64.6312 31.8959 5.7969 -3.4138 -8.8948 13.0204
# 2 31.8959 208.2257 36.6037 8.3341 -21.4114 25.3670
# 3 5.7969 36.6037 64.3236 -4.3395 -14.1020 12.0157
# 4 -3.4138 8.3341 -4.3395 25.2090 0.2383 -7.3824
# 5 -8.8948 -21.4114 -14.1020 0.2383 35.3840 -9.5112
# 6 13.0204 25.3670 12.0157 -7.3824 -9.5112 54.3481
#
#
#
# Elastic Compliance Matrix: (Units=1/GPa)
#
#
# Indices 1 2 3 4 5 6 
#
# 1 0.017571 -0.002392 0.001006 0.002588 0.002683 -0.002495
# 2 -0.002392 0.006195 -0.002854 -0.003430 0.001526 -0.001886
# 3 0.001006 -0.002854 0.018858 0.003810 0.005591 -0.001582
# 4 0.002588 -0.003430 0.003810 0.043648 0.001501 0.006330
# 5 0.002683 0.001526 0.005591 0.001501 0.032987 0.003386
# 6 -0.002495 -0.001886 -0.001582 0.006330 0.003386 0.021680
#
#
# Mechanical properties :
#
#
# Convention : Reuss Voigt Hill
#
# Bulk Modulus (GPa) = 29.28761 53.97484 41.63122
# Shear Modulus (GPa) = 31.09445 40.51381 35.80413
#
# Velocity S-wave (km/s) = 3.45129 3.93950 3.70345
# Velocity P-wave (km/s) = 5.20587 6.43188 5.85107
#
# Compressibility (1/GPa) = 0.03414414
#
# Stress axis : x y z
#
# Youngs Moduli (GPa) = 56.91146 161.43131 53.02757
#
# Poissons Ratio (x) = 0.38619 -0.05337
# Poissons Ratio (y) = 0.13615 0.15134
# Poissons Ratio (z) = -0.05728 0.46073
#
# Static dielectric constant tensor:
#      x y z
#    x 2.062540 0.034380 0.033400 
#    y 0.034380 2.186000 -0.031920 
#    z 0.033400 -0.031920 2.125870 
# 
# From -- ./inp_files/556237.got.cif
#   From: 2010.05.17/outbox.cif.g08.bks.cpg/sg2_279_cif.got.tgz:556237.got - 2010.06.03 11:33:40.
