data_PCOD9100859
_publ_section_title
;
Structure prediction by ZEFSAII (Michael W. Deem and Ramdas Pophale) SiO2 
 PCOD9100859
Probable space group: P -1
;
_chemical_formula_sum "Si O2"
_cell_formula_units_Z 16
_cell_length_a 26.501633
_cell_length_b 20.469872
_cell_length_c 9.509406
_cell_angle_alpha 148.674872
_cell_angle_beta 136.206740
_cell_angle_gamma 21.075557
_cell_volume 882.868400
_symmetry_space_group_name_H-M "P -1"
_symmetry_group_IT_number 2
_symmetry_cell_setting 'triclinic'
loop_
_space_group_symop_operation_xyz
x,y,z
-x,-y,-z
loop_
_atom_site_type_symbol
_atom_site_label
_atom_site_fract_x
_atom_site_fract_y
_atom_site_fract_z
Si Si1 0.632486 0.144474 0.174626
Si Si2 0.059044 0.769907 0.523623
Si Si3 0.663740 0.288180 0.262670
Si Si4 0.773812 0.357254 0.128834
Si Si5 0.681893 0.241355 0.892134
Si Si6 0.417215 0.259127 0.810280
Si Si7 0.830789 0.296260 0.661445
Si Si8 0.881264 0.784092 0.235410
O O1 0.698304 0.129354 0.153403
O O2 0.517747 0.407101 0.519523
O O3 0.768860 0.900849 0.104279
O O4 0.532801 0.184851 0.978080
O O5 0.161415 0.634571 0.620630
O O6 0.158218 0.650352 0.366752
O O7 0.977591 0.759057 0.330930
O O8 0.920472 0.081414 0.830876
O O9 0.742529 0.299169 0.477506
O O10 0.717571 0.175558 0.007705
O O11 0.643428 0.600076 0.204739
O O12 0.720901 0.319399 0.049141
O O13 0.775188 0.999218 0.543207
O O14 0.500000 0.500000 0.000000
O O15 0.500000 0.000000 0.500000
O O16 0.264505 0.481880 0.008157
O O17 0.000000 0.000000 0.500000
O O18 0.000000 0.500000 0.000000
#
# Coordination Sequence:
#
# PCOD9100859 Si02
#       8
#     2   2   2   2   2   2   2   2
#     4  10  22  41  61  89 125 156 207 250 306 362
#     4  10  21  39  63  92 120 159 205 252 296 361
#     4  10  20  37  66  94 113 156 205 260 290 347
#     4  10  21  39  63  93 119 157 207 251 301 354
#     4  11  20  38  66  92 117 152 210 250 295 360
#     4  11  25  41  62  88 128 166 194 253 312 357
#     4  11  20  38  65  92 119 154 208 246 296 365
#     4  11  25  41  61  89 129 165 192 253 314 359
#
# _framework density 18.122747
#
# number of rings (size 3 to 8) (size 9 to 14) (size 15 to 20)
#    0.000    1.500    3.750    1.500    8.750    0.000 
#    4.500    1.250    0.000    0.000    0.000    0.000 
#    0.000    0.000    0.000    0.000    0.000    0.000 
#
# Total GULP energy -89275.960625 kJ/mol
# GULP energy per Si atom -5579.747539 kJ/mol
# Density = 1.808150 g / cm^3
# Si number density = 18.122747 Si / 1000 Ang^3
#
#
#
# Elastic Constant Matrix: (Units=GPa)
#
#
# Indices 1 2 3 4 5 6 
#
# 1 106.4768 37.6664 46.6692 6.3183 -22.9081 7.0863
# 2 37.6664 120.8318 40.6851 1.2706 -3.6241 23.3435
# 3 46.6692 40.6851 77.5099 6.7636 -9.4804 12.7906
# 4 6.3183 1.2706 6.7636 24.7748 -0.1653 -0.1395
# 5 -22.9081 -3.6241 -9.4804 -0.1653 18.9796 1.5573
# 6 7.0863 23.3435 12.7906 -0.1395 1.5573 36.3663
#
#
#
# Elastic Compliance Matrix: (Units=1/GPa)
#
#
# Indices 1 2 3 4 5 6 
#
# 1 0.016882 -0.002499 -0.006615 -0.002261 0.016582 -0.000078
# 2 -0.002499 0.011324 -0.003954 0.001090 -0.002386 -0.005285
# 3 -0.006615 -0.003954 0.019996 -0.003578 0.001487 -0.003283
# 4 -0.002261 0.001090 -0.003578 0.041841 -0.004053 0.001333
# 5 0.016582 -0.002386 0.001487 -0.004053 0.073395 -0.005381
# 6 -0.000078 -0.005285 -0.003283 0.001333 -0.005381 0.032296
#
#
# Mechanical properties :
#
#
# Convention : Reuss Voigt Hill
#
# Bulk Modulus (GPa) = 45.31890 61.65110 53.48500
# Shear Modulus (GPa) = 21.81253 28.01068 24.91161
#
# Velocity S-wave (km/s) = 3.47306 3.93569 3.71159
# Velocity P-wave (km/s) = 6.41434 7.39901 6.92420
#
# Compressibility (1/GPa) = 0.02206585
#
# Stress axis : x y z
#
# Youngs Moduli (GPa) = 59.23541 88.30433 50.01061
#
# Poissons Ratio (x) = 0.22069 0.33080
# Poissons Ratio (y) = 0.14804 0.19776
# Poissons Ratio (z) = 0.39181 0.34918
#
# Static dielectric constant tensor:
#      x y z
#    x 1.620150 0.010430 -0.028790 
#    y 0.010430 1.625330 -0.020450 
#    z -0.028790 -0.020450 1.619540 
# 
# From -- ./inp_files/332365.got.cif
#   From: 2010.05.17/outbox.cif.g08.bks.cpg/sg2_167_cif.got.tgz:332365.got - 2010.06.03 11:33:40.
