data_PCOD9100880
_publ_section_title
;
Structure prediction by ZEFSAII (Michael W. Deem and Ramdas Pophale) SiO2 
 PCOD9100880
Probable space group: P -1
;
_chemical_formula_sum "Si O2"
_cell_formula_units_Z 16
_cell_length_a 13.650890
_cell_length_b 8.173203
_cell_length_c 10.899104
_cell_angle_alpha 123.781254
_cell_angle_beta 81.833285
_cell_angle_gamma 133.588132
_cell_volume 670.699510
_symmetry_space_group_name_H-M "P -1"
_symmetry_group_IT_number 2
_symmetry_cell_setting 'triclinic'
loop_
_space_group_symop_operation_xyz
x,y,z
-x,-y,-z
loop_
_atom_site_type_symbol
_atom_site_label
_atom_site_fract_x
_atom_site_fract_y
_atom_site_fract_z
Si Si1 0.667677 0.729205 0.527949
Si Si2 0.540303 0.364341 0.167743
Si Si3 0.135461 0.279472 0.383393
Si Si4 0.142080 0.584788 0.727412
Si Si5 0.696823 0.879788 0.204049
Si Si6 0.720400 0.272047 0.985408
Si Si7 0.832935 0.286626 0.584524
Si Si8 0.886996 0.811722 0.052479
O O1 0.500000 0.500000 0.500000
O O2 0.655518 0.574703 0.344477
O O3 0.760850 0.752328 0.622352
O O4 0.734287 0.034008 0.598748
O O5 0.552080 0.575607 0.167544
O O6 0.610104 0.287934 0.047682
O O7 0.384722 0.073412 0.133450
O O8 0.115286 0.360058 0.550380
O O9 0.197097 0.537099 0.385317
O O10 0.984126 0.983972 0.229212
O O11 0.162116 0.578063 0.863486
O O12 0.001741 0.515599 0.693894
O O13 0.296170 0.916201 0.795850
O O14 0.769397 0.814133 0.083459
O O15 0.801669 0.106643 0.393244
O O16 0.805621 0.481649 0.939652
O O17 0.000000 0.000000 0.000000
#
# Coordination Sequence:
#
# PCOD9100880 Si02
#       8
#     2   2   2   2   2   2   2   2
#     4  11  24  40  60  89 126 167 206 247 304 378
#     4   9  20  40  57  86 124 160 205 250 297 366
#     4  11  21  40  66  91 121 157 203 263 312 352
#     4  11  18  36  69  97 111 149 211 270 308 349
#     4   9  18  36  61  88 121 149 202 257 302 360
#     4  10  21  36  63  89 116 162 207 250 306 357
#     4  10  20  37  66  96 117 150 212 265 306 357
#     4  11  22  38  58  89 126 161 197 249 314 371
#
# _framework density 23.855689999999999
#
# number of rings (size 3 to 8) (size 9 to 14) (size 15 to 20)
#    0.000    1.750    3.750    1.500    0.000    3.000 
#    2.250    0.625    0.000    0.000    0.000    0.000 
#    0.000    0.000    0.000    0.000    0.000    0.000 
#
# Total GULP energy -89366.904504 kJ/mol
# GULP energy per Si atom -5585.431532 kJ/mol
# Density = 2.380139 g / cm^3
# Si number density = 23.855690 Si / 1000 Ang^3
#
#
#
# Elastic Constant Matrix: (Units=GPa)
#
#
# Indices 1 2 3 4 5 6 
#
# 1 48.6449 10.6293 7.9410 -11.1698 9.6537 -12.2686
# 2 10.6293 176.8889 19.2618 19.7084 -7.5224 -26.8659
# 3 7.9410 19.2618 72.3828 16.0820 -6.8933 -12.4799
# 4 -11.1698 19.7084 16.0820 26.1146 -6.6105 -1.4554
# 5 9.6537 -7.5224 -6.8933 -6.6105 25.4930 -1.5926
# 6 -12.2686 -26.8659 -12.4799 -1.4554 -1.5926 28.3006
#
#
#
# Elastic Compliance Matrix: (Units=1/GPa)
#
#
# Indices 1 2 3 4 5 6 
#
# 1 0.029427 -0.001954 -0.005513 0.015777 -0.008570 0.008800
# 2 -0.001954 0.007408 0.000890 -0.006118 0.001978 0.006374
# 3 -0.005513 0.000890 0.018562 -0.013004 0.004386 0.006219
# 4 0.015777 -0.006118 -0.013004 0.058544 0.003793 -0.001479
# 5 -0.008570 0.001978 0.004386 0.003793 0.045402 0.002847
# 6 0.008800 0.006374 0.006219 -0.001479 0.002847 0.048028
#
#
# Mechanical properties :
#
#
# Convention : Reuss Voigt Hill
#
# Bulk Modulus (GPa) = 23.67194 41.50899 32.59047
# Shear Modulus (GPa) = 21.31243 33.32060 27.31652
#
# Velocity S-wave (km/s) = 2.99221 3.74138 3.38756
# Velocity P-wave (km/s) = 4.67785 6.00847 5.38442
#
# Compressibility (1/GPa) = 0.04224410
#
# Stress axis : x y z
#
# Youngs Moduli (GPa) = 33.98271 134.99525 53.87206
#
# Poissons Ratio (x) = 0.26373 0.29697
# Poissons Ratio (y) = 0.06639 -0.04793
# Poissons Ratio (z) = 0.18733 -0.12012
#
# Static dielectric constant tensor:
#      x y z
#    x 1.891650 -0.033600 -0.022590 
#    y -0.033600 1.972650 0.009320 
#    z -0.022590 0.009320 1.961870 
# 
# From -- ./inp_files/402185.got.cif
#   From: 2010.05.17/outbox.cif.g08.bks.cpg/sg2_202_cif.got.tgz:402185.got - 2010.06.03 11:33:40.
