data_PCOD9100477
_publ_section_title
;
Structure prediction by ZEFSAII (Michael W. Deem and Ramdas Pophale) SiO2 
 PCOD9100477
Probable space group: P -1
;
_chemical_formula_sum "Si O2"
_cell_formula_units_Z 16
_cell_length_a 14.338942
_cell_length_b 28.064707
_cell_length_c 8.386441
_cell_angle_alpha 41.926974
_cell_angle_beta 143.206154
_cell_angle_gamma 162.667744
_cell_volume 598.215658
_symmetry_space_group_name_H-M "P -1"
_symmetry_group_IT_number 2
_symmetry_cell_setting 'triclinic'
loop_
_space_group_symop_operation_xyz
x,y,z
-x,-y,-z
loop_
_atom_site_type_symbol
_atom_site_label
_atom_site_fract_x
_atom_site_fract_y
_atom_site_fract_z
Si Si1 0.954752 0.728624 0.785499
Si Si2 0.040176 0.410527 0.389457
Si Si3 0.659765 0.735882 0.559714
Si Si4 0.595473 0.848002 0.052130
Si Si5 0.602652 0.329110 0.311752
Si Si6 0.156896 0.448347 0.106454
Si Si7 0.621800 0.172486 0.645934
Si Si8 0.247653 0.945315 0.399172
O O1 0.812839 0.725783 0.728108
O O2 0.763541 0.576482 0.857894
O O3 0.981588 0.780218 0.524314
O O4 0.320643 0.851327 0.059995
O O5 0.260801 0.566866 0.365842
O O6 0.213911 0.454243 0.355913
O O7 0.646337 0.267326 0.147262
O O8 0.997093 0.337861 0.654819
O O9 0.646304 0.742671 0.711326
O O10 0.812277 0.868824 0.353039
O O11 0.809696 0.006890 0.904379
O O12 0.277625 0.727111 0.046878
O O13 0.536376 0.219272 0.457196
O O14 0.000000 0.500000 0.500000
O O15 0.629708 0.393451 0.039732
O O16 0.407414 0.043266 0.538383
O O17 0.500000 0.000000 0.500000
#
# Coordination Sequence:
#
# PCOD9100477 Si02
#       8
#     2   2   2   2   2   2   2   2
#     4  12  24  40  57  98 126 167 194 261 321 349
#     4   9  19  36  64  92 114 165 209 247 299 362
#     4  12  23  36  61  92 138 154 200 259 312 367
#     4   9  19  37  65  86 115 159 212 252 284 367
#     4  12  20  37  63  94 120 170 203 243 306 380
#     4  10  20  37  64  90 126 152 218 246 305 368
#     4  11  22  40  69  88 122 163 215 248 303 375
#     4  11  23  44  72  88 112 165 222 257 292 368
#
# _framework density 26.746207999999999
#
# number of rings (size 3 to 8) (size 9 to 14) (size 15 to 20)
#    0.750    0.500    5.000    0.750    3.500    3.000 
#    0.000    1.875    0.000    0.000    0.000    0.000 
#    0.000    0.000    0.000    0.000    0.000    0.000 
#
# Total GULP energy -89350.960913 kJ/mol
# GULP energy per Si atom -5584.435057 kJ/mol
# Density = 2.668533 g / cm^3
# Si number density = 26.746208 Si / 1000 Ang^3
#
#
#
# Elastic Constant Matrix: (Units=GPa)
#
#
# Indices 1 2 3 4 5 6 
#
# 1 213.8833 22.7347 48.9169 1.2342 13.3432 -9.9790
# 2 22.7347 82.2247 21.9019 -23.6588 1.2158 -11.1378
# 3 48.9169 21.9019 105.2768 -29.6710 10.6427 -2.0565
# 4 1.2342 -23.6588 -29.6710 35.3908 -7.2271 -5.6221
# 5 13.3432 1.2158 10.6427 -7.2271 41.8538 -7.0249
# 6 -9.9790 -11.1378 -2.0565 -5.6221 -7.0249 37.4797
#
#
#
# Elastic Compliance Matrix: (Units=1/GPa)
#
#
# Indices 1 2 3 4 5 6 
#
# 1 0.005828 -0.002141 -0.003492 -0.004995 -0.001832 -0.000369
# 2 -0.002141 0.017709 0.001312 0.014998 0.003719 0.007711
# 3 -0.003492 0.001312 0.014766 0.013772 0.000094 0.002354
# 4 -0.004995 0.014998 0.013772 0.054084 0.009300 0.013739
# 5 -0.001832 0.003719 0.000094 0.009300 0.027143 0.007105
# 6 -0.000369 0.007711 0.002354 0.013739 0.007105 0.032396
#
#
# Mechanical properties :
#
#
# Convention : Reuss Voigt Hill
#
# Bulk Modulus (GPa) = 33.71411 65.38798 49.55105
# Shear Modulus (GPa) = 29.33306 43.46695 36.40001
#
# Velocity S-wave (km/s) = 3.31527 4.03570 3.69310
# Velocity P-wave (km/s) = 5.22372 6.79827 6.06233
#
# Compressibility (1/GPa) = 0.02966117
#
# Stress axis : x y z
#
# Youngs Moduli (GPa) = 171.59539 56.46767 67.72129
#
# Poissons Ratio (x) = 0.12092 0.23650
# Poissons Ratio (y) = 0.36744 -0.08888
# Poissons Ratio (z) = 0.59924 -0.07411
#
# Static dielectric constant tensor:
#      x y z
#    x 2.028280 0.108580 0.031500 
#    y 0.108580 2.221130 0.032250 
#    z 0.031500 0.032250 2.203030 
# 
# From -- ./inp_files/321050.got.cif
#   From: 2010.05.17/outbox.cif.g08.bks.cpg/sg2_161_cif.got.tgz:321050.got - 2010.06.03 11:33:40.
