data_PCOD9100672
_publ_section_title
;
Structure prediction by ZEFSAII (Michael W. Deem and Ramdas Pophale) SiO2 
 PCOD9100672
Probable space group: P -1
;
_chemical_formula_sum "Si O2"
_cell_formula_units_Z 16
_cell_length_a 8.954049
_cell_length_b 10.807773
_cell_length_c 13.521085
_cell_angle_alpha 51.291985
_cell_angle_beta 59.048869
_cell_angle_gamma 47.522249
_cell_volume 743.390095
_symmetry_space_group_name_H-M "P -1"
_symmetry_group_IT_number 2
_symmetry_cell_setting 'triclinic'
loop_
_space_group_symop_operation_xyz
x,y,z
-x,-y,-z
loop_
_atom_site_type_symbol
_atom_site_label
_atom_site_fract_x
_atom_site_fract_y
_atom_site_fract_z
Si Si1 0.569107 0.548222 0.054335
Si Si2 0.414934 0.170008 0.865076
Si Si3 0.679788 0.818644 0.653024
Si Si4 0.588477 0.426997 0.699642
Si Si5 0.349685 0.923011 0.867241
Si Si6 0.007376 0.258413 0.747567
Si Si7 0.952194 0.483773 0.847811
Si Si8 0.384700 0.247539 0.515708
O O1 0.404040 0.770205 0.007443
O O2 0.791734 0.512998 0.972670
O O3 0.500000 0.500000 0.000000
O O4 0.547868 0.475873 0.202917
O O5 0.537852 0.274331 0.757658
O O6 0.182727 0.344486 0.875803
O O7 0.404377 0.067522 0.821976
O O8 0.500000 0.000000 0.000000
O O9 0.498362 0.821486 0.775353
O O10 0.687602 0.740894 0.580041
O O11 0.878612 0.684403 0.720508
O O12 0.586646 0.039949 0.563149
O O13 0.562732 0.595695 0.557553
O O14 0.825200 0.320115 0.704147
O O15 0.120282 0.041523 0.847929
O O16 0.928496 0.376079 0.816292
O O17 0.187926 0.278273 0.627859
#
# Coordination Sequence:
#
# PCOD9100672 Si02
#       8
#     2   2   2   2   2   2   2   2
#     4  11  20  36  63  91 118 150 208 259 303 355
#     4  11  24  42  58  86 127 172 196 244 301 370
#     4   9  18  38  66  85 117 156 199 247 312 348
#     4  12  22  36  60  93 123 157 211 243 298 366
#     4   9  20  39  60  85 121 160 195 249 312 351
#     4  10  20  37  65  90 120 156 203 258 300 353
#     4  10  21  39  64  86 120 164 198 245 316 351
#     4  10  20  37  66  95 120 154 202 261 304 343
#
# _framework density 21.523019000000001
#
# number of rings (size 3 to 8) (size 9 to 14) (size 15 to 20)
#    0.000    1.750    3.750    1.125    0.000    2.000 
#    0.000    6.250    0.000    0.000    0.000    0.000 
#    0.000    0.000    0.000    0.000    0.000    0.000 
#
# Total GULP energy -89179.367008 kJ/mol
# GULP energy per Si atom -5573.710438 kJ/mol
# Density = 2.147403 g / cm^3
# Si number density = 21.523019 Si / 1000 Ang^3
#
#
#
# Elastic Constant Matrix: (Units=GPa)
#
#
# Indices 1 2 3 4 5 6 
#
# 1 64.2977 32.2843 19.5856 -17.3947 -13.8454 -2.5376
# 2 32.2843 97.6931 31.3777 -20.6310 -8.8898 -21.3891
# 3 19.5856 31.3777 92.0690 -7.0215 -7.3319 -10.0382
# 4 -17.3947 -20.6310 -7.0215 40.1982 11.3968 12.1688
# 5 -13.8454 -8.8898 -7.3319 11.3968 29.2206 -5.3817
# 6 -2.5376 -21.3891 -10.0382 12.1688 -5.3817 39.5751
#
#
#
# Elastic Compliance Matrix: (Units=1/GPa)
#
#
# Indices 1 2 3 4 5 6 
#
# 1 0.021454 -0.005405 -0.002221 0.005589 0.005209 -0.003119
# 2 -0.005405 0.015054 -0.002966 0.002483 0.001499 0.006478
# 3 -0.002221 -0.002966 0.012649 -0.001599 0.002260 0.002262
# 4 0.005589 0.002483 -0.001599 0.035373 -0.012882 -0.011334
# 5 0.005209 0.001499 0.002260 -0.012882 0.044909 0.011785
# 6 -0.003119 0.006478 0.002262 -0.011334 0.011785 0.034231
#
#
# Mechanical properties :
#
#
# Convention : Reuss Voigt Hill
#
# Bulk Modulus (GPa) = 35.74748 46.72833 41.23790
# Shear Modulus (GPa) = 25.74973 33.18626 29.46800
#
# Velocity S-wave (km/s) = 3.46263 3.93096 3.70420
# Velocity P-wave (km/s) = 5.71239 6.50855 6.12342
#
# Compressibility (1/GPa) = 0.02797400
#
# Stress axis : x y z
#
# Youngs Moduli (GPa) = 46.61221 66.42789 79.05653
#
# Poissons Ratio (x) = 0.35904 0.17556
# Poissons Ratio (y) = 0.25194 0.23445
# Poissons Ratio (z) = 0.10351 0.19700
#
# Static dielectric constant tensor:
#      x y z
#    x 1.807440 0.012330 -0.004330 
#    y 0.012330 1.853710 -0.064940 
#    z -0.004330 -0.064940 1.842200 
# 
# From -- ./inp_files/260739.got.cif
#   From: 2010.05.17/outbox.cif.g08.bks.cpg/sg2_131_cif.got.tgz:260739.got - 2010.06.03 11:33:40.
