data_PCOD9100294
_publ_section_title
;
Structure prediction by ZEFSAII (Michael W. Deem and Ramdas Pophale) SiO2 
 PCOD9100294
Probable space group: P -1
;
_chemical_formula_sum "Si O2"
_cell_formula_units_Z 14
_cell_length_a 18.184900
_cell_length_b 6.534870
_cell_length_c 9.350794
_cell_angle_alpha 100.174779
_cell_angle_beta 128.635875
_cell_angle_gamma 54.119164
_cell_volume 671.093816
_symmetry_space_group_name_H-M "P -1"
_symmetry_group_IT_number 2
_symmetry_cell_setting 'triclinic'
loop_
_space_group_symop_operation_xyz
x,y,z
-x,-y,-z
loop_
_atom_site_type_symbol
_atom_site_label
_atom_site_fract_x
_atom_site_fract_y
_atom_site_fract_z
Si Si1 0.375328 0.862035 0.838698
Si Si2 0.557311 0.667361 0.261384
Si Si3 0.782855 0.090143 0.084155
Si Si4 0.024337 0.490540 0.316684
Si Si5 0.268379 0.233010 0.483470
Si Si6 0.931738 0.263325 0.351911
Si Si7 0.408423 0.790584 0.357646
O O1 0.432818 0.591064 0.788497
O O2 0.284536 0.892462 0.851130
O O3 0.309884 0.079630 0.665211
O O4 0.476324 0.845262 0.050053
O O5 0.687434 0.590169 0.427294
O O6 0.483460 0.813417 0.332745
O O7 0.900715 0.782240 0.172111
O O8 0.820139 0.280702 0.166438
O O9 0.694888 0.179896 0.856109
O O10 0.127487 0.383715 0.311949
O O11 0.082220 0.527880 0.529765
O O12 0.998678 0.286883 0.304856
O O13 0.345072 0.016856 0.427306
O O14 0.000000 0.000000 0.500000
O O15 0.500000 0.500000 0.500000
#
# Coordination Sequence:
#
# PCOD9100294 Si02
#       7
#     2   2   2   2   2   2   2
#     4  10  20  37  63  92 121 150 204 256 295 360
#     4  10  22  40  61  89 119 161 202 250 308 351
#     4  10  22  41  63  89 126 160 196 252 306 359
#     4  10  21  36  60  97 121 153 202 249 303 366
#     4  12  22  38  64  88 124 159 200 249 303 365
#     4   9  17  36  62  91 126 154 193 247 306 356
#     4  11  24  46  60  84 126 165 208 253 297 362
#
# _framework density 20.861466
#
# number of rings (size 3 to 8) (size 9 to 14) (size 15 to 20)
#    0.000    1.714    1.429    4.286    0.000    1.714 
#   10.286    0.714    0.000    0.000    0.000    0.000 
#    0.000    0.000    0.000    0.000    0.000    0.000 
#
# Total GULP energy -78093.388700 kJ/mol
# GULP energy per Si atom -5578.099193 kJ/mol
# Density = 2.081398 g / cm^3
# Si number density = 20.861466 Si / 1000 Ang^3
#
#
#
# Elastic Constant Matrix: (Units=GPa)
#
#
# Indices 1 2 3 4 5 6 
#
# 1 94.7272 29.9150 28.7630 4.8190 14.0334 -5.7223
# 2 29.9150 44.0652 18.3437 -3.5868 -0.4943 -10.1098
# 3 28.7630 18.3437 100.7337 -2.3960 6.7294 3.4721
# 4 4.8190 -3.5868 -2.3960 24.0382 -2.5499 9.7293
# 5 14.0334 -0.4943 6.7294 -2.5499 30.9397 6.7728
# 6 -5.7223 -10.1098 3.4721 9.7293 6.7728 40.4041
#
#
#
# Elastic Compliance Matrix: (Units=1/GPa)
#
#
# Indices 1 2 3 4 5 6 
#
# 1 0.016237 -0.009911 -0.002559 -0.007134 -0.008241 0.003139
# 2 -0.009911 0.032472 -0.003475 0.005020 0.005099 0.004956
# 3 -0.002559 -0.003475 0.011475 0.002132 -0.000641 -0.002624
# 4 -0.007134 0.005020 0.002132 0.050652 0.010052 -0.013819
# 5 -0.008241 0.005099 -0.000641 0.010052 0.039035 -0.008800
# 6 0.003139 0.004956 -0.002624 -0.013819 -0.008800 0.031463
#
#
# Mechanical properties :
#
#
# Convention : Reuss Voigt Hill
#
# Bulk Modulus (GPa) = 35.34380 43.72998 39.53689
# Shear Modulus (GPa) = 22.45651 29.91002 26.18327
#
# Velocity S-wave (km/s) = 3.28450 3.79059 3.54659
# Velocity P-wave (km/s) = 5.60026 6.33764 5.98032
#
# Compressibility (1/GPa) = 0.02829351
#
# Stress axis : x y z
#
# Youngs Moduli (GPa) = 61.58845 30.79622 87.14915
#
# Poissons Ratio (x) = 0.30521 0.22299
# Poissons Ratio (y) = 0.61038 0.30287
# Poissons Ratio (z) = 0.15759 0.10703
#
# Static dielectric constant tensor:
#      x y z
#    x 1.834690 -0.009300 0.020450 
#    y -0.009300 1.756390 -0.017660 
#    z 0.020450 -0.017660 1.754840 
# 
# From -- ./inp_files/84753.got.cif
#   From: 2010.05.17/outbox.cif.g08.bks.cpg/sg2_43_cif.got.tgz:84753.got - 2010.06.03 11:33:40.
