data_PCOD9100792
_publ_section_title
;
Structure prediction by ZEFSAII (Michael W. Deem and Ramdas Pophale) SiO2 
 PCOD9100792
Probable space group: P -1
;
_chemical_formula_sum "Si O2"
_cell_formula_units_Z 14
_cell_length_a 9.370971
_cell_length_b 9.237399
_cell_length_c 20.481601
_cell_angle_alpha 47.953070
_cell_angle_beta 147.418288
_cell_angle_gamma 133.829651
_cell_volume 671.578808
_symmetry_space_group_name_H-M "P -1"
_symmetry_group_IT_number 2
_symmetry_cell_setting 'triclinic'
loop_
_space_group_symop_operation_xyz
x,y,z
-x,-y,-z
loop_
_atom_site_type_symbol
_atom_site_label
_atom_site_fract_x
_atom_site_fract_y
_atom_site_fract_z
Si Si1 0.581915 0.702143 0.016819
Si Si2 0.475160 0.184883 0.478353
Si Si3 0.832814 0.258991 0.723515
Si Si4 0.898943 0.032043 0.378970
Si Si5 0.085664 0.476482 0.966709
Si Si6 0.429436 0.600716 0.305276
Si Si7 0.615176 0.853807 0.850824
O O1 0.306363 0.683088 0.957983
O O2 0.681209 0.879301 0.946504
O O3 0.500000 0.500000 0.000000
O O4 0.835553 0.692146 0.162401
O O5 0.694996 0.228068 0.609403
O O6 0.518366 0.398145 0.392760
O O7 0.500000 0.000000 0.500000
O O8 0.165214 0.112891 0.411373
O O9 0.714885 0.409656 0.675670
O O10 0.726054 0.051985 0.788379
O O11 0.687297 0.812331 0.339104
O O12 0.718590 0.188419 0.266085
O O13 0.000000 0.000000 0.500000
O O14 0.812173 0.404632 0.837763
O O15 0.254804 0.313189 0.076466
O O16 0.000000 0.500000 0.000000
#
# Coordination Sequence:
#
# PCOD9100792 Si02
#       7
#     2   2   2   2   2   2   2
#     4  10  20  37  66 100 123 178 225 272 332 406
#     4  12  28  46  67 103 144 175 229 292 347 397
#     4  11  22  42  70  99 130 184 230 282 328 410
#     4  11  24  41  71 101 128 188 229 275 336 405
#     4  11  25  41  66 102 141 174 216 292 350 395
#     4  11  24  44  71 100 137 179 239 271 334 423
#     4  10  21  40  68  95 133 166 236 271 327 408
#
# _framework density 20.846397
#
# number of rings (size 3 to 8) (size 9 to 14) (size 15 to 20)
#    0.000    1.143    5.714    1.714    6.000    1.714 
#    0.000    0.714    0.000    0.000    0.000    0.000 
#    0.000    0.000    0.000    0.000    0.000    0.000 
#
# Total GULP energy -78195.150462 kJ/mol
# GULP energy per Si atom -5585.367890 kJ/mol
# Density = 2.079895 g / cm^3
# Si number density = 20.846397 Si / 1000 Ang^3
#
#
#
# Elastic Constant Matrix: (Units=GPa)
#
#
# Indices 1 2 3 4 5 6 
#
# 1 107.2442 28.9103 40.3377 4.2858 6.0316 -14.0224
# 2 28.9103 83.7028 50.7885 -4.4921 5.5907 -4.0383
# 3 40.3377 50.7885 160.9468 12.8194 6.0899 -18.1004
# 4 4.2858 -4.4921 12.8194 50.9784 1.4411 4.1993
# 5 6.0316 5.5907 6.0899 1.4411 19.1061 6.9298
# 6 -14.0224 -4.0383 -18.1004 4.1993 6.9298 36.8825
#
#
#
# Elastic Compliance Matrix: (Units=1/GPa)
#
#
# Indices 1 2 3 4 5 6 
#
# 1 0.011358 -0.002754 -0.001266 -0.001120 -0.003830 0.004243
# 2 -0.002754 0.015959 -0.004687 0.003002 -0.001962 -0.001573
# 3 -0.001266 -0.004687 0.008774 -0.002783 -0.002287 0.004058
# 4 -0.001120 0.003002 -0.002783 0.020990 0.000189 -0.003888
# 5 -0.003830 -0.001962 -0.002287 0.000189 0.059943 -0.014078
# 6 0.004243 -0.001573 0.004058 -0.003888 -0.014078 0.033633
#
#
# Mechanical properties :
#
#
# Convention : Reuss Voigt Hill
#
# Bulk Modulus (GPa) = 53.54662 65.77411 59.66036
# Shear Modulus (GPa) = 28.68641 36.85055 32.76848
#
# Velocity S-wave (km/s) = 3.71359 4.20899 3.96902
# Velocity P-wave (km/s) = 6.64302 7.43243 7.04878
#
# Compressibility (1/GPa) = 0.01867532
#
# Stress axis : x y z
#
# Youngs Moduli (GPa) = 88.04207 62.66144 113.96891
#
# Poissons Ratio (x) = 0.17259 0.14431
# Poissons Ratio (y) = 0.24250 0.53422
# Poissons Ratio (z) = 0.11148 0.29372
#
# Static dielectric constant tensor:
#      x y z
#    x 1.736850 0.055860 0.005460 
#    y 0.055860 1.845430 -0.027940 
#    z 0.005460 -0.027940 1.767730 
# 
# From -- ./inp_files/223288.got.cif
#   From: 2010.05.17/outbox.cif.g08.bks.cpg/sg2_112_cif.got.tgz:223288.got - 2010.06.03 11:33:40.
