data_PCOD9100902
_publ_section_title
;
Structure prediction by ZEFSAII (Michael W. Deem and Ramdas Pophale) SiO2 
 PCOD9100902
Probable space group: P -1
;
_chemical_formula_sum "Si O2"
_cell_formula_units_Z 14
_cell_length_a 14.643217
_cell_length_b 5.304955
_cell_length_c 21.981337
_cell_angle_alpha 99.699060
_cell_angle_beta 22.385963
_cell_angle_gamma 88.977918
_cell_volume 568.341400
_symmetry_space_group_name_H-M "P -1"
_symmetry_group_IT_number 2
_symmetry_cell_setting 'triclinic'
loop_
_space_group_symop_operation_xyz
x,y,z
-x,-y,-z
loop_
_atom_site_type_symbol
_atom_site_label
_atom_site_fract_x
_atom_site_fract_y
_atom_site_fract_z
Si Si1 0.899361 0.388351 0.252335
Si Si2 0.142237 0.201244 0.437025
Si Si3 0.078170 0.804374 0.303879
Si Si4 0.403066 0.209119 0.011249
Si Si5 0.691550 0.051330 0.448119
Si Si6 0.762118 0.982865 0.070548
Si Si7 0.855491 0.790570 0.138274
O O1 0.798993 0.723404 0.344100
O O2 0.184601 0.187185 0.102681
O O3 0.709810 0.262876 0.394310
O O4 0.001387 0.311553 0.116827
O O5 0.000000 0.500000 0.500000
O O6 0.077912 0.267975 0.551094
O O7 0.468348 0.060258 0.228450
O O8 0.000000 0.000000 0.500000
O O9 0.244409 0.531310 0.147723
O O10 0.875635 0.044560 0.392474
O O11 0.310402 0.854658 0.195831
O O12 0.500000 0.000000 0.000000
O O13 0.397585 0.147617 0.661258
O O14 0.740485 0.003830 0.158458
O O15 0.900366 0.184814 0.977002
O O16 0.000000 0.500000 0.000000
#
# Coordination Sequence:
#
# PCOD9100902 Si02
#       7
#     2   2   2   2   2   2   2
#     4  11  26  43  73 107 147 187 249 310 369 433
#     4  12  29  45  74 110 152 195 245 305 376 448
#     4  10  22  40  64 100 143 190 244 289 362 442
#     4  10  20  37  66  97 142 189 235 293 363 431
#     4  11  25  47  74 105 142 196 245 303 365 447
#     4  11  28  50  74 112 152 195 255 313 377 440
#     4  11  28  51  80 104 149 205 252 312 373 449
#
# _framework density 24.633078999999999
#
# number of rings (size 3 to 8) (size 9 to 14) (size 15 to 20)
#    0.000    1.143    2.857    0.857   12.000    1.143 
#    0.000    0.000    0.000    0.000    0.000    0.000 
#    0.000    0.000    0.000    0.000    0.000    0.000 
#
# Total GULP energy -78198.730836 kJ/mol
# GULP energy per Si atom -5585.623631 kJ/mol
# Density = 2.457701 g / cm^3
# Si number density = 24.633079 Si / 1000 Ang^3
#
#
#
# Elastic Constant Matrix: (Units=GPa)
#
#
# Indices 1 2 3 4 5 6 
#
# 1 109.4303 30.3282 62.9028 -15.6593 -3.8696 -7.9878
# 2 30.3282 122.3226 73.6763 -13.3890 -7.7244 -1.7776
# 3 62.9028 73.6763 204.9938 -33.0344 15.8116 -0.0108
# 4 -15.6593 -13.3890 -33.0344 36.6381 -2.2837 -3.4245
# 5 -3.8696 -7.7244 15.8116 -2.2837 52.0407 -9.5447
# 6 -7.9878 -1.7776 -0.0108 -3.4245 -9.5447 47.0071
#
#
#
# Elastic Compliance Matrix: (Units=1/GPa)
#
#
# Indices 1 2 3 4 5 6 
#
# 1 0.011743 -0.000531 -0.003221 0.002312 0.002355 0.002621
# 2 -0.000531 0.010918 -0.003907 0.000515 0.002967 0.000962
# 3 -0.003221 -0.003907 0.008220 0.004302 -0.003321 -0.001054
# 4 0.002312 0.000515 0.004302 0.032685 0.000923 0.002982
# 5 0.002355 0.002967 -0.003321 0.000923 0.021799 0.005005
# 6 0.002621 0.000962 -0.001054 0.002982 0.005005 0.022988
#
#
# Mechanical properties :
#
#
# Convention : Reuss Voigt Hill
#
# Bulk Modulus (GPa) = 64.25970 85.61793 74.93882
# Shear Modulus (GPa) = 38.80236 45.12646 41.96441
#
# Velocity S-wave (km/s) = 3.97320 4.28477 4.13192
# Velocity P-wave (km/s) = 6.86963 7.70141 7.29738
#
# Compressibility (1/GPa) = 0.01556185
#
# Stress axis : x y z
#
# Youngs Moduli (GPa) = 85.16008 91.59576 121.65433
#
# Poissons Ratio (x) = 0.04867 0.39187
# Poissons Ratio (y) = 0.04525 0.47525
# Poissons Ratio (z) = 0.27432 0.35783
#
# Static dielectric constant tensor:
#      x y z
#    x 2.039560 0.015540 -0.015340 
#    y 0.015540 1.889130 -0.103760 
#    z -0.015340 -0.103760 1.974130 
# 
# From -- ./inp_files/611323.got.cif
#   From: 2010.05.17/outbox.cif.g08.bks.cpg/sg2_306_cif.got.tgz:611323.got - 2010.06.03 11:33:40.
