data_PCOD9100759
_publ_section_title
;
Structure prediction by ZEFSAII (Michael W. Deem and Ramdas Pophale) SiO2 
 PCOD9100759
Probable space group: P -1
;
_chemical_formula_sum "Si O2"
_cell_formula_units_Z 15
_cell_length_a 8.860023
_cell_length_b 12.337704
_cell_length_c 8.943697
_cell_angle_alpha 104.932326
_cell_angle_beta 102.523612
_cell_angle_gamma 46.977823
_cell_volume 689.451778
_symmetry_space_group_name_H-M "P -1"
_symmetry_group_IT_number 2
_symmetry_cell_setting 'triclinic'
loop_
_space_group_symop_operation_xyz
x,y,z
-x,-y,-z
loop_
_atom_site_type_symbol
_atom_site_label
_atom_site_fract_x
_atom_site_fract_y
_atom_site_fract_z
Si Si1 0.348894 0.814675 0.426138
Si Si2 0.440682 0.327340 0.291925
Si Si3 0.010767 0.821318 0.277403
Si Si4 0.040032 0.630279 0.463369
Si Si5 0.500000 0.000000 0.500000
Si Si6 0.226400 0.449952 0.715162
Si Si7 0.327718 0.511844 0.052483
Si Si8 0.536419 0.034895 0.182025
O O1 0.374633 0.753782 0.578460
O O2 0.131035 0.879982 0.340319
O O3 0.403227 0.919294 0.475922
O O4 0.533833 0.664423 0.321678
O O5 0.243529 0.476851 0.382566
O O6 0.407801 0.211994 0.221122
O O7 0.453334 0.382547 0.158056
O O8 0.997174 0.765391 0.416462
O O9 0.155053 0.671066 0.153327
O O10 0.782020 0.941452 0.208827
O O11 0.089223 0.601922 0.639660
O O12 0.856275 0.632998 0.382149
O O13 0.518017 0.005602 0.692192
O O14 0.217307 0.483412 0.898688
O O15 0.500000 0.500000 0.000000
O O16 0.500000 0.000000 0.000000
#
# Coordination Sequence:
#
# PCOD9100759 Si02
#       8
#     2   2   2   2   1   2   2   2
#     4  10  21  42  66  94 133 174 229 275 337 405
#     4   9  23  39  62  91 132 174 218 272 340 395
#     4  11  24  41  67  99 132 176 226 279 336 402
#     4   9  21  38  65  95 124 177 222 275 333 398
#     4  10  24  46  70  92 130 188 216 274 346 398
#     4  10  20  37  65  95 135 165 226 274 332 404
#     4  11  23  38  65 102 136 173 214 281 344 392
#     4  11  26  46  68  98 138 179 228 281 336 407
#
# _framework density 21.756415000000001
#
# number of rings (size 3 to 8) (size 9 to 14) (size 15 to 20)
#    0.000    1.867    1.333    0.800    7.467    5.867 
#    0.000    2.667    0.000    0.000    0.000    0.000 
#    0.000    0.000    0.000    0.000    0.000    0.000 
#
# Total GULP energy -83540.917747 kJ/mol
# GULP energy per Si atom -5569.394516 kJ/mol
# Density = 2.170690 g / cm^3
# Si number density = 21.756415 Si / 1000 Ang^3
#
#
#
# Elastic Constant Matrix: (Units=GPa)
#
#
# Indices 1 2 3 4 5 6 
#
# 1 82.6377 22.8784 51.2919 -35.0923 6.8678 8.4791
# 2 22.8784 75.0353 31.8648 -10.6572 -0.0582 -0.0246
# 3 51.2919 31.8648 151.0300 -14.5815 -6.2444 7.1378
# 4 -35.0923 -10.6572 -14.5815 26.1085 3.1618 -2.1173
# 5 6.8678 -0.0582 -6.2444 3.1618 41.9558 -7.1412
# 6 8.4791 -0.0246 7.1378 -2.1173 -7.1412 24.8798
#
#
#
# Elastic Compliance Matrix: (Units=1/GPa)
#
#
# Indices 1 2 3 4 5 6 
#
# 1 0.043267 -0.001742 -0.009245 0.053081 -0.014457 -0.011727
# 2 -0.001742 0.015275 -0.002448 0.002650 0.000004 0.001538
# 3 -0.009245 -0.002448 0.009578 -0.008464 0.003700 0.000742
# 4 0.053081 0.002650 -0.008464 0.107443 -0.020135 -0.012295
# 5 -0.014457 0.000004 0.003700 -0.020135 0.030106 0.010793
# 6 -0.011727 0.001538 0.000742 -0.012295 0.010793 0.046030
#
#
# Mechanical properties :
#
#
# Convention : Reuss Voigt Hill
#
# Bulk Modulus (GPa) = 24.24254 57.86369 41.05312
# Shear Modulus (GPa) = 17.10454 32.10002 24.60228
#
# Velocity S-wave (km/s) = 2.80694 3.84530 3.36639
# Velocity P-wave (km/s) = 4.65533 6.80948 5.83271
#
# Compressibility (1/GPa) = 0.04124980
#
# Stress axis : x y z
#
# Youngs Moduli (GPa) = 23.11209 65.46806 104.40422
#
# Poissons Ratio (x) = 0.11406 0.96525
# Poissons Ratio (y) = 0.04027 0.25554
# Poissons Ratio (z) = 0.21368 0.16024
#
# Static dielectric constant tensor:
#      x y z
#    x 1.745900 0.110930 0.056590 
#    y 0.110930 1.604450 -0.114010 
#    z 0.056590 -0.114010 1.772870 
# 
# From -- ./inp_files/180567.got.cif
#   From: 2010.05.17/outbox.cif.g08.bks.cpg/sg2_91_cif.got.tgz:180567.got - 2010.06.03 11:33:40.
