data_PCOD9100053
_publ_section_title
;
Structure prediction by ZEFSAII (Michael W. Deem and Ramdas Pophale) SiO2 
 PCOD9100053
Probable space group: P -1
;
_chemical_formula_sum "Si O2"
_cell_formula_units_Z 16
_cell_length_a 17.168304
_cell_length_b 5.387676
_cell_length_c 8.797426
_cell_angle_alpha 120.905211
_cell_angle_beta 88.815552
_cell_angle_gamma 115.194724
_cell_volume 610.894453
_symmetry_space_group_name_H-M "P -1"
_symmetry_group_IT_number 2
_symmetry_cell_setting 'triclinic'
loop_
_space_group_symop_operation_xyz
x,y,z
-x,-y,-z
loop_
_atom_site_type_symbol
_atom_site_label
_atom_site_fract_x
_atom_site_fract_y
_atom_site_fract_z
Si Si1 0.187264 0.447831 0.515774
Si Si2 0.320030 0.691192 0.863508
Si Si3 0.395130 0.118173 0.259981
Si Si4 0.516121 0.838895 0.181077
Si Si5 0.045809 0.461306 0.709288
Si Si6 0.919132 0.831515 0.071689
Si Si7 0.597374 0.679818 0.352537
Si Si8 0.159940 0.747519 0.320238
O O1 0.245971 0.610316 0.715268
O O2 0.086103 0.329862 0.537047
O O3 0.204887 0.681789 0.444504
O O4 0.193298 0.117727 0.377506
O O5 0.332853 0.366529 0.774279
O O6 0.420301 0.897066 0.859628
O O7 0.322985 0.925270 0.072985
O O8 0.489283 0.417978 0.291501
O O9 0.370462 0.240257 0.451600
O O10 0.426893 0.850128 0.218198
O O11 0.581766 0.956443 0.358808
O O12 0.500000 0.500000 0.000000
O O13 0.058752 0.318453 0.825920
O O14 0.943101 0.364705 0.666833
O O15 0.100054 0.863257 0.809318
O O16 0.844929 0.511869 0.887415
O O17 0.000000 0.000000 0.000000
#
# Coordination Sequence:
#
# PCOD9100053 Si02
#       8
#     2   2   2   2   2   2   2   2
#     4  12  26  40  63  93 134 176 215 266 335 395
#     4  11  24  40  56  89 132 166 205 267 329 388
#     4  10  20  37  62  92 114 158 208 262 308 384
#     4  11  18  36  67  87 120 161 207 265 320 376
#     4  11  21  41  68  98 126 168 225 274 322 388
#     4  10  20  39  69  98 124 159 215 284 327 374
#     4  10  20  38  64  89 117 156 213 256 317 379
#     4  11  22  42  66  93 126 172 223 270 321 393
#
# _framework density 26.191103999999999
#
# number of rings (size 3 to 8) (size 9 to 14) (size 15 to 20)
#    0.000    1.250    2.500    6.375    1.750    0.000 
#    4.500    0.000    0.000    0.000    0.000    0.000 
#    0.000    0.000    0.000    0.000    0.000    0.000 
#
# Total GULP energy -89276.806144 kJ/mol
# GULP energy per Si atom -5579.800384 kJ/mol
# Density = 2.613149 g / cm^3
# Si number density = 26.191104 Si / 1000 Ang^3
#
#
#
# Elastic Constant Matrix: (Units=GPa)
#
#
# Indices 1 2 3 4 5 6 
#
# 1 70.2635 22.6545 5.9008 4.4158 9.4988 -3.6260
# 2 22.6545 115.8463 31.8278 -0.0232 9.7030 -28.9286
# 3 5.9008 31.8278 137.7646 3.1069 28.8241 -16.7693
# 4 4.4158 -0.0232 3.1069 43.7158 -9.6615 -2.2419
# 5 9.4988 9.7030 28.8241 -9.6615 31.3318 -7.9082
# 6 -3.6260 -28.9286 -16.7693 -2.2419 -7.9082 43.5532
#
#
#
# Elastic Compliance Matrix: (Units=1/GPa)
#
#
# Indices 1 2 3 4 5 6 
#
# 1 0.016224 -0.003433 0.001322 -0.003268 -0.006527 -0.001774
# 2 -0.003433 0.011445 -0.001982 0.001158 0.001411 0.006869
# 3 0.001322 -0.001982 0.009802 -0.002901 -0.009525 0.000689
# 4 -0.003268 0.001158 -0.002901 0.026244 0.012134 0.002934
# 5 -0.006527 0.001411 -0.009525 0.012134 0.047470 0.005970
# 6 -0.001774 0.006869 0.000689 0.002934 0.005970 0.028875
#
#
# Mechanical properties :
#
#
# Convention : Reuss Voigt Hill
#
# Bulk Modulus (GPa) = 34.14754 49.40449 41.77602
# Shear Modulus (GPa) = 31.64356 41.28623 36.46489
#
# Velocity S-wave (km/s) = 3.47966 3.97463 3.73535
# Velocity P-wave (km/s) = 5.40464 6.32199 5.88123
#
# Compressibility (1/GPa) = 0.02928469
#
# Stress axis : x y z
#
# Youngs Moduli (GPa) = 61.63653 87.37137 102.01658
#
# Poissons Ratio (x) = 0.29993 -0.13482
# Poissons Ratio (y) = 0.21158 0.20223
# Poissons Ratio (z) = -0.08145 0.17320
#
# Static dielectric constant tensor:
#      x y z
#    x 1.641520 0.407420 0.781300 
#    y 0.407420 1.760250 -0.813450 
#    z 0.781300 -0.813450 0.693200 
# 
# From -- ./inp_files/339979.got.cif
#   From: 2010.05.17/outbox.cif.g08.bks.cpg/sg2_170_cif.got.tgz:339979.got - 2010.06.03 11:33:40.
