data_PCOD9100420
_publ_section_title
;
Structure prediction by ZEFSAII (Michael W. Deem and Ramdas Pophale) SiO2 
 PCOD9100420
Probable space group: P -1
;
_chemical_formula_sum "Si O2"
_cell_formula_units_Z 16
_cell_length_a 9.206618
_cell_length_b 18.906684
_cell_length_c 10.913140
_cell_angle_alpha 115.386858
_cell_angle_beta 110.567036
_cell_angle_gamma 22.104366
_cell_volume 639.870960
_symmetry_space_group_name_H-M "P -1"
_symmetry_group_IT_number 2
_symmetry_cell_setting 'triclinic'
loop_
_space_group_symop_operation_xyz
x,y,z
-x,-y,-z
loop_
_atom_site_type_symbol
_atom_site_label
_atom_site_fract_x
_atom_site_fract_y
_atom_site_fract_z
Si Si1 0.175305 0.141594 0.898296
Si Si2 0.450352 0.301761 0.529276
Si Si3 0.799110 0.707395 0.940662
Si Si4 0.347725 0.083401 0.378266
Si Si5 0.201480 0.959820 0.764065
Si Si6 0.879481 0.598201 0.249379
Si Si7 0.249595 0.968583 0.189692
Si Si8 0.671632 0.505024 0.519484
O O1 0.350875 0.057980 0.750308
O O2 0.991210 0.140835 0.851532
O O3 0.500000 0.000000 0.000000
O O4 0.963783 0.323221 0.985621
O O5 0.725052 0.113836 0.399862
O O6 0.415720 0.299811 0.660361
O O7 0.540473 0.348076 0.542077
O O8 0.000000 0.500000 0.500000
O O9 0.640668 0.774232 0.805333
O O10 0.999479 0.532016 0.891974
O O11 0.403860 0.897582 0.045105
O O12 0.107727 0.274478 0.440184
O O13 0.500000 0.000000 0.500000
O O14 0.088856 0.126404 0.301215
O O15 0.014256 0.980566 0.809788
O O16 0.651584 0.768924 0.234262
O O17 0.240392 0.473736 0.330106
O O18 0.500000 0.500000 0.500000
#
# Coordination Sequence:
#
# PCOD9100420 Si02
#       8
#     2   2   2   2   2   2   2   2
#     4   9  21  38  62  88 117 164 202 248 301 365
#     4  10  20  37  64  86 117 156 201 244 297 356
#     4  10  21  40  63  82 121 165 205 238 303 372
#     4  11  22  39  62  89 127 156 200 254 312 359
#     4  11  20  39  63  92 117 154 213 249 294 363
#     4  11  22  41  61  88 124 162 195 246 310 363
#     4  11  24  39  59  93 124 159 195 256 310 353
#     4  11  22  39  61  90 118 156 204 249 298 363
#
# _framework density 25.005042
#
# number of rings (size 3 to 8) (size 9 to 14) (size 15 to 20)
#    0.000    1.500    3.750    3.000    1.750    0.500 
#    2.250    0.625    0.000    0.000    0.000    0.000 
#    0.000    0.000    0.000    0.000    0.000    0.000 
#
# Total GULP energy -89346.880784 kJ/mol
# GULP energy per Si atom -5584.180049 kJ/mol
# Density = 2.494813 g / cm^3
# Si number density = 25.005042 Si / 1000 Ang^3
#
#
#
# Elastic Constant Matrix: (Units=GPa)
#
#
# Indices 1 2 3 4 5 6 
#
# 1 163.2985 8.4496 54.7554 8.9491 28.2584 19.6058
# 2 8.4496 44.4497 35.2127 4.4696 9.0986 12.0297
# 3 54.7554 35.2127 149.9694 11.6576 18.2333 19.9614
# 4 8.9491 4.4696 11.6576 42.7004 24.3747 5.1206
# 5 28.2584 9.0986 18.2333 24.3747 49.7033 5.6055
# 6 19.6058 12.0297 19.9614 5.1206 5.6055 38.3455
#
#
#
# Elastic Compliance Matrix: (Units=1/GPa)
#
#
# Indices 1 2 3 4 5 6 
#
# 1 0.007906 0.002067 -0.002576 0.001715 -0.004439 -0.002930
# 2 0.002067 0.029719 -0.006454 0.001401 -0.004191 -0.006595
# 3 -0.002576 -0.006454 0.009408 -0.001133 -0.000093 -0.001391
# 4 0.001715 0.001401 -0.001133 0.033105 -0.016747 -0.002699
# 5 -0.004439 -0.004191 -0.000093 -0.016747 0.031515 0.001262
# 6 -0.002930 -0.006595 -0.001391 -0.002699 0.001262 0.030546
#
#
# Mechanical properties :
#
#
# Convention : Reuss Voigt Hill
#
# Bulk Modulus (GPa) = 30.20438 61.61699 45.91069
# Shear Modulus (GPa) = 29.91106 43.43651 36.67379
#
# Velocity S-wave (km/s) = 3.46237 4.17239 3.83385
# Velocity P-wave (km/s) = 5.29995 6.92149 6.16428
#
# Compressibility (1/GPa) = 0.03310778
#
# Stress axis : x y z
#
# Youngs Moduli (GPa) = 126.47916 33.64830 106.28836
#
# Poissons Ratio (x) = -0.06954 0.27375
# Poissons Ratio (y) = -0.26138 0.68600
# Poissons Ratio (z) = 0.32575 0.21717
#
# Static dielectric constant tensor:
#      x y z
#    x 2.064590 -0.027510 0.004730 
#    y -0.027510 2.045460 -0.007710 
#    z 0.004730 -0.007710 2.011970 
# 
# From -- ./inp_files/238983.got.cif
#   From: 2010.05.17/outbox.cif.g08.bks.cpg/sg2_120_cif.got.tgz:238983.got - 2010.06.03 11:33:40.
