data_PCOD9100858
_publ_section_title
;
Structure prediction by ZEFSAII (Michael W. Deem and Ramdas Pophale) SiO2 
 PCOD9100858
Probable space group: P -1
;
_chemical_formula_sum "Si O2"
_cell_formula_units_Z 14
_cell_length_a 13.781057
_cell_length_b 11.274108
_cell_length_c 5.798371
_cell_angle_alpha 59.912002
_cell_angle_beta 131.196345
_cell_angle_gamma 130.475083
_cell_volume 511.351482
_symmetry_space_group_name_H-M "P -1"
_symmetry_group_IT_number 2
_symmetry_cell_setting 'triclinic'
loop_
_space_group_symop_operation_xyz
x,y,z
-x,-y,-z
loop_
_atom_site_type_symbol
_atom_site_label
_atom_site_fract_x
_atom_site_fract_y
_atom_site_fract_z
Si Si1 0.245477 0.860076 0.603663
Si Si2 0.396436 0.815535 0.514289
Si Si3 0.903187 0.030542 0.112005
Si Si4 0.079107 0.682596 0.900754
Si Si5 0.776769 0.889332 0.490254
Si Si6 0.369161 0.524199 0.575198
Si Si7 0.327340 0.434606 0.098936
O O1 0.341710 0.789682 0.718421
O O2 0.101988 0.720768 0.630138
O O3 0.309680 0.010461 0.725200
O O4 0.193567 0.942365 0.252292
O O5 0.455137 0.707411 0.604588
O O6 0.500000 0.000000 0.500000
O O7 0.245577 0.754296 0.192174
O O8 0.974405 0.203503 0.180847
O O9 0.044248 0.013970 0.282152
O O10 0.791911 0.885635 0.240082
O O11 0.000000 0.500000 0.000000
O O12 0.722319 0.741052 0.714909
O O13 0.296149 0.501350 0.226598
O O14 0.495604 0.477736 0.762216
O O15 0.275282 0.446775 0.742102
#
# Coordination Sequence:
#
# PCOD9100858 Si02
#       7
#     2   2   2   2   2   2   2
#     4  10  22  41  62  98 131 180 224 289 338 420
#     4  11  25  44  68  96 135 181 230 281 347 417
#     4   9  21  38  60  98 128 175 230 277 346 411
#     4  10  24  42  64  97 137 174 228 287 345 412
#     4  10  20  37  66  93 133 177 225 282 344 412
#     4  10  24  44  65 102 132 177 231 281 349 411
#     4  10  23  43  67  98 136 175 224 291 342 413
#
# _framework density 27.378426999999999
#
# number of rings (size 3 to 8) (size 9 to 14) (size 15 to 20)
#    0.000    2.000    0.000    1.286    6.000    4.000 
#   15.429    0.000    0.000    0.000    0.000    0.000 
#    0.000    0.000    0.000    0.000    0.000    0.000 
#
# Total GULP energy -77975.914183 kJ/mol
# GULP energy per Si atom -5569.708156 kJ/mol
# Density = 2.731611 g / cm^3
# Si number density = 27.378427 Si / 1000 Ang^3
#
#
#
# Elastic Constant Matrix: (Units=GPa)
#
#
# Indices 1 2 3 4 5 6 
#
# 1 124.4728 43.9324 26.1123 2.0487 -33.2168 -22.9243
# 2 43.9324 152.5843 48.4277 -23.7825 -31.2146 -13.2965
# 3 26.1123 48.4277 128.2331 -24.2604 -31.4090 16.4447
# 4 2.0487 -23.7825 -24.2604 39.0924 12.7222 -10.0556
# 5 -33.2168 -31.2146 -31.4090 12.7222 48.0522 -4.5647
# 6 -22.9243 -13.2965 16.4447 -10.0556 -4.5647 50.9712
#
#
#
# Elastic Compliance Matrix: (Units=1/GPa)
#
#
# Indices 1 2 3 4 5 6 
#
# 1 0.012014 -0.001498 -0.001305 -0.003531 0.007931 0.005447
# 2 -0.001498 0.009208 -0.002127 0.004378 0.002731 0.003523
# 3 -0.001305 -0.002127 0.010853 0.003412 0.003560 -0.003651
# 4 -0.003531 0.004378 0.003412 0.033618 -0.005834 0.004563
# 5 0.007931 0.002731 0.003560 -0.005834 0.032403 0.004882
# 6 0.005447 0.003523 -0.003651 0.004563 0.004882 0.025503
#
#
# Mechanical properties :
#
#
# Convention : Reuss Voigt Hill
#
# Bulk Modulus (GPa) = 45.01259 71.35943 58.18601
# Shear Modulus (GPa) = 35.49500 46.74434 41.11967
#
# Velocity S-wave (km/s) = 3.60454 4.13648 3.87964
# Velocity P-wave (km/s) = 5.81380 6.99533 6.43175
#
# Compressibility (1/GPa) = 0.02221601
#
# Stress axis : x y z
#
# Youngs Moduli (GPa) = 83.23482 108.59803 92.14076
#
# Poissons Ratio (x) = 0.16270 0.12020
# Poissons Ratio (y) = 0.12470 0.19598
# Poissons Ratio (z) = 0.10858 0.23099
#
# Static dielectric constant tensor:
#      x y z
#    x 2.290580 -0.099910 -0.160480 
#    y -0.099910 2.234120 0.126190 
#    z -0.160480 0.126190 2.353310 
# 
# From -- ./inp_files/35308.got.cif
#   From: 2010.05.17/outbox.cif.g08.bks.cpg/sg2_18_cif.got.tgz:35308.got - 2010.06.03 11:33:40.
