data_PCOD9100234
_publ_section_title
;
Structure prediction by ZEFSAII (Michael W. Deem and Ramdas Pophale) SiO2 
 PCOD9100234
Probable space group: P -1
;
_chemical_formula_sum "Si O2"
_cell_formula_units_Z 16
_cell_length_a 9.423945
_cell_length_b 7.863680
_cell_length_c 16.085623
_cell_angle_alpha 50.011458
_cell_angle_beta 51.499065
_cell_angle_gamma 66.396287
_cell_volume 714.762809
_symmetry_space_group_name_H-M "P -1"
_symmetry_group_IT_number 2
_symmetry_cell_setting 'triclinic'
loop_
_space_group_symop_operation_xyz
x,y,z
-x,-y,-z
loop_
_atom_site_type_symbol
_atom_site_label
_atom_site_fract_x
_atom_site_fract_y
_atom_site_fract_z
Si Si1 0.606516 0.419574 0.567136
Si Si2 0.988036 0.286130 0.012330
Si Si3 0.156574 0.314215 0.493211
Si Si4 0.393194 0.178663 0.862201
Si Si5 0.003405 0.739175 0.589530
Si Si6 0.802979 0.577537 0.864167
Si Si7 0.925648 0.002877 0.784326
Si Si8 0.620468 0.287208 0.896630
O O1 0.500000 0.500000 0.500000
O O2 0.664055 0.620286 0.544355
O O3 0.500537 0.246208 0.718942
O O4 0.800910 0.331244 0.493346
O O5 0.180811 0.233951 0.915485
O O6 0.845594 0.361792 0.971975
O O7 0.961417 0.087619 0.149546
O O8 0.000000 0.500000 0.000000
O O9 0.000000 0.500000 0.500000
O O10 0.169323 0.312112 0.390663
O O11 0.061234 0.101469 0.635792
O O12 0.470347 0.314631 0.871278
O O13 0.418053 0.925346 0.962799
O O14 0.969675 0.630086 0.724510
O O15 0.000000 0.000000 0.500000
O O16 0.808815 0.800317 0.849403
O O17 0.649869 0.495933 0.881073
O O18 0.794386 0.193213 0.809734
#
# Coordination Sequence:
#
# PCOD9100234 Si02
#       8
#     2   2   2   2   2   2   2   2
#     4  11  23  38  62  91 126 165 204 254 318 377
#     4   9  21  39  62  87 120 162 197 254 306 365
#     4  10  20  37  63  89 121 163 207 255 306 366
#     4  10  21  39  60  86 130 156 198 254 313 360
#     4  11  21  37  64  90 119 164 211 254 303 370
#     4  11  21  38  66  91 120 158 215 250 304 370
#     4  10  20  38  63  91 124 154 212 259 299 365
#     4  10  21  38  64  90 117 164 200 256 310 362
#
# _framework density 22.385047
#
# number of rings (size 3 to 8) (size 9 to 14) (size 15 to 20)
#    0.000    1.750    1.250    4.500    0.000    3.000 
#    0.000   10.625   13.750    0.000    0.000    0.000 
#    0.000    0.000    0.000    0.000    0.000    0.000 
#
# Total GULP energy -89212.768730 kJ/mol
# GULP energy per Si atom -5575.798046 kJ/mol
# Density = 2.233410 g / cm^3
# Si number density = 22.385047 Si / 1000 Ang^3
#
#
#
# Elastic Constant Matrix: (Units=GPa)
#
#
# Indices 1 2 3 4 5 6 
#
# 1 84.1751 18.6820 20.6794 0.2751 25.4008 18.2937
# 2 18.6820 53.4132 20.9052 0.5059 1.0798 11.3923
# 3 20.6794 20.9052 136.3076 16.4434 14.1654 -0.3658
# 4 0.2751 0.5059 16.4434 33.7661 1.1749 -6.5050
# 5 25.4008 1.0798 14.1654 1.1749 30.0653 6.3683
# 6 18.2937 11.3923 -0.3658 -6.5050 6.3683 32.2245
#
#
#
# Elastic Compliance Matrix: (Units=1/GPa)
#
#
# Indices 1 2 3 4 5 6 
#
# 1 0.018638 -0.004646 -0.000623 -0.000507 -0.013933 -0.006294
# 2 -0.004646 0.023031 -0.003471 -0.000141 0.006178 -0.006793
# 3 -0.000623 -0.003471 0.008809 -0.003787 -0.003700 0.001647
# 4 -0.000507 -0.000141 -0.003787 0.032840 -0.000556 0.007034
# 5 -0.013933 0.006178 -0.003700 -0.000556 0.047379 -0.003792
# 6 -0.006294 -0.006793 0.001647 0.007034 -0.003792 0.039195
#
#
# Mechanical properties :
#
#
# Convention : Reuss Voigt Hill
#
# Bulk Modulus (GPa) = 30.30439 43.82545 37.06492
# Shear Modulus (GPa) = 25.20534 33.45312 29.32923
#
# Velocity S-wave (km/s) = 3.35922 3.86999 3.62362
# Velocity P-wave (km/s) = 5.34911 6.29203 5.83963
#
# Compressibility (1/GPa) = 0.03299852
#
# Stress axis : x y z
#
# Youngs Moduli (GPa) = 53.65290 43.42032 113.52198
#
# Poissons Ratio (x) = 0.20175 0.07070
# Poissons Ratio (y) = 0.24929 0.39398
# Poissons Ratio (z) = 0.03342 0.15069
#
# Static dielectric constant tensor:
#      x y z
#    x 1.881280 0.090550 -0.025660 
#    y 0.090550 1.910580 0.010710 
#    z -0.025660 0.010710 1.846810 
# 
# From -- ./inp_files/494358.got.cif
#   From: 2010.05.17/outbox.cif.g08.bks.cpg/sg2_248_cif.got.tgz:494358.got - 2010.06.03 11:33:40.
