data_PCOD9100523
_publ_section_title
;
Structure prediction by ZEFSAII (Michael W. Deem and Ramdas Pophale) SiO2 
 PCOD9100523
Probable space group: P -1
;
_chemical_formula_sum "Si O2"
_cell_formula_units_Z 16
_cell_length_a 9.250720
_cell_length_b 22.895893
_cell_length_c 14.603085
_cell_angle_alpha 19.530421
_cell_angle_beta 53.145463
_cell_angle_gamma 51.255439
_cell_volume 805.880872
_symmetry_space_group_name_H-M "P -1"
_symmetry_group_IT_number 2
_symmetry_cell_setting 'triclinic'
loop_
_space_group_symop_operation_xyz
x,y,z
-x,-y,-z
loop_
_atom_site_type_symbol
_atom_site_label
_atom_site_fract_x
_atom_site_fract_y
_atom_site_fract_z
Si Si1 0.033424 0.188610 0.241245
Si Si2 0.997329 0.174331 0.678245
Si Si3 0.418305 0.615335 0.482162
Si Si4 0.419893 0.260304 0.937698
Si Si5 0.587844 0.867865 0.414594
Si Si6 0.463773 0.695150 0.543771
Si Si7 0.630997 0.376900 0.057835
Si Si8 0.960428 0.300565 0.301612
O O1 0.059650 0.202515 0.319661
O O2 0.843237 0.325278 0.082950
O O3 0.216857 0.223976 0.074119
O O4 0.000000 0.000000 0.500000
O O5 0.195498 0.224972 0.543535
O O6 0.997418 0.179535 0.558390
O O7 0.798880 0.309471 0.573222
O O8 0.000000 0.000000 0.000000
O O9 0.442716 0.401091 0.799905
O O10 0.553619 0.644501 0.307854
O O11 0.461938 0.723230 0.394642
O O12 0.567654 0.072005 0.151514
O O13 0.501488 0.840297 0.388187
O O14 0.468233 0.789545 0.652155
O O15 0.257636 0.670698 0.677034
O O16 0.602749 0.504423 0.792766
O O17 0.500000 0.500000 0.000000
O O18 0.000000 0.500000 0.000000
#
# Coordination Sequence:
#
# PCOD9100523 Si02
#       8
#     2   2   2   2   2   2   2   2
#     4  12  22  41  61  97 131 167 204 273 329 378
#     4  11  23  42  68  97 125 168 219 275 314 378
#     4  10  24  44  64  88 131 173 215 252 327 394
#     4  11  23  41  63  88 135 174 200 258 335 385
#     4  11  21  40  66  93 125 162 217 268 318 373
#     4  10  21  40  66  96 119 166 221 268 305 384
#     4  10  20  37  64  92 128 153 215 263 319 364
#     4  11  22  40  68  98 124 168 221 259 321 388
#
# _framework density 19.854051999999999
#
# number of rings (size 3 to 8) (size 9 to 14) (size 15 to 20)
#    0.000    1.250    5.000    2.250    5.250    0.500 
#    4.500    1.875    0.000    0.000    0.000    0.000 
#    0.000    0.000    0.000    0.000    0.000    0.000 
#
# Total GULP energy -89075.041339 kJ/mol
# GULP energy per Si atom -5567.190084 kJ/mol
# Density = 1.980886 g / cm^3
# Si number density = 19.854052 Si / 1000 Ang^3
#
#
#
# Elastic Constant Matrix: (Units=GPa)
#
#
# Indices 1 2 3 4 5 6 
#
# 1 86.2174 37.9352 12.9782 3.8723 2.7627 -7.7868
# 2 37.9352 100.7721 28.7868 9.3552 -7.4214 -3.2656
# 3 12.9782 28.7868 72.5713 -3.3356 2.5679 5.7628
# 4 3.8723 9.3552 -3.3356 39.4321 -5.3739 -12.5149
# 5 2.7627 -7.4214 2.5679 -5.3739 23.7874 -0.3551
# 6 -7.7868 -3.2656 5.7628 -12.5149 -0.3551 24.9202
#
#
#
# Elastic Compliance Matrix: (Units=1/GPa)
#
#
# Indices 1 2 3 4 5 6 
#
# 1 0.014548 -0.005452 -0.000638 0.000761 -0.003086 0.004317
# 2 -0.005452 0.013962 -0.004858 -0.002491 0.004952 0.000069
# 3 -0.000638 -0.004858 0.016304 0.000832 -0.003077 -0.004232
# 4 0.000761 -0.002491 0.000832 0.031845 0.006475 0.015804
# 5 -0.003086 0.004952 -0.003077 0.006475 0.045801 0.004301
# 6 0.004317 0.000069 -0.004232 0.015804 0.004301 0.050463
#
#
# Mechanical properties :
#
#
# Convention : Reuss Voigt Hill
#
# Bulk Modulus (GPa) = 43.63506 46.55123 45.09315
# Shear Modulus (GPa) = 24.69637 29.61864 27.15751
#
# Velocity S-wave (km/s) = 3.53072 3.86660 3.70247
# Velocity P-wave (km/s) = 6.21666 6.59027 6.40619
#
# Compressibility (1/GPa) = 0.02291735
#
# Stress axis : x y z
#
# Youngs Moduli (GPa) = 68.73713 71.62311 61.33491
#
# Poissons Ratio (x) = 0.39052 0.03910
# Poissons Ratio (y) = 0.37478 0.29799
# Poissons Ratio (z) = 0.04382 0.34797
#
# Static dielectric constant tensor:
#      x y z
#    x 1.710330 -0.012650 0.050830 
#    y -0.012650 1.643940 0.017730 
#    z 0.050830 0.017730 1.855180 
# 
# From -- ./inp_files/281621.got.cif
#   From: 2010.05.17/outbox.cif.g08.bks.cpg/sg2_141_cif.got.tgz:281621.got - 2010.06.03 11:33:40.
