data_PCOD9100192
_publ_section_title
;
Structure prediction by ZEFSAII (Michael W. Deem and Ramdas Pophale) SiO2 
 PCOD9100192
Probable space group: P -1
;
_chemical_formula_sum "Si O2"
_cell_formula_units_Z 16
_cell_length_a 8.903398
_cell_length_b 9.464778
_cell_length_c 19.737536
_cell_angle_alpha 29.950880
_cell_angle_beta 122.932014
_cell_angle_gamma 107.782209
_cell_volume 640.197673
_symmetry_space_group_name_H-M "P -1"
_symmetry_group_IT_number 2
_symmetry_cell_setting 'triclinic'
loop_
_space_group_symop_operation_xyz
x,y,z
-x,-y,-z
loop_
_atom_site_type_symbol
_atom_site_label
_atom_site_fract_x
_atom_site_fract_y
_atom_site_fract_z
Si Si1 0.807701 0.822467 0.537377
Si Si2 0.761674 0.645089 0.175884
Si Si3 0.057752 0.849843 0.979521
Si Si4 0.785134 0.828665 0.679824
Si Si5 0.650044 0.279383 0.711611
Si Si6 0.556251 0.907582 0.728571
Si Si7 0.408342 0.119560 0.821903
Si Si8 0.851032 0.232680 0.119169
O O1 0.750276 0.961122 0.541087
O O2 0.730743 0.546976 0.619537
O O3 0.042728 0.664490 0.655292
O O4 0.665398 0.062122 0.348905
O O5 0.844126 0.912835 0.085779
O O6 0.663696 0.682297 0.210130
O O7 0.582026 0.788685 0.020442
O O8 0.046430 0.810091 0.912075
O O9 0.185718 0.525127 0.177206
O O10 0.844229 0.982407 0.902529
O O11 0.637321 0.935064 0.662031
O O12 0.990309 0.810393 0.766935
O O13 0.582059 0.169975 0.671378
O O14 0.482345 0.311559 0.709700
O O15 0.686915 0.578494 0.930395
O O16 0.240872 0.020988 0.792639
#
# Coordination Sequence:
#
# PCOD9100192 Si02
#       8
#     2   2   2   2   2   2   2   2
#     4  11  24  38  64  89 120 157 198 246 299 350
#     4   9  20  38  58  89 122 151 201 252 293 341
#     4   9  16  34  62  89 112 148 201 256 285 326
#     4  11  19  37  63  93 115 152 203 249 289 345
#     4  11  20  38  63  91 116 151 204 247 292 347
#     4  11  22  40  60  92 123 155 195 245 301 353
#     4  10  21  37  63  90 116 159 201 249 292 344
#     4  10  20  37  63  86 122 155 196 240 294 355
#
# _framework density 24.992281999999999
#
# number of rings (size 3 to 8) (size 9 to 14) (size 15 to 20)
#    0.000    1.750    2.500    3.000    0.000    3.500 
#    0.000    1.250    0.000    0.000    0.000    0.000 
#    0.000    0.000    0.000    0.000    0.000    0.000 
#
# Total GULP energy -89525.891879 kJ/mol
# GULP energy per Si atom -5595.368242 kJ/mol
# Density = 2.493540 g / cm^3
# Si number density = 24.992282 Si / 1000 Ang^3
#
#
#
# Elastic Constant Matrix: (Units=GPa)
#
#
# Indices 1 2 3 4 5 6 
#
# 1 90.5188 8.3383 11.6231 5.4299 15.3920 2.4001
# 2 8.3383 70.8216 27.3798 23.8483 1.9401 1.3221
# 3 11.6231 27.3798 62.7754 9.6835 20.4964 8.2825
# 4 5.4299 23.8483 9.6835 34.1594 14.3863 -1.5415
# 5 15.3920 1.9401 20.4964 14.3863 26.4717 4.6697
# 6 2.4001 1.3221 8.2825 -1.5415 4.6697 31.3547
#
#
#
# Elastic Compliance Matrix: (Units=1/GPa)
#
#
# Indices 1 2 3 4 5 6 
#
# 1 0.012766 -0.003660 0.002193 0.004796 -0.011557 0.000555
# 2 -0.003660 0.029539 -0.016962 -0.027220 0.028248 -0.002030
# 3 0.002193 -0.016962 0.031402 0.016340 -0.032864 -0.002050
# 4 0.004796 -0.027220 0.016340 0.064037 -0.049479 0.006982
# 5 -0.011557 0.028248 -0.032864 -0.049479 0.096242 -0.008391
# 6 0.000555 -0.002030 -0.002050 0.006982 -0.008391 0.034071
#
#
# Mechanical properties :
#
#
# Convention : Reuss Voigt Hill
#
# Bulk Modulus (GPa) = 27.13797 35.42202 31.28000
# Shear Modulus (GPa) = 15.76311 30.18214 22.97262
#
# Velocity S-wave (km/s) = 2.51414 3.47891 3.03510
# Velocity P-wave (km/s) = 4.39431 5.50827 4.98252
#
# Compressibility (1/GPa) = 0.03684874
#
# Stress axis : x y z
#
# Youngs Moduli (GPa) = 78.33509 33.85405 31.84500
#
# Poissons Ratio (x) = 0.12389 -0.06983
# Poissons Ratio (y) = 0.28667 0.54016
# Poissons Ratio (z) = -0.17177 0.57423
#
# Static dielectric constant tensor:
#      x y z
#    x 1.971560 -0.013070 0.016620 
#    y -0.013070 1.973510 -0.014330 
#    z 0.016620 -0.014330 2.049690 
# 
# From -- ./inp_files/347457.got.cif
#   From: 2010.05.17/outbox.cif.g08.bks.cpg/sg2_174_cif.got.tgz:347457.got - 2010.06.03 11:33:40.
