data_PCOD9100524
_publ_section_title
;
Structure prediction by ZEFSAII (Michael W. Deem and Ramdas Pophale) SiO2 
 PCOD9100524
Probable space group: P -1
;
_chemical_formula_sum "Si O2"
_cell_formula_units_Z 16
_cell_length_a 12.412434
_cell_length_b 15.311720
_cell_length_c 10.547421
_cell_angle_alpha 62.269353
_cell_angle_beta 82.986445
_cell_angle_gamma 28.967014
_cell_volume 641.917364
_symmetry_space_group_name_H-M "P -1"
_symmetry_group_IT_number 2
_symmetry_cell_setting 'triclinic'
loop_
_space_group_symop_operation_xyz
x,y,z
-x,-y,-z
loop_
_atom_site_type_symbol
_atom_site_label
_atom_site_fract_x
_atom_site_fract_y
_atom_site_fract_z
Si Si1 0.156845 0.584590 0.916327
Si Si2 0.115305 0.821339 0.265326
Si Si3 0.717548 0.059737 0.348014
Si Si4 0.294387 0.459389 0.377045
Si Si5 0.833210 0.753731 0.637811
Si Si6 0.840691 0.678202 0.275649
Si Si7 0.368532 0.931818 0.175209
Si Si8 0.553585 0.313658 0.842430
O O1 0.264919 0.568080 0.801467
O O2 0.931190 0.702751 0.797570
O O3 0.454431 0.282121 0.130409
O O4 0.972848 0.786298 0.921769
O O5 0.217778 0.634771 0.307483
O O6 0.374186 0.681025 0.294605
O O7 0.977711 0.911369 0.361216
O O8 0.822333 0.107019 0.039961
O O9 0.537999 0.241607 0.377395
O O10 0.851644 0.836951 0.493763
O O11 0.444765 0.278164 0.597242
O O12 0.984577 0.664165 0.252225
O O13 0.031736 0.496764 0.736475
O O14 0.500000 0.000000 0.500000
O O15 0.497190 0.934707 0.153351
O O16 0.000000 0.500000 0.500000
O O17 0.435131 0.808438 0.126745
#
# Coordination Sequence:
#
# PCOD9100524 Si02
#       8
#     2   2   2   2   2   2   2   2
#     4  11  24  41  67  96 130 173 215 268 324 388
#     4  10  24  43  67  92 128 173 219 274 325 381
#     4  11  23  42  66  94 131 172 218 263 327 386
#     4  11  22  41  63  95 132 168 216 267 321 388
#     4  12  21  42  64  93 137 168 213 266 316 384
#     4  10  20  37  64  92 130 176 204 265 327 374
#     4  11  21  40  66  94 134 167 216 268 321 387
#     4  10  23  45  65  93 130 169 220 277 323 378
#
# _framework density 24.925328
#
# number of rings (size 3 to 8) (size 9 to 14) (size 15 to 20)
#    0.000    1.250    3.750    3.000    0.000    2.000 
#    0.000    8.750    0.000    0.000    0.000    0.000 
#    0.000    0.000    0.000    0.000    0.000    0.000 
#
# Total GULP energy -89502.152344 kJ/mol
# GULP energy per Si atom -5593.884522 kJ/mol
# Density = 2.486860 g / cm^3
# Si number density = 24.925328 Si / 1000 Ang^3
#
#
#
# Elastic Constant Matrix: (Units=GPa)
#
#
# Indices 1 2 3 4 5 6 
#
# 1 81.5651 31.4936 -5.2424 -12.8305 -7.4399 -29.5335
# 2 31.4936 143.0686 -5.7232 -3.1367 -2.2977 -28.8839
# 3 -5.2424 -5.7232 59.4753 -8.8633 5.3603 -16.8200
# 4 -12.8305 -3.1367 -8.8633 40.7336 -5.6353 0.1201
# 5 -7.4399 -2.2977 5.3603 -5.6353 40.1949 -2.4016
# 6 -29.5335 -28.8839 -16.8200 0.1201 -2.4016 35.4313
#
#
#
# Elastic Compliance Matrix: (Units=1/GPa)
#
#
# Indices 1 2 3 4 5 6 
#
# 1 0.024628 0.000739 0.010853 0.010967 0.006285 0.026672
# 2 0.000739 0.009044 0.003933 0.001892 0.000987 0.009916
# 3 0.010853 0.003933 0.026485 0.009624 0.001538 0.024897
# 4 0.010967 0.001892 0.009624 0.031047 0.006137 0.015563
# 5 0.006285 0.000987 0.001538 0.006137 0.027268 0.008601
# 6 0.026672 0.009916 0.024897 0.015563 0.008601 0.070888
#
#
# Mechanical properties :
#
#
# Convention : Reuss Voigt Hill
#
# Bulk Modulus (GPa) = 10.96424 36.12943 23.54684
# Shear Modulus (GPa) = 26.49520 40.84404 33.66962
#
# Velocity S-wave (km/s) = 3.26388 4.05242 3.67934
# Velocity P-wave (km/s) = 4.31419 6.03512 5.24571
#
# Compressibility (1/GPa) = 0.09120557
#
# Stress axis : x y z
#
# Youngs Moduli (GPa) = 40.60373 110.57665 37.75685
#
# Poissons Ratio (x) = -0.08170 -0.40977
# Poissons Ratio (y) = -0.03000 -0.14848
# Poissons Ratio (z) = -0.44067 -0.43485
#
# Static dielectric constant tensor:
#      x y z
#    x 1.996220 -0.104980 0.013060 
#    y -0.104980 2.053020 0.043290 
#    z 0.013060 0.043290 2.071260 
# 
# From -- ./inp_files/272266.got.cif
#   From: 2010.05.17/outbox.cif.g08.bks.cpg/sg2_137_cif.got.tgz:272266.got - 2010.06.03 11:33:40.
