data_PCOD9100351
_publ_section_title
;
Structure prediction by ZEFSAII (Michael W. Deem and Ramdas Pophale) SiO2 
 PCOD9100351
Probable space group: P -1
;
_chemical_formula_sum "Si O2"
_cell_formula_units_Z 14
_cell_length_a 11.679992
_cell_length_b 9.721913
_cell_length_c 13.410691
_cell_angle_alpha 72.936039
_cell_angle_beta 131.844944
_cell_angle_gamma 142.649182
_cell_volume 586.144962
_symmetry_space_group_name_H-M "P -1"
_symmetry_group_IT_number 2
_symmetry_cell_setting 'triclinic'
loop_
_space_group_symop_operation_xyz
x,y,z
-x,-y,-z
loop_
_atom_site_type_symbol
_atom_site_label
_atom_site_fract_x
_atom_site_fract_y
_atom_site_fract_z
Si Si1 0.313599 0.146519 0.248588
Si Si2 0.128349 0.442311 0.111280
Si Si3 0.815659 0.240874 0.246072
Si Si4 0.332828 0.415898 0.056636
Si Si5 0.301289 0.815129 0.593517
Si Si6 0.565067 0.281960 0.557522
Si Si7 0.649354 0.902907 0.054088
O O1 0.417065 0.342896 0.184952
O O2 0.457874 0.109923 0.308888
O O3 0.420515 0.273648 0.394830
O O4 0.975711 0.861147 0.109377
O O5 0.283509 0.501556 0.093101
O O6 0.318818 0.588832 0.291979
O O7 0.868534 0.126334 0.049436
O O8 0.000000 0.500000 0.000000
O O9 0.672506 0.099482 0.298442
O O10 0.147128 0.540901 0.369915
O O11 0.785372 0.076604 0.195697
O O12 0.639632 0.234450 0.100442
O O13 0.563895 0.670904 0.064714
O O14 0.000000 0.500000 0.500000
O O15 0.338164 0.976061 0.506127
#
# Coordination Sequence:
#
# PCOD9100351 Si02
#       7
#     2   2   2   2   2   2   2
#     4  11  25  44  59  93 133 169 204 255 319 367
#     4  11  22  42  69  95 123 161 214 261 309 370
#     4  10  20  37  63  95 118 153 209 266 302 362
#     4  11  24  44  63  88 134 167 205 260 308 378
#     4  12  23  37  64  92 123 160 206 256 310 371
#     4  11  23  41  63  94 124 160 213 261 312 360
#     4  10  20  37  66  92 119 161 208 256 314 363
#
# _framework density 23.884878
#
# number of rings (size 3 to 8) (size 9 to 14) (size 15 to 20)
#    0.000    1.143    1.429    7.286    2.000    0.571 
#    2.571    5.000    0.000    0.000    0.000    0.000 
#    0.000    0.000    0.000    0.000    0.000    0.000 
#
# Total GULP energy -78289.293469 kJ/mol
# GULP energy per Si atom -5592.092391 kJ/mol
# Density = 2.383052 g / cm^3
# Si number density = 23.884878 Si / 1000 Ang^3
#
#
#
# Elastic Constant Matrix: (Units=GPa)
#
#
# Indices 1 2 3 4 5 6 
#
# 1 62.0403 -1.9999 -6.4946 0.1156 -8.6629 7.6844
# 2 -1.9999 190.1722 37.5974 -3.0590 4.4488 10.9957
# 3 -6.4946 37.5974 109.8394 -0.6937 -18.7862 3.7311
# 4 0.1156 -3.0590 -0.6937 28.4233 0.1147 3.6528
# 5 -8.6629 4.4488 -18.7862 0.1147 20.4147 -1.1377
# 6 7.6844 10.9957 3.7311 3.6528 -1.1377 28.3156
#
#
#
# Elastic Compliance Matrix: (Units=1/GPa)
#
#
# Indices 1 2 3 4 5 6 
#
# 1 0.018541 -0.000396 0.003224 0.000553 0.010642 -0.004946
# 2 -0.000396 0.006024 -0.002708 0.000877 -0.004097 -0.002153
# 3 0.003224 -0.002708 0.012556 0.000069 0.013459 -0.000946
# 4 0.000553 0.000877 0.000069 0.035940 -0.000382 -0.005152
# 5 0.010642 -0.004097 0.013459 -0.000382 0.066762 -0.000339
# 6 -0.004946 -0.002153 -0.000946 -0.005152 -0.000339 0.038270
#
#
# Mechanical properties :
#
#
# Convention : Reuss Voigt Hill
#
# Bulk Modulus (GPa) = 26.76643 46.69529 36.73086
# Shear Modulus (GPa) = 26.27333 37.62732 31.95033
#
# Velocity S-wave (km/s) = 3.32022 3.97339 3.66140
# Velocity P-wave (km/s) = 5.09208 6.37519 5.76941
#
# Compressibility (1/GPa) = 0.03736023
#
# Stress axis : x y z
#
# Youngs Moduli (GPa) = 53.93511 166.00444 79.64222
#
# Poissons Ratio (x) = 0.06580 -0.25673
# Poissons Ratio (y) = 0.02138 0.21563
# Poissons Ratio (z) = -0.17386 0.44946
#
# Static dielectric constant tensor:
#      x y z
#    x 1.945030 -0.012350 -0.108550 
#    y -0.012350 1.936750 0.015560 
#    z -0.108550 0.015560 1.981120 
# 
# From -- ./inp_files/257778.got.cif
#   From: 2010.05.17/outbox.cif.g08.bks.cpg/sg2_129_cif.got.tgz:257778.got - 2010.06.03 11:33:40.
