data_PCOD9100571
_publ_section_title
;
Structure prediction by ZEFSAII (Michael W. Deem and Ramdas Pophale) SiO2 
 PCOD9100571
Probable space group: P -1
;
_chemical_formula_sum "Si O2"
_cell_formula_units_Z 16
_cell_length_a 11.134680
_cell_length_b 11.617519
_cell_length_c 8.316937
_cell_angle_alpha 63.796996
_cell_angle_beta 95.239950
_cell_angle_gamma 130.231276
_cell_volume 706.820177
_symmetry_space_group_name_H-M "P -1"
_symmetry_group_IT_number 2
_symmetry_cell_setting 'triclinic'
loop_
_space_group_symop_operation_xyz
x,y,z
-x,-y,-z
loop_
_atom_site_type_symbol
_atom_site_label
_atom_site_fract_x
_atom_site_fract_y
_atom_site_fract_z
Si Si1 0.248755 0.881642 0.585005
Si Si2 0.503483 0.565621 0.781204
Si Si3 0.946877 0.066381 0.091297
Si Si4 0.920749 0.326205 0.993536
Si Si5 0.378028 0.218611 0.923828
Si Si6 0.619951 0.206867 0.855180
Si Si7 0.822539 0.915062 0.683771
Si Si8 0.606639 0.251909 0.454127
O O1 0.198059 0.821359 0.796668
O O2 0.254557 0.748670 0.581135
O O3 0.139446 0.914629 0.474891
O O4 0.432057 0.070099 0.485908
O O5 0.429215 0.398019 0.771329
O O6 0.690920 0.744445 0.662716
O O7 0.390413 0.607691 0.714254
O O8 0.500000 0.500000 0.000000
O O9 0.008151 0.259455 0.975537
O O10 0.021534 0.056903 0.266458
O O11 0.751301 0.928941 0.129009
O O12 0.000000 0.000000 0.000000
O O13 0.805158 0.303071 0.857808
O O14 0.000000 0.500000 0.000000
O O15 0.544716 0.259050 0.931441
O O16 0.283291 0.143223 0.128241
O O17 0.604778 0.249890 0.647327
O O18 0.500000 0.000000 0.000000
#
# Coordination Sequence:
#
# PCOD9100571 Si02
#       8
#     2   2   2   2   2   2   2   2
#     4  10  21  39  66  96 130 169 226 273 330 398
#     4   9  20  35  60  96 127 163 216 269 326 382
#     4  10  22  41  64  90 130 174 216 263 332 400
#     4  12  28  44  65  99 135 177 223 279 338 393
#     4  10  20  37  64  95 126 170 215 271 329 390
#     4  12  22  41  69  92 133 172 228 276 330 397
#     4   9  20  37  63  92 129 172 216 268 331 396
#     4  10  21  38  67  99 129 172 224 277 328 394
#
# _framework density 22.636595
#
# number of rings (size 3 to 8) (size 9 to 14) (size 15 to 20)
#    0.000    1.750    2.500    0.750    8.750    3.000 
#    2.250    0.625    0.000    0.000    0.000    0.000 
#    0.000    0.000    0.000    0.000    0.000    0.000 
#
# Total GULP energy -89229.666187 kJ/mol
# GULP energy per Si atom -5576.854137 kJ/mol
# Density = 2.258507 g / cm^3
# Si number density = 22.636595 Si / 1000 Ang^3
#
#
#
# Elastic Constant Matrix: (Units=GPa)
#
#
# Indices 1 2 3 4 5 6 
#
# 1 101.6883 33.7479 37.3836 -5.6227 30.6765 -20.1200
# 2 33.7479 111.1990 14.6408 -9.8194 24.3649 -21.5920
# 3 37.3836 14.6408 67.5435 -3.3209 27.4522 -9.8185
# 4 -5.6227 -9.8194 -3.3209 24.0990 -5.8879 13.3259
# 5 30.6765 24.3649 27.4522 -5.8879 48.7400 2.5148
# 6 -20.1200 -21.5920 -9.8185 13.3259 2.5148 37.4048
#
#
#
# Elastic Compliance Matrix: (Units=1/GPa)
#
#
# Indices 1 2 3 4 5 6 
#
# 1 0.015579 -0.001156 -0.004138 -0.004080 -0.007834 0.008607
# 2 -0.001156 0.011982 0.001875 -0.001003 -0.006832 0.007603
# 3 -0.004138 0.001875 0.022235 -0.003755 -0.011662 0.006815
# 4 -0.004080 -0.001003 -0.003755 0.056588 0.013300 -0.024813
# 5 -0.007834 -0.006832 -0.011662 0.013300 0.037993 -0.018512
# 6 0.008607 0.007603 0.006815 -0.024813 -0.018512 0.047627
#
#
# Mechanical properties :
#
#
# Convention : Reuss Voigt Hill
#
# Bulk Modulus (GPa) = 23.27785 50.21947 36.74866
# Shear Modulus (GPa) = 23.45657 35.02599 29.24128
#
# Velocity S-wave (km/s) = 3.22253 3.93786 3.59802
# Velocity P-wave (km/s) = 4.91446 6.55049 5.79055
#
# Compressibility (1/GPa) = 0.04295930
#
# Stress axis : x y z
#
# Youngs Moduli (GPa) = 64.18723 83.46191 44.97447
#
# Poissons Ratio (x) = 0.09647 0.18609
# Poissons Ratio (y) = 0.07419 -0.08434
# Poissons Ratio (z) = 0.26558 -0.15651
#
# Static dielectric constant tensor:
#      x y z
#    x 1.971060 -0.042360 0.008920 
#    y -0.042360 1.916780 0.016770 
#    z 0.008920 0.016770 1.891780 
# 
# From -- ./inp_files/262104.got.cif
#   From: 2010.05.17/outbox.cif.g08.bks.cpg/sg2_132_cif.got.tgz:262104.got - 2010.06.03 11:33:40.
