data_PCOD9100209
_publ_section_title
;
Structure prediction by ZEFSAII (Michael W. Deem and Ramdas Pophale) SiO2 
 PCOD9100209
Probable space group: P -1
;
_chemical_formula_sum "Si O2"
_cell_formula_units_Z 16
_cell_length_a 8.757734
_cell_length_b 19.651011
_cell_length_c 14.274436
_cell_angle_alpha 161.198445
_cell_angle_beta 61.255901
_cell_angle_gamma 117.490656
_cell_volume 694.005429
_symmetry_space_group_name_H-M "P -1"
_symmetry_group_IT_number 2
_symmetry_cell_setting 'triclinic'
loop_
_space_group_symop_operation_xyz
x,y,z
-x,-y,-z
loop_
_atom_site_type_symbol
_atom_site_label
_atom_site_fract_x
_atom_site_fract_y
_atom_site_fract_z
Si Si1 0.330117 0.845122 0.850555
Si Si2 0.886115 0.774950 0.549388
Si Si3 0.503907 0.247173 0.663278
Si Si4 0.347169 0.257355 0.914301
Si Si5 0.767074 0.104196 0.761622
Si Si6 0.094237 0.903821 0.492394
Si Si7 0.441034 0.526115 0.700116
Si Si8 0.194341 0.703355 0.500514
O O1 0.410859 0.628258 0.583364
O O2 0.250707 0.793073 0.702578
O O3 0.500000 0.000000 0.000000
O O4 0.183629 0.985745 0.125115
O O5 0.715668 0.624265 0.410352
O O6 0.004419 0.745918 0.569517
O O7 0.005567 0.739485 0.376393
O O8 0.668993 0.201668 0.491665
O O9 0.343203 0.115823 0.494216
O O10 0.500000 0.500000 0.000000
O O11 0.477991 0.196285 0.713298
O O12 0.456517 0.344148 0.081108
O O13 0.229961 0.452523 0.168465
O O14 0.222523 0.059942 0.714543
O O15 0.946438 0.053931 0.691058
O O16 0.812225 0.172548 0.729672
O O17 0.657204 0.287101 0.080184
#
# Coordination Sequence:
#
# PCOD9100209 Si02
#       8
#     2   2   2   2   2   2   2   2
#     4   9  21  41  62  87 119 158 206 259 295 349
#     4  11  23  38  64  89 119 160 214 246 296 359
#     4   9  20  34  62  90 120 159 198 239 302 367
#     4   9  20  39  57  87 131 155 193 246 310 359
#     4  10  22  39  60  86 133 158 194 249 311 356
#     4  10  23  38  59  91 124 159 196 251 304 359
#     4  10  22  39  63  86 124 164 200 248 304 356
#     4  10  20  37  63  88 118 160 204 248 304 354
#
# _framework density 23.054575
#
# number of rings (size 3 to 8) (size 9 to 14) (size 15 to 20)
#    0.000    2.250    0.000    1.125   10.500    2.500 
#    0.000    3.125    2.750    0.000    0.000    0.000 
#    0.000    0.000    0.000    0.000    0.000    0.000 
#
# Total GULP energy -89270.008237 kJ/mol
# GULP energy per Si atom -5579.375515 kJ/mol
# Density = 2.300210 g / cm^3
# Si number density = 23.054575 Si / 1000 Ang^3
#
#
#
# Elastic Constant Matrix: (Units=GPa)
#
#
# Indices 1 2 3 4 5 6 
#
# 1 107.2330 15.7512 56.2738 1.3607 -11.7269 7.7550
# 2 15.7512 71.2191 24.6784 -5.7365 16.3521 5.2805
# 3 56.2738 24.6784 108.6445 -1.0152 -8.6148 3.8582
# 4 1.3607 -5.7365 -1.0152 27.2177 -3.4252 0.7260
# 5 -11.7269 16.3521 -8.6148 -3.4252 47.1718 5.3847
# 6 7.7550 5.2805 3.8582 0.7260 5.3847 21.9059
#
#
#
# Elastic Compliance Matrix: (Units=1/GPa)
#
#
# Indices 1 2 3 4 5 6 
#
# 1 0.013453 -0.001240 -0.006307 -0.000678 0.003039 -0.004077
# 2 -0.001240 0.017503 -0.003782 0.002811 -0.006684 -0.001564
# 3 -0.006307 -0.003782 0.013500 0.000294 0.002205 0.000215
# 4 -0.000678 0.002811 0.000294 0.037676 0.001898 -0.002204
# 5 0.003039 -0.006684 0.002205 0.001898 0.025518 -0.006189
# 6 -0.004077 -0.001564 0.000215 -0.002204 -0.006189 0.049027
#
#
# Mechanical properties :
#
#
# Convention : Reuss Voigt Hill
#
# Bulk Modulus (GPa) = 45.87428 53.38927 49.63177
# Shear Modulus (GPa) = 26.79515 31.95195 29.37355
#
# Velocity S-wave (km/s) = 3.41288 3.72684 3.57331
# Velocity P-wave (km/s) = 5.95580 6.45966 6.21284
#
# Compressibility (1/GPa) = 0.02179871
#
# Stress axis : x y z
#
# Youngs Moduli (GPa) = 74.33115 57.13396 74.07279
#
# Poissons Ratio (x) = 0.07084 0.46720
# Poissons Ratio (y) = 0.09216 0.28012
# Poissons Ratio (z) = 0.46883 0.21606
#
# Static dielectric constant tensor:
#      x y z
#    x 1.925250 -0.011240 -0.039810 
#    y -0.011240 1.953170 0.087290 
#    z -0.039810 0.087290 1.946480 
# 
# From -- ./inp_files/226360.got.cif
#   From: 2010.05.17/outbox.cif.g08.bks.cpg/sg2_114_cif.got.tgz:226360.got - 2010.06.03 11:33:40.
