data_PCOD9100277
_publ_section_title
;
Structure prediction by ZEFSAII (Michael W. Deem and Ramdas Pophale) SiO2 
 PCOD9100277
Probable space group: P -1
;
_chemical_formula_sum "Si O2"
_cell_formula_units_Z 16
_cell_length_a 16.079302
_cell_length_b 9.883370
_cell_length_c 8.318367
_cell_angle_alpha 82.139580
_cell_angle_beta 57.900182
_cell_angle_gamma 121.674091
_cell_volume 778.572603
_symmetry_space_group_name_H-M "P -1"
_symmetry_group_IT_number 2
_symmetry_cell_setting 'triclinic'
loop_
_space_group_symop_operation_xyz
x,y,z
-x,-y,-z
loop_
_atom_site_type_symbol
_atom_site_label
_atom_site_fract_x
_atom_site_fract_y
_atom_site_fract_z
Si Si1 0.842982 0.370140 0.739426
Si Si2 0.939785 0.931086 0.833296
Si Si3 0.130740 0.293282 0.373184
Si Si4 0.394000 0.053644 0.110603
Si Si5 0.642407 0.696215 0.750838
Si Si6 0.729391 0.169259 0.217489
Si Si7 0.795583 0.923084 0.262511
Si Si8 0.548439 0.108455 0.664546
O O1 0.817514 0.502362 0.704150
O O2 0.730569 0.162583 0.799080
O O3 0.000000 0.500000 0.500000
O O4 0.826329 0.328343 0.953971
O O5 0.899107 0.780824 0.766116
O O6 0.816015 0.862673 0.084798
O O7 0.997244 0.121666 0.647807
O O8 0.065258 0.985834 0.797381
O O9 0.245291 0.303681 0.317745
O O10 0.457010 0.038523 0.203742
O O11 0.331894 0.134638 0.215441
O O12 0.514679 0.182845 0.828946
O O13 0.662507 0.744681 0.533309
O O14 0.500000 0.500000 0.000000
O O15 0.690100 0.231168 0.395945
O O16 0.785922 0.076927 0.226356
O O17 0.579861 0.999671 0.308744
#
# Coordination Sequence:
#
# PCOD9100277 Si02
#       8
#     2   2   2   2   2   2   2   2
#     4  11  25  39  65  96 127 163 212 254 309 376
#     4   9  21  41  68  86 126 167 204 262 309 368
#     4  10  23  41  64  94 124 163 214 254 310 370
#     4  10  22  42  63  89 126 168 208 257 312 362
#     4  11  25  40  67  93 126 163 212 259 309 374
#     4  10  20  37  63  91 124 165 203 258 310 368
#     4  10  20  40  65  91 122 167 206 254 318 367
#     4   9  20  36  64  84 120 166 205 251 310 363
#
# _framework density 20.550428
#
# number of rings (size 3 to 8) (size 9 to 14) (size 15 to 20)
#    0.000    2.000    1.250    0.750   14.000    0.000 
#    2.250    4.375    0.000    0.000    0.000    0.000 
#    0.000    0.000    0.000    0.000    0.000    0.000 
#
# Total GULP energy -89246.318647 kJ/mol
# GULP energy per Si atom -5577.894915 kJ/mol
# Density = 2.050365 g / cm^3
# Si number density = 20.550428 Si / 1000 Ang^3
#
#
#
# Elastic Constant Matrix: (Units=GPa)
#
#
# Indices 1 2 3 4 5 6 
#
# 1 52.6340 27.9849 39.0314 2.5445 6.9257 -19.7626
# 2 27.9849 91.1876 55.2976 -0.3473 7.1969 -17.6088
# 3 39.0314 55.2976 173.5113 26.3536 -2.9016 -14.8443
# 4 2.5445 -0.3473 26.3536 25.0418 1.5003 -2.2718
# 5 6.9257 7.1969 -2.9016 1.5003 22.1776 1.5960
# 6 -19.7626 -17.6088 -14.8443 -2.2718 1.5960 30.4634
#
#
#
# Elastic Compliance Matrix: (Units=1/GPa)
#
#
# Indices 1 2 3 4 5 6 
#
# 1 0.032801 -0.001706 -0.006344 0.005709 -0.012221 0.018268
# 2 -0.001706 0.016728 -0.005590 0.007295 -0.006605 0.006729
# 3 -0.006344 -0.005590 0.010476 -0.011135 0.006163 -0.003395
# 4 0.005709 0.007295 -0.011135 0.052377 -0.009647 0.006906
# 5 -0.012221 -0.006605 0.006163 -0.009647 0.053391 -0.012259
# 6 0.018268 0.006729 -0.003395 0.006906 -0.012259 0.048070
#
#
# Mechanical properties :
#
#
# Convention : Reuss Voigt Hill
#
# Bulk Modulus (GPa) = 30.55654 62.44008 46.49831
# Shear Modulus (GPa) = 19.83880 28.53783 24.18832
#
# Velocity S-wave (km/s) = 3.11041 3.73053 3.43450
# Velocity P-wave (km/s) = 5.27266 7.00040 6.19704
#
# Compressibility (1/GPa) = 0.03272622
#
# Stress axis : x y z
#
# Youngs Moduli (GPa) = 30.48641 59.77862 95.45909
#
# Poissons Ratio (x) = 0.10197 0.60556
# Poissons Ratio (y) = 0.05200 0.53364
# Poissons Ratio (z) = 0.19339 0.33418
#
# Static dielectric constant tensor:
#      x y z
#    x 1.649770 0.098610 0.129970 
#    y 0.098610 1.647290 -0.102740 
#    z 0.129970 -0.102740 1.629400 
# 
# From -- ./inp_files/214763.got.cif
#   From: 2010.05.17/outbox.cif.g08.bks.cpg/sg2_108_cif.got.tgz:214763.got - 2010.06.03 11:33:40.
