data_PCOD9100227
_publ_section_title
;
Structure prediction by ZEFSAII (Michael W. Deem and Ramdas Pophale) SiO2 
 PCOD9100227
Probable space group: P -1
;
_chemical_formula_sum "Si O2"
_cell_formula_units_Z 16
_cell_length_a 8.387883
_cell_length_b 9.371112
_cell_length_c 11.461881
_cell_angle_alpha 103.535462
_cell_angle_beta 70.019972
_cell_angle_gamma 122.012273
_cell_volume 716.379332
_symmetry_space_group_name_H-M "P -1"
_symmetry_group_IT_number 2
_symmetry_cell_setting 'triclinic'
loop_
_space_group_symop_operation_xyz
x,y,z
-x,-y,-z
loop_
_atom_site_type_symbol
_atom_site_label
_atom_site_fract_x
_atom_site_fract_y
_atom_site_fract_z
Si Si1 0.623905 0.073688 0.650256
Si Si2 0.751286 0.220988 0.398031
Si Si3 0.298826 0.459107 0.481699
Si Si4 0.532079 0.318255 0.857124
Si Si5 0.011290 0.128074 0.619484
Si Si6 0.759895 0.941883 0.977968
Si Si7 0.817527 0.666727 0.771364
Si Si8 0.865967 0.830112 0.151115
O O1 0.714039 0.112493 0.504843
O O2 0.578611 0.219754 0.726738
O O3 0.789455 0.077725 0.691778
O O4 0.426923 0.897191 0.664060
O O5 0.732614 0.381119 0.471898
O O6 0.959362 0.278774 0.300682
O O7 0.500000 0.500000 0.500000
O O8 0.124244 0.311632 0.569767
O O9 0.286237 0.394857 0.340453
O O10 0.710917 0.505915 0.853360
O O11 0.339757 0.330457 0.865615
O O12 0.468312 0.187507 0.958323
O O13 0.126815 0.133939 0.707862
O O14 0.000000 0.000000 0.500000
O O15 0.799084 0.820345 0.859318
O O16 0.835607 0.954308 0.095168
O O17 0.914324 0.129367 0.928828
#
# Coordination Sequence:
#
# PCOD9100227 Si02
#       8
#     2   2   2   2   2   2   2   2
#     4  11  23  39  63  89 126 164 207 251 311 367
#     4  11  24  39  61  93 124 167 204 253 306 376
#     4  12  24  39  60  96 133 157 195 260 321 368
#     4  10  20  37  63  89 118 158 207 254 293 368
#     4  12  24  38  62  94 127 165 199 256 319 368
#     4   9  21  38  66  87 118 166 216 250 293 363
#     4  12  20  38  64  91 124 159 209 246 307 370
#     4   9  21  40  60  87 122 156 214 246 302 356
#
# _framework density 22.334534999999999
#
# number of rings (size 3 to 8) (size 9 to 14) (size 15 to 20)
#    0.750    0.500    2.500    4.500    3.500    0.000 
#    0.000    0.625    2.750    1.500    0.000    0.000 
#    0.000    0.000    0.000    0.000    0.000    0.000 
#
# Total GULP energy -89107.975401 kJ/mol
# GULP energy per Si atom -5569.248463 kJ/mol
# Density = 2.228370 g / cm^3
# Si number density = 22.334535 Si / 1000 Ang^3
#
#
#
# Elastic Constant Matrix: (Units=GPa)
#
#
# Indices 1 2 3 4 5 6 
#
# 1 70.9364 21.9821 28.8862 4.0825 -2.0548 26.3248
# 2 21.9821 99.7260 16.7414 -5.3508 -19.2919 26.1087
# 3 28.8862 16.7414 86.7855 1.8589 -5.2038 6.4329
# 4 4.0825 -5.3508 1.8589 37.4207 15.3439 -7.1264
# 5 -2.0548 -19.2919 -5.2038 15.3439 26.0159 -7.9404
# 6 26.3248 26.1087 6.4329 -7.1264 -7.9404 33.8663
#
#
#
# Elastic Compliance Matrix: (Units=1/GPa)
#
#
# Indices 1 2 3 4 5 6 
#
# 1 0.024092 0.000114 -0.006649 -0.005013 -0.002224 -0.019129
# 2 0.000114 0.014381 -0.001459 -0.003633 0.009655 -0.009399
# 3 -0.006649 -0.001459 0.013882 -0.000499 0.002744 0.004195
# 4 -0.005013 -0.003633 -0.000499 0.037855 -0.022631 0.009451
# 5 -0.002224 0.009655 0.002744 -0.022631 0.060275 0.003134
# 6 -0.019129 -0.009399 0.004195 0.009451 0.003134 0.053570
#
#
# Mechanical properties :
#
#
# Convention : Reuss Voigt Hill
#
# Bulk Modulus (GPa) = 27.49716 43.62970 35.56343
# Shear Modulus (GPa) = 21.53652 32.11647 26.82649
#
# Velocity S-wave (km/s) = 3.10864 3.79618 3.46948
# Velocity P-wave (km/s) = 5.02226 6.22829 5.65750
#
# Compressibility (1/GPa) = 0.03636739
#
# Stress axis : x y z
#
# Youngs Moduli (GPa) = 41.50742 69.53762 72.03816
#
# Poissons Ratio (x) = -0.00796 0.47899
# Poissons Ratio (y) = -0.00475 0.10509
# Poissons Ratio (z) = 0.27599 0.10144
#
# Static dielectric constant tensor:
#      x y z
#    x 1.898490 0.046490 -0.017420 
#    y 0.046490 1.915770 -0.077060 
#    z -0.017420 -0.077060 1.832230 
# 
# From -- ./inp_files/390937.got.cif
#   From: 2010.05.17/outbox.cif.g08.bks.cpg/sg2_196_cif.got.tgz:390937.got - 2010.06.03 11:33:40.
