data_PCOD9100025
_publ_section_title
;
Structure prediction by ZEFSAII (Michael W. Deem and Ramdas Pophale) SiO2 
 PCOD9100025
Probable space group: P -1
;
_chemical_formula_sum "Si O2"
_cell_formula_units_Z 16
_cell_length_a 10.802000
_cell_length_b 6.853299
_cell_length_c 14.294019
_cell_angle_alpha 92.652415
_cell_angle_beta 32.170461
_cell_angle_gamma 87.025723
_cell_volume 554.502135
_symmetry_space_group_name_H-M "P -1"
_symmetry_group_IT_number 2
_symmetry_cell_setting 'triclinic'
loop_
_space_group_symop_operation_xyz
x,y,z
-x,-y,-z
loop_
_atom_site_type_symbol
_atom_site_label
_atom_site_fract_x
_atom_site_fract_y
_atom_site_fract_z
Si Si1 0.689435 0.838259 0.667335
Si Si2 0.830939 0.332481 0.428124
Si Si3 0.629601 0.318876 0.748951
Si Si4 0.918430 0.858476 0.337170
Si Si5 0.661582 0.675081 0.333516
Si Si6 0.755934 0.966072 0.118324
Si Si7 0.117382 0.396929 0.082710
Si Si8 0.552300 0.216598 0.002873
O O1 0.889764 0.780201 0.460273
O O2 0.649426 0.729642 0.787340
O O3 0.683185 0.074927 0.697483
O O4 0.444132 0.849492 0.768725
O O5 0.794790 0.379139 0.562109
O O6 0.588791 0.396082 0.524083
O O7 0.034244 0.416630 0.244009
O O8 0.880221 0.094871 0.380123
O O9 0.369114 0.436876 0.889406
O O10 0.583398 0.332044 0.889821
O O11 0.727324 0.791769 0.387286
O O12 0.182089 0.798608 0.126931
O O13 0.658736 0.830566 0.254388
O O14 0.892081 0.505330 0.172959
O O15 0.828538 0.837762 0.976602
O O16 0.000000 0.000000 0.000000
O O17 0.500000 0.000000 0.000000
#
# Coordination Sequence:
#
# PCOD9100025 Si02
#       8
#     2   2   2   2   2   2   2   2
#     4   9  19  35  55  91 118 147 200 245 308 353
#     4  11  21  38  61  89 121 161 204 244 304 362
#     4   9  20  38  60  84 117 152 208 253 296 358
#     4  11  22  37  60  89 123 159 197 259 304 355
#     4  12  23  39  58  90 132 159 200 244 302 378
#     4  11  21  37  62  89 123 166 199 246 301 357
#     4  11  23  39  59  88 125 165 201 245 301 361
#     4  10  20  37  62  91 115 152 208 261 308 352
#
# _framework density 28.854716
#
# number of rings (size 3 to 8) (size 9 to 14) (size 15 to 20)
#    0.000    1.500    3.750    4.875    1.750    5.500 
#    0.000    0.625    0.000    1.500    0.000    0.000 
#    0.000    0.000    0.000    0.000    0.000    0.000 
#
# Total GULP energy -89510.502977 kJ/mol
# GULP energy per Si atom -5594.406436 kJ/mol
# Density = 2.878904 g / cm^3
# Si number density = 28.854716 Si / 1000 Ang^3
#
#
#
# Elastic Constant Matrix: (Units=GPa)
#
#
# Indices 1 2 3 4 5 6 
#
# 1 102.1478 20.8472 47.0313 -11.8457 28.3512 -4.8294
# 2 20.8472 101.3250 37.9121 -25.4823 15.1378 -1.4123
# 3 47.0313 37.9121 222.9747 -13.2364 40.4763 2.8315
# 4 -11.8457 -25.4823 -13.2364 45.6233 -2.9774 13.6513
# 5 28.3512 15.1378 40.4763 -2.9774 71.5168 -4.8549
# 6 -4.8294 -1.4123 2.8315 13.6513 -4.8549 50.5336
#
#
#
# Elastic Compliance Matrix: (Units=1/GPa)
#
#
# Indices 1 2 3 4 5 6 
#
# 1 0.011918 -0.000860 -0.001627 0.001798 -0.003521 0.000382
# 2 -0.000860 0.012394 -0.001251 0.006729 -0.001404 -0.001618
# 3 -0.001627 -0.001251 0.005492 0.000587 -0.002233 -0.000871
# 4 0.001798 0.006729 0.000587 0.028450 -0.001796 -0.007531
# 5 -0.003521 -0.001404 -0.002233 -0.001796 0.016992 0.001867
# 6 0.000382 -0.001618 -0.000871 -0.007531 0.001867 0.022043
#
#
# Mechanical properties :
#
#
# Convention : Reuss Voigt Hill
#
# Bulk Modulus (GPa) = 44.78530 70.89208 57.83869
# Shear Modulus (GPa) = 44.56070 54.91186 49.73628
#
# Velocity S-wave (km/s) = 3.93404 4.36712 4.15623
# Velocity P-wave (km/s) = 6.01583 7.07467 6.56663
#
# Compressibility (1/GPa) = 0.02232875
#
# Stress axis : x y z
#
# Youngs Moduli (GPa) = 83.90643 80.68638 182.08472
#
# Poissons Ratio (x) = 0.06938 0.29617
# Poissons Ratio (y) = 0.07215 0.22779
# Poissons Ratio (z) = 0.13648 0.10094
#
# Static dielectric constant tensor:
#      x y z
#    x 2.405360 0.126670 -0.074720 
#    y 0.126670 2.379280 -0.053470 
#    z -0.074720 -0.053470 2.237650 
# 
# From -- ./inp_files/515596.got.cif
#   From: 2010.05.17/outbox.cif.g08.bks.cpg/sg2_258_cif.got.tgz:515596.got - 2010.06.03 11:33:40.
