data_PCOD9100735
_publ_section_title
;
Structure prediction by ZEFSAII (Michael W. Deem and Ramdas Pophale) SiO2 
 PCOD9100735
Probable space group: P -1
;
_chemical_formula_sum "Si O2"
_cell_formula_units_Z 14
_cell_length_a 11.487589
_cell_length_b 5.204256
_cell_length_c 11.099099
_cell_angle_alpha 111.904507
_cell_angle_beta 105.479480
_cell_angle_gamma 105.972313
_cell_volume 538.695537
_symmetry_space_group_name_H-M "P -1"
_symmetry_group_IT_number 2
_symmetry_cell_setting 'triclinic'
loop_
_space_group_symop_operation_xyz
x,y,z
-x,-y,-z
loop_
_atom_site_type_symbol
_atom_site_label
_atom_site_fract_x
_atom_site_fract_y
_atom_site_fract_z
Si Si1 0.423957 0.788550 0.762664
Si Si2 0.151420 0.532640 0.549948
Si Si3 0.610187 0.370237 0.003333
Si Si4 0.127656 0.384755 0.785442
Si Si5 0.912640 0.183796 0.989515
Si Si6 0.170224 0.076069 0.313876
Si Si7 0.566091 0.761585 0.463519
O O1 0.299279 0.805213 0.659312
O O2 0.387593 0.773120 0.890326
O O3 0.440860 0.476554 0.686615
O O4 0.557682 0.099912 0.843507
O O5 0.149547 0.352907 0.644007
O O6 0.172505 0.398552 0.406393
O O7 0.000000 0.500000 0.500000
O O8 0.761616 0.625259 0.091942
O O9 0.500000 0.500000 0.000000
O O10 0.128452 0.710521 0.879872
O O11 0.979448 0.144435 0.729964
O O12 0.804556 0.982026 0.826786
O O13 0.000000 0.500000 0.000000
O O14 0.000000 0.000000 0.000000
O O15 0.280349 0.052290 0.425685
O O16 0.500000 0.500000 0.500000
O O17 0.500000 0.000000 0.500000
#
# Coordination Sequence:
#
# PCOD9100735 Si02
#       7
#     2   2   2   2   2   2   2
#     4   9  23  43  60 105 129 175 235 275 341 412
#     4  10  20  37  65  93 132 175 220 283 337 401
#     4  10  22  41  69  95 137 177 224 285 340 408
#     4  10  22  40  64  99 129 176 226 276 340 401
#     4  10  22  41  63  95 133 169 218 272 332 396
#     4  10  23  42  63 102 132 175 227 281 338 410
#     4  11  27  46  72  99 139 184 228 282 344 411
#
# _framework density 25.988707000000002
#
# number of rings (size 3 to 8) (size 9 to 14) (size 15 to 20)
#    0.000    2.000    0.000    1.286    6.000    4.571 
#    7.714    0.000    0.000    0.000    0.000    0.000 
#    0.000    0.000    0.000    0.000    0.000    0.000 
#
# Total GULP energy -78064.296000 kJ/mol
# GULP energy per Si atom -5576.021143 kJ/mol
# Density = 2.592956 g / cm^3
# Si number density = 25.988707 Si / 1000 Ang^3
#
#
#
# Elastic Constant Matrix: (Units=GPa)
#
#
# Indices 1 2 3 4 5 6 
#
# 1 166.5038 43.7601 52.6639 23.3315 37.7595 -31.4486
# 2 43.7601 98.0283 31.8196 18.3605 9.6404 -23.4413
# 3 52.6639 31.8196 168.7366 33.4118 27.8717 -11.8412
# 4 23.3315 18.3605 33.4118 23.2137 1.0114 -4.8852
# 5 37.7595 9.6404 27.8717 1.0114 62.1928 -1.2705
# 6 -31.4486 -23.4413 -11.8412 -4.8852 -1.2705 45.6315
#
#
#
# Elastic Compliance Matrix: (Units=1/GPa)
#
#
# Indices 1 2 3 4 5 6 
#
# 1 0.009504 -0.001132 -0.000084 -0.007247 -0.005337 0.005022
# 2 -0.001132 0.013688 0.000043 -0.008580 -0.001205 0.005310
# 3 -0.000084 0.000043 0.009176 -0.012807 -0.003842 0.000867
# 4 -0.007247 -0.008580 -0.012807 0.074191 0.010171 -0.004499
# 5 -0.005337 -0.001205 -0.003842 0.010171 0.020988 -0.003621
# 6 0.005022 0.005310 0.000867 -0.004499 -0.003621 0.027747
#
#
# Mechanical properties :
#
#
# Convention : Reuss Voigt Hill
#
# Bulk Modulus (GPa) = 33.30951 76.63954 54.97452
# Shear Modulus (GPa) = 29.82443 46.54259 38.18351
#
# Velocity S-wave (km/s) = 3.39129 4.23647 3.83722
# Velocity P-wave (km/s) = 5.30841 7.31326 6.38995
#
# Compressibility (1/GPa) = 0.03002146
#
# Stress axis : x y z
#
# Youngs Moduli (GPa) = 105.21465 73.05600 108.98221
#
# Poissons Ratio (x) = 0.08273 0.00915
# Poissons Ratio (y) = 0.11915 -0.00468
# Poissons Ratio (z) = 0.00883 -0.00313
#
# Static dielectric constant tensor:
#      x y z
#    x 2.364560 0.221350 -0.074340 
#    y 0.221350 2.227100 -0.044220 
#    z -0.074340 -0.044220 2.287680 
# 
# From -- ./inp_files/68626.got.cif
#   From: 2010.05.17/outbox.cif.g08.bks.cpg/sg2_35_cif.got.tgz:68626.got - 2010.06.03 11:33:40.
