data_PCOD9100546
_publ_section_title
;
Structure prediction by ZEFSAII (Michael W. Deem and Ramdas Pophale) SiO2 
 PCOD9100546
Probable space group: P -1
;
_chemical_formula_sum "Si O2"
_cell_formula_units_Z 16
_cell_length_a 14.729111
_cell_length_b 9.416629
_cell_length_c 8.659268
_cell_angle_alpha 79.659418
_cell_angle_beta 75.084299
_cell_angle_gamma 39.029524
_cell_volume 730.415892
_symmetry_space_group_name_H-M "P -1"
_symmetry_group_IT_number 2
_symmetry_cell_setting 'triclinic'
loop_
_space_group_symop_operation_xyz
x,y,z
-x,-y,-z
loop_
_atom_site_type_symbol
_atom_site_label
_atom_site_fract_x
_atom_site_fract_y
_atom_site_fract_z
Si Si1 0.158681 0.769619 0.410028
Si Si2 0.458331 0.219631 0.974821
Si Si3 0.353138 0.307564 0.549649
Si Si4 0.604356 0.016027 0.262724
Si Si5 0.166261 0.318162 0.408951
Si Si6 0.854800 0.401877 0.863568
Si Si7 0.279669 0.932703 0.254898
Si Si8 0.101429 0.240263 0.968505
O O1 0.244098 0.569850 0.536688
O O2 0.138733 0.705857 0.269918
O O3 0.256362 0.793731 0.326249
O O4 0.000000 0.000000 0.500000
O O5 0.287332 0.456794 0.997589
O O6 0.508758 0.196570 0.132480
O O7 0.500000 0.000000 0.000000
O O8 0.558688 0.199160 0.826622
O O9 0.388112 0.169550 0.710279
O O10 0.266124 0.290096 0.488146
O O11 0.505513 0.165928 0.426451
O O12 0.769759 0.871701 0.187494
O O13 0.169418 0.409009 0.233950
O O14 0.223217 0.092869 0.391896
O O15 0.000000 0.500000 0.500000
O O16 0.999052 0.240755 0.935280
O O17 0.179200 0.093895 0.119040
O O18 0.000000 0.500000 0.000000
#
# Coordination Sequence:
#
# PCOD9100546 Si02
#       8
#     2   2   2   2   2   2   2   2
#     4  11  25  42  62  92 134 175 214 250 326 397
#     4  11  19  40  65  97 121 159 217 271 320 373
#     4  10  21  39  64  89 124 168 212 262 319 371
#     4  10  20  37  64  94 120 159 212 269 313 366
#     4  11  19  34  60  90 119 162 216 261 310 363
#     4  11  21  40  62  92 128 166 210 268 319 370
#     4  11  23  38  65  93 124 168 212 263 322 382
#     4  11  22  36  64 100 123 154 221 272 317 365
#
# _framework density 21.905329999999999
#
# number of rings (size 3 to 8) (size 9 to 14) (size 15 to 20)
#    0.000    1.250    5.000    3.000    1.750    1.000 
#    0.000    0.000    0.000    7.500    0.000    0.000 
#    0.000    0.000    0.000    0.000    0.000    0.000 
#
# Total GULP energy -89398.860633 kJ/mol
# GULP energy per Si atom -5587.428790 kJ/mol
# Density = 2.185547 g / cm^3
# Si number density = 21.905330 Si / 1000 Ang^3
#
#
#
# Elastic Constant Matrix: (Units=GPa)
#
#
# Indices 1 2 3 4 5 6 
#
# 1 117.4293 32.1695 29.2810 16.1237 -19.1446 -9.0040
# 2 32.1695 100.0790 28.0754 14.6873 -21.8384 -8.1174
# 3 29.2810 28.0754 56.8555 16.0007 -17.8086 -12.5804
# 4 16.1237 14.6873 16.0007 38.8977 -7.0559 -10.0801
# 5 -19.1446 -21.8384 -17.8086 -7.0559 33.4320 12.5533
# 6 -9.0040 -8.1174 -12.5804 -10.0801 12.5533 42.1385
#
#
#
# Elastic Compliance Matrix: (Units=1/GPa)
#
#
# Indices 1 2 3 4 5 6 
#
# 1 0.010475 -0.001550 -0.003216 -0.001991 0.002999 -0.000390
# 2 -0.001550 0.012913 -0.003458 -0.002057 0.005668 -0.001057
# 3 -0.003216 -0.003458 0.025447 -0.005820 0.007211 0.002703
# 4 -0.001991 -0.002057 -0.005820 0.030850 -0.000994 0.005117
# 5 0.002999 0.005668 0.007211 -0.000994 0.042328 -0.008962
# 6 -0.000390 -0.001057 0.002703 0.005117 -0.008962 0.028145
#
#
# Mechanical properties :
#
#
# Convention : Reuss Voigt Hill
#
# Bulk Modulus (GPa) = 30.87572 50.37952 40.62762
# Shear Modulus (GPa) = 28.18456 35.21617 31.70036
#
# Velocity S-wave (km/s) = 3.59089 4.01390 3.80827
# Velocity P-wave (km/s) = 5.59627 6.67312 6.15828
#
# Compressibility (1/GPa) = 0.03238791
#
# Stress axis : x y z
#
# Youngs Moduli (GPa) = 95.46902 77.43880 39.29708
#
# Poissons Ratio (x) = 0.12002 0.12637
# Poissons Ratio (y) = 0.14796 0.13589
# Poissons Ratio (z) = 0.30701 0.26778
#
# Static dielectric constant tensor:
#      x y z
#    x 1.910760 -0.099690 0.075680 
#    y -0.099690 1.860870 -0.047270 
#    z 0.075680 -0.047270 1.880180 
# 
# From -- ./inp_files/274547.got.cif
#   From: 2010.05.17/outbox.cif.g08.bks.cpg/sg2_138_cif.got.tgz:274547.got - 2010.06.03 11:33:40.
