data_PCOD9100572
_publ_section_title
;
Structure prediction by ZEFSAII (Michael W. Deem and Ramdas Pophale) SiO2 
 PCOD9100572
Probable space group: P -1
;
_chemical_formula_sum "Si O2"
_cell_formula_units_Z 16
_cell_length_a 8.726179
_cell_length_b 17.044127
_cell_length_c 11.428061
_cell_angle_alpha 138.790681
_cell_angle_beta 68.026116
_cell_angle_gamma 81.842669
_cell_volume 748.639949
_symmetry_space_group_name_H-M "P -1"
_symmetry_group_IT_number 2
_symmetry_cell_setting 'triclinic'
loop_
_space_group_symop_operation_xyz
x,y,z
-x,-y,-z
loop_
_atom_site_type_symbol
_atom_site_label
_atom_site_fract_x
_atom_site_fract_y
_atom_site_fract_z
Si Si1 0.194599 0.912352 0.946786
Si Si2 0.957802 0.229235 0.013883
Si Si3 0.512194 0.592721 0.202078
Si Si4 0.090737 0.088623 0.557537
Si Si5 0.403990 0.123083 0.776723
Si Si6 0.029274 0.785262 0.523788
Si Si7 0.671913 0.555735 0.352495
Si Si8 0.134423 0.465478 0.116472
O O1 0.451573 0.748700 0.652259
O O2 0.130477 0.847090 0.990889
O O3 0.000000 0.000000 0.000000
O O4 0.178941 0.049836 0.164793
O O5 0.025282 0.182220 0.804520
O O6 0.194694 0.151114 0.920868
O O7 0.760977 0.428679 0.290736
O O8 0.246478 0.759233 0.468536
O O9 0.592864 0.514279 0.218661
O O10 0.500000 0.500000 0.000000
O O11 0.691775 0.600186 0.114540
O O12 0.989779 0.197828 0.592140
O O13 0.364460 0.959595 0.315936
O O14 0.000000 0.000000 0.500000
O O15 0.500000 0.000000 0.500000
O O16 0.277754 0.307141 0.981034
O O17 0.077416 0.624568 0.362113
O O18 0.895617 0.521783 0.218781
#
# Coordination Sequence:
#
# PCOD9100572 Si02
#       8
#     2   2   2   2   2   2   2   2
#     4  12  25  43  64  89 129 175 215 259 314 390
#     4  10  22  42  63  92 125 166 219 256 317 378
#     4  10  20  37  64  95 127 159 208 264 319 371
#     4  11  20  38  66  97 131 160 209 270 318 368
#     4   9  21  37  62  95 130 164 203 264 324 375
#     4  11  23  41  62 100 128 168 213 262 325 376
#     4  11  23  41  64  91 127 172 212 261 317 385
#     4  10  22  39  64  96 129 162 214 266 323 377
#
# _framework density 21.372088000000002
#
# number of rings (size 3 to 8) (size 9 to 14) (size 15 to 20)
#    0.000    1.500    2.500    3.000    1.750    4.500 
#    0.000    0.000    0.000    3.000    0.000    0.000 
#    0.000    0.000    0.000    0.000    0.000    0.000 
#
# Total GULP energy -89217.063766 kJ/mol
# GULP energy per Si atom -5576.066485 kJ/mol
# Density = 2.132344 g / cm^3
# Si number density = 21.372088 Si / 1000 Ang^3
#
#
#
# Elastic Constant Matrix: (Units=GPa)
#
#
# Indices 1 2 3 4 5 6 
#
# 1 96.7576 30.3290 42.7182 14.0402 -26.1930 -5.5701
# 2 30.3290 47.0659 22.7206 12.8221 -5.4193 -6.1890
# 3 42.7182 22.7206 109.0406 23.1203 -5.4285 -9.8725
# 4 14.0402 12.8221 23.1203 25.6386 -4.6129 3.5493
# 5 -26.1930 -5.4193 -5.4285 -4.6129 40.3710 13.2370
# 6 -5.5701 -6.1890 -9.8725 3.5493 13.2370 26.4983
#
#
#
# Elastic Compliance Matrix: (Units=1/GPa)
#
#
# Indices 1 2 3 4 5 6 
#
# 1 0.018472 -0.009407 -0.006011 0.003310 0.012699 -0.007341
# 2 -0.009407 0.031404 0.000765 -0.014029 -0.007000 0.011019
# 3 -0.006011 0.000765 0.014560 -0.012622 -0.006289 0.009172
# 4 0.003310 -0.014029 -0.012622 0.060880 0.012659 -0.021762
# 5 0.012699 -0.007000 -0.006289 0.012659 0.040248 -0.023110
# 6 -0.007341 0.011019 0.009172 -0.021762 -0.023110 0.056645
#
#
# Mechanical properties :
#
#
# Convention : Reuss Voigt Hill
#
# Bulk Modulus (GPa) = 28.46436 49.37775 38.92105
# Shear Modulus (GPa) = 18.99523 28.97467 23.98495
#
# Velocity S-wave (km/s) = 2.98449 3.68601 3.35364
# Velocity P-wave (km/s) = 5.02231 6.42414 5.76599
#
# Compressibility (1/GPa) = 0.03513165
#
# Stress axis : x y z
#
# Youngs Moduli (GPa) = 54.13511 31.84345 68.68121
#
# Poissons Ratio (x) = 0.29954 0.41285
# Poissons Ratio (y) = 0.50922 -0.05257
# Poissons Ratio (z) = 0.32541 -0.02437
#
# Static dielectric constant tensor:
#      x y z
#    x 1.806920 -0.006290 -0.013700 
#    y -0.006290 1.766050 0.005560 
#    z -0.013700 0.005560 1.861040 
# 
# From -- ./inp_files/402296.got.cif
#   From: 2010.05.17/outbox.cif.g08.bks.cpg/sg2_202_cif.got.tgz:402296.got - 2010.06.03 11:33:40.
