data_PCOD9100913
_publ_section_title
;
Structure prediction by ZEFSAII (Michael W. Deem and Ramdas Pophale) SiO2 
 PCOD9100913
Probable space group: P -1
;
_chemical_formula_sum "Si O2"
_cell_formula_units_Z 15
_cell_length_a 5.240274
_cell_length_b 9.271625
_cell_length_c 17.149628
_cell_angle_alpha 84.284586
_cell_angle_beta 57.782350
_cell_angle_gamma 74.747061
_cell_volume 679.259166
_symmetry_space_group_name_H-M "P -1"
_symmetry_group_IT_number 2
_symmetry_cell_setting 'triclinic'
loop_
_space_group_symop_operation_xyz
x,y,z
-x,-y,-z
loop_
_atom_site_type_symbol
_atom_site_label
_atom_site_fract_x
_atom_site_fract_y
_atom_site_fract_z
Si Si1 0.173299 0.287010 0.469843
Si Si2 0.979813 0.671107 0.338167
Si Si3 0.166874 0.634916 0.644032
Si Si4 0.000000 0.000000 0.500000
Si Si5 0.016742 0.867665 0.787534
Si Si6 0.544606 0.938053 0.319169
Si Si7 0.180011 0.104625 0.013105
Si Si8 0.518596 0.185518 0.819926
O O1 0.975838 0.353957 0.574917
O O2 0.483420 0.344888 0.415911
O O3 0.975186 0.318921 0.421012
O O4 0.233076 0.107729 0.475383
O O5 0.865792 0.532354 0.330149
O O6 0.703779 0.821357 0.365678
O O7 0.278647 0.699912 0.243447
O O8 0.993632 0.742353 0.735593
O O9 0.821253 0.038712 0.611476
O O10 0.000745 0.825972 0.883178
O O11 0.758421 0.023233 0.805985
O O12 0.337221 0.913688 0.716554
O O13 0.658764 0.845813 0.226449
O O14 0.286205 0.215664 0.929101
O O15 0.500000 0.000000 0.000000
O O16 0.000000 0.000000 0.000000
#
# Coordination Sequence:
#
# PCOD9100913 Si02
#       8
#     2   2   2   1   2   2   2   2
#     4  12  26  41  65  90 128 168 218 258 318 368
#     4  11  26  41  61  89 133 174 213 256 315 388
#     4  12  27  43  63  92 130 175 213 256 314 383
#     4  12  22  38  64  96 120 160 210 272 302 364
#     4  10  22  40  65  96 127 164 215 269 318 374
#     4  11  21  39  63  92 129 166 214 264 319 368
#     4  10  20  37  66  99 127 157 209 270 323 372
#     4  10  21  39  65  96 123 168 213 265 322 373
#
# _framework density 22.082881
#
# number of rings (size 3 to 8) (size 9 to 14) (size 15 to 20)
#    0.000    1.067    4.000    2.400    3.733    1.067 
#    0.000    0.667    0.000    0.800    0.000    0.000 
#    0.000    0.000    0.000    0.000    0.000    0.000 
#
# Total GULP energy -83572.752795 kJ/mol
# GULP energy per Si atom -5571.516853 kJ/mol
# Density = 2.203262 g / cm^3
# Si number density = 22.082881 Si / 1000 Ang^3
#
#
#
# Elastic Constant Matrix: (Units=GPa)
#
#
# Indices 1 2 3 4 5 6 
#
# 1 100.8037 42.0032 42.7224 -8.9857 14.5196 27.4088
# 2 42.0032 112.9559 59.8657 -9.1899 -3.1583 41.0388
# 3 42.7224 59.8657 199.2059 -9.7949 18.3456 22.3341
# 4 -8.9857 -9.1899 -9.7949 17.6159 8.4407 -2.3278
# 5 14.5196 -3.1583 18.3456 8.4407 34.6893 -2.2335
# 6 27.4088 41.0388 22.3341 -2.3278 -2.2335 37.7451
#
#
#
# Elastic Compliance Matrix: (Units=1/GPa)
#
#
# Indices 1 2 3 4 5 6 
#
# 1 0.015568 -0.001664 -0.000435 0.010173 -0.009503 -0.009173
# 2 -0.001664 0.016866 -0.003063 0.003263 0.002093 -0.014992
# 3 -0.000435 -0.003063 0.006703 0.004095 -0.004660 -0.000343
# 4 0.010173 0.003263 0.004095 0.076798 -0.025465 -0.010128
# 5 -0.009503 0.002093 -0.004660 -0.025465 0.042191 0.008309
# 6 -0.009173 -0.014992 -0.000343 -0.010128 0.008309 0.049525
#
#
# Mechanical properties :
#
#
# Convention : Reuss Voigt Hill
#
# Bulk Modulus (GPa) = 34.70680 78.01646 56.36163
# Shear Modulus (GPa) = 21.97044 35.90167 28.93606
#
# Velocity S-wave (km/s) = 3.15764 4.03646 3.62379
# Velocity P-wave (km/s) = 5.38934 7.55841 6.56409
#
# Compressibility (1/GPa) = 0.02881280
#
# Stress axis : x y z
#
# Youngs Moduli (GPa) = 64.23548 59.29081 149.19367
#
# Poissons Ratio (x) = 0.09864 0.06488
# Poissons Ratio (y) = 0.10687 0.45702
# Poissons Ratio (z) = 0.02793 0.18162
#
# Static dielectric constant tensor:
#      x y z
#    x 1.912450 -0.081150 0.101710 
#    y -0.081150 1.893460 -0.033710 
#    z 0.101710 -0.033710 1.962890 
# 
# From -- ./inp_files/44244.got.cif
#   From: 2010.05.17/outbox.cif.g08.bks.cpg/sg2_23_cif.got.tgz:44244.got - 2010.06.03 11:33:40.
