data_PCOD9100578
_publ_section_title
;
Structure prediction by ZEFSAII (Michael W. Deem and Ramdas Pophale) SiO2 
 PCOD9100578
Probable space group: P -1
;
_chemical_formula_sum "Si O2"
_cell_formula_units_Z 14
_cell_length_a 10.173425
_cell_length_b 18.411120
_cell_length_c 11.494447
_cell_angle_alpha 142.152164
_cell_angle_beta 131.938843
_cell_angle_gamma 28.898069
_cell_volume 636.448563
_symmetry_space_group_name_H-M "P -1"
_symmetry_group_IT_number 2
_symmetry_cell_setting 'triclinic'
loop_
_space_group_symop_operation_xyz
x,y,z
-x,-y,-z
loop_
_atom_site_type_symbol
_atom_site_label
_atom_site_fract_x
_atom_site_fract_y
_atom_site_fract_z
Si Si1 0.706273 0.824777 0.553512
Si Si2 0.781283 0.751939 0.248161
Si Si3 0.994740 0.964180 0.266745
Si Si4 0.325530 0.600508 0.906242
Si Si5 0.474595 0.751264 0.474390
Si Si6 0.921404 0.144500 0.226111
Si Si7 0.377313 0.418957 0.147081
O O1 0.752759 0.733211 0.343433
O O2 0.669551 0.756441 0.552354
O O3 0.936326 0.808188 0.671868
O O4 0.425399 0.039815 0.642822
O O5 0.092032 0.630719 0.258838
O O6 0.701422 0.678438 0.033172
O O7 0.238611 0.856819 0.368512
O O8 0.703897 0.127108 0.363923
O O9 0.020144 0.049298 0.288844
O O10 0.046788 0.808640 0.041927
O O11 0.351064 0.458549 0.683346
O O12 0.474714 0.613439 0.922738
O O13 0.500000 0.500000 0.000000
O O14 0.596346 0.324375 0.257848
O O15 0.000000 0.000000 0.000000
#
# Coordination Sequence:
#
# PCOD9100578 Si02
#       7
#     2   2   2   2   2   2   2
#     4  11  22  41  66  97 132 165 222 276 328 386
#     4  10  22  39  68  97 125 169 230 274 311 394
#     4  10  21  41  69  94 132 177 225 268 333 392
#     4  10  20  37  64  95 129 173 221 272 320 396
#     4  10  23  39  66 100 127 177 229 269 319 406
#     4  12  23  43  68  97 136 176 210 279 349 388
#     4  11  23  41  66  98 130 172 224 270 335 391
#
# _framework density 21.997064999999999
#
# number of rings (size 3 to 8) (size 9 to 14) (size 15 to 20)
#    0.000    1.429    2.857    3.429    8.000    0.571 
#    0.000    1.429    6.286    0.000    0.000    0.000 
#    0.000    0.000    0.000    0.000    0.000    0.000 
#
# Total GULP energy -78271.063496 kJ/mol
# GULP energy per Si atom -5590.790250 kJ/mol
# Density = 2.194700 g / cm^3
# Si number density = 21.997065 Si / 1000 Ang^3
#
#
#
# Elastic Constant Matrix: (Units=GPa)
#
#
# Indices 1 2 3 4 5 6 
#
# 1 98.8741 22.2323 43.8886 16.4236 4.3321 -7.5040
# 2 22.2323 87.8046 38.5546 5.7201 6.9180 -20.0426
# 3 43.8886 38.5546 102.8295 29.3883 6.2786 -19.5171
# 4 16.4236 5.7201 29.3883 21.3910 -5.1558 -3.5488
# 5 4.3321 6.9180 6.2786 -5.1558 33.4903 -1.5739
# 6 -7.5040 -20.0426 -19.5171 -3.5488 -1.5739 30.7145
#
#
#
# Elastic Compliance Matrix: (Units=1/GPa)
#
#
# Indices 1 2 3 4 5 6 
#
# 1 0.012866 -0.001409 -0.003535 -0.005129 -0.001533 -0.000694
# 2 -0.001409 0.015365 -0.005267 0.005136 -0.000890 0.006883
# 3 -0.003535 -0.005267 0.022794 -0.027701 -0.006680 0.006640
# 4 -0.005129 0.005136 -0.027701 0.091199 0.018647 -0.004011
# 5 -0.001533 -0.000890 -0.006680 0.018647 0.034304 -0.001288
# 6 -0.000694 0.006883 0.006640 -0.004011 -0.001288 0.040570
#
#
# Mechanical properties :
#
#
# Convention : Reuss Voigt Hill
#
# Bulk Modulus (GPa) = 32.67655 55.42882 44.05268
# Shear Modulus (GPa) = 20.18395 29.44134 24.81264
#
# Velocity S-wave (km/s) = 3.03244 3.66241 3.36221
# Velocity P-wave (km/s) = 5.21038 6.56790 5.92813
#
# Compressibility (1/GPa) = 0.03060299
#
# Stress axis : x y z
#
# Youngs Moduli (GPa) = 77.72123 65.08320 43.87216
#
# Poissons Ratio (x) = 0.09169 0.15511
# Poissons Ratio (y) = 0.10950 0.23106
# Poissons Ratio (z) = 0.27478 0.34277
#
# Static dielectric constant tensor:
#      x y z
#    x 1.768130 -0.004800 -0.011200 
#    y -0.004800 1.828910 0.010580 
#    z -0.011200 0.010580 1.850850 
# 
# From -- ./inp_files/208304.got.cif
#   From: 2010.05.17/outbox.cif.g08.bks.cpg/sg2_105_cif.got.tgz:208304.got - 2010.06.03 11:33:40.
