data_PCOD9100225
_publ_section_title
;
Structure prediction by ZEFSAII (Michael W. Deem and Ramdas Pophale) SiO2 
 PCOD9100225
Probable space group: P -1
;
_chemical_formula_sum "Si O2"
_cell_formula_units_Z 16
_cell_length_a 8.354447
_cell_length_b 16.279636
_cell_length_c 13.867713
_cell_angle_alpha 31.891250
_cell_angle_beta 59.024116
_cell_angle_gamma 79.511383
_cell_volume 706.165316
_symmetry_space_group_name_H-M "P -1"
_symmetry_group_IT_number 2
_symmetry_cell_setting 'triclinic'
loop_
_space_group_symop_operation_xyz
x,y,z
-x,-y,-z
loop_
_atom_site_type_symbol
_atom_site_label
_atom_site_fract_x
_atom_site_fract_y
_atom_site_fract_z
Si Si1 0.071955 0.483461 0.383498
Si Si2 0.908134 0.980731 0.690605
Si Si3 0.572625 0.098635 0.131827
Si Si4 0.761124 0.752774 0.138980
Si Si5 0.659884 0.285435 0.353437
Si Si6 0.017068 0.824898 0.172499
Si Si7 0.655661 0.373498 0.490107
Si Si8 0.879732 0.690607 0.833697
O O1 0.104648 0.315833 0.561066
O O2 0.000000 0.500000 0.500000
O O3 0.875039 0.413266 0.437336
O O4 0.287833 0.687570 0.085715
O O5 0.668398 0.954777 0.775896
O O6 0.892270 0.820351 0.787731
O O7 0.918620 0.930574 0.846791
O O8 0.098243 0.188087 0.387433
O O9 0.534722 0.936470 0.378460
O O10 0.725846 0.107936 0.987144
O O11 0.893923 0.727127 0.207619
O O12 0.660396 0.564837 0.294519
O O13 0.562749 0.758015 0.244623
O O14 0.650162 0.309927 0.447253
O O15 0.889590 0.301726 0.239491
O O16 0.682849 0.468624 0.118649
O O17 0.000000 0.000000 0.000000
#
# Coordination Sequence:
#
# PCOD9100225 Si02
#       8
#     2   2   2   2   2   2   2   2
#     4  10  20  39  55  82 128 165 191 229 304 368
#     4  10  20  37  63  89 116 160 208 247 297 355
#     4  10  21  36  58  86 117 157 196 244 299 353
#     4  11  21  34  61  95 123 155 202 242 299 361
#     4  10  20  38  62  92 118 153 209 254 297 342
#     4  11  23  37  56  87 128 166 195 238 299 370
#     4  11  21  35  63  92 124 160 193 250 294 363
#     4   9  20  37  61  86 117 155 207 258 292 346
#
# _framework density 22.657584
#
# number of rings (size 3 to 8) (size 9 to 14) (size 15 to 20)
#    0.000    1.750    3.750    2.250    1.750    3.000 
#    0.000    6.250    0.000   28.500    0.000    0.000 
#    0.000    0.000    0.000    0.000    0.000    0.000 
#
# Total GULP energy -89245.735548 kJ/mol
# GULP energy per Si atom -5577.858472 kJ/mol
# Density = 2.260601 g / cm^3
# Si number density = 22.657584 Si / 1000 Ang^3
#
#
#
# Elastic Constant Matrix: (Units=GPa)
#
#
# Indices 1 2 3 4 5 6 
#
# 1 57.6419 20.0434 39.3727 5.0019 13.9402 0.6031
# 2 20.0434 69.6916 25.7058 -7.4246 4.5879 -24.2880
# 3 39.3727 25.7058 209.5022 -13.5410 40.9248 0.4233
# 4 5.0019 -7.4246 -13.5410 27.2646 -4.4415 10.4834
# 5 13.9402 4.5879 40.9248 -4.4415 30.6816 -2.2617
# 6 0.6031 -24.2880 0.4233 10.4834 -2.2617 23.2212
#
#
#
# Elastic Compliance Matrix: (Units=1/GPa)
#
#
# Indices 1 2 3 4 5 6 
#
# 1 0.024809 -0.009301 -0.002284 -0.006409 -0.008372 -0.008253
# 2 -0.009301 0.028855 -0.003307 -0.003655 0.006207 0.032737
# 3 -0.002284 -0.003307 0.007532 0.004321 -0.008353 -0.006302
# 4 -0.006409 -0.003655 0.004321 0.049382 0.002945 -0.025742
# 5 -0.008372 0.006207 -0.008353 0.002945 0.047788 0.010186
# 6 -0.008253 0.032737 -0.006302 -0.025742 0.010186 0.090248
#
#
# Mechanical properties :
#
#
# Convention : Reuss Voigt Hill
#
# Bulk Modulus (GPa) = 31.83404 56.34217 44.08811
# Shear Modulus (GPa) = 17.30893 33.01443 25.16168
#
# Velocity S-wave (km/s) = 2.76694 3.82134 3.33606
# Velocity P-wave (km/s) = 4.92833 6.66266 5.86001
#
# Compressibility (1/GPa) = 0.03141291
#
# Stress axis : x y z
#
# Youngs Moduli (GPa) = 40.30721 34.65632 132.76641
#
# Poissons Ratio (x) = 0.32233 0.30318
# Poissons Ratio (y) = 0.37489 0.43910
# Poissons Ratio (z) = 0.09205 0.11462
#
# Static dielectric constant tensor:
#      x y z
#    x 1.857700 -0.036060 0.024280 
#    y -0.036060 1.933820 -0.084800 
#    z 0.024280 -0.084800 1.982200 
# 
# From -- ./inp_files/355016.got.cif
#   From: 2010.05.17/outbox.cif.g08.bks.cpg/sg2_178_cif.got.tgz:355016.got - 2010.06.03 11:33:40.
