data_PCOD9100928
_publ_section_title
;
Structure prediction by ZEFSAII (Michael W. Deem and Ramdas Pophale) SiO2 
 PCOD9100928
Probable space group: P -1
;
_chemical_formula_sum "Si O2"
_cell_formula_units_Z 16
_cell_length_a 13.162273
_cell_length_b 7.949774
_cell_length_c 18.758896
_cell_angle_alpha 43.378085
_cell_angle_beta 26.952498
_cell_angle_gamma 43.323663
_cell_volume 590.725142
_symmetry_space_group_name_H-M "P -1"
_symmetry_group_IT_number 2
_symmetry_cell_setting 'triclinic'
loop_
_space_group_symop_operation_xyz
x,y,z
-x,-y,-z
loop_
_atom_site_type_symbol
_atom_site_label
_atom_site_fract_x
_atom_site_fract_y
_atom_site_fract_z
Si Si1 0.581991 0.796022 0.574612
Si Si2 0.414649 0.262047 0.012775
Si Si3 0.082674 0.681641 0.284461
Si Si4 0.521919 0.253697 0.719909
Si Si5 0.062372 0.192090 0.086149
Si Si6 0.747835 0.503565 0.313248
Si Si7 0.821190 0.228381 0.080404
Si Si8 0.997950 0.270290 0.367589
O O1 0.556381 0.525660 0.642851
O O2 0.839895 0.774835 0.449951
O O3 0.500000 0.000000 0.500000
O O4 0.399481 0.866281 0.729746
O O5 0.657976 0.338293 0.847838
O O6 0.914145 0.294650 0.219584
O O7 0.251249 0.178946 0.200689
O O8 0.500000 0.000000 0.000000
O O9 0.056412 0.421378 0.351132
O O10 0.053589 0.899355 0.175952
O O11 0.334926 0.183662 0.913125
O O12 0.356750 0.277002 0.746493
O O13 0.791714 0.136438 0.560944
O O14 0.925001 0.308411 0.065203
O O15 0.500000 0.500000 0.500000
O O16 0.263910 0.517009 0.990531
O O17 0.877226 0.469194 0.318926
O O18 0.000000 0.000000 0.000000
#
# Coordination Sequence:
#
# PCOD9100928 Si02
#       8
#     2   2   2   2   2   2   2   2
#     4  11  23  45  75 114 155 205 265 331 400 466
#     4  12  28  49  80 116 162 214 269 327 413 490
#     4  11  25  47  80 108 159 213 263 330 407 474
#     4  10  22  38  70 107 154 198 251 334 390 462
#     4  12  23  45  75 116 155 204 269 335 397 476
#     4  10  20  37  67 105 144 195 257 322 391 462
#     4  12  28  49  81 121 161 212 275 332 400 485
#     4  10  23  45  71 107 148 206 262 317 397 478
#
# _framework density 27.085353999999999
#
# number of rings (size 3 to 8) (size 9 to 14) (size 15 to 20)
#    0.000    1.000    2.500    3.000    5.250    1.500 
#    6.750    0.625    2.750    0.000    0.000    0.000 
#    0.000    0.000    0.000    0.000    0.000    0.000 
#
# Total GULP energy -89123.798899 kJ/mol
# GULP energy per Si atom -5570.237431 kJ/mol
# Density = 2.702371 g / cm^3
# Si number density = 27.085354 Si / 1000 Ang^3
#
#
#
# Elastic Constant Matrix: (Units=GPa)
#
#
# Indices 1 2 3 4 5 6 
#
# 1 84.9902 29.0382 69.4465 12.1533 -15.9053 9.7150
# 2 29.0382 110.8007 95.9012 21.8789 -0.4605 4.3115
# 3 69.4465 95.9012 308.6686 27.1960 -12.0798 -10.1264
# 4 12.1533 21.8789 27.1960 54.1279 -3.1618 -8.3693
# 5 -15.9053 -0.4605 -12.0798 -3.1618 61.9305 -1.2688
# 6 9.7150 4.3115 -10.1264 -8.3693 -1.2688 28.0156
#
#
#
# Elastic Compliance Matrix: (Units=1/GPa)
#
#
# Indices 1 2 3 4 5 6 
#
# 1 0.016660 -0.000505 -0.003468 -0.002782 0.003300 -0.007635
# 2 -0.000505 0.013554 -0.003925 -0.004173 -0.001102 -0.004626
# 3 -0.003468 -0.003925 0.005349 0.000283 0.000217 0.003834
# 4 -0.002782 -0.004173 0.000283 0.021962 0.000601 0.008297
# 5 0.003300 -0.001102 0.000217 0.000601 0.017061 0.000056
# 6 -0.007635 -0.004626 0.003834 0.008297 0.000056 0.042921
#
#
# Mechanical properties :
#
#
# Convention : Reuss Voigt Hill
#
# Bulk Modulus (GPa) = 50.58600 99.24793 74.91696
# Shear Modulus (GPa) = 35.74241 49.48638 42.61439
#
# Velocity S-wave (km/s) = 3.63660 4.27904 3.97083
# Velocity P-wave (km/s) = 6.02911 7.81894 6.98162
#
# Compressibility (1/GPa) = 0.01976832
#
# Stress axis : x y z
#
# Youngs Moduli (GPa) = 60.02363 73.77930 186.96376
#
# Poissons Ratio (x) = 0.03723 0.64834
# Poissons Ratio (y) = 0.03029 0.73380
# Poissons Ratio (z) = 0.20814 0.28957
#
# Static dielectric constant tensor:
#      x y z
#    x 2.199410 -0.121340 0.012260 
#    y -0.121340 2.321630 0.123940 
#    z 0.012260 0.123940 2.378700 
# 
# From -- ./inp_files/597334.got.cif
#   From: 2010.05.17/outbox.cif.g08.bks.cpg/sg2_299_cif.got.tgz:597334.got - 2010.06.03 11:33:40.
