data_PCOD9100936
_publ_section_title
;
Structure prediction by ZEFSAII (Michael W. Deem and Ramdas Pophale) SiO2 
 PCOD9100936
Probable space group: P -1
;
_chemical_formula_sum "Si O2"
_cell_formula_units_Z 16
_cell_length_a 11.780497
_cell_length_b 18.480855
_cell_length_c 24.469737
_cell_angle_alpha 19.695422
_cell_angle_beta 152.074358
_cell_angle_gamma 153.040156
_cell_volume 778.903912
_symmetry_space_group_name_H-M "P -1"
_symmetry_group_IT_number 2
_symmetry_cell_setting 'triclinic'
loop_
_space_group_symop_operation_xyz
x,y,z
-x,-y,-z
loop_
_atom_site_type_symbol
_atom_site_label
_atom_site_fract_x
_atom_site_fract_y
_atom_site_fract_z
Si Si1 0.515893 0.199464 0.907935
Si Si2 0.526040 0.747957 0.760061
Si Si3 0.885808 0.117715 0.574437
Si Si4 0.545782 0.841651 0.376037
Si Si5 0.535591 0.832060 0.251415
Si Si6 0.886389 0.579902 0.446376
Si Si7 0.538610 0.276119 0.129503
Si Si8 0.860139 0.549645 0.726388
O O1 0.256587 0.251664 0.753795
O O2 0.753994 0.425392 0.827737
O O3 0.500000 0.000000 0.000000
O O4 0.537252 0.082162 0.056726
O O5 0.294596 0.832790 0.583248
O O6 0.606468 0.821551 0.805166
O O7 0.748370 0.869741 0.722494
O O8 0.449358 0.470796 0.926416
O O9 0.175463 0.161675 0.644778
O O10 0.910643 0.293651 0.509899
O O11 0.476930 0.803404 0.310390
O O12 0.333863 0.639186 0.464004
O O13 0.809073 0.787004 0.532725
O O14 0.545493 0.079939 0.230514
O O15 0.323925 0.626269 0.272464
O O16 0.000000 0.500000 0.500000
O O17 0.840271 0.410236 0.180698
#
# Coordination Sequence:
#
# PCOD9100936 Si02
#       8
#     2   2   2   2   2   2   2   2
#     4   9  18  37  60  96 116 160 217 254 307 369
#     4  10  25  40  64  87 125 178 202 257 315 389
#     4  11  21  43  65  89 123 165 224 253 312 380
#     4  11  23  39  60 100 127 159 208 265 326 363
#     4  11  21  38  70  97 118 161 222 269 306 365
#     4  11  23  39  64  89 134 167 207 261 320 378
#     4  11  23  42  60  92 132 162 212 249 326 383
#     4  10  20  37  67  89 123 166 209 257 314 373
#
# _framework density 20.541685999999999
#
# number of rings (size 3 to 8) (size 9 to 14) (size 15 to 20)
#    0.000    1.500    3.750    3.000    3.500    1.000 
#    0.000    6.250    0.000    0.000    0.000    0.000 
#    0.000    0.000    0.000    0.000    0.000    0.000 
#
# Total GULP energy -89345.896500 kJ/mol
# GULP energy per Si atom -5584.118531 kJ/mol
# Density = 2.049493 g / cm^3
# Si number density = 20.541686 Si / 1000 Ang^3
#
#
#
# Elastic Constant Matrix: (Units=GPa)
#
#
# Indices 1 2 3 4 5 6 
#
# 1 108.6979 18.9480 54.0515 2.7999 -7.0893 -12.9595
# 2 18.9480 50.8156 23.5297 -2.1147 -2.4877 -3.5111
# 3 54.0515 23.5297 120.1650 -8.6057 -8.5593 -10.0136
# 4 2.7999 -2.1147 -8.6057 17.7132 -7.7347 7.2921
# 5 -7.0893 -2.4877 -8.5593 -7.7347 27.7018 -4.5849
# 6 -12.9595 -3.5111 -10.0136 7.2921 -4.5849 23.0743
#
#
#
# Elastic Compliance Matrix: (Units=1/GPa)
#
#
# Indices 1 2 3 4 5 6 
#
# 1 0.013463 -0.002251 -0.005521 -0.007892 0.000564 0.007429
# 2 -0.002251 0.022097 -0.003081 0.001776 0.001019 0.000402
# 3 -0.005521 -0.003081 0.012333 0.008453 0.004482 0.000002
# 4 -0.007892 0.001776 0.008453 0.079415 0.019326 -0.021751
# 5 0.000564 0.001019 0.004482 0.019326 0.043950 0.005042
# 6 0.007429 0.000402 0.000002 -0.021751 0.005042 0.055448
#
#
# Mechanical properties :
#
#
# Convention : Reuss Voigt Hill
#
# Bulk Modulus (GPa) = 38.18691 52.52633 45.35662
# Shear Modulus (GPa) = 19.44457 25.90781 22.67619
#
# Velocity S-wave (km/s) = 3.08001 3.55523 3.32612
# Velocity P-wave (km/s) = 5.59276 6.51759 6.07281
#
# Compressibility (1/GPa) = 0.02618698
#
# Stress axis : x y z
#
# Youngs Moduli (GPa) = 74.27512 45.25590 81.08077
#
# Poissons Ratio (x) = 0.10188 0.44766
# Poissons Ratio (y) = 0.16721 0.24980
# Poissons Ratio (z) = 0.41008 0.13943
#
# Static dielectric constant tensor:
#      x y z
#    x 1.736790 0.019210 -0.031180 
#    y 0.019210 1.742170 0.000800 
#    z -0.031180 0.000800 1.777170 
# 
# From -- ./inp_files/571052.got.cif
#   From: 2010.05.17/outbox.cif.g08.bks.cpg/sg2_286_cif.got.tgz:571052.got - 2010.06.03 11:33:40.
