data_PCOD9100626
_publ_section_title
;
Structure prediction by ZEFSAII (Michael W. Deem and Ramdas Pophale) SiO2 
 PCOD9100626
Probable space group: P -1
;
_chemical_formula_sum "Si O2"
_cell_formula_units_Z 14
_cell_length_a 10.719071
_cell_length_b 11.191807
_cell_length_c 12.285845
_cell_angle_alpha 91.960272
_cell_angle_beta 112.057144
_cell_angle_gamma 145.549200
_cell_volume 583.321021
_symmetry_space_group_name_H-M "P -1"
_symmetry_group_IT_number 2
_symmetry_cell_setting 'triclinic'
loop_
_space_group_symop_operation_xyz
x,y,z
-x,-y,-z
loop_
_atom_site_type_symbol
_atom_site_label
_atom_site_fract_x
_atom_site_fract_y
_atom_site_fract_z
Si Si1 0.419452 0.472233 0.349617
Si Si2 0.185745 0.629209 0.858727
Si Si3 0.426888 0.753531 0.328882
Si Si4 0.674560 0.836078 0.081661
Si Si5 0.754991 0.057582 0.661810
Si Si6 0.350040 0.405827 0.793193
Si Si7 0.309162 0.800485 0.669271
O O1 0.500000 0.500000 0.500000
O O2 0.505356 0.677801 0.354718
O O3 0.600411 0.542711 0.317744
O O4 0.042930 0.157835 0.207169
O O5 0.307413 0.792323 0.797197
O O6 0.933355 0.510223 0.832230
O O7 0.464206 0.785962 0.016649
O O8 0.972502 0.348833 0.733930
O O9 0.482175 0.833765 0.476150
O O10 0.638217 0.019981 0.344061
O O11 0.580412 0.671807 0.144053
O O12 0.573686 0.678955 0.937142
O O13 0.591927 0.943696 0.720755
O O14 0.998724 0.148963 0.715877
O O15 0.000000 0.500000 0.500000
#
# Coordination Sequence:
#
# PCOD9100626 Si02
#       7
#     2   2   2   2   2   2   2
#     4  12  28  46  70 103 144 187 231 289 359 414
#     4  10  21  39  67  99 136 180 236 291 337 413
#     4  11  23  38  62 103 139 175 230 286 356 407
#     4  10  24  46  71  98 136 191 241 281 351 412
#     4  10  20  37  65 102 133 177 236 285 346 404
#     4  10  24  47  72  98 140 186 241 289 333 426
#     4  11  19  38  68 101 139 182 231 288 342 409
#
# _framework density 24.000506000000001
#
# number of rings (size 3 to 8) (size 9 to 14) (size 15 to 20)
#    0.000    1.429    2.857    2.143    0.000   14.286 
#    0.000    1.429    0.000    0.000    0.000    0.000 
#    0.000    0.000    0.000    0.000    0.000    0.000 
#
# Total GULP energy -78296.907811 kJ/mol
# GULP energy per Si atom -5592.636272 kJ/mol
# Density = 2.394588 g / cm^3
# Si number density = 24.000506 Si / 1000 Ang^3
#
#
#
# Elastic Constant Matrix: (Units=GPa)
#
#
# Indices 1 2 3 4 5 6 
#
# 1 88.4535 51.0748 57.3380 -5.4287 10.2559 -10.3755
# 2 51.0748 95.9273 44.6271 -3.9194 -3.4125 -2.1537
# 3 57.3380 44.6271 84.1010 9.3616 15.2196 3.6983
# 4 -5.4287 -3.9194 9.3616 40.1263 2.0845 0.8429
# 5 10.2559 -3.4125 15.2196 2.0845 37.9604 -2.7023
# 6 -10.3755 -2.1537 3.6983 0.8429 -2.7023 26.1667
#
#
#
# Elastic Compliance Matrix: (Units=1/GPa)
#
#
# Indices 1 2 3 4 5 6 
#
# 1 0.027922 -0.006572 -0.016694 0.006814 -0.000920 0.012575
# 2 -0.006572 0.016810 -0.005628 0.001781 0.005451 0.000079
# 3 -0.016694 -0.005628 0.029231 -0.008962 -0.008060 -0.011758
# 4 0.006814 0.001781 -0.008962 0.028008 0.000608 0.003276
# 5 -0.000920 0.005451 -0.008060 0.000608 0.030591 0.004362
# 6 0.012575 0.000079 -0.011758 0.003276 0.004362 0.045216
#
#
# Mechanical properties :
#
#
# Convention : Reuss Voigt Hill
#
# Bulk Modulus (GPa) = 61.81872 63.84018 62.82945
# Shear Modulus (GPa) = 20.75061 28.54681 24.64871
#
# Velocity S-wave (km/s) = 2.94358 3.45255 3.20817
# Velocity P-wave (km/s) = 6.11278 6.52309 6.32126
#
# Compressibility (1/GPa) = 0.01617633
#
# Stress axis : x y z
#
# Youngs Moduli (GPa) = 35.81457 59.48754 34.20987
#
# Poissons Ratio (x) = 0.39096 0.57109
# Poissons Ratio (y) = 0.23538 0.19252
# Poissons Ratio (z) = 0.59788 0.33477
#
# Static dielectric constant tensor:
#      x y z
#    x 2.004760 0.012570 0.031450 
#    y 0.012570 1.895320 0.018050 
#    z 0.031450 0.018050 1.920900 
# 
# From -- ./inp_files/428287.got.cif
#   From: 2010.05.17/outbox.cif.g08.bks.cpg/sg2_215_cif.got.tgz:428287.got - 2010.06.03 11:33:40.
