data_PCOD9100304
_publ_section_title
;
Structure prediction by ZEFSAII (Michael W. Deem and Ramdas Pophale) SiO2 
 PCOD9100304
Probable space group: P -1
;
_chemical_formula_sum "Si O2"
_cell_formula_units_Z 16
_cell_length_a 21.927472
_cell_length_b 12.408746
_cell_length_c 14.866848
_cell_angle_alpha 151.661166
_cell_angle_beta 27.330789
_cell_angle_gamma 152.613903
_cell_volume 770.253165
_symmetry_space_group_name_H-M "P -1"
_symmetry_group_IT_number 2
_symmetry_cell_setting 'triclinic'
loop_
_space_group_symop_operation_xyz
x,y,z
-x,-y,-z
loop_
_atom_site_type_symbol
_atom_site_label
_atom_site_fract_x
_atom_site_fract_y
_atom_site_fract_z
Si Si1 0.616244 0.792787 0.939544
Si Si2 0.805803 0.728475 0.071006
Si Si3 0.460261 0.842064 0.025507
Si Si4 0.106652 0.273580 0.510622
Si Si5 0.024942 0.498827 0.610968
Si Si6 0.218889 0.858569 0.477529
Si Si7 0.653320 0.207680 0.338213
Si Si8 0.378588 0.228087 0.802177
O O1 0.762417 0.758885 0.736504
O O2 0.466255 0.509925 0.943421
O O3 0.602099 0.847535 0.893449
O O4 0.634009 0.039398 0.151864
O O5 0.772689 0.815229 0.081211
O O6 0.791459 0.899229 0.292783
O O7 0.661435 0.444691 0.054772
O O8 0.952064 0.690185 0.856968
O O9 0.374641 0.921521 0.271339
O O10 0.500000 0.000000 0.000000
O O11 0.035317 0.374787 0.600324
O O12 0.198709 0.511757 0.635223
O O13 0.000000 0.000000 0.500000
O O14 0.179268 0.664480 0.472816
O O15 0.909848 0.282841 0.533515
O O16 0.504403 0.238087 0.573830
O O17 0.656765 0.014787 0.268033
#
# Coordination Sequence:
#
# PCOD9100304 Si02
#       8
#     2   2   2   2   2   2   2   2
#     4  10  22  38  62  88 118 160 204 252 310 372
#     4  10  20  37  63  92 124 160 199 252 314 367
#     4  10  23  40  61  91 126 154 200 260 310 364
#     4  11  26  42  59  85 131 169 209 252 300 368
#     4  10  23  40  60  92 128 162 205 260 293 363
#     4  10  21  39  65  94 120 159 208 252 312 368
#     4  10  20  38  63  91 123 160 202 251 312 373
#     4   9  19  36  63  98 125 148 195 265 315 363
#
# _framework density 20.772390999999999
#
# number of rings (size 3 to 8) (size 9 to 14) (size 15 to 20)
#    0.000    2.000    0.000    2.250    3.500    8.000 
#    2.250    0.000    0.000    0.000    0.000    0.000 
#    0.000    0.000    0.000    0.000    0.000    0.000 
#
# Total GULP energy -89294.444187 kJ/mol
# GULP energy per Si atom -5580.902762 kJ/mol
# Density = 2.072511 g / cm^3
# Si number density = 20.772391 Si / 1000 Ang^3
#
#
#
# Elastic Constant Matrix: (Units=GPa)
#
#
# Indices 1 2 3 4 5 6 
#
# 1 91.4786 59.8847 56.2886 8.0236 -20.1134 -6.4116
# 2 59.8847 88.1408 45.3720 14.7219 7.1914 8.2722
# 3 56.2886 45.3720 91.9079 25.3085 6.4814 3.3658
# 4 8.0236 14.7219 25.3085 22.0852 14.1323 7.4272
# 5 -20.1134 7.1914 6.4814 14.1323 37.9423 14.0283
# 6 -6.4116 8.2722 3.3658 7.4272 14.0283 33.5922
#
#
#
# Elastic Compliance Matrix: (Units=1/GPa)
#
#
# Indices 1 2 3 4 5 6 
#
# 1 0.043589 -0.023414 -0.017197 -0.000518 0.029314 0.003681
# 2 -0.023414 0.028115 0.001913 -0.000517 -0.016124 -0.004736
# 3 -0.017197 0.001913 0.027045 -0.022456 -0.006126 0.001060
# 4 -0.000518 -0.000517 -0.022456 0.091674 -0.028186 -0.006220
# 5 0.029314 -0.016124 -0.006126 -0.028186 0.059637 -0.008493
# 6 0.003681 -0.004736 0.001060 -0.006220 -0.008493 0.036454
#
#
# Mechanical properties :
#
#
# Convention : Reuss Voigt Hill
#
# Bulk Modulus (GPa) = 46.82933 66.06867 56.44900
# Shear Modulus (GPa) = 13.47615 26.05607 19.76611
#
# Velocity S-wave (km/s) = 2.54983 3.54554 3.08808
# Velocity P-wave (km/s) = 5.59122 6.97396 6.32052
#
# Compressibility (1/GPa) = 0.02135414
#
# Stress axis : x y z
#
# Youngs Moduli (GPa) = 22.94151 35.56835 36.97531
#
# Poissons Ratio (x) = 0.83279 0.63586
# Poissons Ratio (y) = 0.53715 -0.07074
# Poissons Ratio (z) = 0.39452 -0.06804
#
# Static dielectric constant tensor:
#      x y z
#    x 1.809250 -0.020180 -0.023740 
#    y -0.020180 1.808250 0.003590 
#    z -0.023740 0.003590 1.780310 
# 
# From -- ./inp_files/541005.got.cif
#   From: 2010.05.17/outbox.cif.g08.bks.cpg/sg2_271_cif.got.tgz:541005.got - 2010.06.03 11:33:40.
