data_PCOD9100640
_publ_section_title
;
Structure prediction by ZEFSAII (Michael W. Deem and Ramdas Pophale) SiO2 
 PCOD9100640
Probable space group: P -1
;
_chemical_formula_sum "Si O2"
_cell_formula_units_Z 15
_cell_length_a 13.503397
_cell_length_b 9.492186
_cell_length_c 10.763054
_cell_angle_alpha 72.912001
_cell_angle_beta 133.602167
_cell_angle_gamma 136.642517
_cell_volume 623.217337
_symmetry_space_group_name_H-M "P -1"
_symmetry_group_IT_number 2
_symmetry_cell_setting 'triclinic'
loop_
_space_group_symop_operation_xyz
x,y,z
-x,-y,-z
loop_
_atom_site_type_symbol
_atom_site_label
_atom_site_fract_x
_atom_site_fract_y
_atom_site_fract_z
Si Si1 0.437217 0.793591 0.871636
Si Si2 0.738950 0.569248 0.369228
Si Si3 0.738935 0.577047 0.802192
Si Si4 0.954775 0.407872 0.277336
Si Si5 0.416670 0.244374 0.386061
Si Si6 0.643617 0.821261 0.257837
Si Si7 0.701896 0.092435 0.454208
Si Si8 0.000000 0.500000 0.000000
O O1 0.320929 0.553585 0.780774
O O2 0.471632 0.941428 0.751878
O O3 0.275034 0.744152 0.833789
O O4 0.623947 0.890050 0.093032
O O5 0.946940 0.666276 0.577160
O O6 0.545877 0.356405 0.343051
O O7 0.748891 0.751309 0.341666
O O8 0.586660 0.424844 0.591900
O O9 0.760274 0.772485 0.769310
O O10 0.593571 0.412493 0.837085
O O11 0.926057 0.615606 0.938331
O O12 0.103035 0.644575 0.418847
O O13 0.982058 0.447184 0.145156
O O14 0.349445 0.028581 0.429251
O O15 0.732723 0.987186 0.408103
#
# Coordination Sequence:
#
# PCOD9100640 Si02
#       8
#     2   2   2   2   2   2   2   1
#     4  11  22  40  59  88 122 157 196 239 288 352
#     4  10  20  37  65  86 116 163 193 235 293 362
#     4   9  18  34  62  85 111 154 193 245 281 356
#     4  11  24  40  59  87 119 160 196 233 301 353
#     4   9  18  36  60  87 113 148 201 234 297 335
#     4  10  20  39  64  88 114 151 204 244 288 338
#     4  10  22  38  61  88 124 150 190 254 288 340
#     4  12  20  38  64  82 116 160 198 234 290 362
#
# _framework density 24.068652
#
# number of rings (size 3 to 8) (size 9 to 14) (size 15 to 20)
#    0.000    1.867    2.667    3.200    0.000    2.133 
#    0.000    3.333    0.000    0.000    0.000    0.000 
#    0.000    0.000    0.000    0.000    0.000    0.000 
#
# Total GULP energy -83587.174090 kJ/mol
# GULP energy per Si atom -5572.478273 kJ/mol
# Density = 2.401387 g / cm^3
# Si number density = 24.068652 Si / 1000 Ang^3
#
#
#
# Elastic Constant Matrix: (Units=GPa)
#
#
# Indices 1 2 3 4 5 6 
#
# 1 111.1784 39.6701 54.2644 -23.4073 7.5324 -23.8429
# 2 39.6701 99.4494 48.3522 -30.9306 15.6100 -19.0071
# 3 54.2644 48.3522 94.8126 -20.2807 6.5405 -11.0046
# 4 -23.4073 -30.9306 -20.2807 33.3359 -8.0034 2.7736
# 5 7.5324 15.6100 6.5405 -8.0034 37.0140 -14.2681
# 6 -23.8429 -19.0071 -11.0046 2.7736 -14.2681 31.5537
#
#
#
# Elastic Compliance Matrix: (Units=1/GPa)
#
#
# Indices 1 2 3 4 5 6 
#
# 1 0.015716 0.001010 -0.006816 0.007750 0.003499 0.011008
# 2 0.001010 0.018448 -0.006156 0.013185 -0.000900 0.008162
# 3 -0.006816 -0.006156 0.017312 0.000242 -0.000144 -0.002907
# 4 0.007750 0.013185 0.000242 0.048753 0.008551 0.013464
# 5 0.003499 -0.000900 -0.000144 0.008551 0.035195 0.017214
# 6 0.011008 0.008162 -0.002907 0.013464 0.017214 0.050513
#
#
# Mechanical properties :
#
#
# Convention : Reuss Voigt Hill
#
# Bulk Modulus (GPa) = 36.29579 65.55707 50.92643
# Shear Modulus (GPa) = 22.82634 31.25762 27.04198
#
# Velocity S-wave (km/s) = 3.08293 3.60764 3.35555
# Velocity P-wave (km/s) = 5.27119 6.68207 6.01812
#
# Compressibility (1/GPa) = 0.02755140
#
# Stress axis : x y z
#
# Youngs Moduli (GPa) = 63.62818 54.20684 57.76461
#
# Poissons Ratio (x) = -0.05473 0.39372
# Poissons Ratio (y) = -0.06424 0.35560
# Poissons Ratio (z) = 0.43368 0.33370
#
# Static dielectric constant tensor:
#      x y z
#    x 1.906960 0.033860 0.016880 
#    y 0.033860 2.031930 -0.006140 
#    z 0.016880 -0.006140 1.920330 
# 
# From -- ./inp_files/447241.got.cif
#   From: 2010.05.17/outbox.cif.g08.bks.cpg/sg2_224_cif.got.tgz:447241.got - 2010.06.03 11:33:40.
