data_PCOD9100166
_publ_section_title
;
Structure prediction by ZEFSAII (Michael W. Deem and Ramdas Pophale) SiO2 
 PCOD9100166
Probable space group: P -1
;
_chemical_formula_sum "Si O2"
_cell_formula_units_Z 16
_cell_length_a 12.890661
_cell_length_b 9.442258
_cell_length_c 7.608735
_cell_angle_alpha 115.695098
_cell_angle_beta 47.035186
_cell_angle_gamma 109.819623
_cell_volume 609.354440
_symmetry_space_group_name_H-M "P -1"
_symmetry_group_IT_number 2
_symmetry_cell_setting 'triclinic'
loop_
_space_group_symop_operation_xyz
x,y,z
-x,-y,-z
loop_
_atom_site_type_symbol
_atom_site_label
_atom_site_fract_x
_atom_site_fract_y
_atom_site_fract_z
Si Si1 0.178583 0.696517 0.028376
Si Si2 0.414623 0.621935 0.511469
Si Si3 0.947949 0.682109 0.574794
Si Si4 0.612795 0.629419 0.849570
Si Si5 0.008136 0.295451 0.062351
Si Si6 0.860075 0.994988 0.930258
Si Si7 0.566711 0.115996 0.639343
Si Si8 0.295629 0.177317 0.663862
O O1 0.332891 0.637965 0.796927
O O2 0.094209 0.628264 0.916003
O O3 0.201129 0.884512 0.072077
O O4 0.076169 0.648143 0.278490
O O5 0.395325 0.443807 0.373866
O O6 0.355786 0.741343 0.490305
O O7 0.572415 0.699939 0.387391
O O8 0.780818 0.627243 0.705150
O O9 0.990601 0.649866 0.709419
O O10 0.948754 0.872045 0.661117
O O11 0.500000 0.500000 0.000000
O O12 0.943302 0.116153 0.029084
O O13 0.165777 0.272394 0.794199
O O14 0.762499 0.886162 0.113262
O O15 0.457489 0.205551 0.937317
O O16 0.500000 0.000000 0.500000
O O17 0.658893 0.987606 0.563254
#
# Coordination Sequence:
#
# PCOD9100166 Si02
#       8
#     2   2   2   2   2   2   2   2
#     4  10  22  34  58  87 121 152 193 241 294 350
#     4  10  20  34  53  88 118 152 200 240 287 352
#     4  11  19  35  59  82 118 160 192 234 300 347
#     4  10  21  33  56  88 117 150 202 241 285 353
#     4   9  20  35  57  89 122 149 192 246 293 346
#     4   9  18  33  56  87 117 148 190 241 289 343
#     4   9  15  27  51  81 107 144 191 235 282 334
#     4  10  16  31  62  81 115 158 192 241 298 339
#
# _framework density 26.257294000000002
#
# number of rings (size 3 to 8) (size 9 to 14) (size 15 to 20)
#    0.750    1.500    1.250    6.375    1.750    0.500 
#    0.000    0.625    0.000   17.250    0.000    0.875 
#    0.000    0.000    0.000    0.000    0.000    0.000 
#
# Total GULP energy -89197.137793 kJ/mol
# GULP energy per Si atom -5574.821112 kJ/mol
# Density = 2.619753 g / cm^3
# Si number density = 26.257294 Si / 1000 Ang^3
#
#
#
# Elastic Constant Matrix: (Units=GPa)
#
#
# Indices 1 2 3 4 5 6 
#
# 1 74.5276 35.3553 38.1420 -2.1483 -15.0654 22.2935
# 2 35.3553 99.3805 54.6329 -12.4758 18.3956 18.5405
# 3 38.1420 54.6329 180.2284 0.0874 -16.1428 31.6454
# 4 -2.1483 -12.4758 0.0874 24.5404 14.4332 -9.8314
# 5 -15.0654 18.3956 -16.1428 14.4332 21.7635 -1.5789
# 6 22.2935 18.5405 31.6454 -9.8314 -1.5789 27.0638
#
#
#
# Elastic Compliance Matrix: (Units=1/GPa)
#
#
# Indices 1 2 3 4 5 6 
#
# 1 0.003266 0.012771 -0.009258 0.031069 -0.035381 0.008608
# 2 0.012771 -0.004324 0.006277 -0.032812 0.037123 -0.024652
# 3 -0.009258 0.006277 0.003161 0.015307 -0.019226 0.004069
# 4 0.031069 -0.032812 0.015307 -0.030791 0.079014 -0.027589
# 5 -0.035381 0.037123 -0.019226 0.079014 -0.072909 0.050644
# 6 0.008608 -0.024652 0.004069 -0.027589 0.050644 0.034922
#
#
# Mechanical properties :
#
#
# Convention : Reuss Voigt Hill
#
# Bulk Modulus (GPa) = 46.11678 67.82186 56.96932
# Shear Modulus (GPa) = -63.26928 29.74062 -16.76433
#
# Velocity S-wave (km/s) = -4.91408 3.36915 -2.52953
# Velocity P-wave (km/s) = 3.82048 6.40474 3.63488
#
# Compressibility (1/GPa) = 0.02168408
#
# Stress axis : x y z
#
# Youngs Moduli (GPa) = 306.18837 -231.29344 316.35079
#
# Poissons Ratio (x) = 2.95385 2.92880
# Poissons Ratio (y) = -3.91034 -1.98584
# Poissons Ratio (z) = 2.83471 1.45191
#
# Static dielectric constant tensor:
#      x y z
#    x 2.160200 -0.069680 -0.033520 
#    y -0.069680 2.139650 0.053640 
#    z -0.033520 0.053640 2.186120 
# 
# From -- ./inp_files/305491.got.cif
#   From: 2010.05.17/outbox.cif.g08.bks.cpg/sg2_153_cif.got.tgz:305491.got - 2010.06.03 11:33:40.
