data_PCOD9100094
_publ_section_title
;
Structure prediction by ZEFSAII (Michael W. Deem and Ramdas Pophale) SiO2 
 PCOD9100094
Probable space group: P -1
;
_chemical_formula_sum "Si O2"
_cell_formula_units_Z 12
_cell_length_a 9.376431
_cell_length_b 6.606502
_cell_length_c 12.303699
_cell_angle_alpha 53.728372
_cell_angle_beta 63.259824
_cell_angle_gamma 78.043698
_cell_volume 546.906920
_symmetry_space_group_name_H-M "P -1"
_symmetry_group_IT_number 2
_symmetry_cell_setting 'triclinic'
loop_
_space_group_symop_operation_xyz
x,y,z
-x,-y,-z
loop_
_atom_site_type_symbol
_atom_site_label
_atom_site_fract_x
_atom_site_fract_y
_atom_site_fract_z
Si Si1 0.101963 0.227768 0.682687
Si Si2 0.013782 0.749862 0.508492
Si Si3 0.673797 0.245540 0.754147
Si Si4 0.819435 0.790818 0.933507
Si Si5 0.671202 0.823023 0.188836
Si Si6 0.325407 0.589794 0.059663
O O1 0.021311 0.488466 0.652858
O O2 0.257261 0.221430 0.703988
O O3 0.121195 0.246245 0.540237
O O4 0.979927 0.980473 0.823231
O O5 0.178810 0.761189 0.378139
O O6 0.000000 0.000000 0.500000
O O7 0.511678 0.275552 0.736380
O O8 0.688051 0.419278 0.801641
O O9 0.676965 0.966918 0.894317
O O10 0.805394 0.581543 0.911570
O O11 0.777136 0.699475 0.098507
O O12 0.686577 0.123357 0.065868
O O13 0.500000 0.500000 0.000000
#
# Coordination Sequence:
#
# PCOD9100094 Si02
#       6
#     2   2   2   2   2   2
#     4  10  24  41  62  93 127 163 212 267 308 372
#     4  10  24  47  64  82 121 178 219 253 313 371
#     4  10  21  38  66  93 124 164 212 262 303 370
#     4  10  20  37  62  93 133 170 195 247 323 379
#     4  11  21  37  62 102 130 153 208 267 315 369
#     4  11  19  37  64  98 131 165 202 244 322 384
#
# _framework density 21.941576000000001
#
# number of rings (size 3 to 8) (size 9 to 14) (size 15 to 20)
#    0.000    1.667    3.333    1.500    0.000   13.333 
#    0.000    0.833    0.000    3.000    0.000    0.000 
#    0.000    0.000    0.000    0.000    0.000    0.000 
#
# Total GULP energy -66952.045641 kJ/mol
# GULP energy per Si atom -5579.337137 kJ/mol
# Density = 2.189164 g / cm^3
# Si number density = 21.941576 Si / 1000 Ang^3
#
#
#
# Elastic Constant Matrix: (Units=GPa)
#
#
# Indices 1 2 3 4 5 6 
#
# 1 108.1732 39.1834 46.7216 17.1866 33.5843 16.3826
# 2 39.1834 169.6397 40.0627 28.3997 4.0655 24.5567
# 3 46.7216 40.0627 69.5180 20.1244 5.8192 2.4536
# 4 17.1866 28.3997 20.1244 26.3875 -0.6834 -0.6656
# 5 33.5843 4.0655 5.8192 -0.6834 36.2849 8.8350
# 6 16.3826 24.5567 2.4536 -0.6656 8.8350 24.2441
#
#
#
# Elastic Compliance Matrix: (Units=1/GPa)
#
#
# Indices 1 2 3 4 5 6 
#
# 1 0.020900 0.000261 -0.010778 -0.006279 -0.015894 -0.007677
# 2 0.000261 0.009324 -0.002953 -0.008170 0.001490 -0.010090
# 3 -0.010778 -0.002953 0.025288 -0.008822 0.004681 0.005767
# 4 -0.006279 -0.008170 -0.008822 0.057988 0.006125 0.012771
# 5 -0.015894 0.001490 0.004681 0.006125 0.043122 -0.006789
# 6 -0.007677 -0.010090 0.005767 0.012771 -0.006789 0.058895
#
#
# Mechanical properties :
#
#
# Convention : Reuss Voigt Hill
#
# Bulk Modulus (GPa) = 34.99684 66.58515 50.79099
# Shear Modulus (GPa) = 19.84282 32.14084 25.99183
#
# Velocity S-wave (km/s) = 3.01050 3.83147 3.44553
# Velocity P-wave (km/s) = 5.29800 7.07008 6.24719
#
# Compressibility (1/GPa) = 0.02857401
#
# Stress axis : x y z
#
# Youngs Moduli (GPa) = 47.84742 107.24607 39.54380
#
# Poissons Ratio (x) = -0.02802 0.42619
# Poissons Ratio (y) = -0.01250 0.11677
# Poissons Ratio (z) = 0.51569 0.31668
#
# Static dielectric constant tensor:
#      x y z
#    x 1.825570 0.038850 -0.039270 
#    y 0.038850 1.851090 -0.025270 
#    z -0.039270 -0.025270 1.913030 
# 
# From -- ./inp_files/68805.got.cif
#   From: 2010.05.17/outbox.cif.g08.bks.cpg/sg2_35_cif.got.tgz:68805.got - 2010.06.03 11:33:40.
