data_PCOD9100643
_publ_section_title
;
Structure prediction by ZEFSAII (Michael W. Deem and Ramdas Pophale) SiO2 
 PCOD9100643
Probable space group: P -1
;
_chemical_formula_sum "Si O2"
_cell_formula_units_Z 16
_cell_length_a 8.800540
_cell_length_b 12.492054
_cell_length_c 18.225505
_cell_angle_alpha 51.607441
_cell_angle_beta 118.942543
_cell_angle_gamma 149.780965
_cell_volume 783.309580
_symmetry_space_group_name_H-M "P -1"
_symmetry_group_IT_number 2
_symmetry_cell_setting 'triclinic'
loop_
_space_group_symop_operation_xyz
x,y,z
-x,-y,-z
loop_
_atom_site_type_symbol
_atom_site_label
_atom_site_fract_x
_atom_site_fract_y
_atom_site_fract_z
Si Si1 0.934634 0.744192 0.137506
Si Si2 0.569180 0.391279 0.791342
Si Si3 0.467312 0.970923 0.593076
Si Si4 0.857307 0.414497 0.715721
Si Si5 0.018802 0.931958 0.925874
Si Si6 0.921110 0.784181 0.348776
Si Si7 0.711678 0.377393 0.532030
Si Si8 0.226634 0.257045 0.214530
O O1 0.061679 0.965162 0.110638
O O2 0.593040 0.487278 0.194144
O O3 0.130548 0.738282 0.202233
O O4 0.922850 0.770254 0.037149
O O5 0.691362 0.382848 0.756536
O O6 0.383901 0.177789 0.896103
O O7 0.310131 0.322706 0.723955
O O8 0.814758 0.639597 0.786594
O O9 0.190845 0.697200 0.667163
O O10 0.500000 0.000000 0.500000
O O11 0.436952 0.108878 0.551304
O O12 0.767442 0.096901 0.646508
O O13 0.723426 0.355782 0.629534
O O14 0.890501 0.810140 0.868041
O O15 0.734101 0.553900 0.450820
O O16 0.058416 0.015838 0.311461
O O17 0.000000 0.500000 0.500000
#
# Coordination Sequence:
#
# PCOD9100643 Si02
#       8
#     2   2   2   2   2   2   2   2
#     4  10  21  37  67  93 120 157 212 255 299 364
#     4  10  25  39  59  91 131 163 199 248 314 368
#     4  11  22  37  61  90 116 156 210 255 296 353
#     4  12  24  40  61  95 123 161 206 256 305 362
#     4   9  21  41  62  94 121 162 200 255 311 367
#     4  10  21  38  62  84 122 167 199 246 304 356
#     4  10  23  37  61  89 125 153 207 254 301 351
#     4  10  20  37  65  86 124 162 210 243 302 369
#
# _framework density 20.42615
#
# number of rings (size 3 to 8) (size 9 to 14) (size 15 to 20)
#    0.000    1.750    3.750    0.375   12.250    3.000 
#    0.000    1.875    0.000    0.000    0.000    0.000 
#    0.000    0.000    0.000    0.000    0.000    0.000 
#
# Total GULP energy -89160.362010 kJ/mol
# GULP energy per Si atom -5572.522626 kJ/mol
# Density = 2.037966 g / cm^3
# Si number density = 20.426150 Si / 1000 Ang^3
#
#
#
# Elastic Constant Matrix: (Units=GPa)
#
#
# Indices 1 2 3 4 5 6 
#
# 1 41.7850 13.8426 57.4539 4.0611 -21.8545 -21.5350
# 2 13.8426 72.1285 19.9019 -3.6926 1.9748 -30.6742
# 3 57.4539 19.9019 104.5396 -5.4964 7.7722 -19.5316
# 4 4.0611 -3.6926 -5.4964 28.6012 -7.7594 -1.0016
# 5 -21.8545 1.9748 7.7722 -7.7594 18.7346 6.2506
# 6 -21.5350 -30.6742 -19.5316 -1.0016 6.2506 30.9912
#
#
#
# Elastic Compliance Matrix: (Units=1/GPa)
#
#
# Indices 1 2 3 4 5 6 
#
# 1 -0.035396 0.003546 0.023477 -0.004740 -0.054913 0.004632
# 2 0.003546 0.026231 -0.000792 0.001753 -0.007410 0.029479
# 3 0.023477 -0.000792 -0.003623 0.003717 0.027933 0.007733
# 4 -0.004740 0.001753 0.003717 0.038973 0.008795 0.000270
# 5 -0.054913 -0.007410 0.027933 0.008795 -0.009258 -0.025736
# 6 0.004632 0.029479 0.007733 0.000270 -0.025736 0.074736
#
#
# Mechanical properties :
#
#
# Convention : Reuss Voigt Hill
#
# Bulk Modulus (GPa) = 25.20518 44.53888 34.87203
# Shear Modulus (GPa) = 95.37285 24.14905 59.76095
#
# Velocity S-wave (km/s) = 6.84053 3.44213 5.41485
# Velocity P-wave (km/s) = 8.64621 6.13595 7.49689
#
# Compressibility (1/GPa) = 0.03967439
#
# Stress axis : x y z
#
# Youngs Moduli (GPa) = -28.25160 38.12249 -276.03330
#
# Poissons Ratio (x) = -0.13517 6.48047
# Poissons Ratio (y) = 0.10017 -0.21857
# Poissons Ratio (z) = 0.66327 0.03019
#
# Static dielectric constant tensor:
#      x y z
#    x 1.842230 -0.071670 -0.033930 
#    y -0.071670 1.821210 0.012970 
#    z -0.033930 0.012970 1.759500 
# 
# From -- ./inp_files/559098.got.cif
#   From: 2010.05.17/outbox.cif.g08.bks.cpg/sg2_280_cif.got.tgz:559098.got - 2010.06.03 11:33:40.
