data_PCOD9100624
_publ_section_title
;
Structure prediction by ZEFSAII (Michael W. Deem and Ramdas Pophale) SiO2 
 PCOD9100624
Probable space group: P -1
;
_chemical_formula_sum "Si O2"
_cell_formula_units_Z 16
_cell_length_a 8.543198
_cell_length_b 16.875686
_cell_length_c 5.519053
_cell_angle_alpha 78.196480
_cell_angle_beta 101.722182
_cell_angle_gamma 68.109993
_cell_volume 687.662781
_symmetry_space_group_name_H-M "P -1"
_symmetry_group_IT_number 2
_symmetry_cell_setting 'triclinic'
loop_
_space_group_symop_operation_xyz
x,y,z
-x,-y,-z
loop_
_atom_site_type_symbol
_atom_site_label
_atom_site_fract_x
_atom_site_fract_y
_atom_site_fract_z
Si Si1 0.944088 0.695335 0.637871
Si Si2 0.614642 0.651810 0.500265
Si Si3 0.048740 0.205942 0.914580
Si Si4 0.195714 0.000611 0.078798
Si Si5 0.176141 0.502769 0.653900
Si Si6 0.500459 0.404665 0.072629
Si Si7 0.788838 0.066565 0.376020
Si Si8 0.310023 0.758723 0.047440
O O1 0.780946 0.668363 0.620499
O O2 0.916039 0.756666 0.350993
O O3 0.114981 0.602546 0.673117
O O4 0.951378 0.740468 0.870281
O O5 0.686122 0.548704 0.485747
O O6 0.470654 0.652904 0.644104
O O7 0.503184 0.734148 0.232850
O O8 0.851326 0.211108 0.838817
O O9 0.172908 0.100811 0.049857
O O10 0.285331 0.942137 0.380768
O O11 0.279441 0.965503 0.864417
O O12 0.000000 0.000000 0.000000
O O13 0.000000 0.500000 0.500000
O O14 0.290354 0.431510 0.938070
O O15 0.500000 0.500000 0.000000
O O16 0.644211 0.340184 0.973368
O O17 0.751150 0.167066 0.227618
O O18 0.000000 0.000000 0.500000
#
# Coordination Sequence:
#
# PCOD9100624 Si02
#       8
#     2   2   2   2   2   2   2   2
#     4  11  27  43  70  97 141 178 238 275 341 410
#     4  10  26  45  64  94 141 190 222 281 353 407
#     4  12  25  41  72 107 130 176 232 292 331 404
#     4  10  20  38  64  98 139 160 219 285 344 387
#     4   9  22  42  64  91 128 187 226 274 330 406
#     4  11  25  41  65  98 142 173 231 285 341 398
#     4  10  20  37  65 101 132 171 215 282 338 404
#     4  11  25  39  70 102 134 177 230 281 350 396
#
# _framework density 23.267218
#
# number of rings (size 3 to 8) (size 9 to 14) (size 15 to 20)
#    0.000    1.500    2.500    1.500   15.750    2.000 
#    0.000    0.000    0.000    4.500    0.000    0.000 
#    0.000    0.000    0.000    0.000    0.000    0.000 
#
# Total GULP energy -89102.593671 kJ/mol
# GULP energy per Si atom -5568.912104 kJ/mol
# Density = 2.321426 g / cm^3
# Si number density = 23.267218 Si / 1000 Ang^3
#
#
#
# Elastic Constant Matrix: (Units=GPa)
#
#
# Indices 1 2 3 4 5 6 
#
# 1 47.1460 14.7629 26.6079 -6.0945 -1.2608 1.0816
# 2 14.7629 126.0919 33.2887 -0.4130 5.3577 9.3559
# 3 26.6079 33.2887 125.6852 2.5121 -13.5581 9.6244
# 4 -6.0945 -0.4130 2.5121 46.3819 0.1145 0.0969
# 5 -1.2608 5.3577 -13.5581 0.1145 32.2935 -3.8615
# 6 1.0816 9.3559 9.6244 0.0969 -3.8615 10.4050
#
#
#
# Elastic Compliance Matrix: (Units=1/GPa)
#
#
# Indices 1 2 3 4 5 6 
#
# 1 0.025093 -0.001790 -0.005241 0.003559 -0.000502 0.003630
# 2 -0.001790 0.009347 -0.001863 -0.000027 -0.003327 -0.007730
# 3 -0.005241 -0.001863 0.010454 -0.001268 0.003776 -0.006037
# 4 0.003559 -0.000027 -0.001268 0.022096 -0.000411 0.000469
# 5 -0.000502 -0.003327 0.003776 -0.000411 0.034566 0.012383
# 6 0.003630 -0.007730 -0.006037 0.000469 0.012383 0.112856
#
#
# Mechanical properties :
#
#
# Convention : Reuss Voigt Hill
#
# Bulk Modulus (GPa) = 36.89420 49.80466 43.34943
# Shear Modulus (GPa) = 20.72656 32.76699 26.74677
#
# Velocity S-wave (km/s) = 2.98787 3.75679 3.39418
# Velocity P-wave (km/s) = 5.27203 6.34586 5.83371
#
# Compressibility (1/GPa) = 0.02710453
#
# Stress axis : x y z
#
# Youngs Moduli (GPa) = 39.85224 106.98610 95.65371
#
# Poissons Ratio (x) = 0.19156 0.50134
# Poissons Ratio (y) = 0.07136 0.17821
# Poissons Ratio (z) = 0.20888 0.19932
#
# Static dielectric constant tensor:
#      x y z
#    x 1.908920 0.019620 -0.048600 
#    y 0.019620 1.902450 0.136390 
#    z -0.048600 0.136390 2.348830 
# 
# From -- ./inp_files/38100.got.cif
#   From: 2010.05.17/outbox.cif.g08.bks.cpg/sg2_20_cif.got.tgz:38100.got - 2010.06.03 11:33:40.
