data_PCOD9100723
_publ_section_title
;
Structure prediction by ZEFSAII (Michael W. Deem and Ramdas Pophale) SiO2 
 PCOD9100723
Probable space group: P -1
;
_chemical_formula_sum "Si O2"
_cell_formula_units_Z 14
_cell_length_a 11.520881
_cell_length_b 20.647256
_cell_length_c 14.566377
_cell_angle_alpha 22.396131
_cell_angle_beta 151.008536
_cell_angle_gamma 150.452992
_cell_volume 603.660546
_symmetry_space_group_name_H-M "P -1"
_symmetry_group_IT_number 2
_symmetry_cell_setting 'triclinic'
loop_
_space_group_symop_operation_xyz
x,y,z
-x,-y,-z
loop_
_atom_site_type_symbol
_atom_site_label
_atom_site_fract_x
_atom_site_fract_y
_atom_site_fract_z
Si Si1 0.383039 0.625300 0.317642
Si Si2 0.973027 0.523460 0.560135
Si Si3 0.317296 0.795731 0.719616
Si Si4 0.657038 0.148149 0.547339
Si Si5 0.119918 0.392731 0.116336
Si Si6 0.119473 0.095528 0.652516
Si Si7 0.778326 0.724185 0.843325
O O1 0.500000 0.500000 0.500000
O O2 0.600981 0.819207 0.224786
O O3 0.270632 0.555518 0.434594
O O4 0.144446 0.630906 0.086149
O O5 0.079349 0.736376 0.377194
O O6 0.000000 0.500000 0.500000
O O7 0.171059 0.429721 0.859494
O O8 0.356511 0.782344 0.656453
O O9 0.096964 0.888151 0.449198
O O10 0.563557 0.932833 0.758143
O O11 0.229714 0.596240 0.961372
O O12 0.441497 0.198506 0.385675
O O13 0.101926 0.240407 0.375768
O O14 0.284069 0.356462 0.194870
O O15 0.033667 0.898410 0.807098
#
# Coordination Sequence:
#
# PCOD9100723 Si02
#       7
#     2   2   2   2   2   2   2
#     4  11  23  42  67  92 135 168 216 278 322 383
#     4  11  24  41  63 100 132 169 217 266 331 394
#     4  10  20  37  65  93 122 165 221 263 313 395
#     4  10  20  40  65  85 128 170 208 264 324 381
#     4  11  22  40  64  97 124 166 222 261 327 387
#     4  11  23  41  64  95 125 170 216 263 329 381
#     4  10  23  41  62  93 127 169 212 267 322 390
#
# _framework density 23.191842000000001
#
# number of rings (size 3 to 8) (size 9 to 14) (size 15 to 20)
#    0.000    1.429    4.286    1.286    2.000    2.286 
#    5.143    0.000    0.000    4.286    0.000    0.000 
#    0.000    0.000    0.000    0.000    0.000    0.000 
#
# Total GULP energy -78152.644660 kJ/mol
# GULP energy per Si atom -5582.331761 kJ/mol
# Density = 2.313906 g / cm^3
# Si number density = 23.191842 Si / 1000 Ang^3
#
#
#
# Elastic Constant Matrix: (Units=GPa)
#
#
# Indices 1 2 3 4 5 6 
#
# 1 83.0918 0.7452 4.4248 2.2296 5.9977 -16.2806
# 2 0.7452 131.9797 19.1620 -52.3901 -9.5317 0.4072
# 3 4.4248 19.1620 47.4955 -14.1342 -2.7000 -10.5325
# 4 2.2296 -52.3901 -14.1342 34.2724 0.7286 5.3424
# 5 5.9977 -9.5317 -2.7000 0.7286 26.2160 -2.0343
# 6 -16.2806 0.4072 -10.5325 5.3424 -2.0343 31.7110
#
#
#
# Elastic Compliance Matrix: (Units=1/GPa)
#
#
# Indices 1 2 3 4 5 6 
#
# 1 0.014118 -0.003069 -0.000589 -0.007030 -0.003587 0.008046
# 2 -0.003069 0.021881 0.000685 0.034875 0.007213 -0.007042
# 3 -0.000589 0.000685 0.025628 0.010552 0.003245 0.006632
# 4 -0.007030 0.034875 0.010552 0.089364 0.011739 -0.014855
# 5 -0.003587 0.007213 0.003245 0.011739 0.041583 -0.000166
# 6 0.008046 -0.007042 0.006632 -0.014855 -0.000166 0.040451
#
#
# Mechanical properties :
#
#
# Convention : Reuss Voigt Hill
#
# Bulk Modulus (GPa) = 17.95927 34.58123 26.27025
# Shear Modulus (GPa) = 19.41510 34.32220 26.86865
#
# Velocity S-wave (km/s) = 2.89650 3.85115 3.40742
# Velocity P-wave (km/s) = 4.35280 5.89224 5.18003
#
# Compressibility (1/GPa) = 0.05568155
#
# Stress axis : x y z
#
# Youngs Moduli (GPa) = 70.83226 45.70125 39.01934
#
# Poissons Ratio (x) = 0.14025 0.02298
# Poissons Ratio (y) = 0.21737 -0.02672
# Poissons Ratio (z) = 0.04171 -0.03130
#
# Static dielectric constant tensor:
#      x y z
#    x 1.997070 0.072730 0.035110 
#    y 0.072730 1.977210 -0.007730 
#    z 0.035110 -0.007730 1.799960 
# 
# From -- ./inp_files/215004.got.cif
#   From: 2010.05.17/outbox.cif.g08.bks.cpg/sg2_108_cif.got.tgz:215004.got - 2010.06.03 11:33:40.
