data_PCOD9100084
_publ_section_title
;
Structure prediction by ZEFSAII (Michael W. Deem and Ramdas Pophale) SiO2 
 PCOD9100084
Probable space group: P -1
;
_chemical_formula_sum "Si O2"
_cell_formula_units_Z 12
_cell_length_a 5.054299
_cell_length_b 9.551797
_cell_length_c 17.825592
_cell_angle_alpha 38.202424
_cell_angle_beta 74.729226
_cell_angle_gamma 76.217798
_cell_volume 512.720166
_symmetry_space_group_name_H-M "P -1"
_symmetry_group_IT_number 2
_symmetry_cell_setting 'triclinic'
loop_
_space_group_symop_operation_xyz
x,y,z
-x,-y,-z
loop_
_atom_site_type_symbol
_atom_site_label
_atom_site_fract_x
_atom_site_fract_y
_atom_site_fract_z
Si Si1 0.143266 0.371550 0.230280
Si Si2 0.279450 0.813840 0.101682
Si Si3 0.303959 0.620564 0.525483
Si Si4 0.784982 0.990137 0.742471
Si Si5 0.521547 0.370835 0.331642
Si Si6 0.178989 0.133612 0.778600
O O1 0.229084 0.632495 0.115932
O O2 0.311126 0.263633 0.334884
O O3 0.823169 0.356248 0.278833
O O4 0.219055 0.246046 0.201010
O O5 0.418517 0.635622 0.227399
O O6 0.986794 0.907730 0.115763
O O7 0.500000 0.000000 0.000000
O O8 0.500000 0.500000 0.500000
O O9 0.160055 0.826711 0.404479
O O10 0.458176 0.705589 0.551873
O O11 0.138698 0.407629 0.655021
O O12 0.495417 0.055610 0.776701
O O13 0.020402 0.008949 0.777550
#
# Coordination Sequence:
#
# PCOD9100084 Si02
#       6
#     2   2   2   2   2   2
#     4  10  23  41  60  91 129 155 205 249 303 367
#     4  10  23  43  68  87 118 163 209 259 305 350
#     4  10  20  37  62  93 125 163 199 245 302 362
#     4  11  24  39  64  90 133 163 192 250 312 357
#     4  10  21  39  61  88 126 151 212 245 295 365
#     4  11  22  41  61  94 122 161 212 247 290 375
#
# _framework density 23.404582000000001
#
# number of rings (size 3 to 8) (size 9 to 14) (size 15 to 20)
#    1.000    0.667    1.667    3.500    0.000    6.000 
#    0.000    1.667    0.000    0.000    0.000    0.000 
#    0.000    0.000    0.000    0.000    0.000    0.000 
#
# Total GULP energy -67058.782545 kJ/mol
# GULP energy per Si atom -5588.231879 kJ/mol
# Density = 2.335131 g / cm^3
# Si number density = 23.404582 Si / 1000 Ang^3
#
#
#
# Elastic Constant Matrix: (Units=GPa)
#
#
# Indices 1 2 3 4 5 6 
#
# 1 105.7636 34.0541 5.6412 6.3339 -30.8967 2.3536
# 2 34.0541 119.8300 8.7723 -11.2543 11.0930 5.8569
# 3 5.6412 8.7723 66.3177 -1.1037 -10.2360 -13.9907
# 4 6.3339 -11.2543 -1.1037 21.9217 -4.0721 -0.7105
# 5 -30.8967 11.0930 -10.2360 -4.0721 22.4443 12.4811
# 6 2.3536 5.8569 -13.9907 -0.7105 12.4811 35.3980
#
#
#
# Elastic Compliance Matrix: (Units=1/GPa)
#
#
# Indices 1 2 3 4 5 6 
#
# 1 0.037796 -0.017560 0.005559 -0.006411 0.075519 -0.024167
# 2 -0.017560 0.017452 -0.004577 0.006805 -0.039512 0.010539
# 3 0.005559 -0.004577 0.018214 0.000253 0.017471 0.001432
# 4 -0.006411 0.006805 0.000253 0.050300 -0.003949 0.001802
# 5 0.075519 -0.039512 0.017471 -0.003949 0.212277 -0.066505
# 6 -0.024167 0.010539 0.001432 0.001802 -0.066505 0.052164
#
#
# Mechanical properties :
#
#
# Convention : Reuss Voigt Hill
#
# Bulk Modulus (GPa) = 24.80969 43.20515 34.00742
# Shear Modulus (GPa) = 11.49970 32.18240 21.84105
#
# Velocity S-wave (km/s) = 2.21903 3.71219 3.05814
# Velocity P-wave (km/s) = 4.14594 6.07239 5.19917
#
# Compressibility (1/GPa) = 0.04030683
#
# Stress axis : x y z
#
# Youngs Moduli (GPa) = 26.45807 57.29932 54.90192
#
# Poissons Ratio (x) = 1.00617 -0.30520
# Poissons Ratio (y) = 0.46460 0.25127
# Poissons Ratio (z) = -0.14708 0.26224
#
# Static dielectric constant tensor:
#      x y z
#    x 1.912230 0.016570 0.056950 
#    y 0.016570 1.857400 -0.007780 
#    z 0.056950 -0.007780 1.967820 
# 
# From -- ./inp_files/40673.got.cif
#   From: 2010.05.17/outbox.cif.g08.bks.cpg/sg2_21_cif.got.tgz:40673.got - 2010.06.03 11:33:40.
