data_PCOD9100320
_publ_section_title
;
Structure prediction by ZEFSAII (Michael W. Deem and Ramdas Pophale) SiO2 
 PCOD9100320
Probable space group: P -1
;
_chemical_formula_sum "Si O2"
_cell_formula_units_Z 8
_cell_length_a 8.526344
_cell_length_b 12.344752
_cell_length_c 7.277319
_cell_angle_alpha 51.803156
_cell_angle_beta 82.311472
_cell_angle_gamma 40.591730
_cell_volume 295.407633
_symmetry_space_group_name_H-M "P -1"
_symmetry_group_IT_number 2
_symmetry_cell_setting 'triclinic'
loop_
_space_group_symop_operation_xyz
x,y,z
-x,-y,-z
loop_
_atom_site_type_symbol
_atom_site_label
_atom_site_fract_x
_atom_site_fract_y
_atom_site_fract_z
Si Si1 0.332723 0.569507 0.139135
Si Si2 0.371886 0.836335 0.944182
Si Si3 0.335741 0.944071 0.413993
Si Si4 0.926077 0.666567 0.493291
O O1 0.297573 0.732068 0.096279
O O2 0.450281 0.719705 0.522467
O O3 0.500000 0.500000 0.000000
O O4 0.000598 0.756119 0.928006
O O5 0.288132 0.934689 0.641753
O O6 0.181636 0.100453 0.802545
O O7 0.750716 0.566254 0.197375
O O8 0.616219 0.841988 0.461628
O O9 0.000000 0.500000 0.500000
#
# Coordination Sequence:
#
# PCOD9100320 Si02
#       4
#     2   2   2   2
#     4  10  20  37  63  93 115 143 195 252 291 338
#     4  11  21  40  63  86 115 156 196 241 290 344
#     4  11  21  39  64  90 115 151 196 243 291 346
#     4  12  25  40  57  87 124 158 194 238 287 346
#
# _framework density 27.081226000000001
#
# number of rings (size 3 to 8) (size 9 to 14) (size 15 to 20)
#    0.000    1.000    0.000   11.250    0.000    0.000 
#    0.000    7.500    0.000    0.000    0.000    0.000 
#    0.000    0.000    0.000    0.000    0.000    0.000 
#
# Total GULP energy -44906.762993 kJ/mol
# GULP energy per Si atom -5613.345374 kJ/mol
# Density = 2.701959 g / cm^3
# Si number density = 27.081226 Si / 1000 Ang^3
#
#
#
# Elastic Constant Matrix: (Units=GPa)
#
#
# Indices 1 2 3 4 5 6 
#
# 1 111.2132 39.2183 20.1962 -6.5326 -7.6120 20.9134
# 2 39.2183 101.0002 26.8336 -14.4529 -4.7414 18.9870
# 3 20.1962 26.8336 112.7204 -31.7394 17.5911 2.3572
# 4 -6.5326 -14.4529 -31.7394 38.5939 6.3562 -16.8692
# 5 -7.6120 -4.7414 17.5911 6.3562 60.5726 -15.1721
# 6 20.9134 18.9870 2.3572 -16.8692 -15.1721 52.1401
#
#
#
# Elastic Compliance Matrix: (Units=1/GPa)
#
#
# Indices 1 2 3 4 5 6 
#
# 1 0.011206 -0.003451 -0.002120 -0.002975 0.001119 -0.003779
# 2 -0.003451 0.012446 -0.001987 0.001273 0.000346 -0.002546
# 3 -0.002120 -0.001987 0.014036 0.012853 -0.004929 0.003663
# 4 -0.002975 0.001273 0.012853 0.042770 -0.005384 0.012419
# 5 0.001119 0.000346 -0.004929 -0.005384 0.019576 0.003602
# 6 -0.003779 -0.002546 0.003663 0.012419 0.003602 0.026522
#
#
# Mechanical properties :
#
#
# Convention : Reuss Voigt Hill
#
# Bulk Modulus (GPa) = 44.30002 55.27001 49.78501
# Shear Modulus (GPa) = 33.51318 46.17372 39.84345
#
# Velocity S-wave (km/s) = 3.52164 4.13365 3.83986
# Velocity P-wave (km/s) = 5.73843 6.57541 6.17113
#
# Compressibility (1/GPa) = 0.02257336
#
# Stress axis : x y z
#
# Youngs Moduli (GPa) = 89.23722 80.34857 71.24464
#
# Poissons Ratio (x) = 0.27728 0.15101
# Poissons Ratio (y) = 0.30795 0.14155
# Poissons Ratio (z) = 0.18914 0.15964
#
# Static dielectric constant tensor:
#      x y z
#    x 2.090380 0.031160 -0.044540 
#    y 0.031160 2.235120 -0.019790 
#    z -0.044540 -0.019790 1.989090 
# 
# From -- ./inp_files/15211.got.cif
#   From: 2010.05.17/outbox.cif.g08.bks.cpg/sg2_8_cif.got.tgz:15211.got - 2010.06.03 11:33:40.
