data_PCOD9100604
_publ_section_title
;
Structure prediction by ZEFSAII (Michael W. Deem and Ramdas Pophale) SiO2 
 PCOD9100604
Probable space group: P -1
;
_chemical_formula_sum "Si O2"
_cell_formula_units_Z 16
_cell_length_a 16.572239
_cell_length_b 9.356743
_cell_length_c 11.612066
_cell_angle_alpha 130.442261
_cell_angle_beta 30.146042
_cell_angle_gamma 117.343197
_cell_volume 663.428617
_symmetry_space_group_name_H-M "P -1"
_symmetry_group_IT_number 2
_symmetry_cell_setting 'triclinic'
loop_
_space_group_symop_operation_xyz
x,y,z
-x,-y,-z
loop_
_atom_site_type_symbol
_atom_site_label
_atom_site_fract_x
_atom_site_fract_y
_atom_site_fract_z
Si Si1 0.375319 0.410642 0.180846
Si Si2 0.629895 0.690287 0.610087
Si Si3 0.079536 0.163435 0.706938
Si Si4 0.495967 0.008003 0.274081
Si Si5 0.996700 0.466590 0.352108
Si Si6 0.306384 0.701929 0.809066
Si Si7 0.146830 0.101762 0.848792
Si Si8 0.868558 0.175056 0.689072
O O1 0.432864 0.366525 0.219491
O O2 0.185534 0.539221 0.470162
O O3 0.500000 0.500000 0.000000
O O4 0.380292 0.200386 0.010498
O O5 0.816893 0.708364 0.418985
O O6 0.561630 0.891781 0.728068
O O7 0.635491 0.517811 0.421827
O O8 0.103045 0.201796 0.831164
O O9 0.153736 0.935990 0.458981
O O10 0.883969 0.223078 0.957713
O O11 0.585137 0.159680 0.300180
O O12 0.338072 0.984415 0.530061
O O13 0.000000 0.500000 0.500000
O O14 0.049956 0.649073 0.331247
O O15 0.129653 0.267421 0.050791
O O16 0.288541 0.742835 0.990528
O O17 0.000000 0.000000 0.000000
O O18 0.000000 0.000000 0.500000
#
# Coordination Sequence:
#
# PCOD9100604 Si02
#       8
#     2   2   2   2   2   2   2   2
#     4  12  26  46  68  98 135 178 225 278 335 395
#     4  11  23  42  67  98 135 179 222 272 334 405
#     4  10  20  38  66  96 132 180 224 269 327 400
#     4  11  25  43  68 101 136 173 221 281 337 391
#     4  12  26  45  68  97 133 179 225 273 333 402
#     4  11  21  38  66 101 133 170 222 281 330 387
#     4  11  24  45  67  96 134 179 225 273 333 403
#     4  10  20  37  64  97 131 168 216 271 327 389
#
# _framework density 24.117138000000001
#
# number of rings (size 3 to 8) (size 9 to 14) (size 15 to 20)
#    0.000    1.000    0.000    8.625    0.000    4.000 
#    0.000    1.875    0.000    0.000    0.000    0.000 
#    0.000    0.000    0.000    0.000    0.000    0.000 
#
# Total GULP energy -89476.415826 kJ/mol
# GULP energy per Si atom -5592.275989 kJ/mol
# Density = 2.406225 g / cm^3
# Si number density = 24.117138 Si / 1000 Ang^3
#
#
#
# Elastic Constant Matrix: (Units=GPa)
#
#
# Indices 1 2 3 4 5 6 
#
# 1 43.3015 -10.0566 -0.1624 -5.3870 13.3557 7.8208
# 2 -10.0566 114.5379 16.8219 -24.2227 3.2456 17.1188
# 3 -0.1624 16.8219 100.9155 -4.6932 10.6086 -3.4176
# 4 -5.3870 -24.2227 -4.6932 53.6365 8.2865 4.1204
# 5 13.3557 3.2456 10.6086 8.2865 40.6675 -4.2824
# 6 7.8208 17.1188 -3.4176 4.1204 -4.2824 34.4950
#
#
#
# Elastic Compliance Matrix: (Units=1/GPa)
#
#
# Indices 1 2 3 4 5 6 
#
# 1 0.033532 0.007686 0.000378 0.010362 -0.015365 -0.014525
# 2 0.007686 0.013036 -0.001499 0.008215 -0.005909 -0.010076
# 3 0.000378 -0.001499 0.010519 0.000605 -0.002736 0.001288
# 4 0.010362 0.008215 0.000605 0.025919 -0.010633 -0.010782
# 5 -0.015365 -0.005909 -0.002736 -0.010633 0.034216 0.011663
# 6 -0.014525 -0.010076 0.001288 -0.010782 0.011663 0.040146
#
#
# Mechanical properties :
#
#
# Convention : Reuss Voigt Hill
#
# Bulk Modulus (GPa) = 14.24127 30.21784 22.22955
# Shear Modulus (GPa) = 29.82516 42.56993 36.19755
#
# Velocity S-wave (km/s) = 3.52046 4.20591 3.87836
# Velocity P-wave (km/s) = 4.73737 6.01190 5.41229
#
# Compressibility (1/GPa) = 0.07021845
#
# Stress axis : x y z
#
# Youngs Moduli (GPa) = 29.82225 76.70854 95.06484
#
# Poissons Ratio (x) = -0.58960 -0.03593
# Poissons Ratio (y) = -0.22922 0.14248
# Poissons Ratio (z) = -0.01127 0.11496
#
# Static dielectric constant tensor:
#      x y z
#    x 1.986900 0.021150 -0.034570 
#    y 0.021150 1.927860 -0.068890 
#    z -0.034570 -0.068890 1.979090 
# 
# From -- ./inp_files/462390.got.cif
#   From: 2010.05.17/outbox.cif.g08.bks.cpg/sg2_232_cif.got.tgz:462390.got - 2010.06.03 11:33:40.
