data_PCOD9100690
_publ_section_title
;
Structure prediction by ZEFSAII (Michael W. Deem and Ramdas Pophale) SiO2 
 PCOD9100690
Probable space group: P -1
;
_chemical_formula_sum "Si O2"
_cell_formula_units_Z 16
_cell_length_a 24.749316
_cell_length_b 10.282935
_cell_length_c 8.561326
_cell_angle_alpha 120.780056
_cell_angle_beta 54.864285
_cell_angle_gamma 154.496402
_cell_volume 767.011003
_symmetry_space_group_name_H-M "P -1"
_symmetry_group_IT_number 2
_symmetry_cell_setting 'triclinic'
loop_
_space_group_symop_operation_xyz
x,y,z
-x,-y,-z
loop_
_atom_site_type_symbol
_atom_site_label
_atom_site_fract_x
_atom_site_fract_y
_atom_site_fract_z
Si Si1 0.702683 0.985793 0.947111
Si Si2 0.749689 0.234434 0.304852
Si Si3 0.879376 0.382287 0.624347
Si Si4 0.989906 0.806158 0.451562
Si Si5 0.404510 0.172014 0.404959
Si Si6 0.288207 0.332395 0.319073
Si Si7 0.488775 0.154768 0.954534
Si Si8 0.368522 0.726622 0.656112
O O1 0.826653 0.294476 0.833469
O O2 0.669264 0.755633 0.799946
O O3 0.581247 0.854721 0.038800
O O4 0.734388 0.053441 0.117545
O O5 0.891045 0.528546 0.327457
O O6 0.727253 0.333657 0.291077
O O7 0.637376 0.006546 0.483172
O O8 0.929456 0.636245 0.615652
O O9 0.000000 0.500000 0.500000
O O10 0.740458 0.064658 0.569619
O O11 0.000000 0.000000 0.500000
O O12 0.135805 0.031703 0.346323
O O13 0.500000 0.500000 0.500000
O O14 0.469357 0.186758 0.177855
O O15 0.309217 0.452183 0.525811
O O16 0.367062 0.571066 0.193363
O O17 0.407354 0.844695 0.842111
O O18 0.500000 0.000000 0.500000
#
# Coordination Sequence:
#
# PCOD9100690 Si02
#       8
#     2   2   2   2   2   2   2   2
#     4  10  20  37  65  91 121 155 212 268 304 372
#     4  10  21  39  61  88 126 165 204 259 325 358
#     4  10  21  41  62  92 126 166 210 260 309 372
#     4  11  22  39  64  86 129 172 204 255 318 379
#     4  10  21  38  62  90 127 160 203 264 320 362
#     4  11  19  34  62  90 121 159 214 243 318 370
#     4   9  20  37  59  90 123 157 210 264 311 363
#     4   9  19  35  58  83 116 163 205 254 303 377
#
# _framework density 20.860195999999998
#
# number of rings (size 3 to 8) (size 9 to 14) (size 15 to 20)
#    0.000    2.000    2.500    1.125    0.000    5.500 
#    2.250    3.125    5.500    4.500    0.000    0.000 
#    0.000    0.000    0.000    0.000    0.000    0.000 
#
# Total GULP energy -89121.452163 kJ/mol
# GULP energy per Si atom -5570.090760 kJ/mol
# Density = 2.081272 g / cm^3
# Si number density = 20.860196 Si / 1000 Ang^3
#
#
#
# Elastic Constant Matrix: (Units=GPa)
#
#
# Indices 1 2 3 4 5 6 
#
# 1 39.6240 24.0449 9.7126 8.7165 -1.2437 -4.5528
# 2 24.0449 112.0479 55.7956 -1.2396 5.5313 6.1250
# 3 9.7126 55.7956 140.0002 19.0533 14.9183 -7.3581
# 4 8.7165 -1.2396 19.0533 40.6207 -5.7421 -6.0771
# 5 -1.2437 5.5313 14.9183 -5.7421 26.6865 -5.8333
# 6 -4.5528 6.1250 -7.3581 -6.0771 -5.8333 32.4326
#
#
#
# Elastic Compliance Matrix: (Units=1/GPa)
#
#
# Indices 1 2 3 4 5 6 
#
# 1 0.032085 -0.008462 0.002227 -0.007114 0.001693 0.005579
# 2 -0.008462 0.013892 -0.005750 0.004277 -0.000086 -0.004330
# 3 0.002227 -0.005750 0.010838 -0.006306 -0.005762 0.001640
# 4 -0.007114 0.004277 -0.006306 0.031311 0.010013 0.004431
# 5 0.001693 -0.000086 -0.005762 0.010013 0.044889 0.008896
# 6 0.005579 -0.004330 0.001640 0.004431 0.008896 0.035236
#
#
# Mechanical properties :
#
#
# Convention : Reuss Voigt Hill
#
# Bulk Modulus (GPa) = 30.44426 52.30869 41.37647
# Shear Modulus (GPa) = 24.60997 33.42256 29.01627
#
# Velocity S-wave (km/s) = 3.43849 4.00711 3.73364
# Velocity P-wave (km/s) = 5.51275 6.82199 6.20201
#
# Compressibility (1/GPa) = 0.03284691
#
# Stress axis : x y z
#
# Youngs Moduli (GPa) = 31.16720 71.98336 92.26501
#
# Poissons Ratio (x) = 0.60910 -0.20551
# Poissons Ratio (y) = 0.26373 0.53053
# Poissons Ratio (z) = -0.06942 0.41391
#
# Static dielectric constant tensor:
#      x y z
#    x 1.778400 -0.042600 0.043970 
#    y -0.042600 1.770330 0.052290 
#    z 0.043970 0.052290 1.747080 
# 
# From -- ./inp_files/273007.got.cif
#   From: 2010.05.17/outbox.cif.g08.bks.cpg/sg2_137_cif.got.tgz:273007.got - 2010.06.03 11:33:40.
