data_PCOD9100105
_publ_section_title
;
Structure prediction by ZEFSAII (Michael W. Deem and Ramdas Pophale) SiO2 
 PCOD9100105
Probable space group: P -1
;
_chemical_formula_sum "Si O2"
_cell_formula_units_Z 16
_cell_length_a 7.931089
_cell_length_b 8.484482
_cell_length_c 9.908484
_cell_angle_alpha 83.629378
_cell_angle_beta 69.861259
_cell_angle_gamma 80.605361
_cell_volume 616.513117
_symmetry_space_group_name_H-M "P -1"
_symmetry_group_IT_number 2
_symmetry_cell_setting 'triclinic'
loop_
_space_group_symop_operation_xyz
x,y,z
-x,-y,-z
loop_
_atom_site_type_symbol
_atom_site_label
_atom_site_fract_x
_atom_site_fract_y
_atom_site_fract_z
Si Si1 0.235263 0.510562 0.668626
Si Si2 0.701282 0.887059 0.610109
Si Si3 0.997592 0.713616 0.376296
Si Si4 0.449814 0.889847 0.902837
Si Si5 0.674469 0.377856 0.858845
Si Si6 0.447379 0.766225 0.460654
Si Si7 0.754761 0.575606 0.046301
Si Si8 0.131636 0.110947 0.883884
O O1 0.097488 0.444584 0.609519
O O2 0.306777 0.667052 0.581258
O O3 0.404679 0.364610 0.641031
O O4 0.166293 0.531760 0.839123
O O5 0.903160 0.812747 0.517742
O O6 0.629793 0.825835 0.777104
O O7 0.573572 0.828254 0.535704
O O8 0.656944 0.079486 0.600989
O O9 0.942271 0.818669 0.244920
O O10 0.212085 0.670102 0.301975
O O11 0.320306 0.996245 0.824492
O O12 0.339153 0.763066 0.015584
O O13 0.500000 0.000000 0.000000
O O14 0.463574 0.427684 0.883971
O O15 0.781964 0.500886 0.898310
O O16 0.818711 0.745904 0.046492
O O17 0.000000 0.000000 0.000000
#
# Coordination Sequence:
#
# PCOD9100105 Si02
#       8
#     2   2   2   2   2   2   2   2
#     4   9  18  34  62  92 123 162 212 265 314 373
#     4  10  20  37  62  94 126 164 215 264 321 387
#     4  10  22  40  61  94 132 162 214 277 314 370
#     4  12  23  40  68  93 130 175 212 259 327 393
#     4  11  23  41  62  94 133 175 212 259 322 393
#     4   9  17  34  62  92 124 164 207 263 325 374
#     4  10  22  39  63  91 131 174 213 253 325 396
#     4  11  21  39  65 100 131 162 217 276 315 375
#
# _framework density 25.952407999999998
#
# number of rings (size 3 to 8) (size 9 to 14) (size 15 to 20)
#    0.000    1.750    2.500    3.750    0.000    2.000 
#    4.500    0.625    0.000   15.750    0.000    0.000 
#    0.000    0.000    0.000    0.000    0.000    0.000 
#
# Total GULP energy -89576.775436 kJ/mol
# GULP energy per Si atom -5598.548465 kJ/mol
# Density = 2.589334 g / cm^3
# Si number density = 25.952408 Si / 1000 Ang^3
#
#
#
# Elastic Constant Matrix: (Units=GPa)
#
#
# Indices 1 2 3 4 5 6 
#
# 1 91.3972 22.1780 22.3055 9.0243 -19.7636 7.6908
# 2 22.1780 96.1810 30.4064 -13.3942 -18.3787 25.3514
# 3 22.3055 30.4064 125.5811 17.5404 -26.3307 13.2170
# 4 9.0243 -13.3942 17.5404 36.1457 0.0351 -7.5416
# 5 -19.7636 -18.3787 -26.3307 0.0351 51.4074 4.1680
# 6 7.6908 25.3514 13.2170 -7.5416 4.1680 43.5424
#
#
#
# Elastic Compliance Matrix: (Units=1/GPa)
#
#
# Indices 1 2 3 4 5 6 
#
# 1 0.013072 -0.002220 0.000016 -0.004565 0.004424 -0.002235
# 2 -0.002220 0.015106 -0.002566 0.005942 0.003793 -0.006958
# 3 0.000016 -0.002566 0.010986 -0.007029 0.005008 -0.003541
# 4 -0.004565 0.005942 -0.007029 0.035678 -0.003743 0.006018
# 5 0.004424 0.003793 0.005008 -0.003743 0.025695 -0.007618
# 6 -0.002235 -0.006958 -0.003541 0.006018 -0.007618 0.030259
#
#
# Mechanical properties :
#
#
# Convention : Reuss Voigt Hill
#
# Bulk Modulus (GPa) = 33.75584 51.43766 42.59675
# Shear Modulus (GPa) = 33.28700 42.10373 37.69537
#
# Velocity S-wave (km/s) = 3.58525 4.03220 3.81528
# Velocity P-wave (km/s) = 5.49306 6.44525 5.98811
#
# Compressibility (1/GPa) = 0.02962450
#
# Stress axis : x y z
#
# Youngs Moduli (GPa) = 76.50199 66.19685 91.02730
#
# Poissons Ratio (x) = 0.14699 -0.00149
# Poissons Ratio (y) = 0.16987 0.23353
# Poissons Ratio (z) = -0.00125 0.16983
#
# Static dielectric constant tensor:
#      x y z
#    x 2.136000 -0.053250 -0.045040 
#    y -0.053250 2.053360 0.038390 
#    z -0.045040 0.038390 2.038390 
# 
# From -- ./inp_files/379020.got.cif
#   From: 2010.05.17/outbox.cif.g08.bks.cpg/sg2_190_cif.got.tgz:379020.got - 2010.06.03 11:33:40.
