data_PCOD9100658
_publ_section_title
;
Structure prediction by ZEFSAII (Michael W. Deem and Ramdas Pophale) SiO2 
 PCOD9100658
Probable space group: P -1
;
_chemical_formula_sum "Si O2"
_cell_formula_units_Z 16
_cell_length_a 5.110415
_cell_length_b 10.885633
_cell_length_c 19.786483
_cell_angle_alpha 136.335931
_cell_angle_beta 82.183727
_cell_angle_gamma 80.253686
_cell_volume 692.870863
_symmetry_space_group_name_H-M "P -1"
_symmetry_group_IT_number 2
_symmetry_cell_setting 'triclinic'
loop_
_space_group_symop_operation_xyz
x,y,z
-x,-y,-z
loop_
_atom_site_type_symbol
_atom_site_label
_atom_site_fract_x
_atom_site_fract_y
_atom_site_fract_z
Si Si1 0.526290 0.209819 0.926765
Si Si2 0.943868 0.176465 0.416107
Si Si3 0.806642 0.944921 0.933411
Si Si4 0.407852 0.143554 0.498112
Si Si5 0.285358 0.014622 0.746878
Si Si6 0.316875 0.378148 0.377483
Si Si7 0.111289 0.598469 0.095249
Si Si8 0.149161 0.586610 0.700591
O O1 0.691212 0.298119 0.903770
O O2 0.746814 0.065899 0.913970
O O3 0.355464 0.096013 0.848436
O O4 0.309888 0.404935 0.050429
O O5 0.690151 0.137229 0.447723
O O6 0.956518 0.063962 0.300703
O O7 0.814575 0.408172 0.500356
O O8 0.198015 0.111514 0.436612
O O9 0.979807 0.721792 0.820663
O O10 0.500000 0.000000 0.000000
O O11 0.000000 0.000000 0.000000
O O12 0.251342 0.359650 0.618467
O O13 0.500000 0.000000 0.500000
O O14 0.560583 0.808022 0.652594
O O15 0.163976 0.223021 0.794571
O O16 0.581227 0.369806 0.317456
O O17 0.074249 0.367068 0.333910
O O18 0.000000 0.500000 0.000000
#
# Coordination Sequence:
#
# PCOD9100658 Si02
#       8
#     2   2   2   2   2   2   2   2
#     4  10  22  42  63  90 131 170 211 266 341 374
#     4  10  23  37  62 101 121 158 218 252 310 380
#     4  12  26  42  65  96 128 168 226 271 312 387
#     4  10  22  44  63  84 130 169 206 258 308 381
#     4  11  21  36  64  92 127 159 207 260 328 374
#     4  10  20  37  65  88 131 161 195 261 315 386
#     4   9  21  39  65  87 122 174 209 261 333 393
#     4  10  21  41  62  88 118 171 212 248 327 366
#
# _framework density 23.092326
#
# number of rings (size 3 to 8) (size 9 to 14) (size 15 to 20)
#    0.000    1.750    1.250    2.250    5.250    0.000 
#    4.500    3.750    0.000    0.000    0.000    0.000 
#    0.000    0.000    0.000    0.000    0.000    0.000 
#
# Total GULP energy -89254.491683 kJ/mol
# GULP energy per Si atom -5578.405730 kJ/mol
# Density = 2.303977 g / cm^3
# Si number density = 23.092326 Si / 1000 Ang^3
#
#
#
# Elastic Constant Matrix: (Units=GPa)
#
#
# Indices 1 2 3 4 5 6 
#
# 1 151.3097 55.7410 53.8845 -4.1385 16.2726 -11.9519
# 2 55.7410 131.9577 59.8550 22.5863 7.9111 -20.7269
# 3 53.8845 59.8550 159.4563 19.7844 13.7171 -10.2138
# 4 -4.1385 22.5863 19.7844 36.6282 -7.2726 -8.2066
# 5 16.2726 7.9111 13.7171 -7.2726 40.4984 1.8000
# 6 -11.9519 -20.7269 -10.2138 -8.2066 1.8000 31.0875
#
#
#
# Elastic Compliance Matrix: (Units=1/GPa)
#
#
# Indices 1 2 3 4 5 6 
#
# 1 0.008955 -0.003160 -0.002105 0.004193 -0.001597 0.001844
# 2 -0.003160 0.011663 -0.002196 -0.005664 -0.001479 0.004430
# 3 -0.002105 -0.002196 0.008476 -0.004011 -0.002298 -0.000415
# 4 0.004193 -0.005664 -0.004011 0.036089 0.007010 0.005639
# 5 -0.001597 -0.001479 -0.002298 0.007010 0.027754 -0.002111
# 6 0.001844 0.004430 -0.000415 0.005639 -0.002111 0.037305
#
#
# Mechanical properties :
#
#
# Convention : Reuss Voigt Hill
#
# Bulk Modulus (GPa) = 70.56653 86.85387 78.71020
# Shear Modulus (GPa) = 33.35823 39.85902 36.60863
#
# Velocity S-wave (km/s) = 3.80486 4.15911 3.98592
# Velocity P-wave (km/s) = 7.06593 7.79471 7.43925
#
# Compressibility (1/GPa) = 0.01417102
#
# Stress axis : x y z
#
# Youngs Moduli (GPa) = 111.67230 85.73823 117.98450
#
# Poissons Ratio (x) = 0.27097 0.24830
# Poissons Ratio (y) = 0.35294 0.25914
# Poissons Ratio (z) = 0.23502 0.18831
#
# Static dielectric constant tensor:
#      x y z
#    x 1.968590 0.004930 -0.093320 
#    y 0.004930 1.864050 0.012250 
#    z -0.093320 0.012250 2.037900 
# 
# From -- ./inp_files/583092.got.cif
#   From: 2010.05.17/outbox.cif.g08.bks.cpg/sg2_292_cif.got.tgz:583092.got - 2010.06.03 11:33:40.
