data_PCOD9100924
_publ_section_title
;
Structure prediction by ZEFSAII (Michael W. Deem and Ramdas Pophale) SiO2 
 PCOD9100924
Probable space group: P -1
;
_chemical_formula_sum "Si O2"
_cell_formula_units_Z 13
_cell_length_a 7.911881
_cell_length_b 10.797396
_cell_length_c 14.404140
_cell_angle_alpha 136.332315
_cell_angle_beta 67.908694
_cell_angle_gamma 138.089431
_cell_volume 531.264949
_symmetry_space_group_name_H-M "P -1"
_symmetry_group_IT_number 2
_symmetry_cell_setting 'triclinic'
loop_
_space_group_symop_operation_xyz
x,y,z
-x,-y,-z
loop_
_atom_site_type_symbol
_atom_site_label
_atom_site_fract_x
_atom_site_fract_y
_atom_site_fract_z
Si Si1 0.125775 0.413577 0.382800
Si Si2 0.435303 0.194115 0.657144
Si Si3 0.934744 0.504962 0.852858
Si Si4 0.677808 0.543118 0.071654
Si Si5 0.956678 0.760990 0.406598
Si Si6 0.806392 0.025101 0.080354
Si Si7 0.500000 0.500000 0.500000
O O1 0.359349 0.615944 0.367050
O O2 0.262040 0.393688 0.421899
O O3 0.000000 0.500000 0.500000
O O4 0.888270 0.142155 0.230064
O O5 0.633792 0.283541 0.748393
O O6 0.280500 0.258408 0.762094
O O7 0.204937 0.900733 0.502719
O O8 0.912736 0.601867 0.004564
O O9 0.020043 0.360592 0.749092
O O10 0.125435 0.760538 0.884428
O O11 0.492901 0.266477 0.013967
O O12 0.500000 0.500000 0.000000
O O13 0.674012 0.543180 0.398591
O O14 0.000000 0.000000 0.500000
O O15 0.000000 0.000000 0.000000
#
# Coordination Sequence:
#
# PCOD9100924 Si02
#       7
#     2   2   2   2   2   2   1
#     4  11  24  41  69 105 136 182 230 277 350 408
#     4  10  21  43  65 100 136 169 227 286 336 408
#     4  10  23  39  68 102 126 175 226 270 347 404
#     4  10  20  37  67 102 130 174 220 278 347 400
#     4  12  26  44  64  94 140 174 226 284 332 405
#     4  11  20  39  65 102 142 168 229 287 327 422
#     4  12  26  42  68  96 138 184 220 280 358 390
#
# _framework density 24.469901
#
# number of rings (size 3 to 8) (size 9 to 14) (size 15 to 20)
#    0.000    1.231    6.154    2.308    6.462    1.231 
#    0.000    0.769    0.000    9.231    0.000    0.000 
#    0.000    0.000    0.000    0.000    0.000    0.000 
#
# Total GULP energy -72481.671001 kJ/mol
# GULP energy per Si atom -5575.513154 kJ/mol
# Density = 2.441421 g / cm^3
# Si number density = 24.469901 Si / 1000 Ang^3
#
#
#
# Elastic Constant Matrix: (Units=GPa)
#
#
# Indices 1 2 3 4 5 6 
#
# 1 61.1897 22.7199 38.6603 -1.5245 -12.3224 -3.2076
# 2 22.7199 93.9348 29.5381 -17.4304 -16.6898 14.2826
# 3 38.6603 29.5381 180.3921 -31.3994 -36.1163 11.8032
# 4 -1.5245 -17.4304 -31.3994 42.7636 11.4530 -8.3308
# 5 -12.3224 -16.6898 -36.1163 11.4530 48.8159 1.2033
# 6 -3.2076 14.2826 11.8032 -8.3308 1.2033 26.5244
#
#
#
# Elastic Compliance Matrix: (Units=1/GPa)
#
#
# Indices 1 2 3 4 5 6 
#
# 1 0.021678 -0.005273 -0.004670 -0.003837 0.000960 0.006290
# 2 -0.005273 0.014137 0.000601 0.003677 0.003270 -0.007511
# 3 -0.004670 0.000601 0.008269 0.004364 0.004204 -0.003388
# 4 -0.003837 0.003677 0.004364 0.029933 -0.003633 0.005180
# 5 0.000960 0.003270 0.004204 -0.003633 0.025952 -0.005834
# 6 0.006290 -0.007511 -0.003388 0.005180 -0.005834 0.045906
#
#
# Mechanical properties :
#
#
# Convention : Reuss Voigt Hill
#
# Bulk Modulus (GPa) = 39.36757 57.48369 48.42563
# Shear Modulus (GPa) = 28.89765 39.92735 34.41250
#
# Velocity S-wave (km/s) = 3.44022 4.04380 3.75416
# Velocity P-wave (km/s) = 5.64829 6.73392 6.21486
#
# Compressibility (1/GPa) = 0.02540162
#
# Stress axis : x y z
#
# Youngs Moduli (GPa) = 46.12924 70.73537 120.93597
#
# Poissons Ratio (x) = 0.37297 0.56475
# Poissons Ratio (y) = 0.24323 -0.07271
# Poissons Ratio (z) = 0.21542 -0.04253
#
# Static dielectric constant tensor:
#      x y z
#    x 2.005430 -0.033890 0.016900 
#    y -0.033890 1.947440 -0.043140 
#    z 0.016900 -0.043140 1.946960 
# 
# From -- ./inp_files/266998.got.cif
#   From: 2010.05.17/outbox.cif.g08.bks.cpg/sg2_134_cif.got.tgz:266998.got - 2010.06.03 11:33:40.
