data_PCOD9100149
_publ_section_title
;
Structure prediction by ZEFSAII (Michael W. Deem and Ramdas Pophale) SiO2 
 PCOD9100149
Probable space group: P -1
;
_chemical_formula_sum "Si O2"
_cell_formula_units_Z 16
_cell_length_a 6.830035
_cell_length_b 8.458598
_cell_length_c 18.163530
_cell_angle_alpha 129.538803
_cell_angle_beta 59.733869
_cell_angle_gamma 96.276916
_cell_volume 662.767198
_symmetry_space_group_name_H-M "P -1"
_symmetry_group_IT_number 2
_symmetry_cell_setting 'triclinic'
loop_
_space_group_symop_operation_xyz
x,y,z
-x,-y,-z
loop_
_atom_site_type_symbol
_atom_site_label
_atom_site_fract_x
_atom_site_fract_y
_atom_site_fract_z
Si Si1 0.446839 0.782555 0.240029
Si Si2 0.896532 0.936380 0.866183
Si Si3 0.326957 0.751258 0.559502
Si Si4 0.822305 0.551126 0.839935
Si Si5 0.444417 0.651695 0.669461
Si Si6 0.107306 0.289421 0.965104
Si Si7 0.324242 0.184030 0.641226
Si Si8 0.820808 0.854650 0.696477
O O1 0.366360 0.577956 0.171922
O O2 0.651108 0.820709 0.159382
O O3 0.531407 0.753519 0.299890
O O4 0.233852 0.999349 0.323383
O O5 0.171439 0.777670 0.774050
O O6 0.758159 0.776923 0.874525
O O7 0.817905 0.986940 0.811557
O O8 0.925796 0.148965 0.961761
O O9 0.473396 0.702496 0.592740
O O10 0.484779 0.608638 0.421913
O O11 0.087021 0.686312 0.591932
O O12 0.223254 0.007444 0.649126
O O13 0.084881 0.375979 0.720074
O O14 0.837911 0.632807 0.943478
O O15 0.628852 0.729258 0.703573
O O16 0.000000 0.500000 0.000000
O O17 0.500000 0.000000 0.500000
#
# Coordination Sequence:
#
# PCOD9100149 Si02
#       8
#     2   2   2   2   2   2   2   2
#     4  12  24  48  74 104 134 189 239 283 344 420
#     4  11  25  43  67 107 141 174 225 290 355 405
#     4  10  20  37  62  98 129 186 236 279 329 408
#     4  12  27  46  71 107 144 179 231 292 351 410
#     4  10  20  38  66  93 138 179 231 282 336 399
#     4  12  24  50  79  97 136 188 237 288 343 420
#     4  12  25  44  68  97 148 188 228 283 354 411
#     4  11  20  41  71  97 139 180 237 283 334 422
#
# _framework density 24.141209
#
# number of rings (size 3 to 8) (size 9 to 14) (size 15 to 20)
#    0.000    0.750    5.000    3.375    0.000    2.500 
#    2.250    1.250    0.000    0.000    0.000    0.000 
#    0.000    0.000    0.000    0.000    0.000    0.000 
#
# Total GULP energy -89286.861777 kJ/mol
# GULP energy per Si atom -5580.428861 kJ/mol
# Density = 2.408626 g / cm^3
# Si number density = 24.141209 Si / 1000 Ang^3
#
#
#
# Elastic Constant Matrix: (Units=GPa)
#
#
# Indices 1 2 3 4 5 6 
#
# 1 76.6808 -4.2595 5.8355 11.5379 18.4008 2.1420
# 2 -4.2595 81.9507 3.0584 27.7245 11.9883 2.9357
# 3 5.8355 3.0584 68.3744 6.9272 16.5530 1.5827
# 4 11.5379 27.7245 6.9272 44.8853 3.2630 5.1514
# 5 18.4008 11.9883 16.5530 3.2630 39.4612 14.3323
# 6 2.1420 2.9357 1.5827 5.1514 14.3323 33.2354
#
#
#
# Elastic Compliance Matrix: (Units=1/GPa)
#
#
# Indices 1 2 3 4 5 6 
#
# 1 0.016728 0.004650 0.001609 -0.007116 -0.010828 0.004207
# 2 0.004650 0.017640 0.002079 -0.012202 -0.008735 0.003701
# 3 0.001609 0.002079 0.017023 -0.004051 -0.009506 0.003629
# 4 -0.007116 -0.012202 -0.004051 0.032450 0.008584 -0.007002
# 5 -0.010828 -0.008735 -0.009506 0.008584 0.042812 -0.017871
# 6 0.004207 0.003701 0.003629 -0.007002 -0.017871 0.038109
#
#
# Mechanical properties :
#
#
# Convention : Reuss Voigt Hill
#
# Bulk Modulus (GPa) = 14.69114 26.25274 20.47194
# Shear Modulus (GPa) = 29.27848 38.34114 33.80981
#
# Velocity S-wave (km/s) = 3.48631 3.98955 3.74639
# Velocity P-wave (km/s) = 4.72276 5.66748 5.21655
#
# Compressibility (1/GPa) = 0.06806822
#
# Stress axis : x y z
#
# Youngs Moduli (GPa) = 59.77823 56.69038 58.74523
#
# Poissons Ratio (x) = -0.26362 -0.09453
# Poissons Ratio (y) = -0.27798 -0.12215
# Poissons Ratio (z) = -0.09620 -0.11787
#
# Static dielectric constant tensor:
#      x y z
#    x 1.925010 -0.024680 0.061020 
#    y -0.024680 2.140490 0.081550 
#    z 0.061020 0.081550 1.680130 
# 
# From -- ./inp_files/371389.got.cif
#   From: 2010.05.17/outbox.cif.g08.bks.cpg/sg2_186_cif.got.tgz:371389.got - 2010.06.03 11:33:40.
