data_PCOD9100963
_publ_section_title
;
Structure prediction by ZEFSAII (Michael W. Deem and Ramdas Pophale) SiO2 
 PCOD9100963
Probable space group: P -1
;
_chemical_formula_sum "Si O2"
_cell_formula_units_Z 16
_cell_length_a 9.272813
_cell_length_b 14.433164
_cell_length_c 14.913531
_cell_angle_alpha 151.280460
_cell_angle_beta 67.639782
_cell_angle_gamma 92.697260
_cell_volume 677.930122
_symmetry_space_group_name_H-M "P -1"
_symmetry_group_IT_number 2
_symmetry_cell_setting 'triclinic'
loop_
_space_group_symop_operation_xyz
x,y,z
-x,-y,-z
loop_
_atom_site_type_symbol
_atom_site_label
_atom_site_fract_x
_atom_site_fract_y
_atom_site_fract_z
Si Si1 0.821744 0.791031 0.317435
Si Si2 0.902700 0.951211 0.760807
Si Si3 0.866119 0.302159 0.333961
Si Si4 0.462757 0.158803 0.056017
Si Si5 0.653042 0.092521 0.240025
Si Si6 0.363026 0.047798 0.684488
Si Si7 0.821488 0.440768 0.262250
Si Si8 0.940022 0.384257 0.722608
O O1 0.742867 0.948611 0.377452
O O2 0.935482 0.807534 0.386150
O O3 0.608445 0.864865 0.463308
O O4 0.000000 0.500000 0.000000
O O5 0.968537 0.811525 0.723043
O O6 0.057694 0.759809 0.484736
O O7 0.680399 0.045445 0.869190
O O8 0.875725 0.199449 0.994689
O O9 0.665341 0.557566 0.642060
O O10 0.799719 0.131987 0.194261
O O11 0.892700 0.376860 0.294587
O O12 0.500000 0.000000 0.000000
O O13 0.338832 0.125944 0.989000
O O14 0.421302 0.343974 0.493989
O O15 0.690358 0.037914 0.289966
O O16 0.271541 0.338963 0.966728
O O17 0.923134 0.539970 0.274129
#
# Coordination Sequence:
#
# PCOD9100963 Si02
#       8
#     2   2   2   2   2   2   2   2
#     4   9  19  38  68 100 122 157 207 260 320 388
#     4  12  25  39  62  92 126 172 220 263 314 377
#     4  12  26  42  61  92 132 175 222 266 311 373
#     4  12  23  40  62  87 126 172 220 269 317 365
#     4  12  22  42  65  90 132 173 213 266 320 373
#     4  10  20  37  67  96 123 164 209 255 323 385
#     4  12  23  41  63  90 132 175 216 263 316 369
#     4  11  22  41  64  95 129 164 211 265 319 376
#
# _framework density 23.601251999999999
#
# number of rings (size 3 to 8) (size 9 to 14) (size 15 to 20)
#    0.000    0.750    5.000    3.000    0.000    3.000 
#    0.000    0.000    0.000   14.250    0.000    0.000 
#    0.000    0.000    0.000    0.000    0.000    0.000 
#
# Total GULP energy -89557.910231 kJ/mol
# GULP energy per Si atom -5597.369389 kJ/mol
# Density = 2.354753 g / cm^3
# Si number density = 23.601252 Si / 1000 Ang^3
#
#
#
# Elastic Constant Matrix: (Units=GPa)
#
#
# Indices 1 2 3 4 5 6 
#
# 1 90.6644 26.7371 29.9954 -4.1838 -7.4651 -11.4387
# 2 26.7371 93.1867 1.9912 -10.6236 9.9984 -32.5807
# 3 29.9954 1.9912 110.3852 -3.0342 -4.9247 -11.3814
# 4 -4.1838 -10.6236 -3.0342 34.5154 -7.1346 -3.5176
# 5 -7.4651 9.9984 -4.9247 -7.1346 45.8162 -4.1922
# 6 -11.4387 -32.5807 -11.3814 -3.5176 -4.1922 40.9095
#
#
#
# Elastic Compliance Matrix: (Units=1/GPa)
#
#
# Indices 1 2 3 4 5 6 
#
# 1 0.013650 -0.004094 -0.003497 0.000667 0.002839 -0.000069
# 2 -0.004094 0.017611 0.002298 0.006113 -0.002045 0.013836
# 3 -0.003497 0.002298 0.010458 0.001751 0.000690 0.003983
# 4 0.000667 0.006113 0.001751 0.033011 0.004916 0.008885
# 5 0.002839 -0.002045 0.000690 0.004916 0.023778 0.002216
# 6 -0.000069 0.013836 0.003983 0.008885 0.002216 0.037543
#
#
# Mechanical properties :
#
#
# Convention : Reuss Voigt Hill
#
# Bulk Modulus (GPa) = 32.12211 45.74264 38.93237
# Shear Modulus (GPa) = 31.84422 39.94907 35.89664
#
# Velocity S-wave (km/s) = 3.67721 4.11867 3.90418
# Velocity P-wave (km/s) = 5.62753 6.48394 6.07085
#
# Compressibility (1/GPa) = 0.03113120
#
# Stress axis : x y z
#
# Youngs Moduli (GPa) = 73.25960 56.78391 95.62336
#
# Poissons Ratio (x) = 0.23250 0.33444
# Poissons Ratio (y) = 0.29996 -0.21977
# Poissons Ratio (z) = 0.25622 -0.13051
#
# Static dielectric constant tensor:
#      x y z
#    x 1.889140 -0.031740 0.004520 
#    y -0.031740 1.880800 -0.013610 
#    z 0.004520 -0.013610 1.950730 
# 
# From -- ./inp_files/505747.got.cif
#   From: 2010.05.17/outbox.cif.g08.bks.cpg/sg2_253_cif.got.tgz:505747.got - 2010.06.03 11:33:40.
