data_PCOD9100729
_publ_section_title
;
Structure prediction by ZEFSAII (Michael W. Deem and Ramdas Pophale) SiO2 
 PCOD9100729
Probable space group: P -1
;
_chemical_formula_sum "Si O2"
_cell_formula_units_Z 13
_cell_length_a 7.002480
_cell_length_b 5.502307
_cell_length_c 16.540064
_cell_angle_alpha 62.681793
_cell_angle_beta 124.484761
_cell_angle_gamma 99.457295
_cell_volume 462.725937
_symmetry_space_group_name_H-M "P -1"
_symmetry_group_IT_number 2
_symmetry_cell_setting 'triclinic'
loop_
_space_group_symop_operation_xyz
x,y,z
-x,-y,-z
loop_
_atom_site_type_symbol
_atom_site_label
_atom_site_fract_x
_atom_site_fract_y
_atom_site_fract_z
Si Si1 0.477143 0.595792 0.386522
Si Si2 0.867243 0.705400 0.342500
Si Si3 0.210955 0.305418 0.924852
Si Si4 0.383350 0.244633 0.263392
Si Si5 0.066432 0.830517 0.622422
Si Si6 0.000000 0.500000 0.000000
Si Si7 0.720168 0.103865 0.124575
O O1 0.500000 0.500000 0.500000
O O2 0.736254 0.604639 0.404480
O O3 0.371759 0.397089 0.325499
O O4 0.365243 0.917361 0.311113
O O5 0.007812 0.467690 0.360167
O O6 0.017157 0.945206 0.365540
O O7 0.672398 0.876550 0.212406
O O8 0.171367 0.637563 0.850585
O O9 0.130557 0.079200 0.879845
O O10 0.492525 0.240085 0.002562
O O11 0.131330 0.281362 0.000363
O O12 0.652271 0.243495 0.298048
O O13 0.209885 0.411311 0.132700
O O14 0.000000 0.000000 0.500000
#
# Coordination Sequence:
#
# PCOD9100729 Si02
#       7
#     2   2   2   2   2   1   2
#     4  10  21  42  67  97 136 182 232 288 348 414
#     4  10  20  37  65  93 126 167 223 287 345 402
#     4  10  23  39  66  94 136 179 230 279 334 417
#     4  10  24  41  67  98 138 180 226 288 352 424
#     4  10  20  38  62  92 123 171 226 279 338 399
#     4  12  26  48  72 108 146 190 234 292 368 426
#     4  10  21  42  63  96 132 180 229 279 338 411
#
# _framework density 28.094386
#
# number of rings (size 3 to 8) (size 9 to 14) (size 15 to 20)
#    0.000    1.846    0.000    3.692    0.000    9.846 
#    0.000   18.462    0.000    0.000    0.000    0.000 
#    0.000    0.000    0.000    0.000    0.000    0.000 
#
# Total GULP energy -72440.394349 kJ/mol
# GULP energy per Si atom -5572.338027 kJ/mol
# Density = 2.803044 g / cm^3
# Si number density = 28.094386 Si / 1000 Ang^3
#
#
#
# Elastic Constant Matrix: (Units=GPa)
#
#
# Indices 1 2 3 4 5 6 
#
# 1 99.5361 45.8055 40.7098 13.7740 -7.2117 -17.4238
# 2 45.8055 339.3832 64.8116 18.0329 -5.4558 -29.8187
# 3 40.7098 64.8116 143.9012 16.9897 6.1378 1.3352
# 4 13.7740 18.0329 16.9897 38.8050 -7.2267 -14.9145
# 5 -7.2117 -5.4558 6.1378 -7.2267 43.5263 15.6422
# 6 -17.4238 -29.8187 1.3352 -14.9145 15.6422 39.0983
#
#
#
# Elastic Compliance Matrix: (Units=1/GPa)
#
#
# Indices 1 2 3 4 5 6 
#
# 1 0.012656 -0.000614 -0.003275 -0.000845 0.000652 0.004700
# 2 -0.000614 0.003526 -0.001442 0.000171 -0.000394 0.002687
# 3 -0.003275 -0.001442 0.009069 -0.003845 -0.001264 -0.003830
# 4 -0.000845 0.000171 -0.003845 0.032439 0.001640 0.011603
# 5 0.000652 -0.000394 -0.001264 0.001640 0.027151 -0.010203
# 6 0.004700 0.002687 -0.003830 0.011603 -0.010203 0.038359
#
#
# Mechanical properties :
#
#
# Convention : Reuss Voigt Hill
#
# Bulk Modulus (GPa) = 68.55781 98.38601 83.47191
# Shear Modulus (GPa) = 36.04241 53.05216 44.54728
#
# Velocity S-wave (km/s) = 3.58565 4.35023 3.98632
# Velocity P-wave (km/s) = 6.44966 7.76715 7.13886
#
# Compressibility (1/GPa) = 0.01458623
#
# Stress axis : x y z
#
# Youngs Moduli (GPa) = 79.01497 283.64281 110.26688
#
# Poissons Ratio (x) = 0.17424 0.36117
# Poissons Ratio (y) = 0.04854 0.15905
# Poissons Ratio (z) = 0.25880 0.40912
#
# Static dielectric constant tensor:
#      x y z
#    x 2.227970 0.020550 0.010150 
#    y 0.020550 2.284350 0.044310 
#    z 0.010150 0.044310 2.139910 
# 
# From -- ./inp_files/487641.got.cif
#   From: 2010.05.17/outbox.cif.g08.bks.cpg/sg2_244_cif.got.tgz:487641.got - 2010.06.03 11:33:40.
