data_PCOD9100240
_publ_section_title
;
Structure prediction by ZEFSAII (Michael W. Deem and Ramdas Pophale) SiO2 
 PCOD9100240
Probable space group: P -1
;
_chemical_formula_sum "Si O2"
_cell_formula_units_Z 16
_cell_length_a 8.852606
_cell_length_b 8.371939
_cell_length_c 24.791103
_cell_angle_alpha 65.183352
_cell_angle_beta 151.077179
_cell_angle_gamma 106.270165
_cell_volume 790.471441
_symmetry_space_group_name_H-M "P -1"
_symmetry_group_IT_number 2
_symmetry_cell_setting 'triclinic'
loop_
_space_group_symop_operation_xyz
x,y,z
-x,-y,-z
loop_
_atom_site_type_symbol
_atom_site_label
_atom_site_fract_x
_atom_site_fract_y
_atom_site_fract_z
Si Si1 0.407925 0.569104 0.838621
Si Si2 0.292691 0.048096 0.618381
Si Si3 0.222096 0.408996 0.950874
Si Si4 0.827422 0.333574 0.467924
Si Si5 0.400218 0.341108 0.231374
Si Si6 0.674407 0.246211 0.631315
Si Si7 0.718917 0.806967 0.106181
Si Si8 0.663968 0.661560 0.592503
O O1 0.537128 0.573441 0.818028
O O2 0.425720 0.359695 0.891087
O O3 0.035981 0.669632 0.711351
O O4 0.615778 0.663253 0.931554
O O5 0.438775 0.186199 0.608881
O O6 0.103809 0.160296 0.591783
O O7 0.559242 0.872207 0.736619
O O8 0.000000 0.000000 0.500000
O O9 0.146265 0.276762 0.898484
O O10 0.917575 0.556998 0.852903
O O11 0.500000 0.500000 0.000000
O O12 0.681995 0.347580 0.360544
O O13 0.533121 0.321780 0.416425
O O14 0.000000 0.500000 0.500000
O O15 0.676231 0.455942 0.607909
O O16 0.538900 0.215837 0.534276
O O17 0.022283 0.157849 0.773970
O O18 0.500000 0.000000 0.000000
#
# Coordination Sequence:
#
# PCOD9100240 Si02
#       8
#     2   2   2   2   2   2   2   2
#     4  10  22  42  67  91 126 169 211 259 315 373
#     4  10  22  37  57  89 126 170 202 257 314 366
#     4  10  22  42  65  91 119 170 214 251 313 375
#     4  11  21  36  60  93 130 166 207 261 317 379
#     4  11  23  41  62  91 129 167 215 255 313 379
#     4  10  20  37  63  89 126 162 204 259 317 366
#     4  10  23  42  66  94 122 164 211 263 319 375
#     4  10  20  38  64  95 122 164 211 256 316 376
#
# _framework density 20.241087
#
# number of rings (size 3 to 8) (size 9 to 14) (size 15 to 20)
#    0.000    1.750    1.250    4.125    7.000    0.000 
#    2.250    3.750    0.000    0.000    0.000    0.000 
#    0.000    0.000    0.000    0.000    0.000    0.000 
#
# Total GULP energy -89084.664909 kJ/mol
# GULP energy per Si atom -5567.791557 kJ/mol
# Density = 2.019502 g / cm^3
# Si number density = 20.241087 Si / 1000 Ang^3
#
#
#
# Elastic Constant Matrix: (Units=GPa)
#
#
# Indices 1 2 3 4 5 6 
#
# 1 106.7666 10.6521 48.5817 -22.0179 5.3328 -14.3741
# 2 10.6521 11.9371 49.2896 -3.7619 20.8850 -19.9831
# 3 48.5817 49.2896 127.7147 -20.6178 -7.6118 -4.7829
# 4 -22.0179 -3.7619 -20.6178 21.5462 -7.7871 9.8773
# 5 5.3328 20.8850 -7.6118 -7.7871 33.8359 2.9961
# 6 -14.3741 -19.9831 -4.7829 9.8773 2.9961 19.3292
#
#
#
# Elastic Compliance Matrix: (Units=1/GPa)
#
#
# Indices 1 2 3 4 5 6 
#
# 1 0.012769 -0.002638 -0.001902 0.011288 0.001763 0.000256
# 2 -0.002638 -0.010958 0.008570 0.020371 0.015925 -0.024048
# 3 -0.001902 0.008570 0.004880 -0.002770 -0.005496 0.010920
# 4 0.011288 0.020371 -0.002770 0.058886 -0.001325 -0.001117
# 5 0.001763 0.015925 -0.005496 -0.001325 0.016620 0.014515
# 6 0.000256 -0.024048 0.010920 -0.001117 0.014515 0.028087
#
#
# Mechanical properties :
#
#
# Convention : Reuss Voigt Hill
#
# Bulk Modulus (GPa) = 67.79505 51.49614 59.64559
# Shear Modulus (GPa) = 46.66629 24.13526 35.40077
#
# Velocity S-wave (km/s) = 4.80680 3.45685 4.18659
# Velocity P-wave (km/s) = 8.02331 6.43659 7.27335
#
# Compressibility (1/GPa) = 0.01475034
#
# Stress axis : x y z
#
# Youngs Moduli (GPa) = 78.31315 -91.25945 204.90098
#
# Poissons Ratio (x) = -0.24076 0.38977
# Poissons Ratio (y) = 0.20661 -1.75594
# Poissons Ratio (z) = 0.14897 0.78206
#
# Static dielectric constant tensor:
#      x y z
#    x 1.757230 -0.025250 -0.006640 
#    y -0.025250 1.830460 -0.009530 
#    z -0.006640 -0.009530 1.785860 
# 
# From -- ./inp_files/204442.got.cif
#   From: 2010.05.17/outbox.cif.g08.bks.cpg/sg2_103_cif.got.tgz:204442.got - 2010.06.03 11:33:40.
