data_PCOD9100942
_publ_section_title
;
Structure prediction by ZEFSAII (Michael W. Deem and Ramdas Pophale) SiO2 
 PCOD9100942
Probable space group: P -1
;
_chemical_formula_sum "Si O2"
_cell_formula_units_Z 16
_cell_length_a 7.234730
_cell_length_b 17.360410
_cell_length_c 20.891426
_cell_angle_alpha 152.794176
_cell_angle_beta 139.294794
_cell_angle_gamma 56.777330
_cell_volume 708.680990
_symmetry_space_group_name_H-M "P -1"
_symmetry_group_IT_number 2
_symmetry_cell_setting 'triclinic'
loop_
_space_group_symop_operation_xyz
x,y,z
-x,-y,-z
loop_
_atom_site_type_symbol
_atom_site_label
_atom_site_fract_x
_atom_site_fract_y
_atom_site_fract_z
Si Si1 0.608443 0.123400 0.814120
Si Si2 0.690012 0.195370 0.158762
Si Si3 0.693096 0.012548 0.898910
Si Si4 0.256860 0.587495 0.489757
Si Si5 0.740447 0.567515 0.439178
Si Si6 0.715474 0.632700 0.096181
Si Si7 0.670746 0.250480 0.593861
Si Si8 0.109855 0.487272 0.787641
O O1 0.302185 0.167782 0.762388
O O2 0.680277 0.065009 0.860187
O O3 0.560411 0.966568 0.633398
O O4 0.862024 0.337187 0.030936
O O5 0.574387 0.355424 0.263847
O O6 0.053200 0.279207 0.340732
O O7 0.500000 0.000000 0.000000
O O8 0.646399 0.152708 0.040400
O O9 0.427570 0.807314 0.687346
O O10 0.000000 0.000000 0.000000
O O11 0.500000 0.500000 0.500000
O O12 0.005608 0.555113 0.454576
O O13 0.071625 0.503213 0.314690
O O14 0.528234 0.636856 0.393711
O O15 0.076130 0.673053 0.226251
O O16 0.500000 0.500000 0.000000
O O17 0.469380 0.526099 0.896299
O O18 0.911116 0.295924 0.630002
#
# Coordination Sequence:
#
# PCOD9100942 Si02
#       8
#     2   2   2   2   2   2   2   2
#     4  10  20  37  67  91 126 161 209 251 309 372
#     4  11  24  44  58  86 132 163 204 252 318 375
#     4  12  23  39  64  91 120 168 211 250 308 378
#     4  12  24  42  61  87 130 166 207 257 309 382
#     4  11  26  39  63  92 124 164 206 265 315 366
#     4   8  19  39  62  95 124 162 204 263 309 364
#     4  11  20  39  63  96 121 157 210 260 312 359
#     4   9  21  37  63  90 120 160 210 245 307 364
#
# _framework density 22.577152999999999
#
# number of rings (size 3 to 8) (size 9 to 14) (size 15 to 20)
#    0.750    0.750    2.500    3.375    3.500    2.000 
#    0.000    0.625    0.000    0.750    0.000    0.000 
#    0.000    0.000    0.000    0.000    0.000    0.000 
#
# Total GULP energy -89101.832859 kJ/mol
# GULP energy per Si atom -5568.864554 kJ/mol
# Density = 2.252577 g / cm^3
# Si number density = 22.577153 Si / 1000 Ang^3
#
#
#
# Elastic Constant Matrix: (Units=GPa)
#
#
# Indices 1 2 3 4 5 6 
#
# 1 20.5348 -0.0073 8.8972 -1.5546 0.2974 -5.6812
# 2 -0.0073 152.6270 45.1995 -20.1691 -0.4195 -13.3358
# 3 8.8972 45.1995 134.4439 -3.3510 -3.9600 -6.3014
# 4 -1.5546 -20.1691 -3.3510 53.1384 8.3749 5.9627
# 5 0.2974 -0.4195 -3.9600 8.3749 17.6862 5.9449
# 6 -5.6812 -13.3358 -6.3014 5.9627 5.9449 22.5957
#
#
#
# Elastic Compliance Matrix: (Units=1/GPa)
#
#
# Indices 1 2 3 4 5 6 
#
# 1 0.055142 0.002828 -0.004039 0.001903 -0.008052 0.016023
# 2 0.002828 0.008182 -0.002737 0.003024 -0.003549 0.004912
# 3 -0.004039 -0.002737 0.008648 -0.000949 0.002609 -0.000655
# 4 0.001903 0.003024 -0.000949 0.021670 -0.010075 -0.001070
# 5 -0.008052 -0.003549 0.002609 -0.010075 0.068227 -0.018684
# 6 0.016023 0.004912 -0.000655 -0.001070 -0.018684 0.056200
#
#
# Mechanical properties :
#
#
# Convention : Reuss Voigt Hill
#
# Bulk Modulus (GPa) = 15.60618 46.19826 30.90222
# Shear Modulus (GPa) = 20.21651 35.58514 27.90083
#
# Velocity S-wave (km/s) = 2.99564 3.97439 3.51921
# Velocity P-wave (km/s) = 4.34655 6.44731 5.49820
#
# Compressibility (1/GPa) = 0.06407717
#
# Stress axis : x y z
#
# Youngs Moduli (GPa) = 18.13487 122.22627 115.63530
#
# Poissons Ratio (x) = -0.34566 0.46702
# Poissons Ratio (y) = -0.05129 0.31646
# Poissons Ratio (z) = 0.07324 0.33450
#
# Static dielectric constant tensor:
#      x y z
#    x 1.932370 0.020950 -0.008400 
#    y 0.020950 1.937300 -0.031960 
#    z -0.008400 -0.031960 1.921110 
# 
# From -- ./inp_files/617558.got.cif
#   From: 2010.05.17/outbox.cif.g08.bks.cpg/sg2_309_cif.got.tgz:617558.got - 2010.06.03 11:33:40.
