data_PCOD9100340
_publ_section_title
;
Structure prediction by ZEFSAII (Michael W. Deem and Ramdas Pophale) SiO2 
 PCOD9100340
Probable space group: P -1
;
_chemical_formula_sum "Si O2"
_cell_formula_units_Z 14
_cell_length_a 7.696072
_cell_length_b 22.599777
_cell_length_c 9.754870
_cell_angle_alpha 145.646179
_cell_angle_beta 74.914916
_cell_angle_gamma 129.174868
_cell_volume 595.329221
_symmetry_space_group_name_H-M "P -1"
_symmetry_group_IT_number 2
_symmetry_cell_setting 'triclinic'
loop_
_space_group_symop_operation_xyz
x,y,z
-x,-y,-z
loop_
_atom_site_type_symbol
_atom_site_label
_atom_site_fract_x
_atom_site_fract_y
_atom_site_fract_z
Si Si1 0.016189 0.065039 0.268707
Si Si2 0.344057 0.949000 0.094393
Si Si3 0.967250 0.239180 0.442743
Si Si4 0.392397 0.552897 0.797764
Si Si5 0.811916 0.557806 0.684434
Si Si6 0.393436 0.761325 0.864712
Si Si7 0.276897 0.104479 0.558015
O O1 0.060028 0.205139 0.481313
O O2 0.720375 0.918482 0.128372
O O3 0.239763 0.124844 0.446000
O O4 0.000000 0.000000 0.000000
O O5 0.644609 0.122997 0.314678
O O6 0.310476 0.994890 0.330834
O O7 0.079500 0.847650 0.855717
O O8 0.366217 0.834468 0.889581
O O9 0.175838 0.423763 0.713206
O O10 0.661145 0.595294 0.840228
O O11 0.257086 0.472346 0.522379
O O12 0.484196 0.714030 0.087720
O O13 0.670672 0.387819 0.443793
O O14 0.144784 0.688470 0.877662
O O15 0.000000 0.000000 0.500000
#
# Coordination Sequence:
#
# PCOD9100340 Si02
#       7
#     2   2   2   2   2   2   2
#     4  11  22  40  66  92 125 173 220 259 313 390
#     4  10  21  41  65  95 126 165 217 263 320 381
#     4  10  21  40  67  90 122 175 219 259 310 389
#     4  11  23  40  64  94 132 168 214 266 323 381
#     4  10  21  38  63  93 130 174 211 259 323 391
#     4  10  20  37  63  94 120 170 223 259 307 385
#     4  12  26  41  64 100 135 167 209 272 326 375
#
# _framework density 23.516399
#
# number of rings (size 3 to 8) (size 9 to 14) (size 15 to 20)
#    0.000    1.429    2.857    2.571    2.000    1.143 
#    0.000   15.714    0.000    0.000    0.000    0.000 
#    0.000    0.000    0.000    0.000    0.000    0.000 
#
# Total GULP energy -78115.110935 kJ/mol
# GULP energy per Si atom -5579.650781 kJ/mol
# Density = 2.346287 g / cm^3
# Si number density = 23.516399 Si / 1000 Ang^3
#
#
#
# Elastic Constant Matrix: (Units=GPa)
#
#
# Indices 1 2 3 4 5 6 
#
# 1 79.8200 14.3152 10.3383 2.1666 -2.7373 -14.1384
# 2 14.3152 84.0986 27.1821 28.1480 -2.9099 -6.7898
# 3 10.3383 27.1821 41.3564 18.6190 -2.8219 2.0162
# 4 2.1666 28.1480 18.6190 40.1239 -2.5842 0.3524
# 5 -2.7373 -2.9099 -2.8219 -2.5842 29.5704 7.0624
# 6 -14.1384 -6.7898 2.0162 0.3524 7.0624 30.9985
#
#
#
# Elastic Compliance Matrix: (Units=1/GPa)
#
#
# Indices 1 2 3 4 5 6 
#
# 1 0.014376 -0.001273 -0.003958 0.001856 -0.000598 0.006651
# 2 -0.001273 0.017907 -0.007643 -0.009039 -0.000863 0.004138
# 3 -0.003958 -0.007643 0.035492 -0.010656 0.002846 -0.006315
# 4 0.001856 -0.009039 -0.010656 0.036231 0.001729 -0.001246
# 5 -0.000598 -0.000863 0.002846 0.001729 0.036231 -0.008921
# 6 0.006651 0.004138 -0.006315 -0.001246 -0.008921 0.038657
#
#
# Mechanical properties :
#
#
# Convention : Reuss Voigt Hill
#
# Bulk Modulus (GPa) = 23.79355 34.32738 29.06047
# Shear Modulus (GPa) = 22.86751 30.36787 26.61769
#
# Velocity S-wave (km/s) = 3.12173 3.59743 3.36799
# Velocity P-wave (km/s) = 4.80972 5.64661 5.24489
#
# Compressibility (1/GPa) = 0.04202820
#
# Stress axis : x y z
#
# Youngs Moduli (GPa) = 69.55911 55.84264 28.17529
#
# Poissons Ratio (x) = 0.07108 0.11152
# Poissons Ratio (y) = 0.08854 0.21534
# Poissons Ratio (z) = 0.27531 0.42680
#
# Static dielectric constant tensor:
#      x y z
#    x 1.962690 -0.004520 -0.009960 
#    y -0.004520 1.966520 -0.050530 
#    z -0.009960 -0.050530 1.927530 
# 
# From -- ./inp_files/190145.got.cif
#   From: 2010.05.17/outbox.cif.g08.bks.cpg/sg2_96_cif.got.tgz:190145.got - 2010.06.03 11:33:40.
