data_PCOD9100453
_publ_section_title
;
Structure prediction by ZEFSAII (Michael W. Deem and Ramdas Pophale) SiO2 
 PCOD9100453
Probable space group: P -1
;
_chemical_formula_sum "Si O2"
_cell_formula_units_Z 16
_cell_length_a 13.203891
_cell_length_b 11.198765
_cell_length_c 8.502411
_cell_angle_alpha 111.065128
_cell_angle_beta 132.763185
_cell_angle_gamma 102.723679
_cell_volume 633.375248
_symmetry_space_group_name_H-M "P -1"
_symmetry_group_IT_number 2
_symmetry_cell_setting 'triclinic'
loop_
_space_group_symop_operation_xyz
x,y,z
-x,-y,-z
loop_
_atom_site_type_symbol
_atom_site_label
_atom_site_fract_x
_atom_site_fract_y
_atom_site_fract_z
Si Si1 0.580563 0.410271 0.564532
Si Si2 0.853711 0.324314 0.057051
Si Si3 0.504586 0.863315 0.247170
Si Si4 0.330152 0.490093 0.798059
Si Si5 0.737369 0.873778 0.713183
Si Si6 0.893396 0.701332 0.848442
Si Si7 0.018994 0.688925 0.467740
Si Si8 0.633953 0.963041 0.939313
O O1 0.500000 0.500000 0.500000
O O2 0.474721 0.313805 0.569673
O O3 0.795834 0.575867 0.836575
O O4 0.499924 0.246502 0.287197
O O5 0.957611 0.523927 0.231052
O O6 0.923944 0.265030 0.980985
O O7 0.909694 0.321568 0.292845
O O8 0.629263 0.191075 0.767143
O O9 0.700392 0.920277 0.531114
O O10 0.490103 0.987168 0.195236
O O11 0.393796 0.677611 0.959485
O O12 0.235817 0.410326 0.492345
O O13 0.174003 0.364416 0.708706
O O14 0.500000 0.500000 0.000000
O O15 0.879541 0.847741 0.893385
O O16 0.749599 0.987439 0.916615
O O17 0.194134 0.887376 0.693632
#
# Coordination Sequence:
#
# PCOD9100453 Si02
#       8
#     2   2   2   2   2   2   2   2
#     4   8  18  31  48  68  94 136 167 187 229 285
#     4   8  16  27  49  68  98 125 152 201 236 291
#     4  10  17  32  48  78  97 122 155 198 260 273
#     4  10  18  29  53  75  98 122 154 207 241 290
#     4   9  18  29  51  70  97 128 160 196 236 281
#     4  10  16  32  48  75  92 125 172 189 230 289
#     4   8  15  30  45  72  98 123 157 191 251 280
#     4   9  17  30  51  69  98 132 156 199 235 288
#
# _framework density 25.261488
#
# number of rings (size 3 to 8) (size 9 to 14) (size 15 to 20)
#    0.750    2.250    1.250    2.625    0.000    0.000 
#    0.000    8.750    0.000    0.750    3.250    0.000 
#    0.000    0.000    0.000    0.000    0.000    0.000 
#
# Total GULP energy -89071.719336 kJ/mol
# GULP energy per Si atom -5566.982458 kJ/mol
# Density = 2.520399 g / cm^3
# Si number density = 25.261488 Si / 1000 Ang^3
#
#
#
# Elastic Constant Matrix: (Units=GPa)
#
#
# Indices 1 2 3 4 5 6 
#
# 1 67.4721 41.7906 7.4049 -6.5796 13.4069 -28.2235
# 2 41.7906 161.8206 50.5606 19.3591 13.5474 -33.7133
# 3 7.4049 50.5606 52.7971 1.6884 9.2601 -14.8566
# 4 -6.5796 19.3591 1.6884 43.6312 -14.9931 7.6413
# 5 13.4069 13.5474 9.2601 -14.9931 27.3209 -9.2047
# 6 -28.2235 -33.7133 -14.8566 7.6413 -9.2047 33.8439
#
#
#
# Elastic Compliance Matrix: (Units=1/GPa)
#
#
# Indices 1 2 3 4 5 6 
#
# 1 0.025813 -0.004516 0.006989 0.000177 -0.006542 0.018277
# 2 -0.004516 0.012609 -0.008942 -0.008154 -0.003544 0.005746
# 3 0.006989 -0.008942 0.029941 0.000280 -0.006187 0.008317
# 4 0.000177 -0.008154 0.000280 0.035124 0.019617 -0.010447
# 5 -0.006542 -0.003544 -0.006187 0.019617 0.053940 -0.001461
# 6 0.018277 0.005746 0.008317 -0.010447 -0.001461 0.056126
#
#
# Mechanical properties :
#
#
# Convention : Reuss Voigt Hill
#
# Bulk Modulus (GPa) = 18.04267 53.51133 35.77700
# Shear Modulus (GPa) = 20.41100 33.11479 26.76289
#
# Velocity S-wave (km/s) = 2.84560 3.62454 3.25843
# Velocity P-wave (km/s) = 4.23727 6.22457 5.32446
#
# Compressibility (1/GPa) = 0.05542418
#
# Stress axis : x y z
#
# Youngs Moduli (GPa) = 38.73998 79.30643 33.39950
#
# Poissons Ratio (x) = 0.35812 -0.23342
# Poissons Ratio (y) = 0.17494 0.29867
# Poissons Ratio (z) = -0.27074 0.70919
#
# Static dielectric constant tensor:
#      x y z
#    x 2.094760 0.093740 0.067330 
#    y 0.093740 2.141010 0.045640 
#    z 0.067330 0.045640 2.056320 
# 
# From -- ./inp_files/437749.got.cif
#   From: 2010.05.17/outbox.cif.g08.bks.cpg/sg2_219_cif.got.tgz:437749.got - 2010.06.03 11:33:40.
