data_PCOD9100312
_publ_section_title
;
Structure prediction by ZEFSAII (Michael W. Deem and Ramdas Pophale) SiO2 
 PCOD9100312
Probable space group: P -1
;
_chemical_formula_sum "Si O2"
_cell_formula_units_Z 12
_cell_length_a 10.973691
_cell_length_b 7.244843
_cell_length_c 11.764277
_cell_angle_alpha 140.124229
_cell_angle_beta 67.091404
_cell_angle_gamma 124.021181
_cell_volume 495.580724
_symmetry_space_group_name_H-M "P -1"
_symmetry_group_IT_number 2
_symmetry_cell_setting 'triclinic'
loop_
_space_group_symop_operation_xyz
x,y,z
-x,-y,-z
loop_
_atom_site_type_symbol
_atom_site_label
_atom_site_fract_x
_atom_site_fract_y
_atom_site_fract_z
Si Si1 0.933535 0.421787 0.771168
Si Si2 0.447614 0.211368 0.724212
Si Si3 0.497163 0.435204 0.336235
Si Si4 0.634507 0.261844 0.897013
Si Si5 0.177819 0.268673 0.609754
Si Si6 0.125663 0.656257 0.622389
O O1 0.807712 0.457684 0.902253
O O2 0.049643 0.322395 0.745672
O O3 0.036784 0.709688 0.787035
O O4 0.851232 0.097003 0.569154
O O5 0.526056 0.319380 0.623694
O O6 0.548775 0.161690 0.759612
O O7 0.277207 0.945817 0.665227
O O8 0.437420 0.536028 0.921250
O O9 0.500000 0.500000 0.500000
O O10 0.667096 0.515041 0.290636
O O11 0.392374 0.063270 0.182219
O O12 0.173054 0.402249 0.547291
O O13 0.000000 0.500000 0.500000
#
# Coordination Sequence:
#
# PCOD9100312 Si02
#       6
#     2   2   2   2   2   2
#     4   9  19  37  63  85 124 164 200 263 312 367
#     4  11  26  41  65  92 135 171 204 266 317 379
#     4  12  23  41  67  93 127 169 217 264 316 371
#     4  11  23  45  62  96 131 168 214 252 323 390
#     4   9  19  38  60  92 126 157 208 270 305 369
#     4  10  20  37  63  92 126 163 211 264 315 366
#
# _framework density 24.214016999999998
#
# number of rings (size 3 to 8) (size 9 to 14) (size 15 to 20)
#    1.000    0.667    3.333    1.500    0.000    2.667 
#    0.000    0.833    0.000    0.000    0.000    0.000 
#    0.000    0.000    0.000    0.000    0.000    0.000 
#
# Total GULP energy -66939.247291 kJ/mol
# GULP energy per Si atom -5578.270608 kJ/mol
# Density = 2.415890 g / cm^3
# Si number density = 24.214017 Si / 1000 Ang^3
#
#
#
# Elastic Constant Matrix: (Units=GPa)
#
#
# Indices 1 2 3 4 5 6 
#
# 1 83.4312 28.6631 0.7936 -0.7620 11.7842 0.8288
# 2 28.6631 151.7675 15.7525 20.6629 2.6415 -10.6659
# 3 0.7936 15.7525 29.1317 5.1296 2.1406 -7.4931
# 4 -0.7620 20.6629 5.1296 32.2057 -0.2656 -5.3485
# 5 11.7842 2.6415 2.1406 -0.2656 33.4547 -2.7893
# 6 0.8288 -10.6659 -7.4931 -5.3485 -2.7893 54.2253
#
#
#
# Elastic Compliance Matrix: (Units=1/GPa)
#
#
# Indices 1 2 3 4 5 6 
#
# 1 0.013663 -0.002910 0.001038 0.001871 -0.004692 -0.000695
# 2 -0.002910 0.008162 -0.003368 -0.004638 0.000623 0.000759
# 3 0.001038 -0.003368 0.037905 -0.003184 -0.002206 0.004132
# 4 0.001871 -0.004638 -0.003184 0.034926 0.000362 0.002083
# 5 -0.004692 0.000623 -0.002206 0.000362 0.031769 0.001559
# 6 -0.000695 0.000759 0.004132 0.002083 0.001559 0.019458
#
#
# Mechanical properties :
#
#
# Convention : Reuss Voigt Hill
#
# Bulk Modulus (GPa) = 20.30458 39.41652 29.86055
# Shear Modulus (GPa) = 28.93854 38.58524 33.76189
#
# Velocity S-wave (km/s) = 3.46079 3.99621 3.73810
# Velocity P-wave (km/s) = 4.93692 6.13242 5.56686
#
# Compressibility (1/GPa) = 0.04924997
#
# Stress axis : x y z
#
# Youngs Moduli (GPa) = 73.19299 122.51678 26.38149
#
# Poissons Ratio (x) = 0.35652 -0.02738
# Poissons Ratio (y) = 0.21299 0.08886
# Poissons Ratio (z) = -0.07598 0.41265
#
# Static dielectric constant tensor:
#      x y z
#    x 1.944220 -0.020250 -0.017770 
#    y -0.020250 2.028150 -0.063610 
#    z -0.017770 -0.063610 1.983310 
# 
# From -- ./inp_files/512493.got.cif
#   From: 2010.05.17/outbox.cif.g08.bks.cpg/sg2_257_cif.got.tgz:512493.got - 2010.06.03 11:33:40.
