data_PCOD9100783
_publ_section_title
;
Structure prediction by ZEFSAII (Michael W. Deem and Ramdas Pophale) SiO2 
 PCOD9100783
Probable space group: P -1
;
_chemical_formula_sum "Si O2"
_cell_formula_units_Z 16
_cell_length_a 9.794902
_cell_length_b 10.794548
_cell_length_c 18.192095
_cell_angle_alpha 65.472627
_cell_angle_beta 153.705943
_cell_angle_gamma 107.723778
_cell_volume 764.140308
_symmetry_space_group_name_H-M "P -1"
_symmetry_group_IT_number 2
_symmetry_cell_setting 'triclinic'
loop_
_space_group_symop_operation_xyz
x,y,z
-x,-y,-z
loop_
_atom_site_type_symbol
_atom_site_label
_atom_site_fract_x
_atom_site_fract_y
_atom_site_fract_z
Si Si1 0.181601 0.046682 0.399913
Si Si2 0.086862 0.870582 0.899805
Si Si3 0.333937 0.277206 0.725768
Si Si4 0.096077 0.207875 0.004980
Si Si5 0.215766 0.523827 0.166613
Si Si6 0.723788 0.278637 0.515800
Si Si7 0.206911 0.849540 0.272403
Si Si8 0.720530 0.010858 0.304116
O O1 0.257836 0.882139 0.460373
O O2 0.865977 0.070605 0.287856
O O3 0.000000 0.000000 0.500000
O O4 0.110313 0.128191 0.269388
O O5 0.956807 0.823019 0.926652
O O6 0.429381 0.784366 0.079735
O O7 0.079739 0.032702 0.870145
O O8 0.507285 0.390009 0.742652
O O9 0.329591 0.143764 0.704010
O O10 0.996562 0.325801 0.586327
O O11 0.422762 0.115837 0.163402
O O12 0.026855 0.374196 0.924792
O O13 0.849453 0.169169 0.835841
O O14 0.400537 0.379936 0.320412
O O15 0.000000 0.500000 0.000000
O O16 0.787306 0.272572 0.635760
O O17 0.529126 0.907196 0.429093
#
# Coordination Sequence:
#
# PCOD9100783 Si02
#       8
#     2   2   2   2   2   2   2   2
#     4  10  24  38  70 101 135 170 215 272 336 392
#     4  10  20  37  65  98 130 168 211 264 335 390
#     4  10  23  40  69  94 133 171 222 267 329 388
#     4  11  25  41  67  97 133 169 220 275 334 379
#     4  11  27  42  66  90 131 185 229 261 314 406
#     4  10  23  42  63  94 135 177 220 261 325 397
#     4  11  22  38  70  99 134 164 216 286 332 382
#     4  11  24  39  68 105 139 160 212 286 343 377
#
# _framework density 20.938565000000001
#
# number of rings (size 3 to 8) (size 9 to 14) (size 15 to 20)
#    0.000    1.500    1.250    3.000   17.500    2.000 
#    0.000    0.000    0.000    1.500    0.000    0.000 
#    0.000    0.000    0.000    0.000    0.000    0.000 
#
# Total GULP energy -89239.102903 kJ/mol
# GULP energy per Si atom -5577.443931 kJ/mol
# Density = 2.089091 g / cm^3
# Si number density = 20.938565 Si / 1000 Ang^3
#
#
#
# Elastic Constant Matrix: (Units=GPa)
#
#
# Indices 1 2 3 4 5 6 
#
# 1 114.7793 34.7860 48.5270 -0.0596 0.8141 -6.5336
# 2 34.7860 90.4887 51.0949 1.9251 2.2747 -0.9899
# 3 48.5270 51.0949 150.7367 -13.2745 -3.5927 -20.0731
# 4 -0.0596 1.9251 -13.2745 42.6526 -4.3636 1.1842
# 5 0.8141 2.2747 -3.5927 -4.3636 31.5926 -2.0288
# 6 -6.5336 -0.9899 -20.0731 1.1842 -2.0288 22.4698
#
#
#
# Elastic Compliance Matrix: (Units=1/GPa)
#
#
# Indices 1 2 3 4 5 6 
#
# 1 0.010611 -0.002636 -0.002496 -0.000706 -0.000418 0.000739
# 2 -0.002636 0.015022 -0.005142 -0.002378 -0.002233 -0.004774
# 3 -0.002496 -0.005142 0.010718 0.003600 0.002708 0.008677
# 4 -0.000706 -0.002378 0.003600 0.025046 0.004184 0.001964
# 5 -0.000418 -0.002233 0.002708 0.004184 0.033029 0.004961
# 6 0.000739 -0.004774 0.008677 0.001964 0.004961 0.052605
#
#
# Mechanical properties :
#
#
# Convention : Reuss Voigt Hill
#
# Bulk Modulus (GPa) = 63.27994 69.42452 66.35223
# Shear Modulus (GPa) = 28.92730 34.11611 31.52171
#
# Velocity S-wave (km/s) = 3.72093 4.04089 3.88421
# Velocity P-wave (km/s) = 6.98196 7.41620 7.20235
#
# Compressibility (1/GPa) = 0.01580280
#
# Stress axis : x y z
#
# Youngs Moduli (GPa) = 94.23865 66.56736 93.30286
#
# Poissons Ratio (x) = 0.17548 0.23292
# Poissons Ratio (y) = 0.24842 0.47976
# Poissons Ratio (z) = 0.23526 0.34228
#
# Static dielectric constant tensor:
#      x y z
#    x 1.823530 0.023610 -0.000420 
#    y 0.023610 1.808200 0.019690 
#    z -0.000420 0.019690 1.776340 
# 
# From -- ./inp_files/500325.got.cif
#   From: 2010.05.17/outbox.cif.g08.bks.cpg/sg2_251_cif.got.tgz:500325.got - 2010.06.03 11:33:40.
