data_PCOD9100155
_publ_section_title
;
Structure prediction by ZEFSAII (Michael W. Deem and Ramdas Pophale) SiO2 
 PCOD9100155
Probable space group: P -1
;
_chemical_formula_sum "Si O2"
_cell_formula_units_Z 16
_cell_length_a 14.722235
_cell_length_b 15.858098
_cell_length_c 12.740425
_cell_angle_alpha 143.548335
_cell_angle_beta 122.269591
_cell_angle_gamma 30.447611
_cell_volume 759.518439
_symmetry_space_group_name_H-M "P -1"
_symmetry_group_IT_number 2
_symmetry_cell_setting 'triclinic'
loop_
_space_group_symop_operation_xyz
x,y,z
-x,-y,-z
loop_
_atom_site_type_symbol
_atom_site_label
_atom_site_fract_x
_atom_site_fract_y
_atom_site_fract_z
Si Si1 0.035588 0.635433 0.561888
Si Si2 0.458379 0.466828 0.833763
Si Si3 0.570665 0.294240 0.140978
Si Si4 0.197853 0.429677 0.860315
Si Si5 0.023452 0.810055 0.942398
Si Si6 0.874402 0.288344 0.698102
Si Si7 0.662526 0.898858 0.684905
Si Si8 0.123546 0.185549 0.579527
O O1 0.989915 0.793975 0.786583
O O2 0.265175 0.312428 0.408381
O O3 0.860312 0.710779 0.544491
O O4 0.993698 0.733283 0.517644
O O5 0.487915 0.538331 0.825490
O O6 0.216551 0.695824 0.928657
O O7 0.631834 0.144285 0.606081
O O8 0.500000 0.500000 0.000000
O O9 0.355256 0.502307 0.276683
O O10 0.633485 0.067212 0.910078
O O11 0.786338 0.115815 0.142057
O O12 0.113715 0.594299 0.865981
O O13 0.107379 0.374626 0.767485
O O14 0.451365 0.122155 0.712274
O O15 0.152855 0.593275 0.090769
O O16 0.003981 0.244172 0.658355
O O17 0.000000 0.000000 0.500000
#
# Coordination Sequence:
#
# PCOD9100155 Si02
#       8
#     2   2   2   2   2   2   2   2
#     4  10  20  37  62  99 134 169 209 274 339 396
#     4  12  23  38  66  98 135 175 215 267 338 403
#     4  10  21  40  60  91 126 175 216 268 321 384
#     4  11  23  42  68  98 128 176 226 276 326 390
#     4  11  23  40  66  99 137 165 217 275 339 397
#     4  11  24  48  68  89 132 184 230 271 320 390
#     4   9  18  36  62  90 134 165 210 267 336 387
#     4  12  24  40  69  99 133 175 225 269 327 394
#
# _framework density 21.06598
#
# number of rings (size 3 to 8) (size 9 to 14) (size 15 to 20)
#    0.000    1.250    1.250    7.500    0.000    1.500 
#    0.000    8.750    0.000    0.000    0.000    0.000 
#    0.000    0.000    0.000    0.000    0.000    0.000 
#
# Total GULP energy -89277.077586 kJ/mol
# GULP energy per Si atom -5579.817349 kJ/mol
# Density = 2.101803 g / cm^3
# Si number density = 21.065980 Si / 1000 Ang^3
#
#
#
# Elastic Constant Matrix: (Units=GPa)
#
#
# Indices 1 2 3 4 5 6 
#
# 1 105.6330 30.1609 27.7616 -1.7169 -1.5386 -11.0638
# 2 30.1609 102.9196 31.8759 6.7351 -9.3887 -9.4591
# 3 27.7616 31.8759 83.4415 11.5062 2.2892 -1.4675
# 4 -1.7169 6.7351 11.5062 33.9643 1.5916 3.0525
# 5 -1.5386 -9.3887 2.2892 1.5916 20.5921 8.7341
# 6 -11.0638 -9.4591 -1.4675 3.0525 8.7341 41.2594
#
#
#
# Elastic Compliance Matrix: (Units=1/GPa)
#
#
# Indices 1 2 3 4 5 6 
#
# 1 0.011201 -0.002345 -0.003018 0.001884 -0.001080 0.002448
# 2 -0.002345 0.012293 -0.003829 -0.001609 0.005557 0.000996
# 3 -0.003018 -0.003829 0.015139 -0.004357 -0.003260 -0.000136
# 4 0.001884 -0.001609 -0.004357 0.031592 -0.001704 -0.001995
# 5 -0.001080 0.005557 -0.003260 -0.001704 0.056127 -0.010887
# 6 0.002448 0.000996 -0.000136 -0.001995 -0.010887 0.027569
#
#
# Mechanical properties :
#
#
# Convention : Reuss Voigt Hill
#
# Bulk Modulus (GPa) = 49.38393 52.39900 50.89147
# Shear Modulus (GPa) = 27.92443 32.64286 30.28365
#
# Velocity S-wave (km/s) = 3.64479 3.94071 3.79563
# Velocity P-wave (km/s) = 6.41919 6.75524 6.58936
#
# Compressibility (1/GPa) = 0.02024950
#
# Stress axis : x y z
#
# Youngs Moduli (GPa) = 89.28083 81.34610 66.05369
#
# Poissons Ratio (x) = 0.19072 0.19935
# Poissons Ratio (y) = 0.20932 0.25293
# Poissons Ratio (z) = 0.26945 0.31149
#
# Static dielectric constant tensor:
#      x y z
#    x 1.825350 -0.055670 0.005880 
#    y -0.055670 1.818770 0.026420 
#    z 0.005880 0.026420 1.792200 
# 
# From -- ./inp_files/455953.got.cif
#   From: 2010.05.17/outbox.cif.g08.bks.cpg/sg2_228_cif.got.tgz:455953.got - 2010.06.03 11:33:40.
