data_PCOD9100815
_publ_section_title
;
Structure prediction by ZEFSAII (Michael W. Deem and Ramdas Pophale) SiO2 
 PCOD9100815
Probable space group: P -1
;
_chemical_formula_sum "Si O2"
_cell_formula_units_Z 14
_cell_length_a 18.176141
_cell_length_b 11.653891
_cell_length_c 9.285018
_cell_angle_alpha 94.679486
_cell_angle_beta 64.307645
_cell_angle_gamma 149.474991
_cell_volume 693.409916
_symmetry_space_group_name_H-M "P -1"
_symmetry_group_IT_number 2
_symmetry_cell_setting 'triclinic'
loop_
_space_group_symop_operation_xyz
x,y,z
-x,-y,-z
loop_
_atom_site_type_symbol
_atom_site_label
_atom_site_fract_x
_atom_site_fract_y
_atom_site_fract_z
Si Si1 0.205781 0.247982 0.943173
Si Si2 0.603827 0.258759 0.957046
Si Si3 0.443325 0.290059 0.517624
Si Si4 0.386676 0.237494 0.871212
Si Si5 0.782099 0.689324 0.724964
Si Si6 0.181695 0.829695 0.252445
Si Si7 0.989194 0.332083 0.323951
O O1 0.388150 0.538470 0.720305
O O2 0.265463 0.192641 0.916405
O O3 0.193568 0.276580 0.119623
O O4 0.000000 0.000000 0.000000
O O5 0.683521 0.433462 0.766518
O O6 0.819957 0.500088 0.872065
O O7 0.500000 0.000000 0.000000
O O8 0.403316 0.073874 0.156549
O O9 0.500000 0.500000 0.500000
O O10 0.451196 0.256509 0.671295
O O11 0.215635 0.970329 0.617392
O O12 0.604164 0.543532 0.800961
O O13 0.242842 0.983112 0.078208
O O14 0.000000 0.000000 0.500000
O O15 0.061815 0.743827 0.469343
O O16 0.054980 0.551897 0.282191
#
# Coordination Sequence:
#
# PCOD9100815 Si02
#       7
#     2   2   2   2   2   2   2
#     4  11  24  39  59  86 126 161 204 253 311 372
#     4   9  20  36  59  88 120 155 203 249 304 373
#     4  10  22  37  57  84 122 162 200 244 312 365
#     4  10  22  39  58  87 128 152 206 254 306 368
#     4  11  23  36  63  92 119 160 208 258 312 364
#     4   9  20  40  61  93 117 162 209 255 312 369
#     4  10  20  37  66  86 123 163 205 255 311 376
#
# _framework density 20.190078
#
# number of rings (size 3 to 8) (size 9 to 14) (size 15 to 20)
#    0.000    2.000    0.000    3.000   10.000    0.571 
#    0.000    0.000    0.000    0.857    0.000    0.000 
#    0.000    0.000    0.000    0.000    0.000    0.000 
#
# Total GULP energy -77952.045722 kJ/mol
# GULP energy per Si atom -5568.003266 kJ/mol
# Density = 2.014412 g / cm^3
# Si number density = 20.190078 Si / 1000 Ang^3
#
#
#
# Elastic Constant Matrix: (Units=GPa)
#
#
# Indices 1 2 3 4 5 6 
#
# 1 89.4238 44.4142 39.6473 -5.7201 1.0414 21.7109
# 2 44.4142 125.6908 55.8945 -17.9819 1.5909 26.5587
# 3 39.6473 55.8945 135.2880 -9.1362 21.8659 7.1598
# 4 -5.7201 -17.9819 -9.1362 44.7560 8.8023 -1.9489
# 5 1.0414 1.5909 21.8659 8.8023 38.4616 -7.6644
# 6 21.7109 26.5587 7.1598 -1.9489 -7.6644 34.2576
#
#
#
# Elastic Compliance Matrix: (Units=1/GPa)
#
#
# Indices 1 2 3 4 5 6 
#
# 1 0.015612 -0.002605 -0.003121 -0.000007 0.000023 -0.007218
# 2 -0.002605 0.012612 -0.003697 0.003794 -0.000670 -0.007288
# 3 -0.003121 -0.003697 0.010844 0.001572 -0.006024 0.001320
# 4 -0.000007 0.003794 0.001572 0.025528 -0.007592 -0.003511
# 5 0.000023 -0.000670 -0.006024 -0.007592 0.032923 0.008698
# 6 -0.007218 -0.007288 0.001320 -0.003511 0.008698 0.040885
#
#
# Mechanical properties :
#
#
# Convention : Reuss Voigt Hill
#
# Bulk Modulus (GPa) = 49.45309 70.03497 59.74403
# Shear Modulus (GPa) = 30.48975 37.52481 34.00728
#
# Velocity S-wave (km/s) = 3.89026 4.31580 4.10854
# Velocity P-wave (km/s) = 6.68773 7.71997 7.22232
#
# Compressibility (1/GPa) = 0.02022118
#
# Stress axis : x y z
#
# Youngs Moduli (GPa) = 64.05369 79.29099 92.21950
#
# Poissons Ratio (x) = 0.20654 0.28784
# Poissons Ratio (y) = 0.16685 0.34094
# Poissons Ratio (z) = 0.19992 0.29314
#
# Static dielectric constant tensor:
#      x y z
#    x 1.790860 -0.067970 -0.033200 
#    y -0.067970 1.894840 0.029220 
#    z -0.033200 0.029220 1.746830 
# 
# From -- ./inp_files/174761.got.cif
#   From: 2010.05.17/outbox.cif.g08.bks.cpg/sg2_88_cif.got.tgz:174761.got - 2010.06.03 11:33:40.
