data_PCOD9100498
_publ_section_title
;
Structure prediction by ZEFSAII (Michael W. Deem and Ramdas Pophale) SiO2 
 PCOD9100498
Probable space group: P -1
;
_chemical_formula_sum "Si O2"
_cell_formula_units_Z 16
_cell_length_a 9.434160
_cell_length_b 9.185490
_cell_length_c 12.480403
_cell_angle_alpha 66.391530
_cell_angle_beta 126.115203
_cell_angle_gamma 123.127945
_cell_volume 726.746121
_symmetry_space_group_name_H-M "P -1"
_symmetry_group_IT_number 2
_symmetry_cell_setting 'triclinic'
loop_
_space_group_symop_operation_xyz
x,y,z
-x,-y,-z
loop_
_atom_site_type_symbol
_atom_site_label
_atom_site_fract_x
_atom_site_fract_y
_atom_site_fract_z
Si Si1 0.705693 0.642020 0.085586
Si Si2 0.702641 0.988678 0.078888
Si Si3 0.168954 0.457051 0.453778
Si Si4 0.039923 0.173386 0.036566
Si Si5 0.204064 0.106703 0.619744
Si Si6 0.629750 0.880181 0.692142
Si Si7 0.441331 0.804009 0.396670
Si Si8 0.768879 0.386812 0.337221
O O1 0.681292 0.815501 0.055741
O O2 0.769752 0.563012 0.238233
O O3 0.500000 0.500000 0.000000
O O4 0.859210 0.674697 0.048859
O O5 0.794346 0.967859 0.239212
O O6 0.850953 0.147826 0.025912
O O7 0.500000 0.000000 0.000000
O O8 0.234243 0.309005 0.564186
O O9 0.306642 0.596833 0.388611
O O10 0.186980 0.584278 0.525358
O O11 0.939440 0.360514 0.359616
O O12 0.201817 0.177956 0.191348
O O13 0.000000 0.000000 0.000000
O O14 0.394901 0.114213 0.643428
O O15 0.000000 0.000000 0.500000
O O16 0.562616 0.842765 0.550540
O O17 0.444263 0.766927 0.716132
O O18 0.683986 0.082334 0.683849
#
# Coordination Sequence:
#
# PCOD9100498 Si02
#       8
#     2   2   2   2   2   2   2   2
#     4  11  22  42  70  97 125 176 224 272 329 401
#     4  11  27  45  65  97 139 176 221 282 335 397
#     4  10  22  38  59  94 126 166 211 272 327 384
#     4  10  23  38  65  89 127 169 226 259 327 391
#     4  12  24  41  65  92 135 179 220 264 345 393
#     4  10  20  40  61  95 124 162 222 269 322 388
#     4  10  23  36  65  91 128 168 214 274 325 397
#     4  10  20  37  64  91 127 160 212 273 324 384
#
# _framework density 22.015941999999999
#
# number of rings (size 3 to 8) (size 9 to 14) (size 15 to 20)
#    0.000    1.500    2.500    1.875    7.000    3.000 
#    0.000    0.625    0.000    0.000    0.000    0.000 
#    0.000    0.000    0.000    0.000    0.000    0.000 
#
# Total GULP energy -89337.160556 kJ/mol
# GULP energy per Si atom -5583.572535 kJ/mol
# Density = 2.196583 g / cm^3
# Si number density = 22.015942 Si / 1000 Ang^3
#
#
#
# Elastic Constant Matrix: (Units=GPa)
#
#
# Indices 1 2 3 4 5 6 
#
# 1 127.7590 29.5864 24.4230 -2.2949 -4.5874 31.0352
# 2 29.5864 62.1156 12.3477 -11.2072 -9.4261 17.9839
# 3 24.4230 12.3477 48.5310 1.4949 -4.0928 13.8384
# 4 -2.2949 -11.2072 1.4949 25.9686 3.4784 0.8027
# 5 -4.5874 -9.4261 -4.0928 3.4784 33.6562 -11.3326
# 6 31.0352 17.9839 13.8384 0.8027 -11.3326 37.4753
#
#
#
# Elastic Compliance Matrix: (Units=1/GPa)
#
#
# Indices 1 2 3 4 5 6 
#
# 1 0.010656 -0.002684 -0.002837 0.000447 -0.002092 -0.007132
# 2 -0.002684 0.021850 -0.002330 0.009250 0.002177 -0.006942
# 3 -0.002837 -0.002330 0.024253 -0.002539 0.000382 -0.005319
# 4 0.000447 0.009250 -0.002539 0.043434 -0.004190 -0.006069
# 5 -0.002092 0.002177 0.000382 -0.004190 0.034214 0.010983
# 6 -0.007132 -0.006942 -0.005319 -0.006069 0.010983 0.041337
#
#
# Mechanical properties :
#
#
# Convention : Reuss Voigt Hill
#
# Bulk Modulus (GPa) = 24.35618 41.23554 32.79586
# Shear Modulus (GPa) = 24.37457 30.88993 27.63225
#
# Velocity S-wave (km/s) = 3.33097 3.74982 3.54659
# Velocity P-wave (km/s) = 5.08732 6.12525 5.63026
#
# Compressibility (1/GPa) = 0.04105733
#
# Stress axis : x y z
#
# Youngs Moduli (GPa) = 93.84049 45.76725 41.23250
#
# Poissons Ratio (x) = 0.12283 0.11696
# Poissons Ratio (y) = 0.25184 0.09609
# Poissons Ratio (z) = 0.26618 0.10666
#
# Static dielectric constant tensor:
#      x y z
#    x 1.843450 0.028880 -0.016310 
#    y 0.028880 1.853040 0.020270 
#    z -0.016310 0.020270 1.864090 
# 
# From -- ./inp_files/184852.got.cif
#   From: 2010.05.17/outbox.cif.g08.bks.cpg/sg2_93_cif.got.tgz:184852.got - 2010.06.03 11:33:40.
