data_PCOD9100152
_publ_section_title
;
Structure prediction by ZEFSAII (Michael W. Deem and Ramdas Pophale) SiO2 
 PCOD9100152
Probable space group: P -1
;
_chemical_formula_sum "Si O2"
_cell_formula_units_Z 16
_cell_length_a 12.753220
_cell_length_b 9.126682
_cell_length_c 22.308880
_cell_angle_alpha 33.763565
_cell_angle_beta 27.524510
_cell_angle_gamma 45.635249
_cell_volume 659.560723
_symmetry_space_group_name_H-M "P -1"
_symmetry_group_IT_number 2
_symmetry_cell_setting 'triclinic'
loop_
_space_group_symop_operation_xyz
x,y,z
-x,-y,-z
loop_
_atom_site_type_symbol
_atom_site_label
_atom_site_fract_x
_atom_site_fract_y
_atom_site_fract_z
Si Si1 0.543026 0.378780 0.877528
Si Si2 0.739209 0.418140 0.638234
Si Si3 0.878602 0.783586 0.088015
Si Si4 0.373482 0.552001 0.445761
Si Si5 0.041697 0.874844 0.184149
Si Si6 0.965384 0.760651 0.827644
Si Si7 0.285646 0.155440 0.306804
Si Si8 0.055821 0.041587 0.352094
O O1 0.589783 0.451980 0.759575
O O2 0.761465 0.267857 0.834044
O O3 0.505643 0.631011 0.851742
O O4 0.299954 0.199760 0.057846
O O5 0.672175 0.542658 0.568180
O O6 0.000000 0.500000 0.500000
O O7 0.743846 0.117797 0.716660
O O8 0.648191 0.612458 0.291162
O O9 0.015236 0.549998 0.075134
O O10 0.843479 0.957765 0.987361
O O11 0.000000 0.000000 0.000000
O O12 0.183389 0.337516 0.647940
O O13 0.319873 0.850243 0.385904
O O14 0.956979 0.077279 0.207149
O O15 0.066516 0.872153 0.674164
O O16 0.176556 0.249747 0.268794
O O17 0.115486 0.146486 0.453226
#
# Coordination Sequence:
#
# PCOD9100152 Si02
#       8
#     2   2   2   2   2   2   2   2
#     4  12  23  41  75 112 146 182 235 312 365 429
#     4  11  18  38  68 110 140 175 232 293 360 429
#     4  12  31  53  70 104 150 197 249 298 359 439
#     4  11  25  48  77 103 148 197 237 302 361 434
#     4  12  26  48  77 107 141 191 250 300 365 432
#     4  12  27  46  70 107 149 190 239 303 364 432
#     4  10  22  38  66 107 142 181 234 295 358 425
#     4  10  20  37  62  98 143 178 232 284 356 426
#
# _framework density 24.258571
#
# number of rings (size 3 to 8) (size 9 to 14) (size 15 to 20)
#    0.000    0.750    3.750    3.750    7.000    1.500 
#    2.250    0.000    0.000    0.000    0.000    0.000 
#    0.000    0.000    0.000    0.000    0.000    0.000 
#
# Total GULP energy -89229.756074 kJ/mol
# GULP energy per Si atom -5576.859755 kJ/mol
# Density = 2.420336 g / cm^3
# Si number density = 24.258571 Si / 1000 Ang^3
#
#
#
# Elastic Constant Matrix: (Units=GPa)
#
#
# Indices 1 2 3 4 5 6 
#
# 1 65.1645 32.9671 11.1879 -9.0602 -3.7025 26.6401
# 2 32.9671 100.6790 17.0487 -10.5039 -4.5341 23.2935
# 3 11.1879 17.0487 76.9004 -0.2415 -17.9943 -0.1592
# 4 -9.0602 -10.5039 -0.2415 28.3988 0.2110 -6.5442
# 5 -3.7025 -4.5341 -17.9943 0.2110 38.0814 -3.9210
# 6 26.6401 23.2935 -0.1592 -6.5442 -3.9210 38.1475
#
#
#
# Elastic Compliance Matrix: (Units=1/GPa)
#
#
# Indices 1 2 3 4 5 6 
#
# 1 0.023811 -0.003834 -0.002853 0.002961 -0.000936 -0.013887
# 2 -0.003834 0.012960 -0.002434 0.002429 -0.000496 -0.004881
# 3 -0.002853 -0.002434 0.015665 -0.000773 0.007267 0.004158
# 4 0.002961 0.002429 -0.000773 0.037727 0.000307 0.002949
# 5 -0.000936 -0.000496 0.007267 0.000307 0.029966 0.004119
# 6 -0.013887 -0.004881 0.004158 0.002949 0.004119 0.039839
#
#
# Mechanical properties :
#
#
# Convention : Reuss Voigt Hill
#
# Bulk Modulus (GPa) = 29.24362 40.57237 34.90800
# Shear Modulus (GPa) = 26.37020 33.02822 29.69921
#
# Velocity S-wave (km/s) = 3.30062 3.69386 3.50276
# Velocity P-wave (km/s) = 5.15815 5.91220 5.54800
#
# Compressibility (1/GPa) = 0.03419549
#
# Stress axis : x y z
#
# Youngs Moduli (GPa) = 41.99740 77.15754 63.83592
#
# Poissons Ratio (x) = 0.29582 0.18210
# Poissons Ratio (y) = 0.16102 0.15538
# Poissons Ratio (z) = 0.11980 0.18780
#
# Static dielectric constant tensor:
#      x y z
#    x 2.111500 0.054960 -0.039590 
#    y 0.054960 2.024190 -0.018470 
#    z -0.039590 -0.018470 2.073060 
# 
# From -- ./inp_files/593940.got.cif
#   From: 2010.05.17/outbox.cif.g08.bks.cpg/sg2_297_cif.got.tgz:593940.got - 2010.06.03 11:33:40.
