data_PCOD9100032
_publ_section_title
;
Structure prediction by ZEFSAII (Michael W. Deem and Ramdas Pophale) SiO2 
 PCOD9100032
Probable space group: P -1
;
_chemical_formula_sum "Si O2"
_cell_formula_units_Z 16
_cell_length_a 15.371043
_cell_length_b 11.444980
_cell_length_c 11.506402
_cell_angle_alpha 34.073295
_cell_angle_beta 95.125052
_cell_angle_gamma 118.885477
_cell_volume 768.252897
_symmetry_space_group_name_H-M "P -1"
_symmetry_group_IT_number 2
_symmetry_cell_setting 'triclinic'
loop_
_space_group_symop_operation_xyz
x,y,z
-x,-y,-z
loop_
_atom_site_type_symbol
_atom_site_label
_atom_site_fract_x
_atom_site_fract_y
_atom_site_fract_z
Si Si1 0.854907 0.218338 0.261747
Si Si2 0.994910 0.714417 0.466072
Si Si3 0.716053 0.579262 0.875888
Si Si4 0.818459 0.335820 0.533844
Si Si5 0.786216 0.296861 0.971584
Si Si6 0.482391 0.225704 0.737531
Si Si7 0.467612 0.091863 0.103904
Si Si8 0.827245 0.593621 0.090552
O O1 0.834026 0.382109 0.204472
O O2 0.803308 0.929012 0.563394
O O3 0.774217 0.097730 0.231646
O O4 0.000000 0.500000 0.000000
O O5 0.898011 0.539351 0.489700
O O6 0.916160 0.513199 0.736430
O O7 0.107769 0.743342 0.434874
O O8 0.050213 0.043557 0.211871
O O9 0.777754 0.495299 0.880022
O O10 0.570755 0.335302 0.012352
O O11 0.721323 0.532780 0.051622
O O12 0.817255 0.516766 0.287618
O O13 0.668985 0.039056 0.787692
O O14 0.668266 0.082572 0.045994
O O15 0.500000 0.500000 0.500000
O O16 0.549000 0.188976 0.681559
O O17 0.522891 0.243412 0.858548
#
# Coordination Sequence:
#
# PCOD9100032 Si02
#       8
#     2   2   2   2   2   2   2   2
#     4  11  21  37  61  93 123 160 203 253 310 362
#     4  11  23  42  62  90 126 161 209 258 301 362
#     4  10  22  39  64  91 126 157 202 259 305 367
#     4  11  24  42  62  88 125 166 210 248 303 366
#     4  10  20  37  62  91 120 157 200 253 313 356
#     4  10  20  38  62  90 122 156 199 253 307 366
#     4  10  22  41  61  91 123 161 204 251 307 364
#     4  11  23  40  60  88 123 164 208 251 302 364
#
# _framework density 20.826474000000001
#
# number of rings (size 3 to 8) (size 9 to 14) (size 15 to 20)
#    0.000    1.500    1.250    4.125    0.000    3.500 
#    4.500    2.500    0.000    0.000    0.000    0.000 
#    0.000    0.000    0.000    0.000    0.000    0.000 
#
# Total GULP energy -89280.365088 kJ/mol
# GULP energy per Si atom -5580.022818 kJ/mol
# Density = 2.077907 g / cm^3
# Si number density = 20.826474 Si / 1000 Ang^3
#
#
#
# Elastic Constant Matrix: (Units=GPa)
#
#
# Indices 1 2 3 4 5 6 
#
# 1 83.2929 24.8527 33.8952 -8.6943 -10.4590 17.7067
# 2 24.8527 113.9415 36.3991 7.6466 4.5911 30.7279
# 3 33.8952 36.3991 82.8131 2.2064 22.0677 3.5519
# 4 -8.6943 7.6466 2.2064 33.1100 2.8148 5.4663
# 5 -10.4590 4.5911 22.0677 2.8148 36.6656 -0.5726
# 6 17.7067 30.7279 3.5519 5.4663 -0.5726 29.4041
#
#
#
# Elastic Compliance Matrix: (Units=1/GPa)
#
#
# Indices 1 2 3 4 5 6 
#
# 1 0.022564 0.002599 -0.013468 0.007701 0.013378 -0.015848
# 2 0.002599 0.014928 -0.007818 0.000146 0.003313 -0.016183
# 3 -0.013468 -0.007818 0.025213 -0.004180 -0.017503 0.013670
# 4 0.007701 0.000146 -0.004180 0.034053 0.001915 -0.010578
# 5 0.013378 0.003313 -0.017503 0.001915 0.040922 -0.008963
# 6 -0.015848 -0.016183 0.013670 -0.010578 -0.008963 0.060605
#
#
# Mechanical properties :
#
#
# Convention : Reuss Voigt Hill
#
# Bulk Modulus (GPa) = 39.47708 52.26016 45.86862
# Shear Modulus (GPa) = 20.48317 32.16263 26.32290
#
# Velocity S-wave (km/s) = 3.13951 3.93404 3.55902
# Velocity P-wave (km/s) = 5.66907 6.76633 6.24186
#
# Compressibility (1/GPa) = 0.02533115
#
# Stress axis : x y z
#
# Youngs Moduli (GPa) = 44.31882 66.98803 39.66177
#
# Poissons Ratio (x) = -0.17408 0.53416
# Poissons Ratio (y) = -0.11517 0.31006
# Poissons Ratio (z) = 0.59688 0.52369
#
# Static dielectric constant tensor:
#      x y z
#    x 1.784500 0.029660 0.015240 
#    y 0.029660 1.783050 0.031120 
#    z 0.015240 0.031120 1.731930 
# 
# From -- ./inp_files/363855.got.cif
#   From: 2010.05.17/outbox.cif.g08.bks.cpg/sg2_182_cif.got.tgz:363855.got - 2010.06.03 11:33:40.
