data_PCOD9100046
_publ_section_title
;
Structure prediction by ZEFSAII (Michael W. Deem and Ramdas Pophale) SiO2 
 PCOD9100046
Probable space group: P -1
;
_chemical_formula_sum "Si O2"
_cell_formula_units_Z 16
_cell_length_a 12.993581
_cell_length_b 5.119138
_cell_length_c 11.356229
_cell_angle_alpha 122.383495
_cell_angle_beta 105.997026
_cell_angle_gamma 77.856638
_cell_volume 611.359588
_symmetry_space_group_name_H-M "P -1"
_symmetry_group_IT_number 2
_symmetry_cell_setting 'triclinic'
loop_
_space_group_symop_operation_xyz
x,y,z
-x,-y,-z
loop_
_atom_site_type_symbol
_atom_site_label
_atom_site_fract_x
_atom_site_fract_y
_atom_site_fract_z
Si Si1 0.225777 0.852742 0.542569
Si Si2 0.595343 0.217595 0.827050
Si Si3 0.828553 0.052260 0.903057
Si Si4 0.045083 0.930530 0.825216
Si Si5 0.564299 0.303035 0.573913
Si Si6 0.885971 0.594753 0.431052
Si Si7 0.200755 0.269203 0.836075
Si Si8 0.581066 0.862524 0.089694
O O1 0.128625 0.032975 0.485815
O O2 0.251929 0.167234 0.699794
O O3 0.318824 0.759089 0.460040
O O4 0.198348 0.575464 0.553554
O O5 0.705977 0.995578 0.816622
O O6 0.582044 0.386152 0.737343
O O7 0.486034 0.067165 0.794462
O O8 0.601686 0.489996 0.991640
O O9 0.893901 0.925039 0.009065
O O10 0.816246 0.416458 0.019634
O O11 0.918309 0.964377 0.811985
O O12 0.097676 0.583413 0.733698
O O13 0.090251 0.108662 0.773506
O O14 0.500000 0.500000 0.500000
O O15 0.500000 0.000000 0.500000
O O16 0.000000 0.500000 0.500000
O O17 0.298687 0.048176 0.879192
O O18 0.500000 0.000000 0.000000
#
# Coordination Sequence:
#
# PCOD9100046 Si02
#       8
#     2   2   2   2   2   2   2   2
#     4  11  24  44  69  97 133 179 232 281 346 413
#     4  10  24  40  65  98 132 174 231 283 356 411
#     4  10  20  40  59  95 130 169 222 280 351 405
#     4  10  21  37  64  92 132 172 224 277 350 407
#     4  12  28  49  71 103 142 188 237 292 355 422
#     4  11  24  44  68  99 132 183 233 284 343 415
#     4  10  20  37  62  91 124 170 219 274 340 407
#     4  10  21  39  66  95 129 168 223 286 346 412
#
# _framework density 26.171178000000001
#
# number of rings (size 3 to 8) (size 9 to 14) (size 15 to 20)
#    0.000    1.500    1.250    3.000    5.250    0.000 
#    0.000    1.250    0.000    0.000    0.000    0.000 
#    0.000    0.000    0.000    0.000    0.000    0.000 
#
# Total GULP energy -89128.876992 kJ/mol
# GULP energy per Si atom -5570.554812 kJ/mol
# Density = 2.611161 g / cm^3
# Si number density = 26.171178 Si / 1000 Ang^3
#
#
#
# Elastic Constant Matrix: (Units=GPa)
#
#
# Indices 1 2 3 4 5 6 
#
# 1 152.0701 7.8707 21.2161 -3.5589 -50.6637 -0.4860
# 2 7.8707 82.0613 6.5933 -11.4743 -27.8347 17.3162
# 3 21.2161 6.5933 81.7775 -11.0264 -30.8903 10.0565
# 4 -3.5589 -11.4743 -11.0264 31.1119 8.5275 -4.9625
# 5 -50.6637 -27.8347 -30.8903 8.5275 44.8776 -2.4969
# 6 -0.4860 17.3162 10.0565 -4.9625 -2.4969 37.7189
#
#
#
# Elastic Compliance Matrix: (Units=1/GPa)
#
#
# Indices 1 2 3 4 5 6 
#
# 1 0.012613 0.005930 0.004334 -0.000967 0.020947 -0.002456
# 2 0.005930 0.021746 0.007484 0.003145 0.024186 -0.009887
# 3 0.004334 0.007484 0.020275 0.003176 0.022504 -0.006878
# 4 -0.000967 0.003145 0.003176 0.035649 -0.003610 0.002148
# 5 0.020947 0.024186 0.022504 -0.003610 0.076426 -0.012249
# 6 -0.002456 -0.009887 -0.006878 0.002148 -0.012249 0.032325
#
#
# Mechanical properties :
#
#
# Convention : Reuss Voigt Hill
#
# Bulk Modulus (GPa) = 11.09511 43.02991 27.06251
# Shear Modulus (GPa) = 25.82900 41.42360 33.62630
#
# Velocity S-wave (km/s) = 3.14495 3.98275 3.58838
# Velocity P-wave (km/s) = 4.17567 6.13410 5.24706
#
# Compressibility (1/GPa) = 0.09012977
#
# Stress axis : x y z
#
# Youngs Moduli (GPa) = 79.28582 45.98590 49.32112
#
# Poissons Ratio (x) = -0.27271 -0.21375
# Poissons Ratio (y) = -0.47018 -0.36912
# Poissons Ratio (z) = -0.34360 -0.34416
#
# Static dielectric constant tensor:
#      x y z
#    x 2.111830 -0.228530 0.340480 
#    y -0.228530 2.387280 -0.172670 
#    z 0.340480 -0.172670 2.106790 
# 
# From -- ./inp_files/411257.got.cif
#   From: 2010.05.17/outbox.cif.g08.bks.cpg/sg2_206_cif.got.tgz:411257.got - 2010.06.03 11:33:40.
