data_PCOD9100982
_publ_section_title
;
Structure prediction by ZEFSAII (Michael W. Deem and Ramdas Pophale) SiO2 
 PCOD9100982
Probable space group: P -1
;
_chemical_formula_sum "Si O2"
_cell_formula_units_Z 16
_cell_length_a 11.956668
_cell_length_b 14.292060
_cell_length_c 11.532913
_cell_angle_alpha 129.971366
_cell_angle_beta 55.685943
_cell_angle_gamma 152.711722
_cell_volume 692.305866
_symmetry_space_group_name_H-M "P -1"
_symmetry_group_IT_number 2
_symmetry_cell_setting 'triclinic'
loop_
_space_group_symop_operation_xyz
x,y,z
-x,-y,-z
loop_
_atom_site_type_symbol
_atom_site_label
_atom_site_fract_x
_atom_site_fract_y
_atom_site_fract_z
Si Si1 0.100786 0.136876 0.929229
Si Si2 0.722866 0.898445 0.609598
Si Si3 0.112551 0.392183 0.804203
Si Si4 0.817817 0.365189 0.849799
Si Si5 0.497422 0.636935 0.313942
Si Si6 0.645906 0.701519 0.712837
Si Si7 0.580267 0.091521 0.158104
Si Si8 0.111888 0.428073 0.218883
O O1 0.346081 0.279353 0.827909
O O2 0.128527 0.300465 0.068101
O O3 0.876386 0.944768 0.822562
O O4 0.000000 0.000000 0.000000
O O5 0.689822 0.846762 0.452744
O O6 0.688495 0.749770 0.587721
O O7 0.516244 0.843898 0.714937
O O8 0.968572 0.157188 0.701496
O O9 0.396486 0.585517 0.787501
O O10 0.012518 0.401331 0.765944
O O11 0.068705 0.441264 0.983402
O O12 0.731272 0.360602 0.779743
O O13 0.587613 0.131056 0.855176
O O14 0.393731 0.448799 0.305477
O O15 0.253375 0.530241 0.339484
O O16 0.843402 0.270943 0.208801
O O17 0.500000 0.000000 0.000000
#
# Coordination Sequence:
#
# PCOD9100982 Si02
#       8
#     2   2   2   2   2   2   2   2
#     4  12  27  46  68  99 136 181 234 285 335 406
#     4  11  25  46  68 103 144 177 231 284 337 411
#     4  10  21  39  66 100 130 175 229 284 336 395
#     4  10  20  37  67  99 131 167 222 289 342 388
#     4  12  29  44  65 101 143 190 228 273 346 412
#     4  12  23  43  72  97 136 185 228 282 338 402
#     4  11  23  43  72 107 132 174 230 285 341 403
#     4  12  24  42  70  99 136 177 227 282 341 411
#
# _framework density 23.111172
#
# number of rings (size 3 to 8) (size 9 to 14) (size 15 to 20)
#    0.000    0.750    1.250    8.250    3.500    3.500 
#    0.000    2.500    0.000    0.000    0.000    0.000 
#    0.000    0.000    0.000    0.000    0.000    0.000 
#
# Total GULP energy -89238.887004 kJ/mol
# GULP energy per Si atom -5577.430438 kJ/mol
# Density = 2.305857 g / cm^3
# Si number density = 23.111172 Si / 1000 Ang^3
#
#
#
# Elastic Constant Matrix: (Units=GPa)
#
#
# Indices 1 2 3 4 5 6 
#
# 1 163.9271 59.1776 28.4444 -9.4173 22.4709 -19.5800
# 2 59.1776 119.6029 22.7150 12.3886 8.7363 2.1705
# 3 28.4444 22.7150 44.9949 -2.4744 15.4808 -3.5075
# 4 -9.4173 12.3886 -2.4744 28.4541 1.1004 1.9588
# 5 22.4709 8.7363 15.4808 1.1004 29.6755 5.9077
# 6 -19.5800 2.1705 -3.5075 1.9588 5.9077 52.7823
#
#
#
# Elastic Compliance Matrix: (Units=1/GPa)
#
#
# Indices 1 2 3 4 5 6 
#
# 1 0.009662 -0.004754 -0.000852 0.005152 -0.006511 0.004261
# 2 -0.004754 0.012203 -0.004930 -0.007260 0.003387 -0.002703
# 3 -0.000852 -0.004930 0.030913 0.004893 -0.014893 0.003426
# 4 0.005152 -0.007260 0.004893 0.040556 -0.006162 0.001719
# 5 -0.006511 0.003387 -0.014893 -0.006162 0.047344 -0.008615
# 6 0.004261 -0.002703 0.003426 0.001719 -0.008615 0.021765
#
#
# Mechanical properties :
#
#
# Convention : Reuss Voigt Hill
#
# Bulk Modulus (GPa) = 31.54131 61.02210 46.28170
# Shear Modulus (GPa) = 25.76203 36.72825 31.24514
#
# Velocity S-wave (km/s) = 3.34233 3.99080 3.68088
# Velocity P-wave (km/s) = 5.34530 6.90626 6.17530
#
# Compressibility (1/GPa) = 0.03170446
#
# Stress axis : x y z
#
# Youngs Moduli (GPa) = 103.50122 81.94530 32.34918
#
# Poissons Ratio (x) = 0.38956 0.02757
# Poissons Ratio (y) = 0.49204 0.15949
# Poissons Ratio (z) = 0.08821 0.40402
#
# Static dielectric constant tensor:
#      x y z
#    x 1.884200 -0.014580 0.020850 
#    y -0.014580 1.954980 -0.049710 
#    z 0.020850 -0.049710 1.891180 
# 
# From -- ./inp_files/433208.got.cif
#   From: 2010.05.17/outbox.cif.g08.bks.cpg/sg2_217_cif.got.tgz:433208.got - 2010.06.03 11:33:40.
