data_PCOD9100701
_publ_section_title
;
Structure prediction by ZEFSAII (Michael W. Deem and Ramdas Pophale) SiO2 
 PCOD9100701
Probable space group: P -1
;
_chemical_formula_sum "Si O2"
_cell_formula_units_Z 16
_cell_length_a 8.791269
_cell_length_b 8.828590
_cell_length_c 16.812282
_cell_angle_alpha 108.610851
_cell_angle_beta 32.338262
_cell_angle_gamma 111.417754
_cell_volume 649.651003
_symmetry_space_group_name_H-M "P -1"
_symmetry_group_IT_number 2
_symmetry_cell_setting 'triclinic'
loop_
_space_group_symop_operation_xyz
x,y,z
-x,-y,-z
loop_
_atom_site_type_symbol
_atom_site_label
_atom_site_fract_x
_atom_site_fract_y
_atom_site_fract_z
Si Si1 0.703164 0.806837 0.785201
Si Si2 0.496944 0.719772 0.208929
Si Si3 0.740990 0.748493 0.933534
Si Si4 0.605726 0.457383 0.226919
Si Si5 0.084713 0.489286 0.736963
Si Si6 0.858498 0.876534 0.359226
Si Si7 0.642858 0.013173 0.314232
Si Si8 0.906762 0.463057 0.427706
O O1 0.602943 0.794005 0.919295
O O2 0.464653 0.715194 0.815275
O O3 0.957629 0.698212 0.648550
O O4 0.857184 0.987607 0.727891
O O5 0.682834 0.596103 0.148530
O O6 0.541286 0.880163 0.269570
O O7 0.169797 0.617143 0.334441
O O8 0.591378 0.763023 0.085050
O O9 0.798948 0.565819 0.867109
O O10 0.060571 0.863341 0.815261
O O11 0.799336 0.456098 0.218192
O O12 0.316902 0.505122 0.402211
O O13 0.061630 0.297997 0.712371
O O14 0.244212 0.553642 0.594729
O O15 0.719224 0.919575 0.344269
O O16 0.617999 0.894385 0.534163
#
# Coordination Sequence:
#
# PCOD9100701 Si02
#       8
#     2   2   2   2   2   2   2   2
#     4   9  20  39  61  88 118 167 205 245 297 372
#     4  11  21  42  64  90 121 168 218 242 291 384
#     4  10  24  39  63  88 128 168 205 249 304 364
#     4  11  21  37  65  92 122 156 208 256 308 362
#     4  11  24  39  61  97 130 156 194 264 319 358
#     4  10  20  37  65  92 127 154 204 257 314 357
#     4  10  20  37  65  92 119 166 207 252 302 366
#     4  10  22  37  65  89 122 157 208 259 307 351
#
# _framework density 24.628606999999999
#
# number of rings (size 3 to 8) (size 9 to 14) (size 15 to 20)
#    0.000    1.750    1.250    3.750    7.000    5.000 
#    2.250    1.250    0.000    4.500    0.000    0.000 
#    0.000    0.000    0.000    0.000    0.000    0.000 
#
# Total GULP energy -89645.406458 kJ/mol
# GULP energy per Si atom -5602.837904 kJ/mol
# Density = 2.457255 g / cm^3
# Si number density = 24.628607 Si / 1000 Ang^3
#
#
#
# Elastic Constant Matrix: (Units=GPa)
#
#
# Indices 1 2 3 4 5 6 
#
# 1 104.2316 37.7998 22.7600 -5.9386 29.7978 26.6940
# 2 37.7998 146.5995 28.3213 5.2160 7.6657 34.9127
# 3 22.7600 28.3213 110.1042 -8.2641 34.1433 17.6315
# 4 -5.9386 5.2160 -8.2641 20.7066 3.0249 9.7849
# 5 29.7978 7.6657 34.1433 3.0249 29.1941 14.9244
# 6 26.6940 34.9127 17.6315 9.7849 14.9244 39.2765
#
#
#
# Elastic Compliance Matrix: (Units=1/GPa)
#
#
# Indices 1 2 3 4 5 6 
#
# 1 0.019583 -0.003903 0.007304 0.016850 -0.025316 -0.007697
# 2 -0.003903 0.009954 -0.003925 -0.003128 0.010118 -0.007499
# 3 0.007304 -0.003925 0.019394 0.016614 -0.029174 -0.003234
# 4 0.016850 -0.003128 0.016614 0.076050 -0.031965 -0.022929
# 5 -0.025316 0.010118 -0.029174 -0.031965 0.099167 -0.008410
# 6 -0.007697 -0.007499 -0.003234 -0.022929 -0.008410 0.047717
#
#
# Mechanical properties :
#
#
# Convention : Reuss Voigt Hill
#
# Bulk Modulus (GPa) = 20.88472 59.85527 40.37000
# Shear Modulus (GPa) = 17.30848 35.97238 26.64043
#
# Velocity S-wave (km/s) = 2.65388 3.82592 3.29247
# Velocity P-wave (km/s) = 4.22954 6.62365 5.55706
#
# Compressibility (1/GPa) = 0.04788189
#
# Stress axis : x y z
#
# Youngs Moduli (GPa) = 51.06367 100.46115 51.56288
#
# Poissons Ratio (x) = 0.39212 -0.37660
# Poissons Ratio (y) = 0.19931 0.20240
# Poissons Ratio (z) = -0.37295 0.39434
#
# Static dielectric constant tensor:
#      x y z
#    x 1.999280 0.004910 -0.022270 
#    y 0.004910 1.923420 -0.032350 
#    z -0.022270 -0.032350 1.985850 
# 
# From -- ./inp_files/495117.got.cif
#   From: 2010.05.17/outbox.cif.g08.bks.cpg/sg2_248_cif.got.tgz:495117.got - 2010.06.03 11:33:40.
