data_PCOD9100059
_publ_section_title
;
Structure prediction by ZEFSAII (Michael W. Deem and Ramdas Pophale) SiO2 
 PCOD9100059
Probable space group: P -1
;
_chemical_formula_sum "Si O2"
_cell_formula_units_Z 15
_cell_length_a 7.457753
_cell_length_b 16.815292
_cell_length_c 14.988025
_cell_angle_alpha 142.432815
_cell_angle_beta 74.141014
_cell_angle_gamma 134.688267
_cell_volume 615.228349
_symmetry_space_group_name_H-M "P -1"
_symmetry_group_IT_number 2
_symmetry_cell_setting 'triclinic'
loop_
_space_group_symop_operation_xyz
x,y,z
-x,-y,-z
loop_
_atom_site_type_symbol
_atom_site_label
_atom_site_fract_x
_atom_site_fract_y
_atom_site_fract_z
Si Si1 0.265829 0.780892 0.640531
Si Si2 0.218424 0.743672 0.110323
Si Si3 0.300768 0.397931 0.527382
Si Si4 0.728750 0.428302 0.759309
Si Si5 0.862533 0.588254 0.694766
Si Si6 0.773535 0.072690 0.581011
Si Si7 0.827302 0.948905 0.293588
Si Si8 0.500000 0.500000 0.000000
O O1 0.303972 0.647567 0.522779
O O2 0.955582 0.632653 0.482079
O O3 0.154810 0.770540 0.743990
O O4 0.571603 0.038225 0.787459
O O5 0.471045 0.803416 0.184527
O O6 0.024801 0.721941 0.191397
O O7 0.991560 0.527112 0.884128
O O8 0.500000 0.500000 0.500000
O O9 0.604052 0.559315 0.699166
O O10 0.068342 0.140051 0.353608
O O11 0.919077 0.594155 0.795838
O O12 0.454742 0.159534 0.537517
O O13 0.549625 0.433091 0.846633
O O14 0.945060 0.091236 0.495145
O O15 0.500000 0.000000 0.500000
O O16 0.760675 0.761269 0.151637
#
# Coordination Sequence:
#
# PCOD9100059 Si02
#       8
#     2   2   2   2   2   2   2   1
#     4   9  19  38  64  90 120 160 209 258 310 368
#     4  10  20  38  63  87 125 160 205 264 306 372
#     4   9  19  37  64  90 118 160 207 259 310 365
#     4  11  23  38  58  90 124 161 208 251 315 376
#     4  10  20  37  62  92 121 160 209 256 312 370
#     4   9  19  36  58  85 118 160 207 251 310 367
#     4   9  20  38  60  89 122 164 209 252 314 371
#     4  10  24  38  52  88 130 160 202 252 306 376
#
# _framework density 24.381191000000001
#
# number of rings (size 3 to 8) (size 9 to 14) (size 15 to 20)
#    0.000    2.400    1.333    0.000    1.867    6.400 
#    2.400    2.667    0.000    2.400    0.000    0.000 
#    0.000    0.000    0.000    0.000    0.000    0.000 
#
# Total GULP energy -83538.145941 kJ/mol
# GULP energy per Si atom -5569.209729 kJ/mol
# Density = 2.432570 g / cm^3
# Si number density = 24.381191 Si / 1000 Ang^3
#
#
#
# Elastic Constant Matrix: (Units=GPa)
#
#
# Indices 1 2 3 4 5 6 
#
# 1 90.9378 18.8088 -7.1006 -5.0569 5.6190 -8.6045
# 2 18.8088 140.4539 32.4243 13.5560 -3.5861 -27.1893
# 3 -7.1006 32.4243 81.5617 -9.9562 1.8778 -13.3604
# 4 -5.0569 13.5560 -9.9562 32.7896 -17.8802 -0.5396
# 5 5.6190 -3.5861 1.8778 -17.8802 25.3454 0.2701
# 6 -8.6045 -27.1893 -13.3604 -0.5396 0.2701 33.6537
#
#
#
# Elastic Compliance Matrix: (Units=1/GPa)
#
#
# Indices 1 2 3 4 5 6 
#
# 1 0.012107 -0.002061 0.002680 0.002973 -0.001104 0.002550
# 2 -0.002061 0.010102 -0.004040 -0.007258 -0.002998 0.005938
# 3 0.002680 -0.004040 0.015743 0.009153 0.004085 0.003785
# 4 0.002973 -0.007258 0.009153 0.057593 0.038274 -0.000853
# 5 -0.001104 -0.002998 0.004085 0.038274 0.065984 -0.000998
# 6 0.002550 0.005938 0.003785 -0.000853 -0.000998 0.036661
#
#
# Mechanical properties :
#
#
# Convention : Reuss Voigt Hill
#
# Bulk Modulus (GPa) = 32.14455 44.57979 38.36217
# Shear Modulus (GPa) = 23.21232 36.27915 29.74573
#
# Velocity S-wave (km/s) = 3.08889 3.86164 3.49668
# Velocity P-wave (km/s) = 5.09259 6.18120 5.66311
#
# Compressibility (1/GPa) = 0.03110947
#
# Stress axis : x y z
#
# Youngs Moduli (GPa) = 82.59712 98.99155 63.51947
#
# Poissons Ratio (x) = 0.20405 -0.17020
# Poissons Ratio (y) = 0.17026 0.25659
# Poissons Ratio (z) = -0.22132 0.39988
#
# Static dielectric constant tensor:
#      x y z
#    x 2.047010 0.040580 0.169380 
#    y 0.040580 1.931090 -0.000190 
#    z 0.169380 -0.000190 1.967080 
# 
# From -- ./inp_files/506746.got.cif
#   From: 2010.05.17/outbox.cif.g08.bks.cpg/sg2_254_cif.got.tgz:506746.got - 2010.06.03 11:33:40.
