data_PCOD9100211
_publ_section_title
;
Structure prediction by ZEFSAII (Michael W. Deem and Ramdas Pophale) SiO2 
 PCOD9100211
Probable space group: P -1
;
_chemical_formula_sum "Si O2"
_cell_formula_units_Z 16
_cell_length_a 9.530091
_cell_length_b 29.808346
_cell_length_c 14.482082
_cell_angle_alpha 21.078595
_cell_angle_beta 131.081929
_cell_angle_gamma 141.452575
_cell_volume 872.280111
_symmetry_space_group_name_H-M "P -1"
_symmetry_group_IT_number 2
_symmetry_cell_setting 'triclinic'
loop_
_space_group_symop_operation_xyz
x,y,z
-x,-y,-z
loop_
_atom_site_type_symbol
_atom_site_label
_atom_site_fract_x
_atom_site_fract_y
_atom_site_fract_z
Si Si1 0.778775 0.590106 0.962575
Si Si2 0.832753 0.244809 0.879434
Si Si3 0.080764 0.563010 0.275954
Si Si4 0.374712 0.553483 0.278826
Si Si5 0.774121 0.800726 0.835450
Si Si6 0.076289 0.578707 0.778957
Si Si7 0.480234 0.059554 0.778790
Si Si8 0.124323 0.117781 0.474616
O O1 0.897472 0.775333 0.671872
O O2 0.500000 0.500000 0.000000
O O3 0.865771 0.527941 0.043391
O O4 0.864198 0.556599 0.157277
O O5 0.810879 0.329138 0.793590
O O6 0.962069 0.380033 0.596907
O O7 0.016841 0.213603 0.044641
O O8 0.596158 0.078906 0.061156
O O9 0.287874 0.626710 0.169417
O O10 0.500000 0.500000 0.500000
O O11 0.136381 0.437227 0.336852
O O12 0.565822 0.671719 0.058760
O O13 0.709987 0.785062 0.730290
O O14 0.884723 0.971279 0.602055
O O15 0.301183 0.765329 0.500563
O O16 0.000000 0.500000 0.000000
O O17 0.254348 0.057767 0.694787
O O18 0.500000 0.000000 0.000000
#
# Coordination Sequence:
#
# PCOD9100211 Si02
#       8
#     2   2   2   2   2   2   2   2
#     4  11  21  38  62  88 120 160 208 252 301 371
#     4  10  20  37  63  88 121 155 206 258 299 358
#     4  10  21  38  58  94 120 157 206 253 313 361
#     4  11  22  38  61  89 123 162 199 251 309 373
#     4  10  20  38  63  87 120 155 203 251 304 366
#     4  11  25  43  62  92 129 166 204 254 321 373
#     4  11  22  39  64  91 121 161 209 255 303 365
#     4  10  21  37  62  90 114 157 209 252 300 359
#
# _framework density 18.342732000000002
#
# number of rings (size 3 to 8) (size 9 to 14) (size 15 to 20)
#    0.000    1.500    3.750    2.250    1.750    0.000 
#    2.250    1.250    0.000    1.500    0.000    0.000 
#    0.000    0.000    0.000    0.000    0.000    0.000 
#
# Total GULP energy -89069.339445 kJ/mol
# GULP energy per Si atom -5566.833715 kJ/mol
# Density = 1.830098 g / cm^3
# Si number density = 18.342732 Si / 1000 Ang^3
#
#
#
# Elastic Constant Matrix: (Units=GPa)
#
#
# Indices 1 2 3 4 5 6 
#
# 1 67.0103 34.4569 31.8177 -11.2777 -5.8826 -8.9327
# 2 34.4569 103.8453 44.2660 8.8308 2.6600 0.3060
# 3 31.8177 44.2660 90.7805 -3.9519 8.0695 -9.3544
# 4 -11.2777 8.8308 -3.9519 44.0938 -2.3284 9.0030
# 5 -5.8826 2.6600 8.0695 -2.3284 30.1590 1.7456
# 6 -8.9327 0.3060 -9.3544 9.0030 1.7456 27.5319
#
#
#
# Elastic Compliance Matrix: (Units=1/GPa)
#
#
# Indices 1 2 3 4 5 6 
#
# 1 0.022393 -0.006056 -0.004869 0.006184 0.006494 0.003244
# 2 -0.006056 0.014252 -0.005149 -0.004455 -0.001270 -0.002335
# 3 -0.004869 -0.005149 0.016123 0.000098 -0.005048 0.004243
# 4 0.006184 -0.004455 0.000098 0.026790 0.004042 -0.006927
# 5 0.006494 -0.001270 -0.005048 0.004042 0.036385 -0.003223
# 6 0.003244 -0.002335 0.004243 -0.006927 -0.003223 0.041311
#
#
# Mechanical properties :
#
#
# Convention : Reuss Voigt Hill
#
# Bulk Modulus (GPa) = 48.49737 53.63525 51.06631
# Shear Modulus (GPa) = 25.47444 30.42997 27.95220
#
# Velocity S-wave (km/s) = 3.73071 4.07746 3.90793
# Velocity P-wave (km/s) = 6.71227 7.17437 6.94716
#
# Compressibility (1/GPa) = 0.02061968
#
# Stress axis : x y z
#
# Youngs Moduli (GPa) = 44.65769 70.16438 62.02377
#
# Poissons Ratio (x) = 0.42495 0.30199
# Poissons Ratio (y) = 0.27047 0.31934
# Poissons Ratio (z) = 0.21743 0.36125
#
# Static dielectric constant tensor:
#      x y z
#    x 1.634100 -0.005490 -0.002040 
#    y -0.005490 1.687260 -0.008580 
#    z -0.002040 -0.008580 1.675640 
# 
# From -- ./inp_files/392069.got.cif
#   From: 2010.05.17/outbox.cif.g08.bks.cpg/sg2_197_cif.got.tgz:392069.got - 2010.06.03 11:33:40.
