data_PCOD9100596
_publ_section_title
;
Structure prediction by ZEFSAII (Michael W. Deem and Ramdas Pophale) SiO2 
 PCOD9100596
Probable space group: P -1
;
_chemical_formula_sum "Si O2"
_cell_formula_units_Z 16
_cell_length_a 5.634811
_cell_length_b 17.396871
_cell_length_c 8.010376
_cell_angle_alpha 85.924061
_cell_angle_beta 63.338277
_cell_angle_gamma 66.862596
_cell_volume 639.989662
_symmetry_space_group_name_H-M "P -1"
_symmetry_group_IT_number 2
_symmetry_cell_setting 'triclinic'
loop_
_space_group_symop_operation_xyz
x,y,z
-x,-y,-z
loop_
_atom_site_type_symbol
_atom_site_label
_atom_site_fract_x
_atom_site_fract_y
_atom_site_fract_z
Si Si1 0.165473 0.510612 0.117119
Si Si2 0.954419 0.216080 0.207834
Si Si3 0.864755 0.935251 0.618175
Si Si4 0.839528 0.866243 0.324198
Si Si5 0.564032 0.655512 0.762875
Si Si6 0.140826 0.061727 0.005457
Si Si7 0.470432 0.770091 0.093945
Si Si8 0.775906 0.694943 0.344114
O O1 0.208269 0.437200 0.249584
O O2 0.995446 0.602481 0.234750
O O3 0.500000 0.500000 0.000000
O O4 0.000000 0.500000 0.000000
O O5 0.759082 0.314459 0.223461
O O6 0.929474 0.166081 0.388207
O O7 0.888652 0.156607 0.102758
O O8 0.279197 0.202805 0.060777
O O9 0.688204 0.915517 0.529050
O O10 0.746336 0.958875 0.838751
O O11 0.000000 0.000000 0.500000
O O12 0.176849 0.851745 0.212992
O O13 0.687496 0.921496 0.204829
O O14 0.870872 0.772240 0.307106
O O15 0.690184 0.690726 0.564974
O O16 0.488157 0.701108 0.959143
O O17 0.000000 0.000000 0.000000
O O18 0.555982 0.721886 0.251984
#
# Coordination Sequence:
#
# PCOD9100596 Si02
#       8
#     2   2   2   2   2   2   2   2
#     4  12  27  51  77 109 155 198 245 308 373 441
#     4  10  22  42  65  97 134 179 231 287 354 429
#     4  10  20  37  64  96 132 178 233 295 357 431
#     4  12  22  41  69  94 138 181 230 292 358 432
#     4  12  25  45  71 101 142 180 240 296 355 438
#     4  10  20  39  64  93 136 178 228 286 352 428
#     4  12  21  41  69  95 134 183 230 287 355 434
#     4  12  26  43  71 106 135 188 236 296 363 428
#
# _framework density 25.000404
#
# number of rings (size 3 to 8) (size 9 to 14) (size 15 to 20)
#    0.750    0.000    5.000    3.375    0.000    0.000 
#    0.000    3.750    0.000    4.500    0.000    0.000 
#    0.000    0.000    0.000    0.000    0.000    0.000 
#
# Total GULP energy -89095.027449 kJ/mol
# GULP energy per Si atom -5568.439216 kJ/mol
# Density = 2.494350 g / cm^3
# Si number density = 25.000404 Si / 1000 Ang^3
#
#
#
# Elastic Constant Matrix: (Units=GPa)
#
#
# Indices 1 2 3 4 5 6 
#
# 1 70.3942 45.6844 40.8898 -4.2176 16.5158 -6.9174
# 2 45.6844 150.0033 48.6542 -15.1437 19.7125 -20.3799
# 3 40.8898 48.6542 166.0915 -14.7772 36.3074 0.1746
# 4 -4.2176 -15.1437 -14.7772 57.8270 -4.7494 9.0808
# 5 16.5158 19.7125 36.3074 -4.7494 45.6887 0.1153
# 6 -6.9174 -20.3799 0.1746 9.0808 0.1153 43.0539
#
#
#
# Elastic Compliance Matrix: (Units=1/GPa)
#
#
# Indices 1 2 3 4 5 6 
#
# 1 0.019623 -0.004574 -0.002947 -0.000946 -0.002880 0.001207
# 2 -0.004574 0.009185 -0.001194 0.001133 -0.001252 0.003382
# 3 -0.002947 -0.001194 0.008283 0.001403 -0.004853 -0.001355
# 4 -0.000946 0.001133 0.001403 0.018487 0.000669 -0.003523
# 5 -0.002880 -0.001252 -0.004853 0.000669 0.027397 -0.001250
# 6 0.001207 0.003382 -0.001355 -0.003523 -0.001250 0.025773
#
#
# Mechanical properties :
#
#
# Convention : Reuss Voigt Hill
#
# Bulk Modulus (GPa) = 50.85865 72.99399 61.92632
# Shear Modulus (GPa) = 37.66972 46.06463 41.86718
#
# Velocity S-wave (km/s) = 3.88592 4.29716 4.09670
# Velocity P-wave (km/s) = 6.36562 7.34038 6.87031
#
# Compressibility (1/GPa) = 0.01966234
#
# Stress axis : x y z
#
# Youngs Moduli (GPa) = 50.95967 108.87295 120.72751
#
# Poissons Ratio (x) = 0.49793 0.35581
# Poissons Ratio (y) = 0.23307 0.14413
# Poissons Ratio (z) = 0.15019 0.12998
#
# Static dielectric constant tensor:
#      x y z
#    x 2.440940 -0.164120 0.041150 
#    y -0.164120 2.122860 0.006810 
#    z 0.041150 0.006810 2.101240 
# 
# From -- ./inp_files/138934.got.cif
#   From: 2010.05.17/outbox.cif.g08.bks.cpg/sg2_70_cif.got.tgz:138934.got - 2010.06.03 11:33:40.
