data_PCOD9100565
_publ_section_title
;
Structure prediction by ZEFSAII (Michael W. Deem and Ramdas Pophale) SiO2 
 PCOD9100565
Probable space group: P -1
;
_chemical_formula_sum "Si O2"
_cell_formula_units_Z 16
_cell_length_a 11.280012
_cell_length_b 9.112848
_cell_length_c 11.138295
_cell_angle_alpha 104.203354
_cell_angle_beta 118.883071
_cell_angle_gamma 49.700093
_cell_volume 760.725357
_symmetry_space_group_name_H-M "P -1"
_symmetry_group_IT_number 2
_symmetry_cell_setting 'triclinic'
loop_
_space_group_symop_operation_xyz
x,y,z
-x,-y,-z
loop_
_atom_site_type_symbol
_atom_site_label
_atom_site_fract_x
_atom_site_fract_y
_atom_site_fract_z
Si Si1 0.478021 0.336700 0.654281
Si Si2 0.949168 0.362171 0.164150
Si Si3 0.722487 0.744507 0.014921
Si Si4 0.846052 0.636648 0.542155
Si Si5 0.336481 0.931701 0.811200
Si Si6 0.695379 0.935128 0.791440
Si Si7 0.602036 0.083891 0.439490
Si Si8 0.650516 0.383659 0.150175
O O1 0.290908 0.399951 0.545710
O O2 0.579886 0.231408 0.558139
O O3 0.441012 0.513482 0.745921
O O4 0.570289 0.164897 0.763605
O O5 0.852552 0.514318 0.039998
O O6 0.803401 0.389848 0.182833
O O7 0.059431 0.414609 0.295643
O O8 0.112407 0.144316 0.168235
O O9 0.746467 0.847496 0.155532
O O10 0.529710 0.812150 0.936262
O O11 0.725859 0.840799 0.916178
O O12 0.000000 0.500000 0.500000
O O13 0.746552 0.863242 0.509150
O O14 0.349910 0.900526 0.668518
O O15 0.263607 0.839761 0.829217
O O16 0.578103 0.888154 0.654815
O O17 0.500000 0.500000 0.000000
#
# Coordination Sequence:
#
# PCOD9100565 Si02
#       8
#     2   2   2   2   2   2   2   2
#     4  11  21  38  64  91 126 164 199 257 310 367
#     4  12  21  37  66  93 125 155 208 258 298 369
#     4  10  21  38  66  90 119 162 208 260 300 358
#     4  11  19  35  63  98 119 157 208 250 303 361
#     4  10  22  41  61  89 124 163 209 250 308 368
#     4  10  20  37  64  95 123 154 210 257 304 355
#     4  10  20  38  64  89 124 162 206 256 302 362
#     4  12  25  41  61  91 127 165 206 250 316 368
#
# _framework density 21.032558000000002
#
# number of rings (size 3 to 8) (size 9 to 14) (size 15 to 20)
#    0.000    1.250    5.000    2.625    3.500    0.500 
#    0.000    3.125    0.000    0.000    0.000    0.000 
#    0.000    0.000    0.000    0.000    0.000    0.000 
#
# Total GULP energy -89132.629445 kJ/mol
# GULP energy per Si atom -5570.789340 kJ/mol
# Density = 2.098469 g / cm^3
# Si number density = 21.032558 Si / 1000 Ang^3
#
#
#
# Elastic Constant Matrix: (Units=GPa)
#
#
# Indices 1 2 3 4 5 6 
#
# 1 49.0450 14.5859 25.4809 -9.3279 -7.2567 -8.9488
# 2 14.5859 39.2801 21.9320 -2.7542 6.0228 -5.6564
# 3 25.4809 21.9320 76.9748 -5.9782 -6.9350 -1.9918
# 4 -9.3279 -2.7542 -5.9782 33.8866 -6.9590 -2.8398
# 5 -7.2567 6.0228 -6.9350 -6.9590 26.6602 -8.0823
# 6 -8.9488 -5.6564 -1.9918 -2.8398 -8.0823 29.4831
#
#
#
# Elastic Compliance Matrix: (Units=1/GPa)
#
#
# Indices 1 2 3 4 5 6 
#
# 1 0.033334 -0.008991 -0.005645 0.012097 0.016987 0.013833
# 2 -0.008991 0.035414 -0.008712 -0.004073 -0.014006 -0.000755
# 3 -0.005645 -0.008712 0.017979 0.001997 0.005486 -0.000474
# 4 0.012097 -0.004073 0.001997 0.037538 0.018043 0.011587
# 5 0.016987 -0.014006 0.005486 0.018043 0.057609 0.020370
# 6 0.013833 -0.000755 -0.000474 0.011587 0.020370 0.044640
#
#
# Mechanical properties :
#
#
# Convention : Reuss Voigt Hill
#
# Bulk Modulus (GPa) = 24.97962 32.14418 28.56190
# Shear Modulus (GPa) = 17.44872 24.89273 21.17072
#
# Velocity S-wave (km/s) = 2.88341 3.44398 3.17609
# Velocity P-wave (km/s) = 4.79456 5.57951 5.20186
#
# Compressibility (1/GPa) = 0.04003263
#
# Stress axis : x y z
#
# Youngs Moduli (GPa) = 29.99911 28.23729 55.61966
#
# Poissons Ratio (x) = 0.25387 0.31398
# Poissons Ratio (y) = 0.26971 0.48455
# Poissons Ratio (z) = 0.16935 0.24600
#
# Static dielectric constant tensor:
#      x y z
#    x 1.775270 -0.051340 -0.044400 
#    y -0.051340 1.839840 0.098060 
#    z -0.044400 0.098060 1.796180 
# 
# From -- ./inp_files/279689.got.cif
#   From: 2010.05.17/outbox.cif.g08.bks.cpg/sg2_140_cif.got.tgz:279689.got - 2010.06.03 11:33:40.
