data_PCOD9100528
_publ_section_title
;
Structure prediction by ZEFSAII (Michael W. Deem and Ramdas Pophale) SiO2 
 PCOD9100528
Probable space group: P -1
;
_chemical_formula_sum "Si O2"
_cell_formula_units_Z 16
_cell_length_a 24.515585
_cell_length_b 12.358713
_cell_length_c 12.648443
_cell_angle_alpha 36.406488
_cell_angle_beta 150.784926
_cell_angle_gamma 157.876626
_cell_volume 704.281632
_symmetry_space_group_name_H-M "P -1"
_symmetry_group_IT_number 2
_symmetry_cell_setting 'triclinic'
loop_
_space_group_symop_operation_xyz
x,y,z
-x,-y,-z
loop_
_atom_site_type_symbol
_atom_site_label
_atom_site_fract_x
_atom_site_fract_y
_atom_site_fract_z
Si Si1 0.193920 0.455271 0.579298
Si Si2 0.505632 0.287111 0.706341
Si Si3 0.945529 0.372559 0.124335
Si Si4 0.676378 0.705581 0.205714
Si Si5 0.979265 0.262191 0.673652
Si Si6 0.350280 0.708924 0.853482
Si Si7 0.139404 0.416111 0.039309
Si Si8 0.161074 0.107898 0.456830
O O1 0.236792 0.373373 0.622860
O O2 0.346251 0.650884 0.769973
O O3 0.136617 0.574647 0.341468
O O4 0.009821 0.169532 0.548597
O O5 0.500000 0.500000 0.500000
O O6 0.683853 0.431561 0.838484
O O7 0.370212 0.955915 0.697815
O O8 0.521903 0.244936 0.890566
O O9 0.811377 0.036361 0.145119
O O10 0.850290 0.378659 0.046020
O O11 0.000000 0.500000 0.000000
O O12 0.676407 0.698154 0.339828
O O13 0.500000 0.500000 0.000000
O O14 0.159863 0.413544 0.810284
O O15 0.000000 0.500000 0.500000
O O16 0.826752 0.993882 0.550936
O O17 0.989974 0.229729 0.841228
O O18 0.113315 0.245702 0.225091
#
# Coordination Sequence:
#
# PCOD9100528 Si02
#       8
#     2   2   2   2   2   2   2   2
#     4  10  21  43  65  89 126 172 221 275 337 388
#     4  10  23  41  61  95 140 179 212 269 344 401
#     4  11  23  45  69  95 129 174 224 281 330 397
#     4  11  24  41  67  93 130 173 224 275 339 398
#     4  10  20  37  64  93 121 167 217 269 328 390
#     4   9  21  41  61  89 135 171 218 272 331 400
#     4  11  22  38  66  99 127 166 226 272 328 402
#     4  10  21  40  62  92 127 168 214 270 326 399
#
# _framework density 22.718184000000001
#
# number of rings (size 3 to 8) (size 9 to 14) (size 15 to 20)
#    0.000    1.750    0.000    5.625    3.500    1.000 
#   13.500    1.250    0.000    0.000    0.000    0.000 
#    0.000    0.000    0.000    0.000    0.000    0.000 
#
# Total GULP energy -89130.940894 kJ/mol
# GULP energy per Si atom -5570.683806 kJ/mol
# Density = 2.266648 g / cm^3
# Si number density = 22.718184 Si / 1000 Ang^3
#
#
#
# Elastic Constant Matrix: (Units=GPa)
#
#
# Indices 1 2 3 4 5 6 
#
# 1 97.5858 28.5970 42.9329 5.1038 -12.4226 -28.0756
# 2 28.5970 77.7158 43.6052 6.7734 -16.7016 -24.6396
# 3 42.9329 43.6052 132.7850 7.5240 -27.3424 -16.5078
# 4 5.1038 6.7734 7.5240 34.1242 -11.2051 -4.0426
# 5 -12.4226 -16.7016 -27.3424 -11.2051 50.6618 -1.9467
# 6 -28.0756 -24.6396 -16.5078 -4.0426 -1.9467 36.2243
#
#
#
# Elastic Compliance Matrix: (Units=1/GPa)
#
#
# Indices 1 2 3 4 5 6 
#
# 1 0.014840 0.000006 -0.003028 0.000494 0.002512 0.010316
# 2 0.000006 0.020007 -0.004078 -0.000060 0.004844 0.012008
# 3 -0.003028 -0.004078 0.010583 0.000116 0.003647 -0.000090
# 4 0.000494 -0.000060 0.000116 0.032183 0.007451 0.004387
# 5 0.002512 0.004844 0.003647 0.007451 0.025919 0.009128
# 6 0.010316 0.012008 -0.000090 0.004387 0.009128 0.044708
#
#
# Mechanical properties :
#
#
# Convention : Reuss Voigt Hill
#
# Bulk Modulus (GPa) = 32.02255 59.81743 45.91999
# Shear Modulus (GPa) = 28.92684 37.06550 32.99617
#
# Velocity S-wave (km/s) = 3.57219 4.04361 3.81519
# Velocity P-wave (km/s) = 5.58034 6.94179 6.29796
#
# Compressibility (1/GPa) = 0.03122800
#
# Stress axis : x y z
#
# Youngs Moduli (GPa) = 67.38669 49.98261 94.49538
#
# Poissons Ratio (x) = -0.00030 0.28616
# Poissons Ratio (y) = -0.00040 0.38537
# Poissons Ratio (z) = 0.20407 0.20384
#
# Static dielectric constant tensor:
#      x y z
#    x 1.875010 0.001880 -0.076500 
#    y 0.001880 1.885850 0.053510 
#    z -0.076500 0.053510 1.558380 
# 
# From -- ./inp_files/474753.got.cif
#   From: 2010.05.17/outbox.cif.g08.bks.cpg/sg2_238_cif.got.tgz:474753.got - 2010.06.03 11:33:40.
