data_PCOD9100296
_publ_section_title
;
Structure prediction by ZEFSAII (Michael W. Deem and Ramdas Pophale) SiO2 
 PCOD9100296
Probable space group: P -1
;
_chemical_formula_sum "Si O2"
_cell_formula_units_Z 14
_cell_length_a 7.656395
_cell_length_b 8.310872
_cell_length_c 12.090436
_cell_angle_alpha 83.538654
_cell_angle_beta 103.942491
_cell_angle_gamma 125.663170
_cell_volume 606.252769
_symmetry_space_group_name_H-M "P -1"
_symmetry_group_IT_number 2
_symmetry_cell_setting 'triclinic'
loop_
_space_group_symop_operation_xyz
x,y,z
-x,-y,-z
loop_
_atom_site_type_symbol
_atom_site_label
_atom_site_fract_x
_atom_site_fract_y
_atom_site_fract_z
Si Si1 0.041453 0.328890 0.512159
Si Si2 0.922274 0.079742 0.077394
Si Si3 0.521627 0.409800 0.354134
Si Si4 0.599439 0.053327 0.871107
Si Si5 0.138612 0.976684 0.293052
Si Si6 0.774886 0.489200 0.823003
Si Si7 0.812028 0.298418 0.277898
O O1 0.304526 0.448293 0.536476
O O2 0.000000 0.500000 0.500000
O O3 0.962116 0.191373 0.617369
O O4 0.892669 0.215773 0.391818
O O5 0.090381 0.319713 0.090793
O O6 0.689197 0.010211 0.996668
O O7 0.961911 0.001015 0.202821
O O8 0.000000 0.000000 0.000000
O O9 0.410584 0.501565 0.267625
O O10 0.676869 0.381818 0.297654
O O11 0.321400 0.183928 0.364932
O O12 0.737213 0.055700 0.784203
O O13 0.664048 0.274248 0.872726
O O14 0.351959 0.879204 0.814484
O O15 0.965144 0.535069 0.762315
#
# Coordination Sequence:
#
# PCOD9100296 Si02
#       7
#     2   2   2   2   2   2   2
#     4  10  20  37  63  92 121 160 208 245 293 366
#     4   9  20  40  64  89 120 160 203 247 305 365
#     4   9  21  39  59  86 125 163 199 244 298 355
#     4  10  20  38  62  90 124 159 202 254 300 354
#     4   9  19  38  63  89 124 164 199 250 305 351
#     4  11  22  39  63  91 123 158 201 252 303 357
#     4  10  23  39  60  94 124 157 206 246 300 368
#
# _framework density 23.092677999999999
#
# number of rings (size 3 to 8) (size 9 to 14) (size 15 to 20)
#    0.000    2.286    0.000    3.000    0.000    9.714 
#    0.000    7.857    0.000   18.857    0.000    0.000 
#    0.000    0.000    0.000    0.000    0.000    0.000 
#
# Total GULP energy -78225.305590 kJ/mol
# GULP energy per Si atom -5587.521828 kJ/mol
# Density = 2.304012 g / cm^3
# Si number density = 23.092678 Si / 1000 Ang^3
#
#
#
# Elastic Constant Matrix: (Units=GPa)
#
#
# Indices 1 2 3 4 5 6 
#
# 1 115.1059 39.5391 47.8743 -2.9505 34.7617 14.7579
# 2 39.5391 120.2987 82.8774 -14.2063 21.8070 6.9780
# 3 47.8743 82.8774 154.7309 12.7976 37.3229 24.5942
# 4 -2.9505 -14.2063 12.7976 45.5315 8.0431 -1.8715
# 5 34.7617 21.8070 37.3229 8.0431 41.3344 12.7109
# 6 14.7579 6.9780 24.5942 -1.8715 12.7109 32.4588
#
#
#
# Elastic Compliance Matrix: (Units=1/GPa)
#
#
# Indices 1 2 3 4 5 6 
#
# 1 0.012487 -0.001573 -0.000862 0.002104 -0.008980 -0.001048
# 2 -0.001573 0.016237 -0.009239 0.008179 -0.002202 0.005559
# 3 -0.000862 -0.009239 0.014303 -0.006596 -0.003767 -0.007364
# 4 0.002104 0.008179 -0.006596 0.028158 -0.007741 0.006938
# 5 -0.008980 -0.002202 -0.003767 -0.007741 0.040557 -0.008918
# 6 -0.001048 0.005559 -0.007364 0.006938 -0.008918 0.039562
#
#
# Mechanical properties :
#
#
# Convention : Reuss Voigt Hill
#
# Bulk Modulus (GPa) = 50.81761 81.19080 66.00421
# Shear Modulus (GPa) = 27.59182 38.52124 33.05653
#
# Velocity S-wave (km/s) = 3.46038 4.08869 3.78759
# Velocity P-wave (km/s) = 6.16598 7.58451 6.91174
#
# Compressibility (1/GPa) = 0.01967822
#
# Stress axis : x y z
#
# Youngs Moduli (GPa) = 80.08443 61.58586 69.91364
#
# Poissons Ratio (x) = 0.09687 0.06029
# Poissons Ratio (y) = 0.12596 0.64596
# Poissons Ratio (z) = 0.06906 0.56902
#
# Static dielectric constant tensor:
#      x y z
#    x 1.957880 -0.022300 -0.043250 
#    y -0.022300 1.833420 0.074860 
#    z -0.043250 0.074860 1.891400 
# 
# From -- ./inp_files/296677.got.cif
#   From: 2010.05.17/outbox.cif.g08.bks.cpg/sg2_149_cif.got.tgz:296677.got - 2010.06.03 11:33:40.
