data_PCOD9100080
_publ_section_title
;
Structure prediction by ZEFSAII (Michael W. Deem and Ramdas Pophale) SiO2 
 PCOD9100080
Probable space group: P -1
;
_chemical_formula_sum "Si O2"
_cell_formula_units_Z 16
_cell_length_a 10.960529
_cell_length_b 7.795218
_cell_length_c 11.819228
_cell_angle_alpha 36.497098
_cell_angle_beta 90.000274
_cell_angle_gamma 90.000429
_cell_volume 600.629640
_symmetry_space_group_name_H-M "P -1"
_symmetry_group_IT_number 2
_symmetry_cell_setting 'triclinic'
loop_
_space_group_symop_operation_xyz
x,y,z
-x,-y,-z
loop_
_atom_site_type_symbol
_atom_site_label
_atom_site_fract_x
_atom_site_fract_y
_atom_site_fract_z
Si Si1 0.733755 0.561600 0.594430
Si Si2 0.733760 0.438393 0.405572
Si Si3 0.738536 0.743816 0.020432
Si Si4 0.261467 0.743826 0.020430
Si Si5 0.365056 0.159429 0.262827
Si Si6 0.999998 0.277149 0.014109
Si Si7 0.999998 0.709696 0.580385
Si Si8 0.365058 0.840580 0.737172
O O1 0.696180 0.499995 0.500001
O O2 0.717879 0.296233 0.823509
O O3 0.874372 0.668505 0.536403
O O4 0.657698 0.843722 0.478845
O O5 0.717883 0.703757 0.176494
O O6 0.874377 0.331497 0.463598
O O7 0.657705 0.156266 0.521156
O O8 0.735656 0.395021 0.175136
O O9 0.869544 0.876114 0.913651
O O10 0.646222 0.857452 0.865537
O O11 0.264346 0.395030 0.175135
O O12 0.130460 0.876118 0.913649
O O13 0.353782 0.857461 0.865535
O O14 0.500001 0.265730 0.235207
O O15 0.999998 0.454611 0.805092
O O16 0.000000 0.500000 0.000000
O O17 0.000000 0.000000 0.500000
#
# Coordination Sequence:
#
# PCOD9100080 Si02
#       8
#     2   2   2   2   2   2   2   2
#     4  11  24  40  59  90 128 159 192 241 305 370
#     4  11  24  40  59  90 128 159 192 241 305 370
#     4  10  21  38  63  92 118 151 205 256 299 349
#     4  10  21  38  63  92 118 151 205 256 299 349
#     4  11  23  39  63  87 115 160 210 257 295 341
#     4  10  16  31  59  92 114 138 180 245 311 346
#     4  10  21  37  65  91 116 154 197 246 296 353
#     4  11  23  39  63  87 115 160 210 257 295 341
#
# _framework density 26.638711000000001
#
# number of rings (size 3 to 8) (size 9 to 14) (size 15 to 20)
#    0.000    1.500    2.500    5.625    0.000    4.500 
#    0.000    1.250    0.000    6.000    0.000    0.000 
#    0.000    0.000    0.000    0.000    0.000    0.000 
#
# Total GULP energy -89500.978286 kJ/mol
# GULP energy per Si atom -5593.811143 kJ/mol
# Density = 2.657808 g / cm^3
# Si number density = 26.638711 Si / 1000 Ang^3
#
#
#
# Elastic Constant Matrix: (Units=GPa)
#
#
# Indices 1 2 3 4 5 6 
#
# 1 104.4481 -8.5333 9.3376 -0.0132 -0.5336 6.5253
# 2 -8.5333 75.9786 2.9929 27.1731 -1.2929 -5.1992
# 3 9.3376 2.9929 158.9135 10.4976 -3.3173 0.7237
# 4 -0.0132 27.1731 10.4976 50.5447 -1.7784 -2.6136
# 5 -0.5336 -1.2929 -3.3173 -1.7784 31.5233 8.4489
# 6 6.5253 -5.1992 0.7237 -2.6136 8.4489 18.4821
#
#
#
# Elastic Compliance Matrix: (Units=1/GPa)
#
#
# Indices 1 2 3 4 5 6 
#
# 1 0.009956 0.001133 -0.000522 -0.000654 0.001139 -0.003789
# 2 0.001133 0.016662 0.000175 -0.008845 -0.000672 0.003337
# 3 -0.000522 0.000175 0.006433 -0.001433 0.000745 -0.000562
# 4 -0.000654 -0.008845 -0.001433 0.024912 0.000600 0.001047
# 5 0.001139 -0.000672 0.000745 0.000600 0.036434 -0.017191
# 6 -0.003789 0.003337 -0.000562 0.001047 -0.017191 0.064412
#
#
# Mechanical properties :
#
#
# Convention : Reuss Voigt Hill
#
# Bulk Modulus (GPa) = 28.88407 38.54829 33.71618
# Shear Modulus (GPa) = 29.62458 42.47955 36.05206
#
# Velocity S-wave (km/s) = 3.33842 3.99765 3.68281
# Velocity P-wave (km/s) = 5.07213 5.98418 5.54693
#
# Compressibility (1/GPa) = 0.03462116
#
# Stress axis : x y z
#
# Youngs Moduli (GPa) = 100.44408 60.01645 155.45125
#
# Poissons Ratio (x) = -0.06798 0.08116
# Poissons Ratio (y) = -0.11377 -0.02715
# Poissons Ratio (z) = 0.05244 -0.01048
#
# Static dielectric constant tensor:
#      x y z
#    x 2.047620 -0.018530 -0.003150 
#    y -0.018530 2.247810 0.023620 
#    z -0.003150 0.023620 2.084470 
# 
# From -- ./inp_files/416146.got.cif
#   From: 2010.05.17/outbox.cif.g08.bks.cpg/sg2_209_cif.got.tgz:416146.got - 2010.06.03 11:33:40.
