data_PCOD9100802
_publ_section_title
;
Structure prediction by ZEFSAII (Michael W. Deem and Ramdas Pophale) SiO2 
 PCOD9100802
Probable space group: P -1
;
_chemical_formula_sum "Si O2"
_cell_formula_units_Z 16
_cell_length_a 12.145632
_cell_length_b 6.761625
_cell_length_c 12.311170
_cell_angle_alpha 62.262924
_cell_angle_beta 42.675063
_cell_angle_gamma 82.194920
_cell_volume 569.561192
_symmetry_space_group_name_H-M "P -1"
_symmetry_group_IT_number 2
_symmetry_cell_setting 'triclinic'
loop_
_space_group_symop_operation_xyz
x,y,z
-x,-y,-z
loop_
_atom_site_type_symbol
_atom_site_label
_atom_site_fract_x
_atom_site_fract_y
_atom_site_fract_z
Si Si1 0.385202 0.506127 0.684530
Si Si2 0.199612 0.331448 0.392104
Si Si3 0.917235 0.729557 0.273022
Si Si4 0.494436 0.256989 0.859252
Si Si5 0.763450 0.982255 0.168693
Si Si6 0.512908 0.148801 0.197005
Si Si7 0.811904 0.674264 0.837208
Si Si8 0.891888 0.359554 0.219044
O O1 0.500000 0.500000 0.500000
O O2 0.481921 0.465179 0.731280
O O3 0.238819 0.245850 0.843332
O O4 0.294928 0.701890 0.691122
O O5 0.080210 0.284986 0.596702
O O6 0.333342 0.602561 0.235924
O O7 0.328708 0.178006 0.340755
O O8 0.113391 0.285372 0.348689
O O9 0.821737 0.914932 0.259777
O O10 0.832701 0.475512 0.341031
O O11 0.091142 0.813930 0.053739
O O12 0.500633 0.967496 0.153762
O O13 0.316269 0.185299 0.073962
O O14 0.586709 0.027520 0.270015
O O15 0.664288 0.406891 0.007600
O O16 0.964385 0.724566 0.802092
O O17 0.000000 0.500000 0.000000
#
# Coordination Sequence:
#
# PCOD9100802 Si02
#       8
#     2   2   2   2   2   2   2   2
#     4  10  20  37  66 102 133 162 222 289 339 392
#     4  11  25  41  67 102 142 177 229 283 332 411
#     4  10  21  41  63  97 136 177 223 284 339 402
#     4  10  20  40  67 100 136 179 230 283 336 403
#     4   9  19  38  66  92 128 176 221 272 341 399
#     4  10  21  41  70  99 134 185 227 281 343 395
#     4  11  23  41  67 103 135 186 231 271 342 412
#     4  11  21  40  67  96 132 183 225 274 340 405
#
# _framework density 28.091804
#
# number of rings (size 3 to 8) (size 9 to 14) (size 15 to 20)
#    0.000    1.750    2.500    3.000    0.000    3.000 
#    0.000   12.500    0.000    3.000    0.000    0.000 
#    0.000    0.000    0.000    0.000    0.000    0.000 
#
# Total GULP energy -89357.751882 kJ/mol
# GULP energy per Si atom -5584.859493 kJ/mol
# Density = 2.802787 g / cm^3
# Si number density = 28.091804 Si / 1000 Ang^3
#
#
#
# Elastic Constant Matrix: (Units=GPa)
#
#
# Indices 1 2 3 4 5 6 
#
# 1 147.8259 28.7533 44.1982 7.5380 32.1509 -1.6206
# 2 28.7533 108.2260 21.8779 19.4376 -5.9001 13.3431
# 3 44.1982 21.8779 115.8872 22.2192 34.0719 0.5517
# 4 7.5380 19.4376 22.2192 30.2096 16.0752 2.1191
# 5 32.1509 -5.9001 34.0719 16.0752 52.2726 12.1082
# 6 -1.6206 13.3431 0.5517 2.1191 12.1082 43.3064
#
#
#
# Elastic Compliance Matrix: (Units=1/GPa)
#
#
# Indices 1 2 3 4 5 6 
#
# 1 0.009445 -0.003948 -0.001637 0.005179 -0.007581 0.003457
# 2 -0.003948 0.014247 -0.001985 -0.011866 0.010575 -0.006888
# 3 -0.001637 -0.001985 0.012325 -0.004056 -0.006565 0.002427
# 4 0.005179 -0.011866 -0.004056 0.052358 -0.019560 0.006808
# 5 -0.007581 0.010575 -0.006565 -0.019560 0.038344 -0.013222
# 6 0.003457 -0.006888 0.002427 0.006808 -0.013222 0.028676
#
#
# Mechanical properties :
#
#
# Convention : Reuss Voigt Hill
#
# Bulk Modulus (GPa) = 47.90398 62.39978 55.15188
# Shear Modulus (GPa) = 28.16999 43.63168 35.90084
#
# Velocity S-wave (km/s) = 3.17011 3.94532 3.57877
# Velocity P-wave (km/s) = 5.52170 6.55859 6.06235
#
# Compressibility (1/GPa) = 0.02087509
#
# Stress axis : x y z
#
# Youngs Moduli (GPa) = 105.87837 70.19050 81.13793
#
# Poissons Ratio (x) = 0.27711 0.13286
# Poissons Ratio (y) = 0.41801 0.16108
# Poissons Ratio (z) = 0.17337 0.13934
#
# Static dielectric constant tensor:
#      x y z
#    x 2.255400 0.031810 -0.023290 
#    y 0.031810 2.376240 -0.161290 
#    z -0.023290 -0.161290 2.254200 
# 
# From -- ./inp_files/282013.got.cif
#   From: 2010.05.17/outbox.cif.g08.bks.cpg/sg2_142_cif.got.tgz:282013.got - 2010.06.03 11:33:40.
