data_PCOD9100667
_publ_section_title
;
Structure prediction by ZEFSAII (Michael W. Deem and Ramdas Pophale) SiO2 
 PCOD9100667
Probable space group: P -1
;
_chemical_formula_sum "Si O2"
_cell_formula_units_Z 16
_cell_length_a 9.178803
_cell_length_b 21.554317
_cell_length_c 9.865663
_cell_angle_alpha 54.542908
_cell_angle_beta 128.486081
_cell_angle_gamma 155.568671
_cell_volume 631.364740
_symmetry_space_group_name_H-M "P -1"
_symmetry_group_IT_number 2
_symmetry_cell_setting 'triclinic'
loop_
_space_group_symop_operation_xyz
x,y,z
-x,-y,-z
loop_
_atom_site_type_symbol
_atom_site_label
_atom_site_fract_x
_atom_site_fract_y
_atom_site_fract_z
Si Si1 0.125261 0.466558 0.410088
Si Si2 0.120438 0.725665 0.292091
Si Si3 0.915934 0.144387 0.429367
Si Si4 0.795770 0.600704 0.732523
Si Si5 0.881492 0.145744 0.700262
Si Si6 0.936926 0.053433 0.312841
Si Si7 0.934053 0.373978 0.876673
Si Si8 0.176459 0.020188 0.949893
O O1 0.476089 0.552097 0.583470
O O2 0.140318 0.430955 0.318658
O O3 0.093968 0.546071 0.274781
O O4 0.805298 0.319273 0.507349
O O5 0.911503 0.713626 0.280873
O O6 0.489532 0.899026 0.238303
O O7 0.931769 0.625118 0.178292
O O8 0.068882 0.184412 0.620345
O O9 0.875736 0.221079 0.297284
O O10 0.516796 0.963491 0.436505
O O11 0.073543 0.167965 0.348650
O O12 0.824772 0.561472 0.934743
O O13 0.786257 0.050203 0.876800
O O14 0.056105 0.079062 0.195672
O O15 0.000000 0.000000 0.500000
O O16 0.531626 0.195616 0.896082
O O17 0.000000 0.000000 0.000000
#
# Coordination Sequence:
#
# PCOD9100667 Si02
#       8
#     2   2   2   2   2   2   2   2
#     4  11  25  45  67  95 130 179 227 269 317 390
#     4  10  23  42  66  94 132 172 218 272 327 389
#     4  10  20  37  65  89 128 167 209 268 325 392
#     4  11  24  42  69  94 128 177 225 265 330 380
#     4  10  20  38  64  93 126 167 216 263 336 394
#     4  10  23  38  62 100 131 167 214 269 334 391
#     4  11  25  44  67  96 136 171 223 274 322 392
#     4  11  24  38  63  99 134 170 213 273 336 392
#
# _framework density 25.341929
#
# number of rings (size 3 to 8) (size 9 to 14) (size 15 to 20)
#    0.000    1.500    2.500    1.500    7.000    3.000 
#    0.000    1.250    0.000    0.000    0.000    0.000 
#    0.000    0.000    0.000    0.000    0.000    0.000 
#
# Total GULP energy -89257.738803 kJ/mol
# GULP energy per Si atom -5578.608675 kJ/mol
# Density = 2.528425 g / cm^3
# Si number density = 25.341929 Si / 1000 Ang^3
#
#
#
# Elastic Constant Matrix: (Units=GPa)
#
#
# Indices 1 2 3 4 5 6 
#
# 1 139.5020 37.0779 69.7746 19.1042 -34.8060 -43.2992
# 2 37.0779 53.6103 41.1025 -8.7687 1.3221 -27.6728
# 3 69.7746 41.1025 169.3372 6.5449 -20.8526 -40.4352
# 4 19.1042 -8.7687 6.5449 47.3252 -16.8618 -6.7902
# 5 -34.8060 1.3221 -20.8526 -16.8618 57.1004 3.2395
# 6 -43.2992 -27.6728 -40.4352 -6.7902 3.2395 47.7553
#
#
#
# Elastic Compliance Matrix: (Units=1/GPa)
#
#
# Indices 1 2 3 4 5 6 
#
# 1 0.013604 -0.005013 -0.001788 -0.002837 0.006517 0.007070
# 2 -0.005013 0.033392 -0.003609 0.009518 -0.003091 0.013311
# 3 -0.001788 -0.003609 0.008573 0.000052 0.001945 0.003421
# 4 -0.002837 0.009518 0.000052 0.026976 0.005670 0.006438
# 5 0.006517 -0.003091 0.001945 0.005670 0.023660 0.004965
# 6 0.007070 0.013311 0.003421 0.006438 0.004965 0.038539
#
#
# Mechanical properties :
#
#
# Convention : Reuss Voigt Hill
#
# Bulk Modulus (GPa) = 28.77954 73.15105 50.96530
# Shear Modulus (GPa) = 28.22509 44.73582 36.48046
#
# Velocity S-wave (km/s) = 3.34094 4.20609 3.79823
# Velocity P-wave (km/s) = 5.12481 7.24683 6.27615
#
# Compressibility (1/GPa) = 0.03474690
#
# Stress axis : x y z
#
# Youngs Moduli (GPa) = 73.50738 29.94765 116.64757
#
# Poissons Ratio (x) = 0.15013 0.20861
# Poissons Ratio (y) = 0.36849 0.42104
# Poissons Ratio (z) = 0.13146 0.10810
#
# Static dielectric constant tensor:
#      x y z
#    x 2.082710 0.082570 -0.027890 
#    y 0.082570 2.255220 0.034970 
#    z -0.027890 0.034970 2.022890 
# 
# From -- ./inp_files/202071.got.cif
#   From: 2010.05.17/outbox.cif.g08.bks.cpg/sg2_102_cif.got.tgz:202071.got - 2010.06.03 11:33:40.
