data_PCOD9100290
_publ_section_title
;
Structure prediction by ZEFSAII (Michael W. Deem and Ramdas Pophale) SiO2 
 PCOD9100290
Probable space group: P -1
;
_chemical_formula_sum "Si O2"
_cell_formula_units_Z 12
_cell_length_a 7.388857
_cell_length_b 14.872499
_cell_length_c 4.869416
_cell_angle_alpha 101.425326
_cell_angle_beta 100.725007
_cell_angle_gamma 59.780101
_cell_volume 450.856692
_symmetry_space_group_name_H-M "P -1"
_symmetry_group_IT_number 2
_symmetry_cell_setting 'triclinic'
loop_
_space_group_symop_operation_xyz
x,y,z
-x,-y,-z
loop_
_atom_site_type_symbol
_atom_site_label
_atom_site_fract_x
_atom_site_fract_y
_atom_site_fract_z
Si Si1 0.819034 0.476917 0.048731
Si Si2 0.587758 0.813758 0.874368
Si Si3 0.386961 0.394211 0.411175
Si Si4 0.626204 0.065949 0.601435
Si Si5 0.054177 0.137037 0.202906
Si Si6 0.162962 0.731141 0.251701
O O1 0.618153 0.547984 0.838353
O O2 0.880005 0.357571 0.946167
O O3 0.765455 0.517799 0.366814
O O4 0.000000 0.500000 0.000000
O O5 0.673879 0.694735 0.738349
O O6 0.514535 0.838341 0.179671
O O7 0.757835 0.851471 0.884688
O O8 0.384375 0.885931 0.670219
O O9 0.609322 0.330855 0.584249
O O10 0.847501 0.982205 0.740132
O O11 0.500000 0.000000 0.500000
O O12 0.987516 0.206074 0.501297
O O13 0.870120 0.188274 0.955503
#
# Coordination Sequence:
#
# PCOD9100290 Si02
#       6
#     2   2   2   2   2   2
#     4  12  24  43  66  90 117 159 206 249 293 357
#     4  11  21  39  63  90 120 159 205 252 295 349
#     4  12  25  42  61  91 126 158 195 249 307 358
#     4  10  20  37  63  92 119 156 205 255 294 342
#     4  11  21  39  62  89 118 159 206 247 293 358
#     4  12  24  40  61  90 125 161 196 246 306 360
#
# _framework density 26.615993
#
# number of rings (size 3 to 8) (size 9 to 14) (size 15 to 20)
#    0.000    0.667    0.000   11.500    0.000    0.000 
#    0.000    5.000    0.000    0.000    0.000    0.000 
#    0.000    0.000    0.000    0.000    0.000    0.000 
#
# Total GULP energy -67370.003794 kJ/mol
# GULP energy per Si atom -5614.166983 kJ/mol
# Density = 2.655541 g / cm^3
# Si number density = 26.615993 Si / 1000 Ang^3
#
#
#
# Elastic Constant Matrix: (Units=GPa)
#
#
# Indices 1 2 3 4 5 6 
#
# 1 61.8070 14.8136 16.0653 18.0807 15.0571 -0.2159
# 2 14.8136 114.3016 32.9542 -17.9635 10.0280 3.5231
# 3 16.0653 32.9542 148.4585 -0.8785 -13.3870 -13.0501
# 4 18.0807 -17.9635 -0.8785 70.8815 -9.6843 -0.4763
# 5 15.0571 10.0280 -13.3870 -9.6843 39.3906 -0.7121
# 6 -0.2159 3.5231 -13.0501 -0.4763 -0.7121 37.2239
#
#
#
# Elastic Compliance Matrix: (Units=1/GPa)
#
#
# Indices 1 2 3 4 5 6 
#
# 1 0.022500 -0.002271 -0.003062 -0.007865 -0.011016 -0.001039
# 2 -0.002271 0.010412 -0.002381 0.002915 -0.001908 -0.001833
# 3 -0.003062 -0.002381 0.008328 0.000973 0.004905 0.003234
# 4 -0.007865 0.002915 0.000973 0.017822 0.006983 0.000381
# 5 -0.011016 -0.001908 0.004905 0.006983 0.033513 0.002567
# 6 -0.001039 -0.001833 0.003234 0.000381 0.002567 0.028219
#
#
# Mechanical properties :
#
#
# Convention : Reuss Voigt Hill
#
# Bulk Modulus (GPa) = 38.74202 50.24815 44.49508
# Shear Modulus (GPa) = 34.52393 46.88147 40.70270
#
# Velocity S-wave (km/s) = 3.60545 4.20146 3.91481
# Velocity P-wave (km/s) = 5.64977 6.51585 6.09820
#
# Compressibility (1/GPa) = 0.02581177
#
# Stress axis : x y z
#
# Youngs Moduli (GPa) = 44.44388 96.04561 120.07532
#
# Poissons Ratio (x) = 0.21810 0.36767
# Poissons Ratio (y) = 0.10092 0.28594
# Poissons Ratio (z) = 0.13609 0.22872
#
# Static dielectric constant tensor:
#      x y z
#    x 2.106690 -0.048990 0.119290 
#    y -0.048990 2.073980 -0.067350 
#    z 0.119290 -0.067350 2.070240 
# 
# From -- ./inp_files/42695.got.cif
#   From: 2010.05.17/outbox.cif.g08.bks.cpg/sg2_22_cif.got.tgz:42695.got - 2010.06.03 11:33:40.
