data_PCOD9100779
_publ_section_title
;
Structure prediction by ZEFSAII (Michael W. Deem and Ramdas Pophale) SiO2 
 PCOD9100779
Probable space group: P -1
;
_chemical_formula_sum "Si O2"
_cell_formula_units_Z 16
_cell_length_a 13.266402
_cell_length_b 14.137406
_cell_length_c 11.982956
_cell_angle_alpha 107.558944
_cell_angle_beta 133.687709
_cell_angle_gamma 34.632611
_cell_volume 702.769889
_symmetry_space_group_name_H-M "P -1"
_symmetry_group_IT_number 2
_symmetry_cell_setting 'triclinic'
loop_
_space_group_symop_operation_xyz
x,y,z
-x,-y,-z
loop_
_atom_site_type_symbol
_atom_site_label
_atom_site_fract_x
_atom_site_fract_y
_atom_site_fract_z
Si Si1 0.884063 0.465108 0.749844
Si Si2 0.566252 0.461455 0.187711
Si Si3 0.283772 0.844366 0.076242
Si Si4 0.850097 0.088207 0.254468
Si Si5 0.744733 0.581355 0.934494
Si Si6 0.962593 0.724394 0.774389
Si Si7 0.390867 0.223875 0.539438
Si Si8 0.263388 0.650325 0.472413
O O1 0.709896 0.579102 0.776860
O O2 0.694067 0.638525 0.567016
O O3 0.944985 0.314785 0.700725
O O4 0.164783 0.361585 0.954998
O O5 0.520823 0.602352 0.166292
O O6 0.856286 0.204772 0.296288
O O7 0.558262 0.473791 0.319715
O O8 0.268579 0.595460 0.956223
O O9 0.477327 0.811968 0.261269
O O10 0.161832 0.938419 0.892418
O O11 0.000000 0.000000 0.000000
O O12 0.541481 0.261388 0.149850
O O13 0.092687 0.863484 0.418587
O O14 0.014931 0.340259 0.107565
O O15 0.896306 0.669036 0.629756
O O16 0.676778 0.977482 0.627046
O O17 0.500000 0.500000 0.500000
#
# Coordination Sequence:
#
# PCOD9100779 Si02
#       8
#     2   2   2   2   2   2   2   2
#     4  10  21  40  69  94 129 173 219 267 314 399
#     4  11  22  43  61  93 133 168 208 269 334 376
#     4  12  23  41  67  97 129 170 222 268 322 386
#     4  11  26  42  64  94 134 171 215 273 331 383
#     4   9  21  44  65  93 133 174 212 268 333 378
#     4   9  19  37  64  93 129 161 213 259 322 382
#     4  10  20  37  65  98 122 168 217 263 312 386
#     4  12  24  39  66  98 127 169 226 270 322 392
#
# _framework density 22.767052
#
# number of rings (size 3 to 8) (size 9 to 14) (size 15 to 20)
#    0.000    1.500    2.500    3.000    1.750    0.500 
#    0.000    5.625    0.000    0.000    0.000    0.000 
#    0.000    0.000    0.000    0.000    0.000    0.000 
#
# Total GULP energy -89319.450215 kJ/mol
# GULP energy per Si atom -5582.465638 kJ/mol
# Density = 2.271523 g / cm^3
# Si number density = 22.767052 Si / 1000 Ang^3
#
#
#
# Elastic Constant Matrix: (Units=GPa)
#
#
# Indices 1 2 3 4 5 6 
#
# 1 57.3395 18.5628 12.5581 4.2644 -5.0855 -2.3122
# 2 18.5628 78.5822 18.0515 6.8923 12.5089 17.4785
# 3 12.5581 18.0515 75.4738 23.5977 -0.7889 -1.1306
# 4 4.2644 6.8923 23.5977 46.1320 8.0018 -7.6597
# 5 -5.0855 12.5089 -0.7889 8.0018 32.8669 12.3203
# 6 -2.3122 17.4785 -1.1306 -7.6597 12.3203 44.1029
#
#
#
# Elastic Compliance Matrix: (Units=1/GPa)
#
#
# Indices 1 2 3 4 5 6 
#
# 1 0.020110 -0.005412 -0.001771 -0.000659 0.004635 0.001744
# 2 -0.005412 0.016837 -0.003110 -0.000494 -0.005060 -0.005708
# 3 -0.001771 -0.003110 0.017123 -0.008987 0.003912 -0.001075
# 4 -0.000659 -0.000494 -0.008987 0.029510 -0.010286 0.007930
# 5 0.004635 -0.005060 0.003912 -0.010286 0.039603 -0.010501
# 6 0.001744 -0.005708 -0.001075 0.007930 -0.010501 0.029311
#
#
# Mechanical properties :
#
#
# Convention : Reuss Voigt Hill
#
# Bulk Modulus (GPa) = 29.86528 34.41561 32.14044
# Shear Modulus (GPa) = 27.13815 35.43523 31.28669
#
# Velocity S-wave (km/s) = 3.45627 3.94944 3.71105
# Velocity P-wave (km/s) = 5.39203 5.99555 5.70178
#
# Compressibility (1/GPa) = 0.03348370
#
# Stress axis : x y z
#
# Youngs Moduli (GPa) = 49.72573 59.39348 58.40073
#
# Poissons Ratio (x) = 0.32142 0.10344
# Poissons Ratio (y) = 0.26910 0.18165
# Poissons Ratio (z) = 0.08808 0.18473
#
# Static dielectric constant tensor:
#      x y z
#    x 1.908780 0.021100 0.033770 
#    y 0.021100 1.888120 -0.006720 
#    z 0.033770 -0.006720 1.865050 
# 
# From -- ./inp_files/218618.got.cif
#   From: 2010.05.17/outbox.cif.g08.bks.cpg/sg2_110_cif.got.tgz:218618.got - 2010.06.03 11:33:40.
