data_PCOD9100382
_publ_section_title
;
Structure prediction by ZEFSAII (Michael W. Deem and Ramdas Pophale) SiO2 
 PCOD9100382
Probable space group: P -1
;
_chemical_formula_sum "Si O2"
_cell_formula_units_Z 16
_cell_length_a 8.544747
_cell_length_b 19.044195
_cell_length_c 10.525783
_cell_angle_alpha 31.924446
_cell_angle_beta 82.278089
_cell_angle_gamma 101.685322
_cell_volume 715.219424
_symmetry_space_group_name_H-M "P -1"
_symmetry_group_IT_number 2
_symmetry_cell_setting 'triclinic'
loop_
_space_group_symop_operation_xyz
x,y,z
-x,-y,-z
loop_
_atom_site_type_symbol
_atom_site_label
_atom_site_fract_x
_atom_site_fract_y
_atom_site_fract_z
Si Si1 0.739954 0.473887 0.551161
Si Si2 0.102931 0.700954 0.314498
Si Si3 0.694087 0.832152 0.932869
Si Si4 0.967235 0.773879 0.881420
Si Si5 0.712035 0.970567 0.341895
Si Si6 0.010054 0.072131 0.747733
Si Si7 0.093228 0.670583 0.647501
Si Si8 0.315168 0.871382 0.530455
O O1 0.809735 0.357658 0.706960
O O2 0.869557 0.599685 0.460233
O O3 0.504359 0.354316 0.755407
O O4 0.826134 0.596246 0.234571
O O5 0.120865 0.648990 0.531248
O O6 0.233502 0.899144 0.978807
O O7 0.829687 0.835512 0.802621
O O8 0.832973 0.921235 0.907390
O O9 0.622296 0.944997 0.744640
O O10 0.143432 0.900144 0.764682
O O11 0.088377 0.768477 0.762543
O O12 0.487599 0.867718 0.572922
O O13 0.790250 0.871668 0.432782
O O14 0.003580 0.229380 0.507025
O O15 0.000000 0.000000 0.000000
O O16 0.295546 0.808794 0.485879
O O17 0.000000 0.500000 0.000000
#
# Coordination Sequence:
#
# PCOD9100382 Si02
#       8
#     2   2   2   2   2   2   2   2
#     4  10  20  37  63  97 124 168 217 265 324 381
#     4  10  20  37  64  92 132 166 212 271 318 383
#     4  10  21  37  64  97 125 167 223 264 320 387
#     4  10  21  37  59  91 138 165 207 273 329 378
#     4  10  20  38  64  97 120 171 222 267 314 386
#     4  10  21  40  67  96 133 167 218 273 319 381
#     4  11  24  42  65  91 135 173 208 265 339 386
#     4  11  22  39  63  92 128 172 217 262 327 388
#
# _framework density 22.370756
#
# number of rings (size 3 to 8) (size 9 to 14) (size 15 to 20)
#    0.000    1.750    2.500    1.875    0.000    1.500 
#    2.250    0.625    0.000    0.000    0.000    0.000 
#    0.000    0.000    0.000    0.000    0.000    0.000 
#
# Total GULP energy -89111.480272 kJ/mol
# GULP energy per Si atom -5569.467517 kJ/mol
# Density = 2.231984 g / cm^3
# Si number density = 22.370756 Si / 1000 Ang^3
#
#
#
# Elastic Constant Matrix: (Units=GPa)
#
#
# Indices 1 2 3 4 5 6 
#
# 1 108.2344 28.9982 31.6550 -11.7446 -17.2206 -13.4083
# 2 28.9982 75.8920 20.6211 4.1877 -10.4176 0.3518
# 3 31.6550 20.6211 106.1679 -1.3051 -9.5574 10.4282
# 4 -11.7446 4.1877 -1.3051 27.9703 -1.2779 11.4713
# 5 -17.2206 -10.4176 -9.5574 -1.2779 44.1698 -2.3615
# 6 -13.4083 0.3518 10.4282 11.4713 -2.3615 21.8692
#
#
#
# Elastic Compliance Matrix: (Units=1/GPa)
#
#
# Indices 1 2 3 4 5 6 
#
# 1 0.013398 -0.003703 -0.003788 0.002389 0.004095 0.009270
# 2 -0.003703 0.015574 -0.001893 -0.004216 0.001740 0.000781
# 3 -0.003788 -0.001893 0.011923 0.003212 0.000234 -0.009637
# 4 0.002389 -0.004216 0.003212 0.047826 0.000679 -0.025013
# 5 0.004095 0.001740 0.000234 0.000679 0.024969 0.004711
# 6 0.009270 0.000781 -0.009637 -0.025013 0.004711 0.069622
#
#
# Mechanical properties :
#
#
# Convention : Reuss Voigt Hill
#
# Bulk Modulus (GPa) = 45.19187 50.31588 47.75388
# Shear Modulus (GPa) = 23.87148 32.73652 28.30400
#
# Velocity S-wave (km/s) = 3.27017 3.82954 3.56086
# Velocity P-wave (km/s) = 5.87400 6.48803 6.18863
#
# Compressibility (1/GPa) = 0.02212787
#
# Stress axis : x y z
#
# Youngs Moduli (GPa) = 74.63623 64.21146 83.86913
#
# Poissons Ratio (x) = 0.23776 0.31771
# Poissons Ratio (y) = 0.27636 0.15874
# Poissons Ratio (z) = 0.28273 0.12154
#
# Static dielectric constant tensor:
#      x y z
#    x 1.909680 -0.018430 0.022880 
#    y -0.018430 1.877010 0.037270 
#    z 0.022880 0.037270 1.890970 
# 
# From -- ./inp_files/405285.got.cif
#   From: 2010.05.17/outbox.cif.g08.bks.cpg/sg2_203_cif.got.tgz:405285.got - 2010.06.03 11:33:40.
