data_PCOD9100275
_publ_section_title
;
Structure prediction by ZEFSAII (Michael W. Deem and Ramdas Pophale) SiO2 
 PCOD9100275
Probable space group: P -1
;
_chemical_formula_sum "Si O2"
_cell_formula_units_Z 14
_cell_length_a 12.109862
_cell_length_b 19.462716
_cell_length_c 9.260525
_cell_angle_alpha 40.474131
_cell_angle_beta 50.220157
_cell_angle_gamma 28.331553
_cell_volume 669.210177
_symmetry_space_group_name_H-M "P -1"
_symmetry_group_IT_number 2
_symmetry_cell_setting 'triclinic'
loop_
_space_group_symop_operation_xyz
x,y,z
-x,-y,-z
loop_
_atom_site_type_symbol
_atom_site_label
_atom_site_fract_x
_atom_site_fract_y
_atom_site_fract_z
Si Si1 0.365983 0.969865 0.136830
Si Si2 0.821910 0.288618 0.051784
Si Si3 0.481641 0.477542 0.304492
Si Si4 0.493880 0.133828 0.137333
Si Si5 0.863749 0.845401 0.523568
Si Si6 0.187784 0.935317 0.563805
Si Si7 0.632004 0.561609 0.260999
O O1 0.394191 0.867265 0.404606
O O2 0.089896 0.152131 0.077442
O O3 0.500000 0.000000 0.000000
O O4 0.428261 0.897269 0.042030
O O5 0.736827 0.411250 0.796796
O O6 0.684231 0.376013 0.178359
O O7 0.759931 0.206058 0.178131
O O8 0.485687 0.577430 0.244286
O O9 0.488381 0.381773 0.571378
O O10 0.313486 0.141026 0.288848
O O11 0.721550 0.974923 0.298183
O O12 0.369110 0.317296 0.986061
O O13 0.111886 0.642986 0.614217
O O14 0.893654 0.926318 0.479990
O O15 0.000000 0.000000 0.500000
#
# Coordination Sequence:
#
# PCOD9100275 Si02
#       7
#     2   2   2   2   2   2   2
#     4  11  21  38  62  91 126 165 211 261 314 376
#     4  10  21  39  62  92 125 166 209 266 316 371
#     4  10  22  38  63  90 127 162 213 266 311 374
#     4  11  24  39  63  93 130 170 208 256 325 382
#     4  11  23  41  62  93 132 167 209 264 312 382
#     4  10  20  37  63  91 122 166 212 254 315 369
#     4  11  22  41  62  92 125 168 212 258 317 375
#
# _framework density 20.920183999999999
#
# number of rings (size 3 to 8) (size 9 to 14) (size 15 to 20)
#    0.000    1.429    1.429    4.714    0.000    3.429 
#    0.000    7.143    0.000    3.429    0.000    0.000 
#    0.000    0.000    0.000    0.000    0.000    0.000 
#
# Total GULP energy -78068.422414 kJ/mol
# GULP energy per Si atom -5576.315887 kJ/mol
# Density = 2.087257 g / cm^3
# Si number density = 20.920184 Si / 1000 Ang^3
#
#
#
# Elastic Constant Matrix: (Units=GPa)
#
#
# Indices 1 2 3 4 5 6 
#
# 1 90.1474 28.4499 41.2754 0.4394 0.4812 0.1214
# 2 28.4499 68.0068 23.0705 1.9227 7.5400 3.0215
# 3 41.2754 23.0705 96.9400 -0.8085 -4.4904 6.4521
# 4 0.4394 1.9227 -0.8085 24.9913 -1.8575 -4.1572
# 5 0.4812 7.5400 -4.4904 -1.8575 32.6171 0.2257
# 6 0.1214 3.0215 6.4521 -4.1572 0.2257 32.0046
#
#
#
# Elastic Compliance Matrix: (Units=1/GPa)
#
#
# Indices 1 2 3 4 5 6 
#
# 1 0.014988 -0.004517 -0.005400 0.000161 0.000079 0.001479
# 2 -0.004517 0.018069 -0.002511 -0.001965 -0.004558 -0.001406
# 3 -0.005400 -0.002511 0.013496 0.000514 0.002564 -0.002415
# 4 0.000161 -0.001965 0.000514 0.041292 0.002837 0.005425
# 5 0.000079 -0.004558 0.002564 0.002837 0.032226 0.000054
# 6 0.001479 -0.001406 -0.002415 0.005425 0.000054 0.032564
#
#
# Mechanical properties :
#
#
# Convention : Reuss Voigt Hill
#
# Bulk Modulus (GPa) = 46.08868 48.96510 47.52689
# Shear Modulus (GPa) = 27.06758 28.74249 27.90503
#
# Velocity S-wave (km/s) = 3.60091 3.71065 3.65620
# Velocity P-wave (km/s) = 6.27434 6.46646 6.37112
#
# Compressibility (1/GPa) = 0.02169730
#
# Stress axis : x y z
#
# Youngs Moduli (GPa) = 66.72116 55.34266 74.09483
#
# Poissons Ratio (x) = 0.24999 0.40011
# Poissons Ratio (y) = 0.30138 0.18605
# Poissons Ratio (z) = 0.36029 0.13896
#
# Static dielectric constant tensor:
#      x y z
#    x 1.748550 -0.016330 0.036900 
#    y -0.016330 1.823400 -0.074140 
#    z 0.036900 -0.074140 1.862920 
# 
# From -- ./inp_files/240125.got.cif
#   From: 2010.05.17/outbox.cif.g08.bks.cpg/sg2_121_cif.got.tgz:240125.got - 2010.06.03 11:33:40.
