data_PCOD9100337
_publ_section_title
;
Structure prediction by ZEFSAII (Michael W. Deem and Ramdas Pophale) SiO2 
 PCOD9100337
Probable space group: P -1
;
_chemical_formula_sum "Si O2"
_cell_formula_units_Z 13
_cell_length_a 7.392795
_cell_length_b 8.575523
_cell_length_c 11.035350
_cell_angle_alpha 102.355504
_cell_angle_beta 122.628566
_cell_angle_gamma 106.399789
_cell_volume 503.827059
_symmetry_space_group_name_H-M "P -1"
_symmetry_group_IT_number 2
_symmetry_cell_setting 'triclinic'
loop_
_space_group_symop_operation_xyz
x,y,z
-x,-y,-z
loop_
_atom_site_type_symbol
_atom_site_label
_atom_site_fract_x
_atom_site_fract_y
_atom_site_fract_z
Si Si1 0.946772 0.736113 0.658405
Si Si2 0.438657 0.048491 0.782262
Si Si3 0.531505 0.316897 0.636024
Si Si4 0.500000 0.000000 0.500000
Si Si5 0.727965 0.395114 0.121918
Si Si6 0.254672 0.376080 0.055012
Si Si7 0.832075 0.983320 0.807590
O O1 0.066107 0.615790 0.726166
O O2 0.694091 0.652532 0.479030
O O3 0.166089 0.905776 0.696106
O O4 0.885588 0.822084 0.767329
O O5 0.443774 0.139525 0.667236
O O6 0.607929 0.954835 0.807748
O O7 0.572352 0.206809 0.956310
O O8 0.725215 0.489642 0.807351
O O9 0.609488 0.224924 0.543525
O O10 0.240267 0.963262 0.338926
O O11 0.528540 0.412786 0.134765
O O12 0.817141 0.550831 0.078837
O O13 0.069560 0.164631 0.966554
#
# Coordination Sequence:
#
# PCOD9100337 Si02
#       7
#     2   2   2   1   2   2   2
#     4  11  21  40  64  90 125 157 205 262 288 365
#     4  10  20  37  63  94 114 162 207 245 302 362
#     4   9  20  36  64  90 121 161 204 244 311 356
#     4   8  18  36  58  96 114 154 204 248 294 356
#     4  10  22  38  61  93 122 161 206 245 314 354
#     4  10  21  41  63  90 122 165 203 247 308 373
#     4  10  21  38  68  88 122 160 208 251 298 363
#
# _framework density 25.802503999999999
#
# number of rings (size 3 to 8) (size 9 to 14) (size 15 to 20)
#    0.000    2.154    1.538    0.923    0.000    6.769 
#    0.000    0.000    0.000    7.385    0.000    0.000 
#    0.000    0.000    0.000    0.000    0.000    0.000 
#
# Total GULP energy -72570.462603 kJ/mol
# GULP energy per Si atom -5582.343277 kJ/mol
# Density = 2.574378 g / cm^3
# Si number density = 25.802504 Si / 1000 Ang^3
#
#
#
# Elastic Constant Matrix: (Units=GPa)
#
#
# Indices 1 2 3 4 5 6 
#
# 1 83.3641 19.4813 0.6214 -1.2881 8.3483 -21.3752
# 2 19.4813 91.9369 15.7935 -26.7716 10.7826 -8.4969
# 3 0.6214 15.7935 86.6671 -18.2517 3.2627 -5.2859
# 4 -1.2881 -26.7716 -18.2517 58.3671 -18.4555 8.7568
# 5 8.3483 10.7826 3.2627 -18.4555 23.2836 -7.7265
# 6 -21.3752 -8.4969 -5.2859 8.7568 -7.7265 46.2358
#
#
#
# Elastic Compliance Matrix: (Units=1/GPa)
#
#
# Indices 1 2 3 4 5 6 
#
# 1 0.014674 -0.003031 0.000292 -0.003316 -0.004490 0.006138
# 2 -0.003031 0.013394 -0.001247 0.005518 -0.000646 -0.000235
# 3 0.000292 -0.001247 0.012561 0.003886 0.002111 0.000959
# 4 -0.003316 0.005518 0.003886 0.027081 0.018875 -0.002050
# 5 -0.004490 -0.000646 0.002111 0.018875 0.061075 0.004678
# 6 0.006138 -0.000235 0.000959 -0.002050 0.004678 0.025702
#
#
# Mechanical properties :
#
#
# Convention : Reuss Voigt Hill
#
# Bulk Modulus (GPa) = 30.62127 37.08451 33.85289
# Shear Modulus (GPa) = 28.84409 40.64877 34.74643
#
# Velocity S-wave (km/s) = 3.34710 3.97341 3.67363
# Velocity P-wave (km/s) = 5.17984 5.95435 5.58055
#
# Compressibility (1/GPa) = 0.03265704
#
# Stress axis : x y z
#
# Youngs Moduli (GPa) = 68.14782 74.65824 79.61187
#
# Poissons Ratio (x) = 0.22631 -0.02327
# Poissons Ratio (y) = 0.20657 0.09929
# Poissons Ratio (z) = -0.01992 0.09311
#
# Static dielectric constant tensor:
#      x y z
#    x 1.563410 0.175370 0.271670 
#    y 0.175370 2.011660 -0.122030 
#    z 0.271670 -0.122030 1.866070 
# 
# From -- ./inp_files/152100.got.cif
#   From: 2010.05.17/outbox.cif.g08.bks.cpg/sg2_77_cif.got.tgz:152100.got - 2010.06.03 11:33:40.
