data_PCOD9100842
_publ_section_title
;
Structure prediction by ZEFSAII (Michael W. Deem and Ramdas Pophale) SiO2 
 PCOD9100842
Probable space group: P -1
;
_chemical_formula_sum "Si O2"
_cell_formula_units_Z 16
_cell_length_a 8.741533
_cell_length_b 8.640707
_cell_length_c 11.920297
_cell_angle_alpha 115.989111
_cell_angle_beta 100.681582
_cell_angle_gamma 91.013972
_cell_volume 790.301404
_symmetry_space_group_name_H-M "P -1"
_symmetry_group_IT_number 2
_symmetry_cell_setting 'triclinic'
loop_
_space_group_symop_operation_xyz
x,y,z
-x,-y,-z
loop_
_atom_site_type_symbol
_atom_site_label
_atom_site_fract_x
_atom_site_fract_y
_atom_site_fract_z
Si Si1 0.761501 0.889953 0.968769
Si Si2 0.591750 0.696286 0.075356
Si Si3 0.577374 0.340260 0.514378
Si Si4 0.821436 0.477445 0.997306
Si Si5 0.310926 0.111672 0.304224
Si Si6 0.617996 0.242837 0.737457
Si Si7 0.105473 0.432829 0.396076
Si Si8 0.074192 0.749904 0.886243
O O1 0.711156 0.911195 0.839590
O O2 0.917382 0.790442 0.944610
O O3 0.618637 0.797840 0.993910
O O4 0.834379 0.071871 0.088906
O O5 0.515060 0.789987 0.195053
O O6 0.500000 0.500000 0.000000
O O7 0.767106 0.647353 0.100168
O O8 0.500000 0.500000 0.500000
O O9 0.489589 0.183671 0.381825
O O10 0.547072 0.289544 0.624092
O O11 0.760276 0.408599 0.557536
O O12 0.727569 0.410148 0.852247
O O13 0.803918 0.326716 0.039227
O O14 0.000000 0.500000 0.000000
O O15 0.196892 0.258473 0.370997
O O16 0.286202 0.924392 0.301331
O O17 0.000000 0.500000 0.500000
O O18 0.991380 0.381374 0.259920
#
# Coordination Sequence:
#
# PCOD9100842 Si02
#       8
#     2   2   2   2   2   2   2   2
#     4  10  20  40  63  99 126 166 210 257 326 377
#     4  10  24  36  59  92 137 159 209 267 306 391
#     4  10  23  41  66  85 122 176 208 265 318 376
#     4  11  20  36  60  90 127 168 202 264 318 370
#     4  10  22  41  68  86 129 171 207 263 320 381
#     4  11  23  42  57  95 127 164 220 256 324 379
#     4  10  23  42  62  96 122 165 222 260 312 384
#     4  10  20  37  66  91 131 166 206 261 323 383
#
# _framework density 20.245439999999999
#
# number of rings (size 3 to 8) (size 9 to 14) (size 15 to 20)
#    0.000    1.750    2.500    1.125    8.750    3.500 
#    2.250    0.625    0.000    0.000    0.000    0.000 
#    0.000    0.000    0.000    0.000    0.000    0.000 
#
# Total GULP energy -89071.369467 kJ/mol
# GULP energy per Si atom -5566.960592 kJ/mol
# Density = 2.019936 g / cm^3
# Si number density = 20.245440 Si / 1000 Ang^3
#
#
#
# Elastic Constant Matrix: (Units=GPa)
#
#
# Indices 1 2 3 4 5 6 
#
# 1 67.1373 13.9032 39.5940 -0.8950 -8.2684 12.8551
# 2 13.9032 78.5518 24.7478 -13.9833 -7.4356 -1.3516
# 3 39.5940 24.7478 78.5371 -5.2629 13.3658 2.7272
# 4 -0.8950 -13.9833 -5.2629 33.4048 -0.3699 4.8089
# 5 -8.2684 -7.4356 13.3658 -0.3699 36.3868 -0.4675
# 6 12.8551 -1.3516 2.7272 4.8089 -0.4675 33.7684
#
#
#
# Elastic Compliance Matrix: (Units=1/GPa)
#
#
# Indices 1 2 3 4 5 6 
#
# 1 0.027168 0.001195 -0.015817 0.000147 0.012115 -0.008870
# 2 0.001195 0.016104 -0.006292 0.005855 0.005933 -0.000054
# 3 -0.015817 -0.006292 0.024964 0.000212 -0.014003 0.003529
# 4 0.000147 0.005855 0.000212 0.033093 0.001430 -0.004532
# 5 0.012115 0.005933 -0.014003 0.001430 0.036568 -0.002941
# 6 -0.008870 -0.000054 0.003529 -0.004532 -0.002941 0.033308
#
#
# Mechanical properties :
#
#
# Convention : Reuss Voigt Hill
#
# Bulk Modulus (GPa) = 37.86777 42.30178 40.08477
# Shear Modulus (GPa) = 22.53911 30.44409 26.49160
#
# Velocity S-wave (km/s) = 3.34022 3.88203 3.62127
# Velocity P-wave (km/s) = 5.79837 6.40573 6.10960
#
# Compressibility (1/GPa) = 0.02640768
#
# Stress axis : x y z
#
# Youngs Moduli (GPa) = 36.80815 62.09483 40.05704
#
# Poissons Ratio (x) = -0.07420 0.63358
# Poissons Ratio (y) = -0.04399 0.25206
# Poissons Ratio (z) = 0.58219 0.39073
#
# Static dielectric constant tensor:
#      x y z
#    x 1.782980 0.002500 -0.011540 
#    y 0.002500 1.876340 -0.006760 
#    z -0.011540 -0.006760 1.719450 
# 
# From -- ./inp_files/205300.got.cif
#   From: 2010.05.17/outbox.cif.g08.bks.cpg/sg2_103_cif.got.tgz:205300.got - 2010.06.03 11:33:40.
