data_PCOD9100315
_publ_section_title
;
Structure prediction by ZEFSAII (Michael W. Deem and Ramdas Pophale) SiO2 
 PCOD9100315
Probable space group: P -1
;
_chemical_formula_sum "Si O2"
_cell_formula_units_Z 16
_cell_length_a 12.276288
_cell_length_b 8.266022
_cell_length_c 11.485561
_cell_angle_alpha 69.783034
_cell_angle_beta 63.195757
_cell_angle_gamma 36.240597
_cell_volume 614.625880
_symmetry_space_group_name_H-M "P -1"
_symmetry_group_IT_number 2
_symmetry_cell_setting 'triclinic'
loop_
_space_group_symop_operation_xyz
x,y,z
-x,-y,-z
loop_
_atom_site_type_symbol
_atom_site_label
_atom_site_fract_x
_atom_site_fract_y
_atom_site_fract_z
Si Si1 0.378183 0.721390 0.689606
Si Si2 0.942995 0.189504 0.186475
Si Si3 0.517090 0.168493 0.003343
Si Si4 0.253280 0.270829 0.831279
Si Si5 0.358813 0.555470 0.146257
Si Si6 0.590265 0.169818 0.711435
Si Si7 0.026669 0.770089 0.575965
Si Si8 0.722253 0.808388 0.424265
O O1 0.198243 0.800861 0.799352
O O2 0.522000 0.622913 0.749874
O O3 0.510588 0.435172 0.632023
O O4 0.289182 0.975270 0.594050
O O5 0.885773 0.442041 0.103937
O O6 0.885794 0.298031 0.320604
O O7 0.154728 0.875404 0.172292
O O8 0.554994 0.234463 0.852132
O O9 0.697142 0.947695 0.058868
O O10 0.500000 0.000000 0.000000
O O11 0.335942 0.410985 0.112131
O O12 0.456127 0.156937 0.745244
O O13 0.202015 0.265946 0.727932
O O14 0.500000 0.500000 0.000000
O O15 0.817265 0.910183 0.649973
O O16 0.156118 0.489486 0.512325
O O17 0.000000 0.000000 0.500000
O O18 0.500000 0.000000 0.500000
#
# Coordination Sequence:
#
# PCOD9100315 Si02
#       8
#     2   2   2   2   2   2   2   2
#     4  11  22  41  64  92 129 163 211 266 313 371
#     4  10  24  42  64  95 126 169 218 253 323 385
#     4  10  20  37  63  92 129 168 204 255 317 369
#     4   9  21  41  63  92 130 166 207 264 313 380
#     4  12  22  41  65  92 130 171 210 260 314 374
#     4  10  20  41  63  91 126 170 210 255 322 377
#     4  11  23  43  66  89 126 167 214 268 320 381
#     4  11  24  41  62  94 127 162 215 267 319 376
#
# _framework density 26.032098000000001
#
# number of rings (size 3 to 8) (size 9 to 14) (size 15 to 20)
#    0.000    1.500    3.750    0.750    0.000    3.500 
#    2.250    6.875    0.000    0.000    0.000    0.000 
#    0.000    0.000    0.000    0.000    0.000    0.000 
#
# Total GULP energy -89205.601234 kJ/mol
# GULP energy per Si atom -5575.350077 kJ/mol
# Density = 2.597285 g / cm^3
# Si number density = 26.032098 Si / 1000 Ang^3
#
#
#
# Elastic Constant Matrix: (Units=GPa)
#
#
# Indices 1 2 3 4 5 6 
#
# 1 64.4201 29.2793 13.0562 9.7581 -6.0853 -9.9558
# 2 29.2793 195.2299 26.7798 4.3313 -17.4085 10.5382
# 3 13.0562 26.7798 49.1787 -7.1238 7.5399 -6.6474
# 4 9.7581 4.3313 -7.1238 45.2459 -7.2116 -9.2631
# 5 -6.0853 -17.4085 7.5399 -7.2116 32.8989 1.7454
# 6 -9.9558 10.5382 -6.6474 -9.2631 1.7454 48.0768
#
#
#
# Elastic Compliance Matrix: (Units=1/GPa)
#
#
# Indices 1 2 3 4 5 6 
#
# 1 0.018535 -0.002061 -0.004274 -0.003489 0.002397 0.002940
# 2 -0.002061 0.006508 -0.004079 -0.000740 0.003979 -0.002704
# 3 -0.004274 -0.004079 0.026353 0.005181 -0.008116 0.004946
# 4 -0.003489 -0.000740 0.005181 0.025230 0.003046 0.004907
# 5 0.002397 0.003979 -0.008116 0.003046 0.035589 -0.002203
# 6 0.002940 -0.002704 0.004946 0.004907 -0.002203 0.023711
#
#
# Mechanical properties :
#
#
# Convention : Reuss Voigt Hill
#
# Bulk Modulus (GPa) = 32.71441 49.67326 41.19384
# Shear Modulus (GPa) = 29.94983 41.22522 35.58753
#
# Velocity S-wave (km/s) = 3.39558 3.98380 3.70139
# Velocity P-wave (km/s) = 5.28843 6.34696 5.84172
#
# Compressibility (1/GPa) = 0.03056757
#
# Stress axis : x y z
#
# Youngs Moduli (GPa) = 53.95089 153.65584 37.94580
#
# Poissons Ratio (x) = 0.31671 0.16218
# Poissons Ratio (y) = 0.11120 0.15480
# Poissons Ratio (z) = 0.23059 0.62684
#
# Static dielectric constant tensor:
#      x y z
#    x 2.310800 0.280360 0.000190 
#    y 0.280360 2.571860 -0.132080 
#    z 0.000190 -0.132080 2.137610 
# 
# From -- ./inp_files/528387.got.cif
#   From: 2010.05.17/outbox.cif.g08.bks.cpg/sg2_265_cif.got.tgz:528387.got - 2010.06.03 11:33:40.
