data_PCOD9100776
_publ_section_title
;
Structure prediction by ZEFSAII (Michael W. Deem and Ramdas Pophale) SiO2 
 PCOD9100776
Probable space group: P -1
;
_chemical_formula_sum "Si O2"
_cell_formula_units_Z 16
_cell_length_a 20.272958
_cell_length_b 9.139095
_cell_length_c 11.606870
_cell_angle_alpha 89.900041
_cell_angle_beta 31.354406
_cell_angle_gamma 111.813559
_cell_volume 779.993095
_symmetry_space_group_name_H-M "P -1"
_symmetry_group_IT_number 2
_symmetry_cell_setting 'triclinic'
loop_
_space_group_symop_operation_xyz
x,y,z
-x,-y,-z
loop_
_atom_site_type_symbol
_atom_site_label
_atom_site_fract_x
_atom_site_fract_y
_atom_site_fract_z
Si Si1 0.875123 0.696078 0.500629
Si Si2 0.698385 0.316158 0.606165
Si Si3 0.235211 0.834728 0.967699
Si Si4 0.347936 0.488958 0.763658
Si Si5 0.968127 0.063645 0.430227
Si Si6 0.717367 0.369935 0.938934
Si Si7 0.297048 0.899259 0.212384
Si Si8 0.646514 0.250947 0.417365
O O1 0.790273 0.535059 0.522538
O O2 0.801571 0.560862 0.728676
O O3 0.851796 0.850102 0.530337
O O4 0.089430 0.840421 0.183358
O O5 0.770984 0.236425 0.569951
O O6 0.713692 0.309638 0.447175
O O7 0.482643 0.140223 0.955170
O O8 0.267159 0.802359 0.791595
O O9 0.428434 0.045229 0.730748
O O10 0.166319 0.639240 0.148222
O O11 0.500000 0.500000 0.500000
O O12 0.312647 0.563888 0.707791
O O13 0.404533 0.643217 0.786248
O O14 0.160562 0.261163 0.085494
O O15 0.852869 0.116529 0.615222
O O16 0.000000 0.000000 0.500000
O O17 0.648301 0.190670 0.952651
#
# Coordination Sequence:
#
# PCOD9100776 Si02
#       8
#     2   2   2   2   2   2   2   2
#     4  11  23  38  66  99 130 177 220 276 343 388
#     4  10  23  42  66  98 135 180 219 281 332 411
#     4  10  20  37  65  97 131 166 235 274 327 397
#     4  11  25  40  65 104 139 171 222 281 345 391
#     4  12  25  43  69 101 136 178 225 287 330 395
#     4  10  20  37  68  98 125 171 217 286 319 389
#     4  10  23  42  69  98 132 171 235 271 338 397
#     4  10  22  39  65  94 132 184 217 278 337 394
#
# _framework density 20.513000999999999
#
# number of rings (size 3 to 8) (size 9 to 14) (size 15 to 20)
#    0.000    1.500    2.500    1.875    8.750    1.000 
#    0.000    3.125    0.000    0.000    0.000    0.000 
#    0.000    0.000    0.000    0.000    0.000    0.000 
#
# Total GULP energy -89302.558497 kJ/mol
# GULP energy per Si atom -5581.409906 kJ/mol
# Density = 2.046631 g / cm^3
# Si number density = 20.513001 Si / 1000 Ang^3
#
#
#
# Elastic Constant Matrix: (Units=GPa)
#
#
# Indices 1 2 3 4 5 6 
#
# 1 125.9114 49.3528 31.4544 4.4431 28.8707 16.6260
# 2 49.3528 118.6109 39.1669 1.5835 4.7340 4.8212
# 3 31.4544 39.1669 66.2379 3.3200 9.5527 -6.2044
# 4 4.4431 1.5835 3.3200 35.5364 -7.4376 5.6800
# 5 28.8707 4.7340 9.5527 -7.4376 32.1731 3.6343
# 6 16.6260 4.8212 -6.2044 5.6800 3.6343 36.1154
#
#
#
# Elastic Compliance Matrix: (Units=1/GPa)
#
#
# Indices 1 2 3 4 5 6 
#
# 1 0.013343 -0.004006 -0.002715 -0.002745 -0.010697 -0.004566
# 2 -0.004006 0.011943 -0.005976 0.001628 0.004152 -0.001450
# 3 -0.002715 -0.005976 0.021382 -0.003426 -0.004584 0.006721
# 4 -0.002745 0.001628 -0.003426 0.032006 0.011285 -0.005711
# 5 -0.010697 0.004152 -0.004584 0.011285 0.044339 -0.002654
# 6 -0.004566 -0.001450 0.006721 -0.005711 -0.002654 0.032305
#
#
# Mechanical properties :
#
#
# Convention : Reuss Voigt Hill
#
# Bulk Modulus (GPa) = 47.00442 61.18981 54.09712
# Shear Modulus (GPa) = 26.62377 33.48405 30.05391
#
# Velocity S-wave (km/s) = 3.60654 4.04460 3.83184
# Velocity P-wave (km/s) = 6.34878 7.19070 6.78282
#
# Compressibility (1/GPa) = 0.02127459
#
# Stress axis : x y z
#
# Youngs Moduli (GPa) = 74.94528 83.73371 46.76827
#
# Poissons Ratio (x) = 0.33546 0.12696
# Poissons Ratio (y) = 0.30025 0.27947
# Poissons Ratio (z) = 0.20345 0.50035
#
# Static dielectric constant tensor:
#      x y z
#    x 1.742040 0.031240 0.019340 
#    y 0.031240 1.797780 -0.031730 
#    z 0.019340 -0.031730 1.756470 
# 
# From -- ./inp_files/469400.got.cif
#   From: 2010.05.17/outbox.cif.g08.bks.cpg/sg2_235_cif.got.tgz:469400.got - 2010.06.03 11:33:40.
