data_PCOD9100863
_publ_section_title
;
Structure prediction by ZEFSAII (Michael W. Deem and Ramdas Pophale) SiO2 
 PCOD9100863
Probable space group: P -1
;
_chemical_formula_sum "Si O2"
_cell_formula_units_Z 14
_cell_length_a 8.022926
_cell_length_b 20.870904
_cell_length_c 5.386133
_cell_angle_alpha 124.609975
_cell_angle_beta 117.471730
_cell_angle_gamma 52.027366
_cell_volume 576.388123
_symmetry_space_group_name_H-M "P -1"
_symmetry_group_IT_number 2
_symmetry_cell_setting 'triclinic'
loop_
_space_group_symop_operation_xyz
x,y,z
-x,-y,-z
loop_
_atom_site_type_symbol
_atom_site_label
_atom_site_fract_x
_atom_site_fract_y
_atom_site_fract_z
Si Si1 0.760892 0.703987 0.282163
Si Si2 0.663405 0.009006 0.322954
Si Si3 0.369897 0.832137 0.580192
Si Si4 0.820457 0.375221 0.331994
Si Si5 0.776177 0.556476 0.608674
Si Si6 0.320485 0.144319 0.774866
Si Si7 0.676210 0.320172 0.611379
O O1 0.510279 0.763976 0.308448
O O2 0.813325 0.769057 0.291274
O O3 0.923303 0.672644 0.554274
O O4 0.796787 0.618528 0.966110
O O5 0.759553 0.066525 0.383997
O O6 0.511025 0.073930 0.575243
O O7 0.791322 0.909780 0.303798
O O8 0.500000 0.000000 0.000000
O O9 0.262984 0.782587 0.540934
O O10 0.555259 0.832219 0.879363
O O11 0.730080 0.480618 0.521070
O O12 0.737819 0.341526 0.432838
O O13 0.762669 0.351167 0.973390
O O14 0.583365 0.620171 0.435842
O O15 0.000000 0.500000 0.500000
#
# Coordination Sequence:
#
# PCOD9100863 Si02
#       7
#     2   2   2   2   2   2   2
#     4  11  23  41  65  94 127 173 228 274 322 386
#     4   8  16  31  59 102 124 157 205 284 315 371
#     4  10  20  37  66  94 127 169 223 265 323 389
#     4  12  28  43  64  96 137 177 217 275 338 389
#     4  12  25  47  70  94 125 174 233 279 320 383
#     4   9  17  34  63  94 128 157 219 273 319 372
#     4  12  26  45  65  95 137 174 215 272 338 399
#
# _framework density 24.289189
#
# number of rings (size 3 to 8) (size 9 to 14) (size 15 to 20)
#    0.000    1.429    1.429    3.857    4.000    2.286 
#    0.000    0.000    0.000    1.714    0.000    0.000 
#    0.000    0.000    0.000    0.000    0.000    0.000 
#
# Total GULP energy -78315.871983 kJ/mol
# GULP energy per Si atom -5593.990856 kJ/mol
# Density = 2.423391 g / cm^3
# Si number density = 24.289189 Si / 1000 Ang^3
#
#
#
# Elastic Constant Matrix: (Units=GPa)
#
#
# Indices 1 2 3 4 5 6 
#
# 1 68.1012 26.2079 20.5844 7.6028 3.6745 25.6268
# 2 26.2079 137.8684 22.2702 10.7293 26.9396 37.8327
# 3 20.5844 22.2702 120.8253 7.2129 -2.1395 -3.9484
# 4 7.6028 10.7293 7.2129 47.2182 3.9103 20.2285
# 5 3.6745 26.9396 -2.1395 3.9103 31.2677 4.0996
# 6 25.6268 37.8327 -3.9484 20.2285 4.0996 55.3084
#
#
#
# Elastic Compliance Matrix: (Units=1/GPa)
#
#
# Indices 1 2 3 4 5 6 
#
# 1 0.019396 -0.000389 -0.003666 0.001699 -0.001160 -0.009519
# 2 -0.000389 0.011614 -0.002622 0.002025 -0.009345 -0.008000
# 3 -0.003666 -0.002622 0.009759 -0.002674 0.003044 0.004941
# 4 0.001699 0.002025 -0.002674 0.026162 -0.003872 -0.011645
# 5 -0.001160 -0.009345 0.003044 -0.003872 0.040129 0.005589
# 6 -0.009519 -0.008000 0.004941 -0.011645 0.005589 0.032160
#
#
# Mechanical properties :
#
#
# Convention : Reuss Voigt Hill
#
# Bulk Modulus (GPa) = 36.47427 51.65776 44.06601
# Shear Modulus (GPa) = 30.91869 43.94102 37.42986
#
# Velocity S-wave (km/s) = 3.57170 4.25794 3.92983
# Velocity P-wave (km/s) = 5.66204 6.74443 6.22680
#
# Compressibility (1/GPa) = 0.02741659
#
# Stress axis : x y z
#
# Youngs Moduli (GPa) = 51.55601 86.10019 102.46670
#
# Poissons Ratio (x) = 0.03345 0.37563
# Poissons Ratio (y) = 0.02003 0.26870
# Poissons Ratio (z) = 0.18900 0.22578
#
# Static dielectric constant tensor:
#      x y z
#    x 2.052950 0.030000 -0.069980 
#    y 0.030000 2.055700 0.136570 
#    z -0.069980 0.136570 2.115820 
# 
# From -- ./inp_files/52120.got.cif
#   From: 2010.05.17/outbox.cif.g08.bks.cpg/sg2_27_cif.got.tgz:52120.got - 2010.06.03 11:33:40.
