data_PCOD9100087
_publ_section_title
;
Structure prediction by ZEFSAII (Michael W. Deem and Ramdas Pophale) SiO2 
 PCOD9100087
Probable space group: P -1
;
_chemical_formula_sum "Si O2"
_cell_formula_units_Z 16
_cell_length_a 19.032525
_cell_length_b 8.093842
_cell_length_c 10.893611
_cell_angle_alpha 111.713859
_cell_angle_beta 33.346829
_cell_angle_gamma 90.210377
_cell_volume 686.910090
_symmetry_space_group_name_H-M "P -1"
_symmetry_group_IT_number 2
_symmetry_cell_setting 'triclinic'
loop_
_space_group_symop_operation_xyz
x,y,z
-x,-y,-z
loop_
_atom_site_type_symbol
_atom_site_label
_atom_site_fract_x
_atom_site_fract_y
_atom_site_fract_z
Si Si1 0.341575 0.522842 0.484698
Si Si2 0.501549 0.691663 0.148823
Si Si3 0.883158 0.600300 0.318290
Si Si4 0.399963 0.903907 0.103014
Si Si5 0.675392 0.442478 0.222306
Si Si6 0.610777 0.910140 0.431220
Si Si7 0.079483 0.310036 0.187759
Si Si8 0.823211 0.405509 0.747029
O O1 0.385224 0.662106 0.385909
O O2 0.234433 0.468125 0.555524
O O3 0.255022 0.654693 0.772409
O O4 0.514654 0.275809 0.181337
O O5 0.447031 0.735201 0.100617
O O6 0.474158 0.919676 0.288904
O O7 0.679350 0.508122 0.888379
O O8 0.969364 0.488686 0.291437
O O9 0.779901 0.869156 0.561632
O O10 0.000000 0.500000 0.000000
O O11 0.500000 0.000000 0.000000
O O12 0.500000 0.500000 0.500000
O O13 0.655874 0.671509 0.323974
O O14 0.774782 0.337529 0.922154
O O15 0.500000 0.000000 0.500000
O O16 0.768975 0.886282 0.159756
O O17 0.151797 0.409932 0.193796
O O18 0.985998 0.246770 0.390230
#
# Coordination Sequence:
#
# PCOD9100087 Si02
#       8
#     2   2   2   2   2   2   2   2
#     4  11  23  40  64  95 128 172 218 271 320 388
#     4  12  21  40  66  95 129 168 225 266 323 385
#     4  11  22  43  66  93 133 178 211 265 327 398
#     4  10  22  39  62  95 125 168 218 259 317 389
#     4  11  20  38  62  93 129 167 221 267 325 381
#     4  11  20  38  64  98 123 169 219 267 323 397
#     4  10  21  37  62  96 131 165 216 260 334 382
#     4  10  20  37  62  93 126 168 208 272 322 372
#
# _framework density 23.292715000000001
#
# number of rings (size 3 to 8) (size 9 to 14) (size 15 to 20)
#    0.000    1.250    3.750    5.625    0.000    0.000 
#    0.000    3.750    0.000    2.250    0.000    0.000 
#    0.000    0.000    0.000    0.000    0.000    0.000 
#
# Total GULP energy -89198.311440 kJ/mol
# GULP energy per Si atom -5574.894465 kJ/mol
# Density = 2.323970 g / cm^3
# Si number density = 23.292715 Si / 1000 Ang^3
#
#
#
# Elastic Constant Matrix: (Units=GPa)
#
#
# Indices 1 2 3 4 5 6 
#
# 1 107.7222 18.7552 34.0202 -5.0645 -4.0731 -9.7817
# 2 18.7552 87.4508 39.3243 -27.9037 1.9065 -7.7170
# 3 34.0202 39.3243 119.0735 -23.2389 4.5920 -12.3016
# 4 -5.0645 -27.9037 -23.2389 42.8133 2.5057 5.2957
# 5 -4.0731 1.9065 4.5920 2.5057 34.7072 -9.4306
# 6 -9.7817 -7.7170 -12.3016 5.2957 -9.4306 40.5926
#
#
#
# Elastic Compliance Matrix: (Units=1/GPa)
#
#
# Indices 1 2 3 4 5 6 
#
# 1 0.010610 -0.001398 -0.002737 -0.001557 0.002400 0.002222
# 2 -0.001398 0.015915 -0.003107 0.008542 -0.001144 0.000367
# 3 -0.002737 -0.003107 0.011102 0.003608 -0.001530 0.001288
# 4 -0.001557 0.008542 0.003608 0.031273 -0.004119 -0.002695
# 5 0.002400 -0.001144 -0.001530 -0.004119 0.031781 0.007818
# 6 0.002222 0.000367 0.001288 -0.002695 0.007818 0.027799
#
#
# Mechanical properties :
#
#
# Convention : Reuss Voigt Hill
#
# Bulk Modulus (GPa) = 43.20789 55.38287 49.29538
# Shear Modulus (GPa) = 33.18314 38.43241 35.80777
#
# Velocity S-wave (km/s) = 3.77850 4.06640 3.92509
# Velocity P-wave (km/s) = 6.13403 6.77318 6.46151
#
# Compressibility (1/GPa) = 0.02314392
#
# Stress axis : x y z
#
# Youngs Moduli (GPa) = 94.24958 62.83341 90.07056
#
# Poissons Ratio (x) = 0.08784 0.24648
# Poissons Ratio (y) = 0.13175 0.27989
# Poissons Ratio (z) = 0.25792 0.19525
#
# Static dielectric constant tensor:
#      x y z
#    x 1.942300 0.049360 0.093320 
#    y 0.049360 2.017330 0.043580 
#    z 0.093320 0.043580 2.017990 
# 
# From -- ./inp_files/282155.got.cif
#   From: 2010.05.17/outbox.cif.g08.bks.cpg/sg2_142_cif.got.tgz:282155.got - 2010.06.03 11:33:40.
