data_PCOD9100603
_publ_section_title
;
Structure prediction by ZEFSAII (Michael W. Deem and Ramdas Pophale) SiO2 
 PCOD9100603
Probable space group: P -1
;
_chemical_formula_sum "Si O2"
_cell_formula_units_Z 16
_cell_length_a 11.449802
_cell_length_b 14.659034
_cell_length_c 19.708738
_cell_angle_alpha 149.914915
_cell_angle_beta 152.342067
_cell_angle_gamma 45.331454
_cell_volume 740.613809
_symmetry_space_group_name_H-M "P -1"
_symmetry_group_IT_number 2
_symmetry_cell_setting 'triclinic'
loop_
_space_group_symop_operation_xyz
x,y,z
-x,-y,-z
loop_
_atom_site_type_symbol
_atom_site_label
_atom_site_fract_x
_atom_site_fract_y
_atom_site_fract_z
Si Si1 0.052451 0.349770 0.485667
Si Si2 0.959295 0.105314 0.616247
Si Si3 0.822154 0.195942 0.404581
Si Si4 0.201029 0.478414 0.310029
Si Si5 0.683782 0.124772 0.063306
Si Si6 0.609299 0.360930 0.621648
Si Si7 0.975709 0.785383 0.831140
Si Si8 0.599482 0.570627 0.887213
O O1 0.899425 0.325324 0.461548
O O2 0.934439 0.152594 0.258371
O O3 0.000000 0.500000 0.500000
O O4 0.358667 0.421563 0.703762
O O5 0.695422 0.167943 0.530489
O O6 0.000000 0.000000 0.500000
O O7 0.011038 0.956100 0.602054
O O8 0.177562 0.305058 0.869960
O O9 0.867425 0.331181 0.579568
O O10 0.517343 0.079496 0.173444
O O11 0.500000 0.500000 0.500000
O O12 0.222699 0.482310 0.243228
O O13 0.025067 0.317766 0.163661
O O14 0.519316 0.263081 0.096727
O O15 0.789999 0.202184 0.093617
O O16 0.301558 0.310355 0.410818
O O17 0.667551 0.450475 0.783426
O O18 0.000000 0.000000 0.000000
#
# Coordination Sequence:
#
# PCOD9100603 Si02
#       8
#     2   2   2   2   2   2   2   2
#     4  10  20  38  61  96 128 158 207 268 330 387
#     4  11  24  45  66  92 130 177 227 270 318 390
#     4  11  22  40  65  96 127 172 220 264 324 398
#     4  10  21  35  62  92 131 165 215 262 328 384
#     4  10  20  37  64  97 131 165 208 270 341 382
#     4  11  22  43  65  93 135 177 218 265 326 389
#     4  11  23  40  64 100 137 166 215 277 328 390
#     4  10  22  39  67  93 128 172 218 273 325 383
#
# _framework density 21.603701000000001
#
# number of rings (size 3 to 8) (size 9 to 14) (size 15 to 20)
#    0.000    1.500    2.500    3.750    7.000    0.000 
#    4.500    2.500    0.000    0.000    0.000    0.000 
#    0.000    0.000    0.000    0.000    0.000    0.000 
#
# Total GULP energy -89193.550616 kJ/mol
# GULP energy per Si atom -5574.596913 kJ/mol
# Density = 2.155453 g / cm^3
# Si number density = 21.603701 Si / 1000 Ang^3
#
#
#
# Elastic Constant Matrix: (Units=GPa)
#
#
# Indices 1 2 3 4 5 6 
#
# 1 142.1285 25.3467 46.6420 12.6463 5.8753 2.6166
# 2 25.3467 75.4213 15.8819 10.2512 6.0760 -10.8482
# 3 46.6420 15.8819 99.2516 10.4958 2.2338 13.0302
# 4 12.6463 10.2512 10.4958 24.4506 -1.6819 -6.6556
# 5 5.8753 6.0760 2.2338 -1.6819 37.1383 8.3772
# 6 2.6166 -10.8482 13.0302 -6.6556 8.3772 23.5140
#
#
#
# Elastic Compliance Matrix: (Units=1/GPa)
#
#
# Indices 1 2 3 4 5 6 
#
# 1 0.008776 -0.001837 -0.003531 -0.002373 -0.000936 -0.000206
# 2 -0.001837 0.016679 -0.002837 -0.002289 -0.004743 0.010513
# 3 -0.003531 -0.002837 0.014271 -0.006048 0.002465 -0.011414
# 4 -0.002373 -0.002289 -0.006048 0.050264 -0.000431 0.016940
# 5 -0.000936 -0.004743 0.002465 -0.000431 0.030978 -0.014608
# 6 -0.000206 0.010513 -0.011414 0.016940 -0.014608 0.063725
#
#
# Mechanical properties :
#
#
# Convention : Reuss Voigt Hill
#
# Bulk Modulus (GPa) = 42.88922 54.72696 48.80809
# Shear Modulus (GPa) = 23.93762 32.28262 28.11012
#
# Velocity S-wave (km/s) = 3.33232 3.86982 3.61109
# Velocity P-wave (km/s) = 5.89081 6.73458 6.32678
#
# Compressibility (1/GPa) = 0.02331588
#
# Stress axis : x y z
#
# Youngs Moduli (GPa) = 113.94681 59.95551 70.07026
#
# Poissons Ratio (x) = 0.11016 0.24743
# Poissons Ratio (y) = 0.20936 0.19878
# Poissons Ratio (z) = 0.40236 0.17008
#
# Static dielectric constant tensor:
#      x y z
#    x 1.838240 -0.003470 -0.018400 
#    y -0.003470 1.868760 -0.036900 
#    z -0.018400 -0.036900 1.856760 
# 
# From -- ./inp_files/595672.got.cif
#   From: 2010.05.17/outbox.cif.g08.bks.cpg/sg2_298_cif.got.tgz:595672.got - 2010.06.03 11:33:40.
