data_PCOD9100509
_publ_section_title
;
Structure prediction by ZEFSAII (Michael W. Deem and Ramdas Pophale) SiO2 
 PCOD9100509
Probable space group: P -1
;
_chemical_formula_sum "Si O2"
_cell_formula_units_Z 16
_cell_length_a 8.339102
_cell_length_b 13.962615
_cell_length_c 11.527238
_cell_angle_alpha 146.833886
_cell_angle_beta 84.976992
_cell_angle_gamma 86.489305
_cell_volume 708.809072
_symmetry_space_group_name_H-M "P -1"
_symmetry_group_IT_number 2
_symmetry_cell_setting 'triclinic'
loop_
_space_group_symop_operation_xyz
x,y,z
-x,-y,-z
loop_
_atom_site_type_symbol
_atom_site_label
_atom_site_fract_x
_atom_site_fract_y
_atom_site_fract_z
Si Si1 0.497942 0.370525 0.210854
Si Si2 0.407580 0.015945 0.144875
Si Si3 0.106161 0.114487 0.678863
Si Si4 0.038870 0.602884 0.849761
Si Si5 0.723383 0.602494 0.533193
Si Si6 0.726620 0.454180 0.780653
Si Si7 0.257649 0.396039 0.828214
Si Si8 0.598240 0.128597 0.458352
O O1 0.572720 0.533984 0.413616
O O2 0.337991 0.372607 0.305131
O O3 0.432436 0.404225 0.119338
O O4 0.628730 0.178238 0.026234
O O5 0.271397 0.205754 0.331087
O O6 0.532841 0.034333 0.258933
O O7 0.500000 0.000000 0.000000
O O8 0.132222 0.280310 0.766707
O O9 0.290093 0.002824 0.589462
O O10 0.000000 0.000000 0.500000
O O11 0.021291 0.197893 0.889981
O O12 0.115103 0.553500 0.667792
O O13 0.183651 0.501789 0.825803
O O14 0.887065 0.511338 0.783835
O O15 0.713137 0.259259 0.543105
O O16 0.725389 0.467727 0.932638
O O17 0.433695 0.259219 0.654920
#
# Coordination Sequence:
#
# PCOD9100509 Si02
#       8
#     2   2   2   2   2   2   2   2
#     4  10  21  39  65  90 122 163 214 258 309 363
#     4  10  20  37  64  92 120 157 213 266 303 357
#     4  11  24  39  59  94 132 164 202 260 324 380
#     4  11  22  41  60  88 130 165 204 255 325 371
#     4  10  21  41  63  90 123 166 210 260 307 375
#     4  11  22  38  62  89 127 167 202 261 320 374
#     4  11  22  39  63  88 122 168 213 254 310 376
#     4  12  22  40  63  91 126 164 217 261 306 375
#
# _framework density 22.573073999999998
#
# number of rings (size 3 to 8) (size 9 to 14) (size 15 to 20)
#    0.000    1.250    2.500    5.250    0.000    2.500 
#    2.250    0.000    0.000    2.250    0.000    0.000 
#    0.000    0.000    0.000    0.000    0.000    0.000 
#
# Total GULP energy -89391.207771 kJ/mol
# GULP energy per Si atom -5586.950486 kJ/mol
# Density = 2.252170 g / cm^3
# Si number density = 22.573074 Si / 1000 Ang^3
#
#
#
# Elastic Constant Matrix: (Units=GPa)
#
#
# Indices 1 2 3 4 5 6 
#
# 1 45.8841 -3.6824 14.4322 -11.5506 -9.0077 -4.9867
# 2 -3.6824 46.3148 -5.9375 7.0810 6.5936 -9.3947
# 3 14.4322 -5.9375 83.4531 0.5867 -1.5141 2.3332
# 4 -11.5506 7.0810 0.5867 35.1222 -1.9349 -2.1378
# 5 -9.0077 6.5936 -1.5141 -1.9349 34.9890 1.2083
# 6 -4.9867 -9.3947 2.3332 -2.1378 1.2083 26.6771
#
#
#
# Elastic Compliance Matrix: (Units=1/GPa)
#
#
# Indices 1 2 3 4 5 6 
#
# 1 0.027996 0.000293 -0.004934 0.010011 0.007277 0.006241
# 2 0.000293 0.024992 0.001428 -0.004726 -0.005130 0.008585
# 3 -0.004934 0.001428 0.012982 -0.002288 -0.001046 -0.001691
# 4 0.010011 -0.004726 -0.002288 0.033210 0.005108 0.002837
# 5 0.007277 -0.005130 -0.001046 0.005108 0.031705 -0.001382
# 6 0.006241 0.008585 -0.001691 0.002837 -0.001382 0.042113
#
#
# Mechanical properties :
#
#
# Convention : Reuss Voigt Hill
#
# Bulk Modulus (GPa) = 16.79435 20.58627 18.69031
# Shear Modulus (GPa) = 25.09125 30.74698 27.91912
#
# Velocity S-wave (km/s) = 3.33762 3.69468 3.52068
# Velocity P-wave (km/s) = 4.72325 5.22882 4.98245
#
# Compressibility (1/GPa) = 0.05954384
#
# Stress axis : x y z
#
# Youngs Moduli (GPa) = 35.71899 40.01281 77.03003
#
# Poissons Ratio (x) = -0.01171 0.38004
# Poissons Ratio (y) = -0.01046 -0.10997
# Poissons Ratio (z) = 0.17622 -0.05712
#
# Static dielectric constant tensor:
#      x y z
#    x 1.835600 0.010510 -0.019060 
#    y 0.010510 1.871690 0.031340 
#    z -0.019060 0.031340 1.884240 
# 
# From -- ./inp_files/202991.got.cif
#   From: 2010.05.17/outbox.cif.g08.bks.cpg/sg2_102_cif.got.tgz:202991.got - 2010.06.03 11:33:40.
