data_PCOD9100770
_publ_section_title
;
Structure prediction by ZEFSAII (Michael W. Deem and Ramdas Pophale) SiO2 
 PCOD9100770
Probable space group: P -1
;
_chemical_formula_sum "Si O2"
_cell_formula_units_Z 16
_cell_length_a 12.155489
_cell_length_b 8.816474
_cell_length_c 8.875154
_cell_angle_alpha 91.612918
_cell_angle_beta 53.941646
_cell_angle_gamma 96.388844
_cell_volume 763.315006
_symmetry_space_group_name_H-M "P -1"
_symmetry_group_IT_number 2
_symmetry_cell_setting 'triclinic'
loop_
_space_group_symop_operation_xyz
x,y,z
-x,-y,-z
loop_
_atom_site_type_symbol
_atom_site_label
_atom_site_fract_x
_atom_site_fract_y
_atom_site_fract_z
Si Si1 0.753757 0.838564 0.559339
Si Si2 0.632091 0.941133 0.968903
Si Si3 0.580017 0.305789 0.784602
Si Si4 0.383854 0.436667 0.473373
Si Si5 0.830337 0.166234 0.413221
Si Si6 0.998911 0.323922 0.541209
Si Si7 0.847678 0.421289 0.161909
Si Si8 0.264545 0.731961 0.043030
O O1 0.719274 0.901231 0.753618
O O2 0.629300 0.740154 0.570079
O O3 0.862058 0.721733 0.505812
O O4 0.812489 0.983841 0.417007
O O5 0.698381 0.087109 0.012191
O O6 0.569088 0.791192 0.104682
O O7 0.500000 0.000000 0.000000
O O8 0.588630 0.465250 0.697983
O O9 0.691526 0.214627 0.605092
O O10 0.630070 0.318214 0.917841
O O11 0.500000 0.500000 0.500000
O O12 0.240398 0.473680 0.663809
O O13 0.855602 0.265653 0.245729
O O14 0.952984 0.222705 0.429793
O O15 0.000000 0.500000 0.500000
O O16 0.881183 0.286248 0.757227
O O17 0.756272 0.372746 0.088144
O O18 0.000000 0.500000 0.000000
#
# Coordination Sequence:
#
# PCOD9100770 Si02
#       8
#     2   2   2   2   2   2   2   2
#     4  12  22  40  68  95 130 167 219 274 313 394
#     4  10  20  37  65  97 123 158 222 271 315 371
#     4   9  20  43  64  91 125 169 215 257 325 383
#     4  11  27  43  61  95 135 171 214 266 332 389
#     4  10  21  39  67  94 127 170 209 265 331 379
#     4  11  21  40  66  96 126 170 218 265 328 382
#     4  11  24  45  65  91 133 176 213 265 330 395
#     4  10  20  38  69  90 120 166 217 266 316 385
#
# _framework density 20.961202
#
# number of rings (size 3 to 8) (size 9 to 14) (size 15 to 20)
#    0.000    1.500    3.750    4.125    3.500    1.500 
#    4.500    5.000    0.000    0.000    0.000    0.000 
#    0.000    0.000    0.000    0.000    0.000    0.000 
#
# Total GULP energy -89370.399623 kJ/mol
# GULP energy per Si atom -5585.649976 kJ/mol
# Density = 2.091349 g / cm^3
# Si number density = 20.961202 Si / 1000 Ang^3
#
#
#
# Elastic Constant Matrix: (Units=GPa)
#
#
# Indices 1 2 3 4 5 6 
#
# 1 65.1836 41.2070 18.6651 -5.9892 12.0922 9.5726
# 2 41.2070 135.5162 34.4632 -24.4519 10.3262 19.5037
# 3 18.6651 34.4632 79.0247 -25.2451 3.7935 1.8488
# 4 -5.9892 -24.4519 -25.2451 34.6514 0.8215 -3.4759
# 5 12.0922 10.3262 3.7935 0.8215 33.1644 4.0549
# 6 9.5726 19.5037 1.8488 -3.4759 4.0549 34.3232
#
#
#
# Elastic Compliance Matrix: (Units=1/GPa)
#
#
# Indices 1 2 3 4 5 6 
#
# 1 0.020577 -0.005197 -0.003076 -0.002455 -0.005196 -0.002255
# 2 -0.005197 0.011006 -0.001773 0.005191 -0.000960 -0.004070
# 3 -0.003076 -0.001773 0.017795 0.011422 -0.000911 0.002171
# 4 -0.002455 0.005191 0.011422 0.040658 -0.003233 0.001619
# 5 -0.005196 -0.000960 -0.000911 -0.003233 0.032794 -0.002158
# 6 -0.002255 -0.004070 0.002171 0.001619 -0.002158 0.032378
#
#
# Mechanical properties :
#
#
# Convention : Reuss Voigt Hill
#
# Bulk Modulus (GPa) = 34.14403 52.04389 43.09396
# Shear Modulus (GPa) = 27.01798 32.78708 29.90253
#
# Velocity S-wave (km/s) = 3.59409 3.95926 3.78109
# Velocity P-wave (km/s) = 5.79205 6.76636 6.29807
#
# Compressibility (1/GPa) = 0.02928770
#
# Stress axis : x y z
#
# Youngs Moduli (GPa) = 48.59799 90.86041 56.19440
#
# Poissons Ratio (x) = 0.47223 0.17283
# Poissons Ratio (y) = 0.25258 0.09960
# Poissons Ratio (z) = 0.14946 0.16105
#
# Static dielectric constant tensor:
#      x y z
#    x 1.778550 0.030200 -0.003850 
#    y 0.030200 1.875820 0.010820 
#    z -0.003850 0.010820 1.773960 
# 
# From -- ./inp_files/243879.got.cif
#   From: 2010.05.17/outbox.cif.g08.bks.cpg/sg2_122_cif.got.tgz:243879.got - 2010.06.03 11:33:40.
