data_PCOD9100750
_publ_section_title
;
Structure prediction by ZEFSAII (Michael W. Deem and Ramdas Pophale) SiO2 
 PCOD9100750
Probable space group: P -1
;
_chemical_formula_sum "Si O2"
_cell_formula_units_Z 14
_cell_length_a 12.624857
_cell_length_b 10.985033
_cell_length_c 8.058304
_cell_angle_alpha 45.179209
_cell_angle_beta 117.491843
_cell_angle_gamma 128.676814
_cell_volume 618.400089
_symmetry_space_group_name_H-M "P -1"
_symmetry_group_IT_number 2
_symmetry_cell_setting 'triclinic'
loop_
_space_group_symop_operation_xyz
x,y,z
-x,-y,-z
loop_
_atom_site_type_symbol
_atom_site_label
_atom_site_fract_x
_atom_site_fract_y
_atom_site_fract_z
Si Si1 0.618001 0.922975 0.788470
Si Si2 0.126404 0.712763 0.901729
Si Si3 0.322382 0.657447 0.900615
Si Si4 0.036680 0.920815 0.356091
Si Si5 0.702458 0.752298 0.696783
Si Si6 0.862508 0.307121 0.539958
Si Si7 0.240946 0.101557 0.772174
O O1 0.458794 0.847224 0.764120
O O2 0.646510 0.843265 0.710822
O O3 0.715744 0.154948 0.656635
O O4 0.659769 0.833949 0.062207
O O5 0.261861 0.693852 0.990602
O O6 0.092351 0.826673 0.624142
O O7 0.160480 0.864163 0.930062
O O8 0.000000 0.500000 0.000000
O O9 0.198749 0.619190 0.725009
O O10 0.352276 0.476628 0.104439
O O11 0.879847 0.846223 0.336568
O O12 0.077632 0.846022 0.294394
O O13 0.135167 0.148082 0.240888
O O14 0.690493 0.812305 0.440618
O O15 0.000000 0.500000 0.500000
#
# Coordination Sequence:
#
# PCOD9100750 Si02
#       7
#     2   2   2   2   2   2   2
#     4  11  26  43  67  99 135 179 220 275 338 406
#     4  10  20  37  65  94 133 172 221 276 329 383
#     4  11  23  43  68  94 138 179 218 278 342 391
#     4   9  20  37  61  93 128 168 214 279 324 383
#     4  10  22  43  65  95 137 175 220 275 335 394
#     4  10  24  40  66  99 132 173 228 278 330 392
#     4  11  23  40  67  98 134 174 223 271 341 399
#
# _framework density 22.639064000000001
#
# number of rings (size 3 to 8) (size 9 to 14) (size 15 to 20)
#    0.000    1.714    0.000    5.143    8.000    2.286 
#    0.000    0.000    0.000    0.000    0.000    0.000 
#    0.000    0.000    0.000    0.000    0.000    0.000 
#
# Total GULP energy -77959.237921 kJ/mol
# GULP energy per Si atom -5568.516994 kJ/mol
# Density = 2.258754 g / cm^3
# Si number density = 22.639064 Si / 1000 Ang^3
#
#
#
# Elastic Constant Matrix: (Units=GPa)
#
#
# Indices 1 2 3 4 5 6 
#
# 1 93.1930 40.0739 13.3330 6.6862 -6.9737 16.5599
# 2 40.0739 102.8954 39.3775 -10.1150 -5.8467 26.3691
# 3 13.3330 39.3775 63.0775 -4.1263 -8.3686 -2.1059
# 4 6.6862 -10.1150 -4.1263 47.8111 0.8895 -2.8123
# 5 -6.9737 -5.8467 -8.3686 0.8895 26.2582 -4.2211
# 6 16.5599 26.3691 -2.1059 -2.8123 -4.2211 25.3779
#
#
#
# Elastic Compliance Matrix: (Units=1/GPa)
#
#
# Indices 1 2 3 4 5 6 
#
# 1 0.013810 -0.004241 -0.000374 -0.003172 0.001962 -0.004661
# 2 -0.004241 0.022632 -0.014366 0.002908 -0.004356 -0.022343
# 3 -0.000374 -0.014366 0.026633 0.000263 0.008199 0.018774
# 4 -0.003172 0.002908 0.000263 0.022092 -0.000632 0.001413
# 5 0.001962 -0.004356 0.008199 -0.000632 0.042012 0.010844
# 6 -0.004661 -0.022343 0.018774 0.001413 0.010844 0.069180
#
#
# Mechanical properties :
#
#
# Convention : Reuss Voigt Hill
#
# Bulk Modulus (GPa) = 39.82040 49.41495 44.61768
# Shear Modulus (GPa) = 20.60216 30.98153 25.79185
#
# Velocity S-wave (km/s) = 3.01994 3.70334 3.37896
# Velocity P-wave (km/s) = 5.45779 6.33727 5.91390
#
# Compressibility (1/GPa) = 0.02511275
#
# Stress axis : x y z
#
# Youngs Moduli (GPa) = 72.40957 44.18436 37.54795
#
# Poissons Ratio (x) = 0.18739 0.01405
# Poissons Ratio (y) = 0.30710 0.53941
# Poissons Ratio (z) = 0.02710 0.63475
#
# Static dielectric constant tensor:
#      x y z
#    x 1.966110 -0.065560 -0.139850 
#    y -0.065560 1.913900 0.008070 
#    z -0.139850 0.008070 1.967120 
# 
# From -- ./inp_files/261326.got.cif
#   From: 2010.05.17/outbox.cif.g08.bks.cpg/sg2_131_cif.got.tgz:261326.got - 2010.06.03 11:33:40.
