data_PCOD9100491
_publ_section_title
;
Structure prediction by ZEFSAII (Michael W. Deem and Ramdas Pophale) SiO2 
 PCOD9100491
Probable space group: P -1
;
_chemical_formula_sum "Si O2"
_cell_formula_units_Z 14
_cell_length_a 12.346172
_cell_length_b 7.433237
_cell_length_c 7.958409
_cell_angle_alpha 107.317269
_cell_angle_beta 119.202678
_cell_angle_gamma 74.882438
_cell_volume 602.750080
_symmetry_space_group_name_H-M "P -1"
_symmetry_group_IT_number 2
_symmetry_cell_setting 'triclinic'
loop_
_space_group_symop_operation_xyz
x,y,z
-x,-y,-z
loop_
_atom_site_type_symbol
_atom_site_label
_atom_site_fract_x
_atom_site_fract_y
_atom_site_fract_z
Si Si1 0.598712 0.100150 0.716240
Si Si2 0.431483 0.445151 0.241004
Si Si3 0.319574 0.440352 0.499053
Si Si4 0.877573 0.025662 0.800058
Si Si5 0.597084 0.796289 0.169413
Si Si6 0.149369 0.090669 0.615181
Si Si7 0.080967 0.709004 0.375261
O O1 0.596813 0.324178 0.728225
O O2 0.744169 0.016861 0.783338
O O3 0.538959 0.097066 0.855617
O O4 0.500000 0.000000 0.500000
O O5 0.356372 0.368703 0.318093
O O6 0.582009 0.404592 0.371911
O O7 0.404497 0.354730 0.019930
O O8 0.356477 0.309334 0.650510
O O9 0.174832 0.522550 0.429488
O O10 0.881766 0.226793 0.764039
O O11 0.881633 0.888978 0.601865
O O12 0.000000 0.000000 0.000000
O O13 0.704532 0.921414 0.249351
O O14 0.067953 0.260193 0.703097
O O15 0.114521 0.880843 0.569017
#
# Coordination Sequence:
#
# PCOD9100491 Si02
#       7
#     2   2   2   2   2   2   2
#     4  11  19  38  68  91 123 166 214 263 310 375
#     4  10  22  40  63  93 131 166 208 259 324 384
#     4  10  20  39  64  85 127 169 202 260 319 372
#     4  10  20  37  64  91 120 167 209 256 316 371
#     4  11  23  40  63  99 125 165 214 261 321 380
#     4   9  20  40  59  86 131 159 215 260 308 377
#     4   9  19  41  61  83 124 171 201 263 315 366
#
# _framework density 23.226873999999999
#
# number of rings (size 3 to 8) (size 9 to 14) (size 15 to 20)
#    0.857    1.143    2.857    1.714    0.000    2.857 
#    2.571    1.429    0.000    0.000    0.000    0.000 
#    0.000    0.000    0.000    0.000    0.000    0.000 
#
# Total GULP energy -78024.430763 kJ/mol
# GULP energy per Si atom -5573.173626 kJ/mol
# Density = 2.317401 g / cm^3
# Si number density = 23.226874 Si / 1000 Ang^3
#
#
#
# Elastic Constant Matrix: (Units=GPa)
#
#
# Indices 1 2 3 4 5 6 
#
# 1 171.9670 23.9878 50.9220 -1.6764 7.0752 -20.9280
# 2 23.9878 45.8105 30.3042 -0.8619 -1.0640 -7.0986
# 3 50.9220 30.3042 106.7726 8.0680 -3.8130 -1.2335
# 4 -1.6764 -0.8619 8.0680 22.0010 -8.3268 4.5692
# 5 7.0752 -1.0640 -3.8130 -8.3268 28.2623 2.7362
# 6 -20.9280 -7.0986 -1.2335 4.5692 2.7362 21.2605
#
#
#
# Elastic Compliance Matrix: (Units=1/GPa)
#
#
# Indices 1 2 3 4 5 6 
#
# 1 0.008138 -0.000679 -0.003634 -0.001205 -0.003713 0.008310
# 2 -0.000679 0.028687 -0.007901 0.002366 0.000113 0.007929
# 3 -0.003634 -0.007901 0.013646 -0.003925 0.001762 -0.004807
# 4 -0.001205 0.002366 -0.003925 0.056893 0.018093 -0.015179
# 5 -0.003713 0.000113 0.001762 0.018093 0.043139 -0.012955
# 6 0.008310 0.007929 -0.004807 -0.015179 -0.012955 0.062514
#
#
# Mechanical properties :
#
#
# Convention : Reuss Voigt Hill
#
# Bulk Modulus (GPa) = 38.39908 59.44201 48.92055
# Shear Modulus (GPa) = 20.31484 28.92718 24.62101
#
# Velocity S-wave (km/s) = 2.96062 3.53288 3.25933
# Velocity P-wave (km/s) = 5.31555 6.50301 5.93903
#
# Compressibility (1/GPa) = 0.02604229
#
# Stress axis : x y z
#
# Youngs Moduli (GPa) = 122.87719 34.85899 73.28411
#
# Poissons Ratio (x) = 0.02365 0.26633
# Poissons Ratio (y) = 0.08337 0.57905
# Poissons Ratio (z) = 0.44657 0.27544
#
# Static dielectric constant tensor:
#      x y z
#    x 1.974110 -0.026630 0.011790 
#    y -0.026630 1.962540 -0.013390 
#    z 0.011790 -0.013390 1.862390 
# 
# From -- ./inp_files/235738.got.cif
#   From: 2010.05.17/outbox.cif.g08.bks.cpg/sg2_118_cif.got.tgz:235738.got - 2010.06.03 11:33:40.
