data_PCOD9100507
_publ_section_title
;
Structure prediction by ZEFSAII (Michael W. Deem and Ramdas Pophale) SiO2 
 PCOD9100507
Probable space group: P -1
;
_chemical_formula_sum "Si O2"
_cell_formula_units_Z 12
_cell_length_a 7.239982
_cell_length_b 7.782042
_cell_length_c 9.945467
_cell_angle_alpha 84.537955
_cell_angle_beta 127.518692
_cell_angle_gamma 107.156551
_cell_volume 422.018730
_symmetry_space_group_name_H-M "P -1"
_symmetry_group_IT_number 2
_symmetry_cell_setting 'triclinic'
loop_
_space_group_symop_operation_xyz
x,y,z
-x,-y,-z
loop_
_atom_site_type_symbol
_atom_site_label
_atom_site_fract_x
_atom_site_fract_y
_atom_site_fract_z
Si Si1 0.940872 0.100723 0.169112
Si Si2 0.399731 0.794353 0.311650
Si Si3 0.855115 0.736114 0.001786
Si Si4 0.189970 0.586292 0.798580
Si Si5 0.807208 0.103116 0.514899
Si Si6 0.751060 0.570523 0.430460
O O1 0.770460 0.219273 0.131995
O O2 0.825908 0.909129 0.056659
O O3 0.072510 0.041755 0.358115
O O4 0.163228 0.225098 0.166153
O O5 0.146670 0.757478 0.126873
O O6 0.331284 0.829262 0.431266
O O7 0.526018 0.639232 0.361297
O O8 0.596306 0.981172 0.335993
O O9 0.761057 0.555379 0.062719
O O10 0.317389 0.574730 0.712037
O O11 0.904162 0.534248 0.628324
O O12 0.034815 0.265133 0.555205
#
# Coordination Sequence:
#
# PCOD9100507 Si02
#       6
#     2   2   2   2   2   2
#     4  10  20  40  66  86 122 170 198 244 311 362
#     4  10  20  37  64  92 119 160 208 250 298 356
#     4  10  22  41  63  91 123 160 208 249 300 364
#     4  11  22  38  62  93 121 168 196 248 313 357
#     4  10  20  40  65  89 122 163 204 249 305 355
#     4  11  22  38  61  93 129 155 199 259 302 358
#
# _framework density 28.434754999999999
#
# number of rings (size 3 to 8) (size 9 to 14) (size 15 to 20)
#    0.000    1.667    5.000    1.000    0.000    0.667 
#    0.000    1.667    0.000    0.000    0.000    0.000 
#    0.000    0.000    0.000    0.000    0.000    0.000 
#
# Total GULP energy -67196.740771 kJ/mol
# GULP energy per Si atom -5599.728398 kJ/mol
# Density = 2.837004 g / cm^3
# Si number density = 28.434755 Si / 1000 Ang^3
#
#
#
# Elastic Constant Matrix: (Units=GPa)
#
#
# Indices 1 2 3 4 5 6 
#
# 1 156.8311 71.6813 8.8331 -6.6537 0.5807 -17.5607
# 2 71.6813 167.4711 23.2037 -29.4861 -13.4124 -37.8679
# 3 8.8331 23.2037 77.7692 -25.8263 -15.9143 8.0079
# 4 -6.6537 -29.4861 -25.8263 38.8020 -3.4500 -12.9503
# 5 0.5807 -13.4124 -15.9143 -3.4500 35.3885 0.5101
# 6 -17.5607 -37.8679 8.0079 -12.9503 0.5101 71.0622
#
#
#
# Elastic Compliance Matrix: (Units=1/GPa)
#
#
# Indices 1 2 3 4 5 6 
#
# 1 0.008176 -0.004209 -0.001106 -0.002962 -0.002506 -0.000619
# 2 -0.004209 0.011910 0.001603 0.012417 0.006409 0.007343
# 3 -0.001106 0.001603 0.019824 0.015574 0.011043 0.001106
# 4 -0.002962 0.012417 0.015574 0.050975 0.016536 0.013301
# 5 -0.002506 0.006409 0.011043 0.016536 0.037244 0.004297
# 6 -0.000619 0.007343 0.001106 0.013301 0.004297 0.020100
#
#
# Mechanical properties :
#
#
# Convention : Reuss Voigt Hill
#
# Bulk Modulus (GPa) = 30.78045 67.72309 49.25177
# Shear Modulus (GPa) = 30.03341 48.94076 39.48709
#
# Velocity S-wave (km/s) = 3.25348 4.15319 3.73056
# Velocity P-wave (km/s) = 4.99620 6.84597 5.99288
#
# Compressibility (1/GPa) = 0.03248816
#
# Stress axis : x y z
#
# Youngs Moduli (GPa) = 122.30191 83.96153 50.44470
#
# Poissons Ratio (x) = 0.35337 0.05577
# Poissons Ratio (y) = 0.51474 -0.08087
# Poissons Ratio (z) = 0.13521 -0.13461
#
# Static dielectric constant tensor:
#      x y z
#    x 2.219990 0.037070 -0.050390 
#    y 0.037070 2.280190 0.011570 
#    z -0.050390 0.011570 2.315190 
# 
# From -- ./inp_files/374132.got.cif
#   From: 2010.05.17/outbox.cif.g08.bks.cpg/sg2_188_cif.got.tgz:374132.got - 2010.06.03 11:33:40.
