data_PCOD9100232
_publ_section_title
;
Structure prediction by ZEFSAII (Michael W. Deem and Ramdas Pophale) SiO2 
 PCOD9100232
Probable space group: P -1
;
_chemical_formula_sum "Si O2"
_cell_formula_units_Z 16
_cell_length_a 18.188963
_cell_length_b 15.349189
_cell_length_c 7.354547
_cell_angle_alpha 98.460192
_cell_angle_beta 66.013796
_cell_angle_gamma 154.988948
_cell_volume 650.122589
_symmetry_space_group_name_H-M "P -1"
_symmetry_group_IT_number 2
_symmetry_cell_setting 'triclinic'
loop_
_space_group_symop_operation_xyz
x,y,z
-x,-y,-z
loop_
_atom_site_type_symbol
_atom_site_label
_atom_site_fract_x
_atom_site_fract_y
_atom_site_fract_z
Si Si1 0.413468 0.340270 0.190121
Si Si2 0.235925 0.746415 0.626667
Si Si3 0.393832 0.809475 0.151259
Si Si4 0.948046 0.268225 0.343480
Si Si5 0.864109 0.856443 0.287749
Si Si6 0.153956 0.309872 0.208091
Si Si7 0.872367 0.230651 0.839278
Si Si8 0.040226 0.222273 0.676272
O O1 0.356228 0.328208 0.437266
O O2 0.199700 0.067540 0.237239
O O3 0.500000 0.500000 0.000000
O O4 0.611574 0.470532 0.059820
O O5 0.238431 0.701449 0.415602
O O6 0.186849 0.799488 0.663338
O O7 0.022001 0.467607 0.826808
O O8 0.500000 0.000000 0.500000
O O9 0.217876 0.569943 0.143866
O O10 0.500000 0.000000 0.000000
O O11 0.606637 0.974975 0.070603
O O12 0.961246 0.176247 0.272840
O O13 0.873535 0.209885 0.612149
O O14 0.847459 0.736173 0.301495
O O15 0.048225 0.105089 0.288454
O O16 0.000000 0.000000 0.000000
O O17 0.193756 0.391512 0.392655
O O18 0.984288 0.259338 0.824122
#
# Coordination Sequence:
#
# PCOD9100232 Si02
#       8
#     2   2   2   2   2   2   2   2
#     4  11  18  37  67  93 118 163 221 265 310 376
#     4  11  23  39  58  90 130 163 204 266 330 384
#     4  11  18  37  63  88 118 164 214 256 316 374
#     4  10  20  37  64  90 122 160 218 268 305 382
#     4  11  23  39  58  90 135 166 199 262 330 382
#     4  10  20  38  63  88 118 165 217 261 309 376
#     4  10  20  38  64  90 119 166 217 264 307 381
#     4  10  20  37  63  89 120 161 215 265 309 378
#
# _framework density 24.610741000000001
#
# number of rings (size 3 to 8) (size 9 to 14) (size 15 to 20)
#    0.000    1.500    5.000    2.250    0.000    1.000 
#    2.250    0.000    0.000    0.000    0.000    0.000 
#    0.000    0.000    0.000    0.000    0.000    0.000 
#
# Total GULP energy -89105.558256 kJ/mol
# GULP energy per Si atom -5569.097391 kJ/mol
# Density = 2.455473 g / cm^3
# Si number density = 24.610741 Si / 1000 Ang^3
#
#
#
# Elastic Constant Matrix: (Units=GPa)
#
#
# Indices 1 2 3 4 5 6 
#
# 1 162.5995 14.6696 56.4177 8.0205 -38.8488 -9.6401
# 2 14.6696 52.9469 15.5882 -8.0111 -5.2195 -1.2427
# 3 56.4177 15.5882 139.8364 16.9792 -27.0695 -1.2568
# 4 8.0205 -8.0111 16.9792 32.3839 -3.6028 -7.1570
# 5 -38.8488 -5.2195 -27.0695 -3.6028 44.9179 -0.2452
# 6 -9.6401 -1.2427 -1.2568 -7.1570 -0.2452 25.5753
#
#
#
# Elastic Compliance Matrix: (Units=1/GPa)
#
#
# Indices 1 2 3 4 5 6 
#
# 1 0.008631 -0.001060 -0.002178 0.000120 0.006057 0.003186
# 2 -0.001060 0.021249 -0.002738 0.007594 0.000526 0.002628
# 3 -0.002178 -0.002738 0.009558 -0.005225 0.003129 -0.001916
# 4 0.000120 0.007594 -0.005225 0.037957 0.000941 0.010788
# 5 0.006057 0.000526 0.003129 0.000941 0.029540 0.003009
# 6 0.003186 0.002628 -0.001916 0.010788 0.003009 0.043383
#
#
# Mechanical properties :
#
#
# Convention : Reuss Voigt Hill
#
# Bulk Modulus (GPa) = 36.38066 58.74819 47.56443
# Shear Modulus (GPa) = 29.16623 38.48924 33.82774
#
# Velocity S-wave (km/s) = 3.44627 3.95893 3.71146
# Velocity P-wave (km/s) = 5.53626 6.69480 6.14290
#
# Compressibility (1/GPa) = 0.02748713
#
# Stress axis : x y z
#
# Youngs Moduli (GPa) = 115.85598 47.06079 104.62634
#
# Poissons Ratio (x) = 0.04990 0.22784
# Poissons Ratio (y) = 0.12285 0.28643
# Poissons Ratio (z) = 0.25229 0.12883
#
# Static dielectric constant tensor:
#      x y z
#    x 1.983120 0.099040 -0.142570 
#    y 0.099040 1.949800 0.133860 
#    z -0.142570 0.133860 1.829570 
# 
# From -- ./inp_files/335714.got.cif
#   From: 2010.05.17/outbox.cif.g08.bks.cpg/sg2_168_cif.got.tgz:335714.got - 2010.06.03 11:33:40.
