data_PCOD9100881
_publ_section_title
;
Structure prediction by ZEFSAII (Michael W. Deem and Ramdas Pophale) SiO2 
 PCOD9100881
Probable space group: P -1
;
_chemical_formula_sum "Si O2"
_cell_formula_units_Z 16
_cell_length_a 8.294989
_cell_length_b 12.294862
_cell_length_c 10.148795
_cell_angle_alpha 99.689693
_cell_angle_beta 136.379535
_cell_angle_gamma 100.409149
_cell_volume 630.376309
_symmetry_space_group_name_H-M "P -1"
_symmetry_group_IT_number 2
_symmetry_cell_setting 'triclinic'
loop_
_space_group_symop_operation_xyz
x,y,z
-x,-y,-z
loop_
_atom_site_type_symbol
_atom_site_label
_atom_site_fract_x
_atom_site_fract_y
_atom_site_fract_z
Si Si1 0.870969 0.212549 0.563075
Si Si2 0.662182 0.992056 0.719925
Si Si3 0.025191 0.633778 0.087548
Si Si4 0.883314 0.156124 0.133466
Si Si5 0.466799 0.564154 0.670376
Si Si6 0.289387 0.710467 0.766838
Si Si7 0.136883 0.069796 0.824003
Si Si8 0.534082 0.677100 0.460013
O O1 0.001096 0.320010 0.771211
O O2 0.892952 0.268299 0.444251
O O3 0.992896 0.116467 0.640462
O O4 0.555238 0.139621 0.382228
O O5 0.949629 0.035417 0.835262
O O6 0.500000 0.000000 0.500000
O O7 0.722733 0.084862 0.896933
O O8 0.336544 0.713697 0.270999
O O9 0.000000 0.500000 0.000000
O O10 0.782822 0.641147 0.875844
O O11 0.818761 0.268966 0.154731
O O12 0.194294 0.212996 0.320144
O O13 0.819066 0.052242 0.189226
O O14 0.326384 0.594620 0.714015
O O15 0.392120 0.602196 0.493821
O O16 0.413074 0.423596 0.609176
O O17 0.583824 0.818642 0.963139
#
# Coordination Sequence:
#
# PCOD9100881 Si02
#       8
#     2   2   2   2   2   2   2   2
#     4  11  22  39  64  92 128 170 217 267 321 384
#     4  10  23  40  63  93 122 165 222 270 313 372
#     4  10  20  37  66  96 119 156 221 276 317 366
#     4  12  25  42  63  96 138 174 211 269 328 392
#     4  10  21  41  70  94 124 172 211 276 327 378
#     4  12  24  41  62  94 140 173 212 260 332 398
#     4  11  23  41  64  88 129 176 218 266 317 375
#     4  10  22  41  68  97 125 163 228 268 316 385
#
# _framework density 25.381664000000001
#
# number of rings (size 3 to 8) (size 9 to 14) (size 15 to 20)
#    0.000    1.250    3.750    2.250    1.750    1.000 
#    2.250    0.000    0.000    1.500    0.000    0.000 
#    0.000    0.000    0.000    0.000    0.000    0.000 
#
# Total GULP energy -89274.599644 kJ/mol
# GULP energy per Si atom -5579.662478 kJ/mol
# Density = 2.532389 g / cm^3
# Si number density = 25.381664 Si / 1000 Ang^3
#
#
#
# Elastic Constant Matrix: (Units=GPa)
#
#
# Indices 1 2 3 4 5 6 
#
# 1 55.9238 11.0267 33.3574 0.1752 3.2621 -20.2620
# 2 11.0267 79.1576 32.2955 -10.2538 -6.5800 -27.3548
# 3 33.3574 32.2955 147.9274 0.0860 3.3219 -6.2256
# 4 0.1752 -10.2538 0.0860 46.0135 -10.8156 -3.4849
# 5 3.2621 -6.5800 3.3219 -10.8156 38.3707 12.8164
# 6 -20.2620 -27.3548 -6.2256 -3.4849 12.8164 36.1975
#
#
#
# Elastic Compliance Matrix: (Units=1/GPa)
#
#
# Indices 1 2 3 4 5 6 
#
# 1 0.029573 0.006064 -0.006840 0.001050 -0.008264 0.022988
# 2 0.006064 0.021361 -0.005177 0.005930 -0.001306 0.019680
# 3 -0.006840 -0.005177 0.009143 -0.001483 0.000672 -0.006549
# 4 0.001050 0.005930 -0.001483 0.024940 0.006437 0.004936
# 5 -0.008264 -0.001306 0.000672 0.006437 0.033940 -0.016895
# 6 0.022988 0.019680 -0.006549 0.004936 -0.016895 0.060697
#
#
# Mechanical properties :
#
#
# Convention : Reuss Voigt Hill
#
# Bulk Modulus (GPa) = 20.75923 48.48532 34.62228
# Shear Modulus (GPa) = 24.08282 37.87164 30.97723
#
# Velocity S-wave (km/s) = 3.08365 3.86694 3.49729
# Velocity P-wave (km/s) = 4.56893 6.25153 5.47525
#
# Compressibility (1/GPa) = 0.04817134
#
# Stress axis : x y z
#
# Youngs Moduli (GPa) = 33.81417 46.81436 109.37457
#
# Poissons Ratio (x) = -0.28389 0.74815
# Poissons Ratio (y) = -0.20505 0.56621
# Poissons Ratio (z) = 0.23130 0.24235
#
# Static dielectric constant tensor:
#      x y z
#    x 2.065800 -0.048460 -0.001440 
#    y -0.048460 2.086810 0.010480 
#    z -0.001440 0.010480 1.947690 
# 
# From -- ./inp_files/399493.got.cif
#   From: 2010.05.17/outbox.cif.g08.bks.cpg/sg2_200_cif.got.tgz:399493.got - 2010.06.03 11:33:40.
