data_PCOD9100513
_publ_section_title
;
Structure prediction by ZEFSAII (Michael W. Deem and Ramdas Pophale) SiO2 
 PCOD9100513
Probable space group: P -1
;
_chemical_formula_sum "Si O2"
_cell_formula_units_Z 12
_cell_length_a 8.322623
_cell_length_b 14.414395
_cell_length_c 5.844577
_cell_angle_alpha 111.120285
_cell_angle_beta 72.377085
_cell_angle_gamma 69.174025
_cell_volume 531.456706
_symmetry_space_group_name_H-M "P -1"
_symmetry_group_IT_number 2
_symmetry_cell_setting 'triclinic'
loop_
_space_group_symop_operation_xyz
x,y,z
-x,-y,-z
loop_
_atom_site_type_symbol
_atom_site_label
_atom_site_fract_x
_atom_site_fract_y
_atom_site_fract_z
Si Si1 0.828131 0.633443 0.242979
Si Si2 0.597925 0.575715 0.577107
Si Si3 0.709442 0.276245 0.791113
Si Si4 0.907970 0.806106 0.124642
Si Si5 0.096328 0.637615 0.504308
Si Si6 0.116630 0.970732 0.674341
O O1 0.634323 0.631450 0.388478
O O2 0.807578 0.731613 0.164564
O O3 0.912332 0.660622 0.455988
O O4 0.000000 0.500000 0.000000
O O5 0.500000 0.500000 0.500000
O O6 0.813263 0.479476 0.493779
O O7 0.470527 0.669691 0.907524
O O8 0.720915 0.373947 0.727666
O O9 0.911172 0.230685 0.811176
O O10 0.737337 0.167560 0.537434
O O11 0.792860 0.945526 0.290636
O O12 0.017780 0.751408 0.792033
O O13 0.000000 0.000000 0.500000
O O14 0.000000 0.000000 0.000000
#
# Coordination Sequence:
#
# PCOD9100513 Si02
#       6
#     2   2   2   2   2   2
#     4  11  23  38  57  87 121 161 204 245 308 383
#     4  12  22  38  59  89 125 154 202 260 312 368
#     4  10  21  36  59  92 118 156 204 261 306 358
#     4  10  20  38  60  86 116 161 206 246 299 375
#     4  11  20  38  60  84 121 157 199 245 314 371
#     4  10  20  37  64  92 122 162 213 258 301 371
#
# _framework density 22.579449
#
# number of rings (size 3 to 8) (size 9 to 14) (size 15 to 20)
#    0.000    1.333    5.000    2.000    0.000    0.000 
#    0.000    0.833    0.000    1.000    0.000    0.000 
#    0.000    0.000    0.000    0.000    0.000    0.000 
#
# Total GULP energy -66906.545772 kJ/mol
# GULP energy per Si atom -5575.545481 kJ/mol
# Density = 2.252806 g / cm^3
# Si number density = 22.579449 Si / 1000 Ang^3
#
#
#
# Elastic Constant Matrix: (Units=GPa)
#
#
# Indices 1 2 3 4 5 6 
#
# 1 47.6613 23.1632 15.4417 -3.2391 -2.9857 17.6819
# 2 23.1632 102.5365 46.6477 7.6827 3.4519 39.3716
# 3 15.4417 46.6477 140.2108 13.8887 -1.9136 30.2824
# 4 -3.2391 7.6827 13.8887 39.3048 4.7701 3.2658
# 5 -2.9857 3.4519 -1.9136 4.7701 17.2309 -8.9220
# 6 17.6819 39.3716 30.2824 3.2658 -8.9220 44.8238
#
#
#
# Elastic Compliance Matrix: (Units=1/GPa)
#
#
# Indices 1 2 3 4 5 6 
#
# 1 0.025573 -0.002982 -0.000595 0.003476 0.000234 -0.007274
# 2 -0.002982 0.017815 -0.002465 -0.000109 -0.012215 -0.015230
# 3 -0.000595 -0.002465 0.009014 -0.002502 0.000299 -0.003448
# 4 0.003476 -0.000109 -0.002502 0.028039 -0.009208 -0.003461
# 5 0.000234 -0.012215 0.000299 -0.009208 0.076768 0.026386
# 6 -0.007274 -0.015230 -0.003448 -0.003461 0.026386 0.046390
#
#
# Mechanical properties :
#
#
# Convention : Reuss Voigt Hill
#
# Bulk Modulus (GPa) = 24.80228 51.21265 38.00747
# Shear Modulus (GPa) = 21.82246 33.94895 27.88571
#
# Velocity S-wave (km/s) = 3.11219 3.88175 3.51807
# Velocity P-wave (km/s) = 4.89107 6.54377 5.77683
#
# Compressibility (1/GPa) = 0.04031887
#
# Stress axis : x y z
#
# Youngs Moduli (GPa) = 39.10446 56.13248 110.93266
#
# Poissons Ratio (x) = 0.16738 0.06595
# Poissons Ratio (y) = 0.11660 0.27348
# Poissons Ratio (z) = 0.02325 0.13838
#
# Static dielectric constant tensor:
#      x y z
#    x 2.124290 -0.230590 0.364580 
#    y -0.230590 2.153150 -0.378310 
#    z 0.364580 -0.378310 2.314530 
# 
# From -- ./inp_files/19577.got.cif
#   From: 2010.05.17/outbox.cif.g08.bks.cpg/sg2_10_cif.got.tgz:19577.got - 2010.06.03 11:33:40.
