data_PCOD9100317
_publ_section_title
;
Structure prediction by ZEFSAII (Michael W. Deem and Ramdas Pophale) SiO2 
 PCOD9100317
Probable space group: P -1
;
_chemical_formula_sum "Si O2"
_cell_formula_units_Z 16
_cell_length_a 11.357849
_cell_length_b 12.753177
_cell_length_c 11.750881
_cell_angle_alpha 119.890348
_cell_angle_beta 126.832165
_cell_angle_gamma 32.615834
_cell_volume 734.226624
_symmetry_space_group_name_H-M "P -1"
_symmetry_group_IT_number 2
_symmetry_cell_setting 'triclinic'
loop_
_space_group_symop_operation_xyz
x,y,z
-x,-y,-z
loop_
_atom_site_type_symbol
_atom_site_label
_atom_site_fract_x
_atom_site_fract_y
_atom_site_fract_z
Si Si1 0.422665 0.906368 0.405288
Si Si2 0.118570 0.023923 0.659499
Si Si3 0.215788 0.686422 0.920873
Si Si4 0.559387 0.058746 0.811140
Si Si5 0.858777 0.465336 0.378611
Si Si6 0.107142 0.000799 0.901511
Si Si7 0.567031 0.779082 0.668506
Si Si8 0.976203 0.675164 0.369167
O O1 0.316327 0.977535 0.254131
O O2 0.596282 0.680486 0.362698
O O3 0.396271 0.900433 0.522435
O O4 0.500000 0.000000 0.500000
O O5 0.049006 0.049138 0.762441
O O6 0.045799 0.202406 0.666430
O O7 0.401710 0.834159 0.701124
O O8 0.000000 0.000000 0.500000
O O9 0.136387 0.610781 0.776258
O O10 0.147119 0.837929 0.875675
O O11 0.500000 0.500000 0.000000
O O12 0.088709 0.806297 0.029448
O O13 0.274509 0.234991 0.726232
O O14 0.635126 0.873548 0.782425
O O15 0.647555 0.089216 0.976465
O O16 0.963213 0.319201 0.463942
O O17 0.000000 0.500000 0.500000
O O18 0.800946 0.552647 0.656109
#
# Coordination Sequence:
#
# PCOD9100317 Si02
#       8
#     2   2   2   2   2   2   2   2
#     4   9  18  33  60  99 133 163 205 274 333 376
#     4  11  25  46  64  87 129 181 228 270 328 399
#     4  11  27  46  67 103 138 173 222 278 342 404
#     4  10  20  37  63  92 134 168 213 270 340 384
#     4  11  21  37  68 102 132 168 223 273 330 397
#     4  11  27  45  68  93 136 182 218 273 341 405
#     4   9  22  36  62  98 126 167 223 269 317 395
#     4  10  22  39  64 101 130 167 222 277 323 391
#
# _framework density 21.791636
#
# number of rings (size 3 to 8) (size 9 to 14) (size 15 to 20)
#    0.000    1.750    1.250    1.500    5.250    7.500 
#    0.000    1.250    0.000    0.000    0.000    0.000 
#    0.000    0.000    0.000    0.000    0.000    0.000 
#
# Total GULP energy -89204.421290 kJ/mol
# GULP energy per Si atom -5575.276331 kJ/mol
# Density = 2.174204 g / cm^3
# Si number density = 21.791636 Si / 1000 Ang^3
#
#
#
# Elastic Constant Matrix: (Units=GPa)
#
#
# Indices 1 2 3 4 5 6 
#
# 1 100.3661 43.9155 54.7966 -0.7102 -13.7703 4.5030
# 2 43.9155 122.0692 39.8710 1.5469 1.5192 -11.9777
# 3 54.7966 39.8710 140.5995 9.0183 -10.4425 10.7739
# 4 -0.7102 1.5469 9.0183 27.2590 1.8001 -0.3598
# 5 -13.7703 1.5192 -10.4425 1.8001 41.6473 -3.2435
# 6 4.5030 -11.9777 10.7739 -0.3598 -3.2435 27.4256
#
#
#
# Elastic Compliance Matrix: (Units=1/GPa)
#
#
# Indices 1 2 3 4 5 6 
#
# 1 0.014722 -0.004195 -0.004220 0.001744 0.003721 -0.002128
# 2 -0.004195 0.011008 -0.002102 0.000164 -0.001847 0.006106
# 3 -0.004220 -0.002102 0.009958 -0.003405 0.001009 -0.004062
# 4 0.001744 0.000164 -0.003405 0.037986 -0.001815 0.001407
# 5 0.003721 -0.001847 0.001009 -0.001815 0.025734 0.001205
# 6 -0.002128 0.006106 -0.004062 0.001407 0.001205 0.041235
#
#
# Mechanical properties :
#
#
# Convention : Reuss Voigt Hill
#
# Bulk Modulus (GPa) = 68.24827 71.13343 69.69085
# Shear Modulus (GPa) = 30.01870 34.22984 32.12427
#
# Velocity S-wave (km/s) = 3.71554 3.96760 3.84364
# Velocity P-wave (km/s) = 7.05645 7.32820 7.19361
#
# Compressibility (1/GPa) = 0.01465239
#
# Stress axis : x y z
#
# Youngs Moduli (GPa) = 67.92734 90.84323 100.42153
#
# Poissons Ratio (x) = 0.38109 0.42381
# Poissons Ratio (y) = 0.28496 0.21112
# Poissons Ratio (z) = 0.28667 0.19098
#
# Static dielectric constant tensor:
#      x y z
#    x 1.129160 0.602830 -1.411490 
#    y 0.602830 1.273890 1.230770 
#    z -1.411490 1.230770 -0.943550 
# 
# From -- ./inp_files/426539.got.cif
#   From: 2010.05.17/outbox.cif.g08.bks.cpg/sg2_214_cif.got.tgz:426539.got - 2010.06.03 11:33:40.
