data_PCOD9100329
_publ_section_title
;
Structure prediction by ZEFSAII (Michael W. Deem and Ramdas Pophale) SiO2 
 PCOD9100329
Probable space group: P -1
;
_chemical_formula_sum "Si O2"
_cell_formula_units_Z 14
_cell_length_a 6.807606
_cell_length_b 9.456125
_cell_length_c 18.761294
_cell_angle_alpha 43.643733
_cell_angle_beta 50.251858
_cell_angle_gamma 48.421878
_cell_volume 593.158782
_symmetry_space_group_name_H-M "P -1"
_symmetry_group_IT_number 2
_symmetry_cell_setting 'triclinic'
loop_
_space_group_symop_operation_xyz
x,y,z
-x,-y,-z
loop_
_atom_site_type_symbol
_atom_site_label
_atom_site_fract_x
_atom_site_fract_y
_atom_site_fract_z
Si Si1 0.924812 0.710920 0.370345
Si Si2 0.525799 0.553753 0.597364
Si Si3 0.450849 0.407919 0.183737
Si Si4 0.302792 0.901543 0.622370
Si Si5 0.218698 0.322790 0.961252
Si Si6 0.837411 0.670389 0.196035
Si Si7 0.115860 0.964593 0.866011
O O1 0.668257 0.633623 0.470624
O O2 0.217974 0.513288 0.381713
O O3 0.927661 0.879980 0.371580
O O4 0.898314 0.848724 0.255941
O O5 0.268634 0.748638 0.623177
O O6 0.413870 0.358616 0.692298
O O7 0.572751 0.250482 0.281542
O O8 0.511438 0.632443 0.095582
O O9 0.620726 0.258781 0.132505
O O10 0.126647 0.490539 0.220783
O O11 0.500000 0.000000 0.500000
O O12 0.184263 0.372951 0.866832
O O13 0.000000 0.500000 0.000000
O O14 0.147294 0.103711 0.062005
O O15 0.840394 0.914963 0.117382
#
# Coordination Sequence:
#
# PCOD9100329 Si02
#       7
#     2   2   2   2   2   2   2
#     4   9  20  39  62  89 128 166 207 258 311 376
#     4  10  20  37  63  93 125 166 207 257 317 375
#     4  10  22  43  64  92 130 167 208 264 313 371
#     4   9  17  36  64  89 120 167 210 247 308 375
#     4  10  23  45  66  90 127 173 210 260 323 374
#     4  12  24  40  66  99 125 164 216 262 318 381
#     4  10  23  41  62  96 126 164 216 259 312 379
#
# _framework density 23.602449
#
# number of rings (size 3 to 8) (size 9 to 14) (size 15 to 20)
#    0.000    2.000    1.429    1.286    0.000    4.571 
#    2.571    6.429    0.000    0.000    0.000    0.000 
#    0.000    0.000    0.000    0.000    0.000    0.000 
#
# Total GULP energy -78035.928452 kJ/mol
# GULP energy per Si atom -5573.994889 kJ/mol
# Density = 2.354873 g / cm^3
# Si number density = 23.602449 Si / 1000 Ang^3
#
#
#
# Elastic Constant Matrix: (Units=GPa)
#
#
# Indices 1 2 3 4 5 6 
#
# 1 76.2751 22.7707 46.5019 -1.5527 -33.0208 9.5975
# 2 22.7707 94.2175 12.6946 -12.0487 -8.2160 10.7994
# 3 46.5019 12.6946 144.1458 -11.2586 -34.2425 6.7512
# 4 -1.5527 -12.0487 -11.2586 26.4728 6.3917 -8.4041
# 5 -33.0208 -8.2160 -34.2425 6.3917 35.0532 -1.4731
# 6 9.5975 10.7994 6.7512 -8.4041 -1.4731 32.5254
#
#
#
# Elastic Compliance Matrix: (Units=1/GPa)
#
#
# Indices 1 2 3 4 5 6 
#
# 1 0.026968 -0.004504 -0.003370 -0.009632 0.022509 -0.007232
# 2 -0.004504 0.012354 0.000382 0.005534 -0.002047 -0.001515
# 3 -0.003370 0.000382 0.009578 0.002591 0.005791 -0.000189
# 4 -0.009632 0.005534 0.002591 0.047974 -0.013478 0.012252
# 5 0.022509 -0.002047 0.005791 -0.013478 0.057028 -0.008064
# 6 -0.007232 -0.001515 -0.000189 0.012252 -0.008064 0.036222
#
#
# Mechanical properties :
#
#
# Convention : Reuss Voigt Hill
#
# Bulk Modulus (GPa) = 29.48407 53.17474 41.32941
# Shear Modulus (GPa) = 23.10408 34.32168 28.71288
#
# Velocity S-wave (km/s) = 3.13211 3.81748 3.49165
# Velocity P-wave (km/s) = 5.05957 6.48144 5.81413
#
# Compressibility (1/GPa) = 0.03391661
#
# Stress axis : x y z
#
# Youngs Moduli (GPa) = 37.08123 80.94816 104.40829
#
# Poissons Ratio (x) = 0.36455 0.35182
# Poissons Ratio (y) = 0.16700 -0.03988
# Poissons Ratio (z) = 0.12495 -0.03092
#
# Static dielectric constant tensor:
#      x y z
#    x 1.868030 0.066510 -0.016920 
#    y 0.066510 2.011120 -0.023820 
#    z -0.016920 -0.023820 1.933140 
# 
# From -- ./inp_files/485062.got.cif
#   From: 2010.05.17/outbox.cif.g08.bks.cpg/sg2_243_cif.got.tgz:485062.got - 2010.06.03 11:33:40.
