data_PCOD9100247
_publ_section_title
;
Structure prediction by ZEFSAII (Michael W. Deem and Ramdas Pophale) SiO2 
 PCOD9100247
Probable space group: P -1
;
_chemical_formula_sum "Si O2"
_cell_formula_units_Z 12
_cell_length_a 7.192941
_cell_length_b 8.976450
_cell_length_c 12.489996
_cell_angle_alpha 125.828653
_cell_angle_beta 85.350204
_cell_angle_gamma 61.784586
_cell_volume 498.678905
_symmetry_space_group_name_H-M "P -1"
_symmetry_group_IT_number 2
_symmetry_cell_setting 'triclinic'
loop_
_space_group_symop_operation_xyz
x,y,z
-x,-y,-z
loop_
_atom_site_type_symbol
_atom_site_label
_atom_site_fract_x
_atom_site_fract_y
_atom_site_fract_z
Si Si1 0.451485 0.535765 0.866144
Si Si2 0.983431 0.403761 0.801621
Si Si3 0.762530 0.880142 0.110965
Si Si4 0.982516 0.813621 0.485292
Si Si5 0.341068 0.889912 0.174735
Si Si6 0.521668 0.413517 0.342590
O O1 0.719683 0.465211 0.834040
O O2 0.470419 0.347581 0.860797
O O3 0.410152 0.511786 0.734845
O O4 0.274707 0.795141 0.040729
O O5 0.130203 0.251501 0.624986
O O6 0.119931 0.237603 0.828740
O O7 0.921479 0.657400 0.927810
O O8 0.491767 0.963654 0.154153
O O9 0.706882 0.127804 0.206031
O O10 0.238433 0.555504 0.391363
O O11 0.000000 0.000000 0.500000
O O12 0.856815 0.927293 0.652436
O O13 0.500000 0.500000 0.500000
#
# Coordination Sequence:
#
# PCOD9100247 Si02
#       6
#     2   2   2   2   2   2
#     4   9  20  39  64  83 119 161 194 229 297 359
#     4   9  19  38  61  85 115 164 187 232 294 361
#     4  10  22  37  61  91 119 147 201 246 290 341
#     4  11  20  37  63  84 117 163 196 232 294 358
#     4  10  20  37  63  90 114 153 202 242 281 350
#     4  11  23  39  61  87 118 159 194 242 298 350
#
# _framework density 24.063582
#
# number of rings (size 3 to 8) (size 9 to 14) (size 15 to 20)
#    0.000    2.000    3.333    1.000    0.000    7.333 
#    0.000    0.833    0.000    0.000    0.000    0.000 
#    0.000    0.000    0.000    0.000    0.000    0.000 
#
# Total GULP energy -66959.239292 kJ/mol
# GULP energy per Si atom -5579.936608 kJ/mol
# Density = 2.400881 g / cm^3
# Si number density = 24.063582 Si / 1000 Ang^3
#
#
#
# Elastic Constant Matrix: (Units=GPa)
#
#
# Indices 1 2 3 4 5 6 
#
# 1 30.0389 3.2115 6.4703 6.0204 -1.5885 -5.0990
# 2 3.2115 64.4110 35.2634 5.0642 15.5838 -9.0979
# 3 6.4703 35.2634 169.4739 -14.0674 5.8126 -8.1458
# 4 6.0204 5.0642 -14.0674 54.0432 -5.9943 -3.5713
# 5 -1.5885 15.5838 5.8126 -5.9943 36.3902 1.3516
# 6 -5.0990 -9.0979 -8.1458 -3.5713 1.3516 15.5998
#
#
#
# Elastic Compliance Matrix: (Units=1/GPa)
#
#
# Indices 1 2 3 4 5 6 
#
# 1 0.036064 0.000563 -0.001309 -0.003653 0.000549 0.010549
# 2 0.000563 0.021838 -0.004003 -0.003505 -0.009669 0.010865
# 3 -0.001309 -0.004003 0.007032 0.002545 0.000900 0.001414
# 4 -0.003653 -0.003505 0.002545 0.020531 0.004227 0.002424
# 5 0.000549 -0.009669 0.000900 0.004227 0.032451 -0.006833
# 6 0.010549 0.010865 0.001414 0.002424 -0.006833 0.075773
#
#
# Mechanical properties :
#
#
# Convention : Reuss Voigt Hill
#
# Bulk Modulus (GPa) = 18.03870 39.31267 28.67569
# Shear Modulus (GPa) = 22.55663 35.80523 29.18093
#
# Velocity S-wave (km/s) = 3.06498 3.86157 3.48610
# Velocity P-wave (km/s) = 4.47638 6.02119 5.30532
#
# Compressibility (1/GPa) = 0.05543636
#
# Stress axis : x y z
#
# Youngs Moduli (GPa) = 27.72873 45.79130 142.21241
#
# Poissons Ratio (x) = -0.02578 0.18616
# Poissons Ratio (y) = -0.01561 0.56922
# Poissons Ratio (z) = 0.03630 0.18328
#
# Static dielectric constant tensor:
#      x y z
#    x 2.029230 -0.012890 -0.012530 
#    y -0.012890 1.915450 -0.041470 
#    z -0.012530 -0.041470 2.026640 
# 
# From -- ./inp_files/145040.got.cif
#   From: 2010.05.17/outbox.cif.g08.bks.cpg/sg2_73_cif.got.tgz:145040.got - 2010.06.03 11:33:40.
