data_PCOD9100264
_publ_section_title
;
Structure prediction by ZEFSAII (Michael W. Deem and Ramdas Pophale) SiO2 
 PCOD9100264
Probable space group: P -1
;
_chemical_formula_sum "Si O2"
_cell_formula_units_Z 16
_cell_length_a 16.256600
_cell_length_b 19.463842
_cell_length_c 8.579899
_cell_angle_alpha 74.830991
_cell_angle_beta 104.290082
_cell_angle_gamma 160.603858
_cell_volume 870.171228
_symmetry_space_group_name_H-M "P -1"
_symmetry_group_IT_number 2
_symmetry_cell_setting 'triclinic'
loop_
_space_group_symop_operation_xyz
x,y,z
-x,-y,-z
loop_
_atom_site_type_symbol
_atom_site_label
_atom_site_fract_x
_atom_site_fract_y
_atom_site_fract_z
Si Si1 0.601448 0.916183 0.777787
Si Si2 0.629622 0.785735 0.025580
Si Si3 0.063338 0.479187 0.636179
Si Si4 0.103981 0.348889 0.193165
Si Si5 0.124498 0.215156 0.122496
Si Si6 0.273656 0.857565 0.068765
Si Si7 0.936454 0.671534 0.445015
Si Si8 0.562828 0.466520 0.187620
O O1 0.333992 0.701419 0.703275
O O2 0.623114 0.998386 0.858827
O O3 0.644224 0.876825 0.912032
O O4 0.814727 0.096613 0.643286
O O5 0.388024 0.588360 0.137173
O O6 0.578244 0.693087 0.911721
O O7 0.887969 0.979267 0.120709
O O8 0.063436 0.409606 0.567461
O O9 0.000000 0.500000 0.500000
O O10 0.870577 0.310503 0.785341
O O11 0.052011 0.228048 0.178244
O O12 0.070724 0.329397 0.372822
O O13 0.925491 0.262647 0.068446
O O14 0.355019 0.355285 0.223866
O O15 0.236606 0.331287 0.940582
O O16 0.500000 0.000000 0.000000
O O17 0.707530 0.532143 0.339020
#
# Coordination Sequence:
#
# PCOD9100264 Si02
#       8
#     2   2   2   2   2   2   2   2
#     4  11  21  42  66  81 121 159 194 242 291 348
#     4  11  18  40  63  88 114 158 201 239 289 347
#     4  11  25  42  62  89 117 155 202 241 288 355
#     4  11  24  39  58  90 124 153 194 245 295 347
#     4  10  20  38  63  88 118 158 197 241 292 347
#     4  11  25  41  61  89 120 154 197 244 294 349
#     4  11  24  40  60  89 124 155 192 245 297 345
#     4  10  20  37  63  91 116 154 203 240 286 353
#
# _framework density 18.387186
#
# number of rings (size 3 to 8) (size 9 to 14) (size 15 to 20)
#    0.000    1.250    5.000    1.875    3.500    4.000 
#    0.000    0.625    0.000    0.000    0.000    0.000 
#    0.000    0.000    0.000    0.000    0.000    0.000 
#
# Total GULP energy -89385.776769 kJ/mol
# GULP energy per Si atom -5586.611048 kJ/mol
# Density = 1.834534 g / cm^3
# Si number density = 18.387186 Si / 1000 Ang^3
#
#
#
# Elastic Constant Matrix: (Units=GPa)
#
#
# Indices 1 2 3 4 5 6 
#
# 1 82.0392 29.7099 46.7636 -11.8201 2.6796 18.2934
# 2 29.7099 109.0992 26.1978 -1.9169 -21.7678 -0.4050
# 3 46.7636 26.1978 91.9899 -10.9764 -25.4804 4.9869
# 4 -11.8201 -1.9169 -10.9764 13.5566 -3.9238 4.8505
# 5 2.6796 -21.7678 -25.4804 -3.9238 14.4658 -3.5474
# 6 18.2934 -0.4050 4.9869 4.8505 -3.5474 29.2295
#
#
#
# Elastic Compliance Matrix: (Units=1/GPa)
#
#
# Indices 1 2 3 4 5 6 
#
# 1 -0.011494 0.016150 0.035408 0.048790 0.103466 0.005837
# 2 0.016150 -0.000964 -0.025926 -0.020481 -0.057953 -0.009333
# 3 0.035408 -0.025926 -0.034900 -0.026408 -0.120791 -0.026843
# 4 0.048790 -0.020481 -0.026408 0.088311 -0.074688 -0.050033
# 5 0.103466 -0.057953 -0.120791 -0.074688 -0.286785 -0.067361
# 6 0.005837 -0.009333 -0.026843 -0.050033 -0.067361 0.035137
#
#
# Mechanical properties :
#
#
# Convention : Reuss Voigt Hill
#
# Bulk Modulus (GPa) = 255.93770 54.27454 155.10612
# Shear Modulus (GPa) = -19.18219 23.48085 2.14933
#
# Velocity S-wave (km/s) = -3.23342 3.57742 1.08234
# Velocity P-wave (km/s) = 11.20516 6.82976 9.27904
#
# Compressibility (1/GPa) = 0.00390720
#
# Stress axis : x y z
#
# Youngs Moduli (GPa) = -87.00023 -1037.31871 -28.65353
#
# Poissons Ratio (x) = 16.75311 1.01457
# Poissons Ratio (y) = 1.40509 -0.74288
# Poissons Ratio (z) = 3.08053 -26.89367
#
# Static dielectric constant tensor:
#      x y z
#    x 1.644520 0.014030 0.013970 
#    y 0.014030 1.647190 0.018390 
#    z 0.013970 0.018390 1.611920 
# 
# From -- ./inp_files/38597.got.cif
#   From: 2010.05.17/outbox.cif.g08.bks.cpg/sg2_20_cif.got.tgz:38597.got - 2010.06.03 11:33:40.
