data_PCOD9100054
_publ_section_title
;
Structure prediction by ZEFSAII (Michael W. Deem and Ramdas Pophale) SiO2 
 PCOD9100054
Probable space group: P -1
;
_chemical_formula_sum "Si O2"
_cell_formula_units_Z 16
_cell_length_a 22.445985
_cell_length_b 12.799246
_cell_length_c 19.416470
_cell_angle_alpha 33.698300
_cell_angle_beta 160.800159
_cell_angle_gamma 154.625752
_cell_volume 777.090640
_symmetry_space_group_name_H-M "P -1"
_symmetry_group_IT_number 2
_symmetry_cell_setting 'triclinic'
loop_
_space_group_symop_operation_xyz
x,y,z
-x,-y,-z
loop_
_atom_site_type_symbol
_atom_site_label
_atom_site_fract_x
_atom_site_fract_y
_atom_site_fract_z
Si Si1 0.955300 0.418856 0.085050
Si Si2 0.066561 0.161143 0.706324
Si Si3 0.734394 0.320639 0.602350
Si Si4 0.459681 0.128576 0.123940
Si Si5 0.752075 0.609002 0.684910
Si Si6 0.802547 0.389088 0.480644
Si Si7 0.758518 0.902244 0.829866
Si Si8 0.200706 0.411311 0.855417
O O1 0.041956 0.441739 0.244379
O O2 0.181071 0.498415 0.242613
O O3 0.899354 0.601538 0.910312
O O4 0.722382 0.148163 0.953551
O O5 0.103716 0.349625 0.589148
O O6 0.046970 0.238305 0.717473
O O7 0.301313 0.193040 0.943771
O O8 0.858159 0.874059 0.626392
O O9 0.717631 0.349967 0.486913
O O10 0.482014 0.228255 0.406457
O O11 0.773041 0.120962 0.758830
O O12 0.621255 0.189753 0.333388
O O13 0.614805 0.321651 0.125468
O O14 0.500000 0.500000 0.500000
O O15 0.027708 0.404953 0.720170
O O16 0.709747 0.708711 0.939632
O O17 0.000000 0.000000 0.000000
#
# Coordination Sequence:
#
# PCOD9100054 Si02
#       8
#     2   2   2   2   2   2   2   2
#     4  10  24  43  64  98 131 165 212 256 331 378
#     4  10  20  37  62  92 118 163 222 262 314 364
#     4  11  24  43  66  96 134 167 204 272 318 386
#     4  10  21  40  65  91 125 166 214 270 311 380
#     4  10  23  41  65  91 128 172 211 260 311 386
#     4  11  22  38  65  95 124 164 217 267 317 372
#     4  11  23  42  64  93 128 171 217 255 322 379
#     4  11  21  37  64  93 121 165 223 268 307 376
#
# _framework density 20.589618999999999
#
# number of rings (size 3 to 8) (size 9 to 14) (size 15 to 20)
#    0.000    1.500    1.250    5.250    3.500    7.000 
#    0.000    6.250    0.000    0.000    0.000    0.000 
#    0.000    0.000    0.000    0.000    0.000    0.000 
#
# Total GULP energy -89142.475103 kJ/mol
# GULP energy per Si atom -5571.404694 kJ/mol
# Density = 2.054276 g / cm^3
# Si number density = 20.589619 Si / 1000 Ang^3
#
#
#
# Elastic Constant Matrix: (Units=GPa)
#
#
# Indices 1 2 3 4 5 6 
#
# 1 77.5641 25.9433 65.4004 9.8587 4.8302 9.3588
# 2 25.9433 93.4278 51.7919 -1.9616 -19.0611 3.3715
# 3 65.4004 51.7919 122.0493 -1.3514 5.7636 1.9651
# 4 9.8587 -1.9616 -1.3514 21.7039 -2.6134 1.6495
# 5 4.8302 -19.0611 5.7636 -2.6134 47.4186 -1.6158
# 6 9.3588 3.3715 1.9651 1.6495 -1.6158 10.7498
#
#
#
# Elastic Compliance Matrix: (Units=1/GPa)
#
#
# Indices 1 2 3 4 5 6 
#
# 1 0.031563 0.000596 -0.016835 -0.013894 -0.002473 -0.022828
# 2 0.000596 0.016411 -0.007558 0.001901 0.007442 -0.003457
# 3 -0.016835 -0.007558 0.020453 0.006980 -0.003024 0.011763
# 4 -0.013894 0.001901 0.006980 0.053312 0.004361 0.002699
# 5 -0.002473 0.007442 -0.003024 0.004361 0.025058 0.003469
# 6 -0.022828 -0.003457 0.011763 0.002699 0.003469 0.111940
#
#
# Mechanical properties :
#
#
# Convention : Reuss Voigt Hill
#
# Bulk Modulus (GPa) = 48.00491 64.36803 56.18647
# Shear Modulus (GPa) = 15.96040 25.96818 20.96429
#
# Velocity S-wave (km/s) = 2.78720 3.55523 3.19438
# Velocity P-wave (km/s) = 5.80721 6.94140 6.39949
#
# Compressibility (1/GPa) = 0.02083120
#
# Stress axis : x y z
#
# Youngs Moduli (GPa) = 31.68267 60.93619 48.89353
#
# Poissons Ratio (x) = -0.03631 0.82315
# Poissons Ratio (y) = -0.01888 0.36953
# Poissons Ratio (z) = 0.53339 0.46055
#
# Static dielectric constant tensor:
#      x y z
#    x 1.797840 0.030940 0.032590 
#    y 0.030940 1.786790 0.029090 
#    z 0.032590 0.029090 1.800670 
# 
# From -- ./inp_files/577972.got.cif
#   From: 2010.05.17/outbox.cif.g08.bks.cpg/sg2_289_cif.got.tgz:577972.got - 2010.06.03 11:33:40.
