data_PCOD9100215
_publ_section_title
;
Structure prediction by ZEFSAII (Michael W. Deem and Ramdas Pophale) SiO2 
 PCOD9100215
Probable space group: P -1
;
_chemical_formula_sum "Si O2"
_cell_formula_units_Z 14
_cell_length_a 11.585814
_cell_length_b 26.254540
_cell_length_c 8.180300
_cell_angle_alpha 34.411391
_cell_angle_beta 33.238820
_cell_angle_gamma 32.258086
_cell_volume 666.445855
_symmetry_space_group_name_H-M "P -1"
_symmetry_group_IT_number 2
_symmetry_cell_setting 'triclinic'
loop_
_space_group_symop_operation_xyz
x,y,z
-x,-y,-z
loop_
_atom_site_type_symbol
_atom_site_label
_atom_site_fract_x
_atom_site_fract_y
_atom_site_fract_z
Si Si1 0.799706 0.968915 0.285728
Si Si2 0.677524 0.827186 0.666322
Si Si3 0.721224 0.899679 0.916926
Si Si4 0.057331 0.580771 0.421591
Si Si5 0.245736 0.739217 0.839673
Si Si6 0.588656 0.750062 0.635533
Si Si7 0.742703 0.647898 0.291104
O O1 0.849239 0.878554 0.336289
O O2 0.748565 0.929823 0.621826
O O3 0.567788 0.077592 0.220218
O O4 0.000000 0.000000 0.000000
O O5 0.602540 0.804744 0.638805
O O6 0.772677 0.724793 0.931092
O O7 0.993846 0.844275 0.817018
O O8 0.646002 0.811814 0.262764
O O9 0.500000 0.000000 0.000000
O O10 0.215585 0.456984 0.569040
O O11 0.811578 0.631922 0.685001
O O12 0.949166 0.609787 0.288271
O O13 0.190135 0.644465 0.145988
O O14 0.348261 0.750738 0.861737
O O15 0.470971 0.706644 0.534467
#
# Coordination Sequence:
#
# PCOD9100215 Si02
#       7
#     2   2   2   2   2   2   2
#     4  11  24  41  62  88 122 167 211 259 308 365
#     4  11  23  40  58  87 130 159 206 256 315 367
#     4  11  22  42  63  90 121 166 213 253 305 368
#     4   9  20  38  64  92 119 160 211 255 307 373
#     4  10  20  37  63  88 123 158 213 251 304 374
#     4  10  22  40  58  92 126 165 202 256 311 374
#     4  10  20  39  65  90 122 163 202 264 310 367
#
# _framework density 21.006958000000001
#
# number of rings (size 3 to 8) (size 9 to 14) (size 15 to 20)
#    0.000    1.714    1.429    3.857    0.000    4.571 
#    0.000    0.714    0.000    0.000    0.000    0.000 
#    0.000    0.000    0.000    0.000    0.000    0.000 
#
# Total GULP energy -78090.852031 kJ/mol
# GULP energy per Si atom -5577.918002 kJ/mol
# Density = 2.095914 g / cm^3
# Si number density = 21.006958 Si / 1000 Ang^3
#
#
#
# Elastic Constant Matrix: (Units=GPa)
#
#
# Indices 1 2 3 4 5 6 
#
# 1 144.2692 52.2736 62.4858 -11.9641 -39.3381 12.9897
# 2 52.2736 139.9062 41.1946 -14.7194 -12.5499 4.0905
# 3 62.4858 41.1946 77.9821 -15.3720 -21.2387 -0.3987
# 4 -11.9641 -14.7194 -15.3720 31.9781 -4.1605 -5.5820
# 5 -39.3381 -12.5499 -21.2387 -4.1605 35.3838 -2.0844
# 6 12.9897 4.0905 -0.3987 -5.5820 -2.0844 27.5549
#
#
#
# Elastic Compliance Matrix: (Units=1/GPa)
#
#
# Indices 1 2 3 4 5 6 
#
# 1 0.014314 -0.001936 -0.007286 0.001398 0.010695 -0.005474
# 2 -0.001936 0.008882 -0.002920 0.001871 -0.000541 -0.000110
# 3 -0.007286 -0.002920 0.023942 0.009476 0.006740 0.006644
# 4 0.001398 0.001871 0.009476 0.040383 0.013147 0.008376
# 5 0.010695 -0.000541 0.006740 0.013147 0.045625 0.001251
# 6 -0.005474 -0.000110 0.006644 0.008376 0.001251 0.040775
#
#
# Mechanical properties :
#
#
# Convention : Reuss Voigt Hill
#
# Bulk Modulus (GPa) = 43.75758 74.89613 59.32686
# Shear Modulus (GPa) = 24.29264 32.73026 28.51145
#
# Velocity S-wave (km/s) = 3.40429 3.95152 3.68807
# Velocity P-wave (km/s) = 6.02723 7.51996 6.81459
#
# Compressibility (1/GPa) = 0.02285318
#
# Stress axis : x y z
#
# Youngs Moduli (GPa) = 69.86229 112.58311 41.76801
#
# Poissons Ratio (x) = 0.21799 0.30433
# Poissons Ratio (y) = 0.13527 0.12196
# Poissons Ratio (z) = 0.50903 0.32873
#
# Static dielectric constant tensor:
#      x y z
#    x 1.835950 0.029180 -0.037560 
#    y 0.029180 1.812280 0.019860 
#    z -0.037560 0.019860 1.775700 
# 
# From -- ./inp_files/34543.got.cif
#   From: 2010.05.17/outbox.cif.g08.bks.cpg/sg2_18_cif.got.tgz:34543.got - 2010.06.03 11:33:40.
