data_PCOD9100096
_publ_section_title
;
Structure prediction by ZEFSAII (Michael W. Deem and Ramdas Pophale) SiO2 
 PCOD9100096
Probable space group: P -1
;
_chemical_formula_sum "Si O2"
_cell_formula_units_Z 16
_cell_length_a 13.000783
_cell_length_b 12.334115
_cell_length_c 7.736836
_cell_angle_alpha 108.618613
_cell_angle_beta 65.826991
_cell_angle_gamma 139.996715
_cell_volume 727.548986
_symmetry_space_group_name_H-M "P -1"
_symmetry_group_IT_number 2
_symmetry_cell_setting 'triclinic'
loop_
_space_group_symop_operation_xyz
x,y,z
-x,-y,-z
loop_
_atom_site_type_symbol
_atom_site_label
_atom_site_fract_x
_atom_site_fract_y
_atom_site_fract_z
Si Si1 0.350799 0.735995 0.085117
Si Si2 0.426708 0.911094 0.792486
Si Si3 0.052544 0.340965 0.420916
Si Si4 0.746998 0.987093 0.626705
Si Si5 0.781260 0.852715 0.233503
Si Si6 0.102119 0.951951 0.084494
Si Si7 0.784049 0.611018 0.998031
Si Si8 0.797160 0.327313 0.472155
O O1 0.325183 0.582690 0.991531
O O2 0.247519 0.688820 0.303983
O O3 0.526865 0.923915 0.113412
O O4 0.311112 0.774249 0.955224
O O5 0.597272 0.965589 0.711952
O O6 0.652558 0.167563 0.377013
O O7 0.918565 0.169907 0.530830
O O8 0.944270 0.345656 0.376637
O O9 0.169182 0.356359 0.220999
O O10 0.156051 0.511254 0.545383
O O11 0.789592 0.979062 0.785245
O O12 0.704529 0.854640 0.453764
O O13 0.973918 0.963297 0.198550
O O14 0.705726 0.674141 0.138433
O O15 0.793674 0.946101 0.108776
O O16 0.964974 0.749467 0.041255
#
# Coordination Sequence:
#
# PCOD9100096 Si02
#       8
#     2   2   2   2   2   2   2   2
#     4  10  22  41  56  85 122 162 201 231 295 361
#     4  11  25  39  60  87 126 165 194 236 302 362
#     4  10  20  37  62  94 114 150 210 240 299 350
#     4  12  21  35  62  96 117 157 200 242 298 361
#     4   9  19  39  58  91 120 153 199 248 304 342
#     4   9  19  34  60  91 120 151 193 257 297 339
#     4   9  19  38  63  87 120 153 196 257 293 339
#     4  10  22  41  60  83 125 161 192 253 288 354
#
# _framework density 21.991644999999998
#
# number of rings (size 3 to 8) (size 9 to 14) (size 15 to 20)
#    0.750    1.250    2.500    0.750    1.750    3.000 
#    0.000    3.125    0.000    3.750    0.000    0.000 
#    0.000    0.000    0.000    0.000    0.000    0.000 
#
# Total GULP energy -89214.038437 kJ/mol
# GULP energy per Si atom -5575.877402 kJ/mol
# Density = 2.194159 g / cm^3
# Si number density = 21.991645 Si / 1000 Ang^3
#
#
#
# Elastic Constant Matrix: (Units=GPa)
#
#
# Indices 1 2 3 4 5 6 
#
# 1 56.7768 26.1043 39.1480 7.5458 13.8879 -4.8514
# 2 26.1043 167.5437 52.1306 19.6528 9.4642 -4.5293
# 3 39.1480 52.1306 109.1424 14.9116 4.8282 -2.7770
# 4 7.5458 19.6528 14.9116 37.7317 -3.7219 -2.0284
# 5 13.8879 9.4642 4.8282 -3.7219 22.4110 7.0485
# 6 -4.8514 -4.5293 -2.7770 -2.0284 7.0485 15.1073
#
#
#
# Elastic Compliance Matrix: (Units=1/GPa)
#
#
# Indices 1 2 3 4 5 6 
#
# 1 0.032546 0.000408 -0.009651 -0.004325 -0.025274 0.020011
# 2 0.000408 0.007556 -0.003055 -0.003055 -0.004384 0.003470
# 3 -0.009651 -0.003055 0.013977 -0.001704 0.005278 -0.004137
# 4 -0.004325 -0.003055 -0.001704 0.030482 0.010473 -0.003411
# 5 -0.025274 -0.004384 0.005278 0.010473 0.076126 -0.042571
# 6 0.020011 0.003470 -0.004137 -0.003411 -0.042571 0.092303
#
#
# Mechanical properties :
#
#
# Convention : Reuss Voigt Hill
#
# Bulk Modulus (GPa) = 33.91841 63.13654 48.52748
# Shear Modulus (GPa) = 17.39650 29.45533 23.42592
#
# Velocity S-wave (km/s) = 2.81561 3.66373 3.26731
# Velocity P-wave (km/s) = 5.10167 6.83147 6.02893
#
# Compressibility (1/GPa) = 0.02948251
#
# Stress axis : x y z
#
# Youngs Moduli (GPa) = 30.72552 132.35281 71.54395
#
# Poissons Ratio (x) = -0.05397 0.69045
# Poissons Ratio (y) = -0.01253 0.21860
# Poissons Ratio (z) = 0.29652 0.40440
#
# Static dielectric constant tensor:
#      x y z
#    x 1.782260 0.007690 -0.011910 
#    y 0.007690 1.900730 -0.000090 
#    z -0.011910 -0.000090 1.819600 
# 
# From -- ./inp_files/330198.got.cif
#   From: 2010.05.17/outbox.cif.g08.bks.cpg/sg2_166_cif.got.tgz:330198.got - 2010.06.03 11:33:40.
