data_PCOD9100611
_publ_section_title
;
Structure prediction by ZEFSAII (Michael W. Deem and Ramdas Pophale) SiO2 
 PCOD9100611
Probable space group: P -1
;
_chemical_formula_sum "Si O2"
_cell_formula_units_Z 12
_cell_length_a 5.404824
_cell_length_b 18.664898
_cell_length_c 8.437902
_cell_angle_alpha 33.695753
_cell_angle_beta 79.459190
_cell_angle_gamma 80.419745
_cell_volume 464.114872
_symmetry_space_group_name_H-M "P -1"
_symmetry_group_IT_number 2
_symmetry_cell_setting 'triclinic'
loop_
_space_group_symop_operation_xyz
x,y,z
-x,-y,-z
loop_
_atom_site_type_symbol
_atom_site_label
_atom_site_fract_x
_atom_site_fract_y
_atom_site_fract_z
Si Si1 0.329634 0.800432 0.491993
Si Si2 0.718876 0.601627 0.773505
Si Si3 0.065086 0.051472 0.571111
Si Si4 0.283881 0.804802 0.127955
Si Si5 0.176729 0.338442 0.692199
Si Si6 0.948107 0.656517 0.969665
O O1 0.612540 0.751751 0.517441
O O2 0.197296 0.931829 0.328563
O O3 0.215500 0.780641 0.365227
O O4 0.232449 0.701408 0.820600
O O5 0.815557 0.583325 0.616816
O O6 0.869614 0.589715 0.940423
O O7 0.500000 0.500000 0.000000
O O8 0.171162 0.195526 0.281898
O O9 0.258447 0.955963 0.813338
O O10 0.000000 0.000000 0.500000
O O11 0.558507 0.741666 0.185137
O O12 0.071120 0.745266 0.150632
O O13 0.142346 0.404809 0.744632
#
# Coordination Sequence:
#
# PCOD9100611 Si02
#       6
#     2   2   2   2   2   2
#     4   9  22  41  63  94 133 167 226 266 322 403
#     4  11  25  46  68  92 129 178 225 286 337 380
#     4  10  20  37  64  98 134 177 213 259 337 395
#     4  11  21  42  64 100 140 180 210 270 329 402
#     4  11  24  42  68 100 135 171 227 273 328 402
#     4  10  23  40  66  95 134 166 229 265 329 398
#
# _framework density 25.855671000000001
#
# number of rings (size 3 to 8) (size 9 to 14) (size 15 to 20)
#    1.000    0.667    3.333    0.500    4.667    3.333 
#    0.000    5.000    0.000    0.000    0.000    0.000 
#    0.000    0.000    0.000    0.000    0.000    0.000 
#
# Total GULP energy -66971.102900 kJ/mol
# GULP energy per Si atom -5580.925242 kJ/mol
# Density = 2.579682 g / cm^3
# Si number density = 25.855671 Si / 1000 Ang^3
#
#
#
# Elastic Constant Matrix: (Units=GPa)
#
#
# Indices 1 2 3 4 5 6 
#
# 1 126.2318 55.7366 28.3659 10.0311 21.2084 -17.1371
# 2 55.7366 222.6657 37.5358 47.1969 1.1252 -26.4417
# 3 28.3659 37.5358 101.6476 32.1974 17.9526 -2.9116
# 4 10.0311 47.1969 32.1974 50.7927 -0.0258 -7.6552
# 5 21.2084 1.1252 17.9526 -0.0258 35.2154 -9.1746
# 6 -17.1371 -26.4417 -2.9116 -7.6552 -9.1746 39.4139
#
#
#
# Elastic Compliance Matrix: (Units=1/GPa)
#
#
# Indices 1 2 3 4 5 6 
#
# 1 0.010268 -0.002361 -0.001540 0.001429 -0.004822 0.001922
# 2 -0.002361 0.006527 -0.000537 -0.004821 0.002238 0.002897
# 3 -0.001540 -0.000537 0.014479 -0.008890 -0.007327 -0.003392
# 4 0.001429 -0.004821 -0.008890 0.030079 0.004809 0.003692
# 5 -0.004822 0.002238 -0.007327 0.004809 0.037169 0.008450
# 6 0.001922 0.002897 -0.003392 0.003692 0.008450 0.030585
#
#
# Mechanical properties :
#
#
# Convention : Reuss Voigt Hill
#
# Bulk Modulus (GPa) = 44.64501 77.09130 60.86816
# Shear Modulus (GPa) = 34.37657 47.01153 40.69405
#
# Velocity S-wave (km/s) = 3.65026 4.26870 3.97154
# Velocity P-wave (km/s) = 5.92203 7.36046 6.68008
#
# Compressibility (1/GPa) = 0.02239892
#
# Stress axis : x y z
#
# Youngs Moduli (GPa) = 97.39153 153.20834 69.06712
#
# Poissons Ratio (x) = 0.36172 0.10633
# Poissons Ratio (y) = 0.22994 0.03707
# Poissons Ratio (z) = 0.14994 0.08224
#
# Static dielectric constant tensor:
#      x y z
#    x 2.081580 -0.049110 0.014220 
#    y -0.049110 2.045650 -0.064850 
#    z 0.014220 -0.064850 2.101960 
# 
# From -- ./inp_files/135979.got.cif
#   From: 2010.05.17/outbox.cif.g08.bks.cpg/sg2_68_cif.got.tgz:135979.got - 2010.06.03 11:33:40.
