data_PCOD9100860
_publ_section_title
;
Structure prediction by ZEFSAII (Michael W. Deem and Ramdas Pophale) SiO2 
 PCOD9100860
Probable space group: P -1
;
_chemical_formula_sum "Si O2"
_cell_formula_units_Z 16
_cell_length_a 22.773449
_cell_length_b 11.588088
_cell_length_c 12.291601
_cell_angle_alpha 35.370294
_cell_angle_beta 21.767286
_cell_angle_gamma 29.476263
_cell_volume 591.478648
_symmetry_space_group_name_H-M "P -1"
_symmetry_group_IT_number 2
_symmetry_cell_setting 'triclinic'
loop_
_space_group_symop_operation_xyz
x,y,z
-x,-y,-z
loop_
_atom_site_type_symbol
_atom_site_label
_atom_site_fract_x
_atom_site_fract_y
_atom_site_fract_z
Si Si1 0.059777 0.882864 0.156466
Si Si2 0.928980 0.983410 0.516278
Si Si3 0.803545 0.766707 0.372806
Si Si4 0.509335 0.380060 0.255557
Si Si5 0.881641 0.465252 0.139215
Si Si6 0.373648 0.496005 0.812784
Si Si7 0.423461 0.825876 0.917511
Si Si8 0.804799 0.754922 0.631242
O O1 0.847408 0.950861 0.446510
O O2 0.164137 0.721141 0.995892
O O3 0.070173 0.790436 0.334571
O O4 0.162368 0.025015 0.871750
O O5 0.892983 0.218007 0.334307
O O6 0.746055 0.978754 0.867380
O O7 0.000000 0.000000 0.500000
O O8 0.625575 0.792633 0.599662
O O9 0.759314 0.779186 0.564877
O O10 0.004915 0.554463 0.149301
O O11 0.337947 0.355810 0.609718
O O12 0.572221 0.456920 0.196608
O O13 0.625332 0.171816 0.127857
O O14 0.443334 0.599534 0.118936
O O15 0.000000 0.500000 0.000000
O O16 0.500000 0.500000 0.500000
O O17 0.349855 0.274493 0.019886
O O18 0.000000 0.500000 0.500000
#
# Coordination Sequence:
#
# PCOD9100860 Si02
#       8
#     2   2   2   2   2   2   2   2
#     4  10  24  43  60  94 129 166 212 261 325 373
#     4  10  22  41  62  88 130 165 206 256 320 379
#     4  11  21  41  64  94 131 163 213 265 315 381
#     4  10  20  38  62  92 129 158 213 265 304 375
#     4  10  21  36  60  94 122 164 207 251 318 373
#     4  11  24  43  64  96 125 165 218 265 314 382
#     4  10  20  37  66  94 120 169 207 258 320 366
#     4  10  23  42  65  88 121 174 216 258 315 374
#
# _framework density 27.050850000000001
#
# number of rings (size 3 to 8) (size 9 to 14) (size 15 to 20)
#    0.000    1.750    2.500    1.125    3.500    3.000 
#    4.500    3.125    0.000    0.000    0.000    0.000 
#    0.000    0.000    0.000    0.000    0.000    0.000 
#
# Total GULP energy -89250.733401 kJ/mol
# GULP energy per Si atom -5578.170838 kJ/mol
# Density = 2.698928 g / cm^3
# Si number density = 27.050850 Si / 1000 Ang^3
#
#
#
# Elastic Constant Matrix: (Units=GPa)
#
#
# Indices 1 2 3 4 5 6 
#
# 1 103.9439 -5.6319 48.2814 -4.8947 2.2293 21.4782
# 2 -5.6319 43.6273 44.2780 6.3049 8.4707 11.4260
# 3 48.2814 44.2780 282.8346 1.8623 8.8318 26.7399
# 4 -4.8947 6.3049 1.8623 38.7930 12.8821 4.6676
# 5 2.2293 8.4707 8.8318 12.8821 56.9656 -3.4671
# 6 21.4782 11.4260 26.7399 4.6676 -3.4671 28.2490
#
#
#
# Elastic Compliance Matrix: (Units=1/GPa)
#
#
# Indices 1 2 3 4 5 6 
#
# 1 0.013793 0.007378 -0.002299 0.003006 -0.002698 -0.012123
# 2 0.007378 0.034057 -0.004983 -0.000766 -0.005332 -0.015196
# 3 -0.002299 -0.004983 0.004787 0.000410 -0.000055 -0.000842
# 4 0.003006 -0.000766 0.000410 0.029658 -0.007270 -0.008156
# 5 -0.002698 -0.005332 -0.000055 -0.007270 0.020592 0.007989
# 6 -0.012123 -0.015196 -0.000842 -0.008156 0.007989 0.053888
#
#
# Mechanical properties :
#
#
# Convention : Reuss Voigt Hill
#
# Bulk Modulus (GPa) = 18.92916 67.14009 43.03462
# Shear Modulus (GPa) = 28.70414 47.70009 38.20211
#
# Velocity S-wave (km/s) = 3.26101 4.20378 3.76205
# Velocity P-wave (km/s) = 4.60345 6.95961 5.90034
#
# Compressibility (1/GPa) = 0.05282855
#
# Stress axis : x y z
#
# Youngs Moduli (GPa) = 72.50306 29.36272 208.90811
#
# Poissons Ratio (x) = -0.21664 0.48026
# Poissons Ratio (y) = -0.53493 1.04096
# Poissons Ratio (z) = 0.16668 0.14631
#
# Static dielectric constant tensor:
#      x y z
#    x 2.173300 0.034060 -0.084700 
#    y 0.034060 2.293750 -0.031470 
#    z -0.084700 -0.031470 2.055100 
# 
# From -- ./inp_files/217922.got.cif
#   From: 2010.05.17/outbox.cif.g08.bks.cpg/sg2_109_cif.got.tgz:217922.got - 2010.06.03 11:33:40.
