data_PCOD9100349
_publ_section_title
;
Structure prediction by ZEFSAII (Michael W. Deem and Ramdas Pophale) SiO2 
 PCOD9100349
Probable space group: P -1
;
_chemical_formula_sum "Si O2"
_cell_formula_units_Z 16
_cell_length_a 15.213913
_cell_length_b 12.114151
_cell_length_c 9.441499
_cell_angle_alpha 123.963434
_cell_angle_beta 119.732143
_cell_angle_gamma 109.091291
_cell_volume 682.226801
_symmetry_space_group_name_H-M "P -1"
_symmetry_group_IT_number 2
_symmetry_cell_setting 'triclinic'
loop_
_space_group_symop_operation_xyz
x,y,z
-x,-y,-z
loop_
_atom_site_type_symbol
_atom_site_label
_atom_site_fract_x
_atom_site_fract_y
_atom_site_fract_z
Si Si1 0.424297 0.718606 0.429956
Si Si2 0.783326 0.778808 0.175824
Si Si3 0.789146 0.265367 0.603650
Si Si4 0.805191 0.628024 0.632956
Si Si5 0.667288 0.994425 0.574496
Si Si6 0.570540 0.722424 0.770468
Si Si7 0.812185 0.867439 0.580551
Si Si8 0.047126 0.498177 0.381877
O O1 0.310362 0.705409 0.412583
O O2 0.600464 0.856469 0.760496
O O3 0.492200 0.842669 0.420018
O O4 0.306323 0.455408 0.121368
O O5 0.739441 0.748470 0.283705
O O6 0.729001 0.850260 0.094935
O O7 0.000000 0.000000 0.500000
O O8 0.674468 0.032937 0.440139
O O9 0.816538 0.280608 0.467082
O O10 0.000000 0.500000 0.000000
O O11 0.603726 0.405600 0.380982
O O12 0.796748 0.730224 0.578774
O O13 0.865407 0.552168 0.568561
O O14 0.968708 0.849731 0.033544
O O15 0.698855 0.872633 0.538372
O O16 0.848591 0.265490 0.978262
O O17 0.500000 0.500000 0.500000
O O18 0.000000 0.500000 0.500000
#
# Coordination Sequence:
#
# PCOD9100349 Si02
#       8
#     2   2   2   2   2   2   2   2
#     4  11  22  43  69  98 142 184 234 284 358 419
#     4  11  25  38  66 103 140 180 237 288 352 424
#     4  10  22  42  71  95 133 186 232 286 343 416
#     4  10  20  39  68  94 138 183 223 290 356 420
#     4  10  23  41  67 100 140 182 229 285 356 415
#     4  10  20  37  63  94 136 174 220 279 348 408
#     4  10  21  39  62  98 136 180 227 282 354 419
#     4  10  22  43  70  98 136 185 240 286 347 418
#
# _framework density 23.452611000000001
#
# number of rings (size 3 to 8) (size 9 to 14) (size 15 to 20)
#    0.000    1.750    1.250    3.375    3.500    6.000 
#    2.250    1.875    0.000    0.000    0.000    0.000 
#    0.000    0.000    0.000    0.000    0.000    0.000 
#
# Total GULP energy -89434.727701 kJ/mol
# GULP energy per Si atom -5589.670481 kJ/mol
# Density = 2.339923 g / cm^3
# Si number density = 23.452611 Si / 1000 Ang^3
#
#
#
# Elastic Constant Matrix: (Units=GPa)
#
#
# Indices 1 2 3 4 5 6 
#
# 1 134.2793 66.9042 36.5721 -12.5913 3.1052 14.5505
# 2 66.9042 154.7325 28.3669 -16.7813 4.8344 6.7074
# 3 36.5721 28.3669 53.3501 -18.4220 4.4789 -1.5077
# 4 -12.5913 -16.7813 -18.4220 30.8123 7.8632 7.5673
# 5 3.1052 4.8344 4.4789 7.8632 32.6011 -9.4994
# 6 14.5505 6.7074 -1.5077 7.5673 -9.4994 45.9225
#
#
#
# Elastic Compliance Matrix: (Units=1/GPa)
#
#
# Indices 1 2 3 4 5 6 
#
# 1 0.011209 -0.003599 -0.005713 0.000252 -0.000807 -0.003422
# 2 -0.003599 0.008663 -0.000755 0.003605 -0.002048 -0.001168
# 3 -0.005713 -0.000755 0.029754 0.017535 -0.008150 -0.001678
# 4 0.000252 0.003605 0.017535 0.053136 -0.019520 -0.012824
# 5 -0.000807 -0.002048 -0.008150 -0.019520 0.040334 0.011847
# 6 -0.003422 -0.001168 -0.001678 -0.012824 0.011847 0.027539
#
#
# Mechanical properties :
#
#
# Convention : Reuss Voigt Hill
#
# Bulk Modulus (GPa) = 33.90734 67.33871 50.62303
# Shear Modulus (GPa) = 24.92531 35.90175 30.41353
#
# Velocity S-wave (km/s) = 3.26359 3.91682 3.60503
# Velocity P-wave (km/s) = 5.35636 7.01643 6.24183
#
# Compressibility (1/GPa) = 0.02949214
#
# Stress axis : x y z
#
# Youngs Moduli (GPa) = 89.21361 115.43607 33.60931
#
# Poissons Ratio (x) = 0.41540 0.19200
# Poissons Ratio (y) = 0.32104 0.02539
# Poissons Ratio (z) = 0.50965 0.08721
#
# Static dielectric constant tensor:
#      x y z
#    x 1.868640 0.042150 -0.026450 
#    y 0.042150 1.973170 -0.004480 
#    z -0.026450 -0.004480 1.902030 
# 
# From -- ./inp_files/308370.got.cif
#   From: 2010.05.17/outbox.cif.g08.bks.cpg/sg2_155_cif.got.tgz:308370.got - 2010.06.03 11:33:40.
