data_PCOD9100668
_publ_section_title
;
Structure prediction by ZEFSAII (Michael W. Deem and Ramdas Pophale) SiO2 
 PCOD9100668
Probable space group: P -1
;
_chemical_formula_sum "Si O2"
_cell_formula_units_Z 14
_cell_length_a 22.417613
_cell_length_b 9.884778
_cell_length_c 22.505485
_cell_angle_alpha 28.827539
_cell_angle_beta 161.877161
_cell_angle_gamma 155.436116
_cell_volume 642.224063
_symmetry_space_group_name_H-M "P -1"
_symmetry_group_IT_number 2
_symmetry_cell_setting 'triclinic'
loop_
_space_group_symop_operation_xyz
x,y,z
-x,-y,-z
loop_
_atom_site_type_symbol
_atom_site_label
_atom_site_fract_x
_atom_site_fract_y
_atom_site_fract_z
Si Si1 0.706926 0.469665 0.774587
Si Si2 0.498524 0.297879 0.133759
Si Si3 0.325694 0.691191 0.871552
Si Si4 0.007941 0.206938 0.556488
Si Si5 0.028475 0.747383 0.083629
Si Si6 0.236946 0.420515 0.347977
Si Si7 0.181798 0.831651 0.804841
O O1 0.855875 0.638005 0.908011
O O2 0.487765 0.497417 0.559754
O O3 0.823433 0.613026 0.766137
O O4 0.618279 0.083950 0.840129
O O5 0.760222 0.465547 0.333965
O O6 0.500000 0.500000 0.000000
O O7 0.357381 0.381513 0.014539
O O8 0.213354 0.714940 0.816254
O O9 0.186482 0.728152 0.672531
O O10 0.580504 0.987147 0.005390
O O11 0.080160 0.065325 0.623447
O O12 0.919373 0.923460 0.632503
O O13 0.973724 0.474318 0.185551
O O14 0.231261 0.734282 0.247896
O O15 0.000000 0.000000 0.000000
#
# Coordination Sequence:
#
# PCOD9100668 Si02
#       7
#     2   2   2   2   2   2   2
#     4  11  24  44  64  94 131 166 209 262 319 372
#     4  11  23  37  61  95 124 161 209 260 315 369
#     4  10  20  37  65  89 130 162 204 263 312 375
#     4  10  20  39  64  94 123 165 210 255 316 377
#     4  11  24  42  66  90 124 170 215 256 313 377
#     4  10  23  43  67  92 128 169 206 262 315 378
#     4   9  20  38  58  94 124 165 207 257 316 363
#
# _framework density 21.799244000000002
#
# number of rings (size 3 to 8) (size 9 to 14) (size 15 to 20)
#    0.000    1.714    0.000    5.143    2.000    4.000 
#    5.143    0.000    0.000    0.000    0.000    0.000 
#    0.000    0.000    0.000    0.000    0.000    0.000 
#
# Total GULP energy -78139.848447 kJ/mol
# GULP energy per Si atom -5581.417746 kJ/mol
# Density = 2.174963 g / cm^3
# Si number density = 21.799244 Si / 1000 Ang^3
#
#
#
# Elastic Constant Matrix: (Units=GPa)
#
#
# Indices 1 2 3 4 5 6 
#
# 1 245.6970 -18.4538 113.9204 0.8868 -30.5068 -13.7272
# 2 -18.4538 116.1159 14.2432 -16.4338 28.5091 -37.0979
# 3 113.9204 14.2432 172.8868 -4.1189 -16.1635 -13.1496
# 4 0.8868 -16.4338 -4.1189 16.9002 -9.2261 10.2737
# 5 -30.5068 28.5091 -16.1635 -9.2261 55.5286 -12.8813
# 6 -13.7272 -37.0979 -13.1496 10.2737 -12.8813 38.6605
#
#
#
# Elastic Compliance Matrix: (Units=1/GPa)
#
#
# Indices 1 2 3 4 5 6 
#
# 1 0.006596 0.002209 -0.004038 -0.000380 0.002158 0.003908
# 2 0.002209 0.014355 -0.001955 0.004523 -0.003284 0.011597
# 3 -0.004038 -0.001955 0.008768 0.001396 0.001525 -0.000191
# 4 -0.000380 0.004523 0.001396 0.075913 0.007472 -0.013004
# 5 0.002158 -0.003284 0.001525 0.007472 0.023487 0.003974
# 6 0.003908 0.011597 -0.000191 -0.013004 0.003974 0.043097
#
#
# Mechanical properties :
#
#
# Convention : Reuss Voigt Hill
#
# Bulk Modulus (GPa) = 45.15008 83.79103 64.47056
# Shear Modulus (GPa) = 26.71394 50.55053 38.63223
#
# Velocity S-wave (km/s) = 3.50444 4.82073 4.21430
# Velocity P-wave (km/s) = 6.09357 8.33708 7.30200
#
# Compressibility (1/GPa) = 0.02214835
#
# Stress axis : x y z
#
# Youngs Moduli (GPa) = 151.60791 69.66438 114.05755
#
# Poissons Ratio (x) = -0.15385 0.46060
# Poissons Ratio (y) = -0.33483 0.22298
# Poissons Ratio (z) = 0.61225 0.13619
#
# Static dielectric constant tensor:
#      x y z
#    x 1.964000 -0.056040 0.113420 
#    y -0.056040 1.799680 -0.039780 
#    z 0.113420 -0.039780 1.856120 
# 
# From -- ./inp_files/258372.got.cif
#   From: 2010.05.17/outbox.cif.g08.bks.cpg/sg2_130_cif.got.tgz:258372.got - 2010.06.03 11:33:40.
