data_PCOD9100300
_publ_section_title
;
Structure prediction by ZEFSAII (Michael W. Deem and Ramdas Pophale) SiO2 
 PCOD9100300
Probable space group: P -1
;
_chemical_formula_sum "Si O2"
_cell_formula_units_Z 16
_cell_length_a 26.895034
_cell_length_b 8.526109
_cell_length_c 12.371613
_cell_angle_alpha 49.765798
_cell_angle_beta 159.192063
_cell_angle_gamma 130.708852
_cell_volume 756.984112
_symmetry_space_group_name_H-M "P -1"
_symmetry_group_IT_number 2
_symmetry_cell_setting 'triclinic'
loop_
_space_group_symop_operation_xyz
x,y,z
-x,-y,-z
loop_
_atom_site_type_symbol
_atom_site_label
_atom_site_fract_x
_atom_site_fract_y
_atom_site_fract_z
Si Si1 0.303469 0.300014 0.289653
Si Si2 0.219261 0.594165 0.435848
Si Si3 0.145138 0.513232 0.718947
Si Si4 0.519696 0.035719 0.153016
Si Si5 0.054976 0.932690 0.868058
Si Si6 0.046387 0.356334 0.379060
Si Si7 0.797950 0.019498 0.429161
Si Si8 0.814957 0.639100 0.755371
O O1 0.429161 0.167638 0.601879
O O2 0.291386 0.380593 0.351059
O O3 0.279259 0.481865 0.078116
O O4 0.165514 0.126205 0.052581
O O5 0.166098 0.443352 0.494602
O O6 0.236137 0.471178 0.413439
O O7 0.359625 0.762187 0.671799
O O8 0.095325 0.731782 0.102007
O O9 0.112970 0.339278 0.638365
O O10 0.000000 0.500000 0.500000
O O11 0.180340 0.732387 0.630072
O O12 0.500000 0.000000 0.000000
O O13 0.369279 0.061865 0.884563
O O14 0.050504 0.851244 0.772794
O O15 0.899405 0.975963 0.558458
O O16 0.944580 0.529488 0.103459
O O17 0.848090 0.886960 0.688260
#
# Coordination Sequence:
#
# PCOD9100300 Si02
#       8
#     2   2   2   2   2   2   2   2
#     4  11  24  43  61  92 128 166 202 253 312 363
#     4  10  21  38  62  99 123 154 206 262 312 349
#     4  12  25  39  62  93 126 165 204 251 310 374
#     4  11  24  40  63  93 122 163 207 256 305 364
#     4  10  20  37  63  92 122 157 206 260 303 353
#     4  11  20  37  63  99 124 155 205 260 313 357
#     4  12  22  40  61  93 120 165 206 249 302 363
#     4  11  20  38  68  93 126 157 208 265 298 358
#
# _framework density 21.136507999999999
#
# number of rings (size 3 to 8) (size 9 to 14) (size 15 to 20)
#    0.000    1.000    6.250    1.500    1.750    2.500 
#    0.000    0.000    0.000    1.500    0.000    0.000 
#    0.000    0.000    0.000    0.000    0.000    0.000 
#
# Total GULP energy -89304.543581 kJ/mol
# GULP energy per Si atom -5581.533974 kJ/mol
# Density = 2.108840 g / cm^3
# Si number density = 21.136508 Si / 1000 Ang^3
#
#
#
# Elastic Constant Matrix: (Units=GPa)
#
#
# Indices 1 2 3 4 5 6 
#
# 1 69.1062 13.9892 29.6599 7.3408 -11.0022 -17.7899
# 2 13.9892 84.2927 27.7990 0.4291 0.8124 -5.6175
# 3 29.6599 27.7990 102.5103 -6.9119 13.1392 -10.1205
# 4 7.3408 0.4291 -6.9119 35.8208 -0.8923 -0.5202
# 5 -11.0022 0.8124 13.1392 -0.8923 39.3683 1.3510
# 6 -17.7899 -5.6175 -10.1205 -0.5202 1.3510 18.6700
#
#
#
# Elastic Compliance Matrix: (Units=1/GPa)
#
#
# Indices 1 2 3 4 5 6 
#
# 1 0.023968 -0.000707 -0.006337 -0.005657 0.008066 0.018449
# 2 -0.000707 0.013176 -0.003345 -0.000623 0.000584 0.001417
# 3 -0.006337 -0.003345 0.013638 0.003829 -0.006198 0.000903
# 4 -0.005657 -0.000623 0.003829 0.029734 -0.002086 -0.002523
# 5 0.008066 0.000584 -0.006198 -0.002086 0.029586 0.002304
# 6 0.018449 0.001417 0.000903 -0.002523 0.002304 0.071820
#
#
# Mechanical properties :
#
#
# Convention : Reuss Voigt Hill
#
# Bulk Modulus (GPa) = 33.33100 44.31172 38.82136
# Shear Modulus (GPa) = 23.50722 31.06924 27.28823
#
# Velocity S-wave (km/s) = 3.33853 3.83813 3.59701
# Velocity P-wave (km/s) = 5.53757 6.37587 5.97145
#
# Compressibility (1/GPa) = 0.03000210
#
# Stress axis : x y z
#
# Youngs Moduli (GPa) = 41.72259 75.89488 73.32705
#
# Poissons Ratio (x) = 0.05368 0.46467
# Poissons Ratio (y) = 0.02951 0.24531
# Poissons Ratio (z) = 0.26439 0.25390
#
# Static dielectric constant tensor:
#      x y z
#    x 1.766590 0.019680 -0.010750 
#    y 0.019680 1.837480 -0.023520 
#    z -0.010750 -0.023520 1.763300 
# 
# From -- ./inp_files/392330.got.cif
#   From: 2010.05.17/outbox.cif.g08.bks.cpg/sg2_197_cif.got.tgz:392330.got - 2010.06.03 11:33:40.
