data_PCOD9100648
_publ_section_title
;
Structure prediction by ZEFSAII (Michael W. Deem and Ramdas Pophale) SiO2 
 PCOD9100648
Probable space group: P -1
;
_chemical_formula_sum "Si O2"
_cell_formula_units_Z 16
_cell_length_a 18.815239
_cell_length_b 15.942823
_cell_length_c 5.376912
_cell_angle_alpha 53.171527
_cell_angle_beta 107.457685
_cell_angle_gamma 140.148790
_cell_volume 785.904501
_symmetry_space_group_name_H-M "P -1"
_symmetry_group_IT_number 2
_symmetry_cell_setting 'triclinic'
loop_
_space_group_symop_operation_xyz
x,y,z
-x,-y,-z
loop_
_atom_site_type_symbol
_atom_site_label
_atom_site_fract_x
_atom_site_fract_y
_atom_site_fract_z
Si Si1 0.036688 0.601837 0.607839
Si Si2 0.754147 0.289727 0.345323
Si Si3 0.096162 0.366715 0.336048
Si Si4 0.958166 0.015957 0.677237
Si Si5 0.316269 0.297375 0.095768
Si Si6 0.615520 0.182555 0.883436
Si Si7 0.653730 0.448504 0.591589
Si Si8 0.462011 0.544972 0.184291
O O1 0.176668 0.745266 0.515368
O O2 0.000000 0.500000 0.500000
O O3 0.976124 0.648536 0.501191
O O4 0.000000 0.500000 0.000000
O O5 0.705204 0.254407 0.630072
O O6 0.846986 0.483930 0.048169
O O7 0.665176 0.203109 0.171932
O O8 0.211149 0.433572 0.439071
O O9 0.016409 0.193806 0.430487
O O10 0.817267 0.874891 0.783523
O O11 0.000000 0.000000 0.500000
O O12 0.000000 0.000000 0.000000
O O13 0.342467 0.362426 0.285780
O O14 0.346022 0.440287 0.740977
O O15 0.421745 0.329856 0.088887
O O16 0.599219 0.290035 0.681173
O O17 0.500000 0.000000 0.000000
O O18 0.578127 0.388233 0.866913
O O19 0.500000 0.500000 0.500000
#
# Coordination Sequence:
#
# PCOD9100648 Si02
#       8
#     2   2   2   2   2   2   2   2
#     4  10  20  38  63  91 124 164 212 258 316 388
#     4  10  22  41  66  89 132 166 211 260 326 390
#     4  10  22  40  65  98 126 175 215 260 326 389
#     4  12  26  40  63  98 139 165 216 274 316 377
#     4  10  21  39  63  89 128 168 214 261 318 374
#     4  11  24  41  64  97 124 164 213 272 317 375
#     4  10  20  37  65  87 122 163 217 254 323 383
#     4   9  20  39  63  87 118 171 214 259 313 380
#
# _framework density 20.358708
#
# number of rings (size 3 to 8) (size 9 to 14) (size 15 to 20)
#    0.000    1.750    1.250    3.375    7.000    2.000 
#    2.250    2.500    0.000    0.000    0.000    0.000 
#    0.000    0.000    0.000    0.000    0.000    0.000 
#
# Total GULP energy -89091.196926 kJ/mol
# GULP energy per Si atom -5568.199808 kJ/mol
# Density = 2.031237 g / cm^3
# Si number density = 20.358708 Si / 1000 Ang^3
#
#
#
# Elastic Constant Matrix: (Units=GPa)
#
#
# Indices 1 2 3 4 5 6 
#
# 1 156.5405 57.2107 13.5592 -7.8842 -9.4053 -16.5455
# 2 57.2107 143.4934 27.2757 -17.1082 -1.5425 -2.9041
# 3 13.5592 27.2757 14.9969 2.3626 -2.5904 -2.4017
# 4 -7.8842 -17.1082 2.3626 44.9766 1.4042 -3.4226
# 5 -9.4053 -1.5425 -2.5904 1.4042 19.0389 14.3334
# 6 -16.5455 -2.9041 -2.4017 -3.4226 14.3334 29.2045
#
#
#
# Elastic Compliance Matrix: (Units=1/GPa)
#
#
# Indices 1 2 3 4 5 6 
#
# 1 0.008008 -0.002678 -0.001777 0.000770 0.000424 0.004007
# 2 -0.002678 0.013059 -0.022895 0.005893 -0.004365 0.000732
# 3 -0.001777 -0.022895 0.114735 -0.015898 0.017163 -0.004135
# 4 0.000770 0.005893 -0.015898 0.026239 -0.008470 0.006947
# 5 0.000424 -0.004365 0.017163 -0.008470 0.087501 -0.042720
# 6 0.004007 0.000732 -0.004135 0.006947 -0.042720 0.058025
#
#
# Mechanical properties :
#
#
# Convention : Reuss Voigt Hill
#
# Bulk Modulus (GPa) = 12.33007 56.79133 34.56070
# Shear Modulus (GPa) = 12.84350 33.10969 22.97659
#
# Velocity S-wave (km/s) = 2.51442 4.03714 3.36309
# Velocity P-wave (km/s) = 3.80779 7.04891 5.66509
#
# Compressibility (1/GPa) = 0.08110256
#
# Stress axis : x y z
#
# Youngs Moduli (GPa) = 124.86844 76.57549 8.71571
#
# Poissons Ratio (x) = 0.20504 0.01549
# Poissons Ratio (y) = 0.33435 0.19955
# Poissons Ratio (z) = 0.22191 1.75322
#
# Static dielectric constant tensor:
#      x y z
#    x 1.827490 0.003770 -0.051080 
#    y 0.003770 1.785240 0.116100 
#    z -0.051080 0.116100 1.966700 
# 
# From -- ./inp_files/110466.got.cif
#   From: 2010.05.17/outbox.cif.g08.bks.cpg/sg2_56_cif.got.tgz:110466.got - 2010.06.03 11:33:40.
