data_PCOD9100564
_publ_section_title
;
Structure prediction by ZEFSAII (Michael W. Deem and Ramdas Pophale) SiO2 
 PCOD9100564
Probable space group: P -1
;
_chemical_formula_sum "Si O2"
_cell_formula_units_Z 16
_cell_length_a 22.440133
_cell_length_b 9.023773
_cell_length_c 8.884805
_cell_angle_alpha 30.772943
_cell_angle_beta 125.658630
_cell_angle_gamma 137.914242
_cell_volume 609.059447
_symmetry_space_group_name_H-M "P -1"
_symmetry_group_IT_number 2
_symmetry_cell_setting 'triclinic'
loop_
_space_group_symop_operation_xyz
x,y,z
-x,-y,-z
loop_
_atom_site_type_symbol
_atom_site_label
_atom_site_fract_x
_atom_site_fract_y
_atom_site_fract_z
Si Si1 0.610689 0.245302 0.567058
Si Si2 0.068084 0.100461 0.293476
Si Si3 0.865305 0.637214 0.393293
Si Si4 0.089226 0.577984 0.641547
Si Si5 0.328055 0.071216 0.830063
Si Si6 0.588145 0.807665 0.453502
Si Si7 0.580102 0.381286 0.090280
Si Si8 0.170479 0.804202 0.030987
O O1 0.593410 0.523564 0.366525
O O2 0.639496 0.402810 0.301107
O O3 0.519098 0.846714 0.780644
O O4 0.664106 0.196414 0.820942
O O5 0.108775 0.419369 0.193633
O O6 0.124064 0.945019 0.460406
O O7 0.058119 0.275790 0.980343
O O8 0.967189 0.772588 0.472500
O O9 0.855881 0.483500 0.346606
O O10 0.794751 0.301413 0.684279
O O11 0.863346 0.972258 0.140832
O O12 0.000000 0.500000 0.500000
O O13 0.331422 0.041062 0.683412
O O14 0.242413 0.034431 0.807645
O O15 0.500000 0.500000 0.500000
O O16 0.578525 0.123164 0.191926
O O17 0.602399 0.696507 0.736488
#
# Coordination Sequence:
#
# PCOD9100564 Si02
#       8
#     2   2   2   2   2   2   2   2
#     4  11  22  41  63  93 125 161 206 269 318 384
#     4  11  21  39  65  94 126 161 218 271 314 376
#     4  11  21  40  64  92 123 168 220 261 316 389
#     4  10  20  37  64  95 122 156 209 275 321 366
#     4  12  25  41  62  89 134 167 211 264 327 389
#     4  12  21  39  64  97 122 163 207 263 317 383
#     4  11  22  38  67  96 120 158 214 262 319 377
#     4  12  25  40  60  93 129 175 208 264 332 383
#
# _framework density 26.270012999999999
#
# number of rings (size 3 to 8) (size 9 to 14) (size 15 to 20)
#    0.000    0.750    2.500    7.875    0.000    2.000 
#    0.000    5.000    0.000    0.000    0.000    0.000 
#    0.000    0.000    0.000    0.000    0.000    0.000 
#
# Total GULP energy -89248.273133 kJ/mol
# GULP energy per Si atom -5578.017071 kJ/mol
# Density = 2.621022 g / cm^3
# Si number density = 26.270013 Si / 1000 Ang^3
#
#
#
# Elastic Constant Matrix: (Units=GPa)
#
#
# Indices 1 2 3 4 5 6 
#
# 1 121.6796 47.3695 44.2628 2.9590 -12.5180 -51.7385
# 2 47.3695 99.7100 37.2167 10.6471 3.9934 -27.7843
# 3 44.2628 37.2167 163.1512 15.2794 -3.4459 -22.7813
# 4 2.9590 10.6471 15.2794 51.9914 -22.0516 3.9631
# 5 -12.5180 3.9934 -3.4459 -22.0516 52.7222 0.0130
# 6 -51.7385 -27.7843 -22.7813 3.9631 0.0130 38.4509
#
#
#
# Elastic Compliance Matrix: (Units=1/GPa)
#
#
# Indices 1 2 3 4 5 6 
#
# 1 0.021318 -0.002537 -0.001460 -0.000074 0.005121 0.025992
# 2 -0.002537 0.014139 -0.001296 -0.004390 -0.003596 0.006489
# 3 -0.001460 -0.001296 0.007237 -0.002196 -0.000694 0.001613
# 4 -0.000074 -0.004390 -0.002196 0.026026 0.011059 -0.007259
# 5 0.005121 -0.003596 -0.000694 0.011059 0.025035 0.002733
# 6 0.025992 0.006489 0.001613 -0.007259 0.002733 0.067373
#
#
# Mechanical properties :
#
#
# Convention : Reuss Voigt Hill
#
# Bulk Modulus (GPa) = 31.14495 71.35985 51.25240
# Shear Modulus (GPa) = 27.40971 45.67903 36.54437
#
# Velocity S-wave (km/s) = 3.23365 4.17445 3.73380
# Velocity P-wave (km/s) = 5.08168 7.10336 6.17580
#
# Compressibility (1/GPa) = 0.03210794
#
# Stress axis : x y z
#
# Youngs Moduli (GPa) = 46.90956 70.72703 138.17327
#
# Poissons Ratio (x) = 0.17942 0.20178
# Poissons Ratio (y) = 0.11900 0.17903
# Poissons Ratio (z) = 0.06850 0.09164
#
# Static dielectric constant tensor:
#      x y z
#    x 2.165950 0.059880 -0.030410 
#    y 0.059880 2.169050 -0.027060 
#    z -0.030410 -0.027060 2.025330 
# 
# From -- ./inp_files/223342.got.cif
#   From: 2010.05.17/outbox.cif.g08.bks.cpg/sg2_112_cif.got.tgz:223342.got - 2010.06.03 11:33:40.
