data_PCOD9100848
_publ_section_title
;
Structure prediction by ZEFSAII (Michael W. Deem and Ramdas Pophale) SiO2 
 PCOD9100848
Probable space group: P -1
;
_chemical_formula_sum "Si O2"
_cell_formula_units_Z 16
_cell_length_a 15.271977
_cell_length_b 8.842112
_cell_length_c 9.554226
_cell_angle_alpha 50.546807
_cell_angle_beta 127.765253
_cell_angle_gamma 90.075921
_cell_volume 608.117732
_symmetry_space_group_name_H-M "P -1"
_symmetry_group_IT_number 2
_symmetry_cell_setting 'triclinic'
loop_
_space_group_symop_operation_xyz
x,y,z
-x,-y,-z
loop_
_atom_site_type_symbol
_atom_site_label
_atom_site_fract_x
_atom_site_fract_y
_atom_site_fract_z
Si Si1 0.258278 0.918621 0.755679
Si Si2 0.192071 0.707069 0.193503
Si Si3 0.947345 0.389738 0.115235
Si Si4 0.111908 0.756410 0.366109
Si Si5 0.138717 0.389571 0.798901
Si Si6 0.464048 0.999653 0.801881
Si Si7 0.644106 0.461692 0.143540
Si Si8 0.628388 0.154556 0.774900
O O1 0.320086 0.032349 0.657178
O O2 0.320871 0.645189 0.919378
O O3 0.305713 0.899837 0.972428
O O4 0.087365 0.110713 0.463381
O O5 0.339507 0.663918 0.361540
O O6 0.156467 0.635055 0.059738
O O7 0.161486 0.602688 0.360091
O O8 0.052510 0.005887 0.914796
O O9 0.888585 0.558458 0.096617
O O10 0.000000 0.500000 0.000000
O O11 0.170445 0.570819 0.665429
O O12 0.230878 0.788249 0.489348
O O13 0.000000 0.500000 0.500000
O O14 0.263415 0.101546 0.056273
O O15 0.579191 0.732789 0.994035
O O16 0.500000 0.000000 0.000000
O O17 0.484588 0.186137 0.633459
O O18 0.500000 0.500000 0.000000
#
# Coordination Sequence:
#
# PCOD9100848 Si02
#       8
#     2   2   2   2   2   2   2   2
#     4  10  21  38  65  92 131 171 222 271 323 391
#     4  11  25  37  60  96 135 168 206 271 333 385
#     4  12  26  40  63  98 136 168 216 275 334 387
#     4  11  22  39  63  90 131 169 216 257 331 389
#     4  12  22  38  65  93 126 172 215 265 326 394
#     4   9  20  37  63  94 122 171 220 268 316 387
#     4  10  20  37  66  92 122 170 225 270 313 384
#     4  11  22  38  63  95 130 168 223 266 326 392
#
# _framework density 26.310694000000002
#
# number of rings (size 3 to 8) (size 9 to 14) (size 15 to 20)
#    0.000    1.250    5.000    0.750    3.500    1.000 
#    0.000    0.000    2.750    9.750    0.000    0.000 
#    0.000    0.000    0.000    0.000    0.000    0.000 
#
# Total GULP energy -89256.849628 kJ/mol
# GULP energy per Si atom -5578.553102 kJ/mol
# Density = 2.625081 g / cm^3
# Si number density = 26.310694 Si / 1000 Ang^3
#
#
#
# Elastic Constant Matrix: (Units=GPa)
#
#
# Indices 1 2 3 4 5 6 
#
# 1 127.2902 64.5957 17.1681 9.2007 -5.2928 -4.2268
# 2 64.5957 197.3311 21.6453 2.7345 -4.3119 -32.0928
# 3 17.1681 21.6453 37.2964 -2.9419 8.9728 -8.9827
# 4 9.2007 2.7345 -2.9419 44.3871 -3.5344 2.9589
# 5 -5.2928 -4.3119 8.9728 -3.5344 38.8534 13.6699
# 6 -4.2268 -32.0928 -8.9827 2.9589 13.6699 52.2110
#
#
#
# Elastic Compliance Matrix: (Units=1/GPa)
#
#
# Indices 1 2 3 4 5 6 
#
# 1 0.010212 -0.003196 -0.004241 -0.001819 0.002722 -0.002477
# 2 -0.003196 0.006896 -0.001416 -0.000178 -0.000746 0.003942
# 3 -0.004241 -0.001416 0.034200 0.001852 -0.011093 0.007469
# 4 -0.001819 -0.000178 0.001852 0.023324 0.002059 -0.001799
# 5 0.002722 -0.000746 -0.011093 0.002059 0.032572 -0.010791
# 6 -0.002477 0.003942 0.007469 -0.001799 -0.010791 0.025588
#
#
# Mechanical properties :
#
#
# Convention : Reuss Voigt Hill
#
# Bulk Modulus (GPa) = 29.75983 63.19287 46.47635
# Shear Modulus (GPa) = 30.92148 44.32420 37.62284
#
# Velocity S-wave (km/s) = 3.43190 4.10890 3.78556
# Velocity P-wave (km/s) = 5.19994 6.82501 6.06713
#
# Compressibility (1/GPa) = 0.03360234
#
# Stress axis : x y z
#
# Youngs Moduli (GPa) = 97.92106 145.00189 29.23958
#
# Poissons Ratio (x) = 0.46341 0.12400
# Poissons Ratio (y) = 0.31295 0.04142
# Poissons Ratio (z) = 0.41528 0.20539
#
# Static dielectric constant tensor:
#      x y z
#    x 2.250240 -0.163480 -0.354220 
#    y -0.163480 1.916270 -0.183570 
#    z -0.354220 -0.183570 2.022120 
# 
# From -- ./inp_files/271324.got.cif
#   From: 2010.05.17/outbox.cif.g08.bks.cpg/sg2_136_cif.got.tgz:271324.got - 2010.06.03 11:33:40.
