data_PCOD9100612
_publ_section_title
;
Structure prediction by ZEFSAII (Michael W. Deem and Ramdas Pophale) SiO2 
 PCOD9100612
Probable space group: P -1
;
_chemical_formula_sum "Si O2"
_cell_formula_units_Z 14
_cell_length_a 9.406060
_cell_length_b 11.403821
_cell_length_c 7.371777
_cell_angle_alpha 100.548235
_cell_angle_beta 66.152862
_cell_angle_gamma 135.938269
_cell_volume 495.725746
_symmetry_space_group_name_H-M "P -1"
_symmetry_group_IT_number 2
_symmetry_cell_setting 'triclinic'
loop_
_space_group_symop_operation_xyz
x,y,z
-x,-y,-z
loop_
_atom_site_type_symbol
_atom_site_label
_atom_site_fract_x
_atom_site_fract_y
_atom_site_fract_z
Si Si1 0.477337 0.342695 0.966062
Si Si2 0.790244 0.176936 0.037048
Si Si3 0.212011 0.125823 0.701981
Si Si4 0.411306 0.682422 0.722705
Si Si5 0.768331 0.628235 0.424152
Si Si6 0.969096 0.235568 0.322218
Si Si7 0.658894 0.196566 0.739586
O O1 0.278483 0.202095 0.890593
O O2 0.664977 0.343511 0.810918
O O3 0.500000 0.500000 0.000000
O O4 0.442901 0.286727 0.177021
O O5 0.684334 0.245785 0.153568
O O6 0.987509 0.272734 0.109733
O O7 0.601711 0.979428 0.147678
O O8 0.780290 0.179905 0.824623
O O9 0.441518 0.225181 0.505569
O O10 0.119441 0.192929 0.669038
O O11 0.080325 0.932432 0.692058
O O12 0.210695 0.481576 0.730676
O O13 0.500000 0.500000 0.500000
O O14 0.834787 0.639437 0.598198
O O15 0.770222 0.208591 0.501473
#
# Coordination Sequence:
#
# PCOD9100612 Si02
#       7
#     2   2   2   2   2   2   2
#     4  11  21  37  67  97 131 178 216 257 336 399
#     4  10  20  37  64  98 135 170 213 271 330 389
#     4  11  21  39  66  95 125 172 221 271 327 389
#     4  10  21  40  63  93 134 171 214 269 326 396
#     4  10  24  43  63  94 132 176 221 278 334 385
#     4  12  22  40  68  97 130 175 226 270 327 398
#     4  10  21  38  63 103 135 168 218 270 325 396
#
# _framework density 28.241420999999999
#
# number of rings (size 3 to 8) (size 9 to 14) (size 15 to 20)
#    0.000    1.429    4.286    1.714    0.000    0.571 
#    0.000    8.571    0.000    6.000    0.000    0.000 
#    0.000    0.000    0.000    0.000    0.000    0.000 
#
# Total GULP energy -78394.864787 kJ/mol
# GULP energy per Si atom -5599.633199 kJ/mol
# Density = 2.817714 g / cm^3
# Si number density = 28.241421 Si / 1000 Ang^3
#
#
#
# Elastic Constant Matrix: (Units=GPa)
#
#
# Indices 1 2 3 4 5 6 
#
# 1 170.6076 53.8615 44.1354 14.6667 22.3067 -22.2481
# 2 53.8615 120.9097 44.7886 30.4305 12.4134 -33.6564
# 3 44.1354 44.7886 161.2943 15.0833 32.1191 2.1733
# 4 14.6667 30.4305 15.0833 42.3431 3.1798 -0.2979
# 5 22.3067 12.4134 32.1191 3.1798 68.8343 20.9006
# 6 -22.2481 -33.6564 2.1733 -0.2979 20.9006 60.1583
#
#
#
# Elastic Compliance Matrix: (Units=1/GPa)
#
#
# Indices 1 2 3 4 5 6 
#
# 1 0.007394 -0.001762 -0.001032 -0.000732 -0.002352 0.002600
# 2 -0.001762 0.015025 -0.002293 -0.009055 -0.003372 0.008964
# 3 -0.001032 -0.002293 0.007679 -0.000552 -0.002481 -0.001082
# 4 -0.000732 -0.009055 -0.000552 0.030339 0.002565 -0.006058
# 5 -0.002352 -0.003372 -0.002481 0.002565 0.019836 -0.009546
# 6 0.002600 0.008964 -0.001082 -0.006058 -0.009546 0.025925
#
#
# Mechanical properties :
#
#
# Convention : Reuss Voigt Hill
#
# Bulk Modulus (GPa) = 50.18843 82.04252 66.11548
# Shear Modulus (GPa) = 40.64609 54.93555 47.79082
#
# Velocity S-wave (km/s) = 3.79784 4.41524 4.11813
# Velocity P-wave (km/s) = 6.08615 7.42334 6.78775
#
# Compressibility (1/GPa) = 0.01992491
#
# Stress axis : x y z
#
# Youngs Moduli (GPa) = 135.24036 66.55507 130.22336
#
# Poissons Ratio (x) = 0.11728 0.13441
# Poissons Ratio (y) = 0.23831 0.29854
# Poissons Ratio (z) = 0.13958 0.15258
#
# Static dielectric constant tensor:
#      x y z
#    x 2.263720 0.097830 -0.075790 
#    y 0.097830 2.271820 -0.068170 
#    z -0.075790 -0.068170 2.183420 
# 
# From -- ./inp_files/188439.got.cif
#   From: 2010.05.17/outbox.cif.g08.bks.cpg/sg2_95_cif.got.tgz:188439.got - 2010.06.03 11:33:40.
