data_PCOD9100466
_publ_section_title
;
Structure prediction by ZEFSAII (Michael W. Deem and Ramdas Pophale) SiO2 
 PCOD9100466
Probable space group: P -1
;
_chemical_formula_sum "Si O2"
_cell_formula_units_Z 12
_cell_length_a 5.079306
_cell_length_b 14.360322
_cell_length_c 7.966368
_cell_angle_alpha 103.207316
_cell_angle_beta 121.956893
_cell_angle_gamma 60.728628
_cell_volume 429.696159
_symmetry_space_group_name_H-M "P -1"
_symmetry_group_IT_number 2
_symmetry_cell_setting 'triclinic'
loop_
_space_group_symop_operation_xyz
x,y,z
-x,-y,-z
loop_
_atom_site_type_symbol
_atom_site_label
_atom_site_fract_x
_atom_site_fract_y
_atom_site_fract_z
Si Si1 0.850452 0.895812 0.601729
Si Si2 0.409398 0.615259 0.397424
Si Si3 0.585002 0.552382 0.889092
Si Si4 0.592661 0.717537 0.185095
Si Si5 0.428430 0.228043 0.333201
Si Si6 0.441225 0.899310 0.991245
O O1 0.765824 0.802088 0.600696
O O2 0.047682 0.925645 0.828203
O O3 0.500000 0.000000 0.500000
O O4 0.844632 0.149158 0.452373
O O5 0.557132 0.493580 0.331278
O O6 0.427795 0.687200 0.275751
O O7 0.608064 0.652845 0.617907
O O8 0.007193 0.652723 0.313327
O O9 0.500000 0.500000 0.000000
O O10 0.466489 0.673370 0.960204
O O11 0.000000 0.500000 0.000000
O O12 0.520676 0.838502 0.169813
O O13 0.337177 0.191750 0.110738
O O14 0.500000 0.000000 0.000000
#
# Coordination Sequence:
#
# PCOD9100466 Si02
#       6
#     2   2   2   2   2   2
#     4  10  23  41  62  81 119 161 209 246 296 360
#     4  10  20  37  64  90 118 158 202 242 299 363
#     4   8  16  33  57  89 117 152 196 241 292 361
#     4  10  21  37  63  89 122 156 200 251 298 347
#     4  10  23  39  60  86 120 156 205 244 302 360
#     4  10  26  42  60  89 125 158 204 252 307 348
#
# _framework density 27.926708999999999
#
# number of rings (size 3 to 8) (size 9 to 14) (size 15 to 20)
#    1.000    1.333    0.000    1.500    4.667    2.000 
#    0.000    0.833    0.000    1.000    0.000    0.000 
#    0.000    0.000    0.000    0.000    0.000    0.000 
#
# Total GULP energy -67173.426926 kJ/mol
# GULP energy per Si atom -5597.785577 kJ/mol
# Density = 2.786315 g / cm^3
# Si number density = 27.926709 Si / 1000 Ang^3
#
#
#
# Elastic Constant Matrix: (Units=GPa)
#
#
# Indices 1 2 3 4 5 6 
#
# 1 177.6516 40.6127 16.5662 -11.6782 6.8304 12.0756
# 2 40.6127 158.1293 42.5986 19.7460 11.7845 33.7476
# 3 16.5662 42.5986 98.9433 27.6787 4.5146 1.6210
# 4 -11.6782 19.7460 27.6787 66.2493 -4.8642 13.8751
# 5 6.8304 11.7845 4.5146 -4.8642 42.1278 6.0682
# 6 12.0756 33.7476 1.6210 13.8751 6.0682 50.4011
#
#
#
# Elastic Compliance Matrix: (Units=1/GPa)
#
#
# Indices 1 2 3 4 5 6 
#
# 1 0.006260 -0.001341 -0.001056 0.002178 -0.000109 -0.001155
# 2 -0.001341 0.008815 -0.003294 -0.000487 -0.001203 -0.005196
# 3 -0.001056 -0.003294 0.013294 -0.005661 -0.001529 0.003774
# 4 0.002178 -0.000487 -0.005661 0.019456 0.003470 -0.005787
# 5 -0.000109 -0.001203 -0.001529 0.003470 0.025102 -0.003097
# 6 -0.001155 -0.005196 0.003774 -0.005787 -0.003097 0.025442
#
#
# Mechanical properties :
#
#
# Convention : Reuss Voigt Hill
#
# Bulk Modulus (GPa) = 58.87250 70.47549 64.67400
# Shear Modulus (GPa) = 43.32271 54.08540 48.70406
#
# Velocity S-wave (km/s) = 3.94293 4.40556 4.18065
# Velocity P-wave (km/s) = 6.46960 7.15327 6.82001
#
# Compressibility (1/GPa) = 0.01698586
#
# Stress axis : x y z
#
# Youngs Moduli (GPa) = 159.74839 113.43947 75.22413
#
# Poissons Ratio (x) = 0.15208 0.07947
# Poissons Ratio (y) = 0.21416 0.24782
# Poissons Ratio (z) = 0.16876 0.37372
#
# Static dielectric constant tensor:
#      x y z
#    x 2.078110 -0.006960 -0.104060 
#    y -0.006960 2.145300 0.072130 
#    z -0.104060 0.072130 2.377890 
# 
# From -- ./inp_files/32793.got.cif
#   From: 2010.05.17/outbox.cif.g08.bks.cpg/sg2_17_cif.got.tgz:32793.got - 2010.06.03 11:33:40.
