data_PCOD9100738
_publ_section_title
;
Structure prediction by ZEFSAII (Michael W. Deem and Ramdas Pophale) SiO2 
 PCOD9100738
Probable space group: P -1
;
_chemical_formula_sum "Si O2"
_cell_formula_units_Z 16
_cell_length_a 11.956058
_cell_length_b 15.422204
_cell_length_c 6.533328
_cell_angle_alpha 92.065753
_cell_angle_beta 45.968071
_cell_angle_gamma 75.069083
_cell_volume 795.719601
_symmetry_space_group_name_H-M "P -1"
_symmetry_group_IT_number 2
_symmetry_cell_setting 'triclinic'
loop_
_space_group_symop_operation_xyz
x,y,z
-x,-y,-z
loop_
_atom_site_type_symbol
_atom_site_label
_atom_site_fract_x
_atom_site_fract_y
_atom_site_fract_z
Si Si1 0.138803 0.037147 0.552901
Si Si2 0.479300 0.791557 0.730188
Si Si3 0.801625 0.622045 0.193920
Si Si4 0.377723 0.953335 0.561608
Si Si5 0.033433 0.286299 0.329160
Si Si6 0.856152 0.158492 0.639113
Si Si7 0.038335 0.556075 0.269248
Si Si8 0.357835 0.137699 0.120341
O O1 0.283801 0.057875 0.244338
O O2 0.970886 0.122506 0.696112
O O3 0.198935 0.027285 0.711583
O O4 0.130181 0.938589 0.492434
O O5 0.610588 0.698359 0.448204
O O6 0.375323 0.875902 0.716449
O O7 0.597077 0.828770 0.719713
O O8 0.337275 0.780173 0.052166
O O9 0.879740 0.599824 0.320181
O O10 0.821920 0.524013 0.051282
O O11 0.920163 0.663367 0.918231
O O12 0.500000 0.000000 0.500000
O O13 0.477379 0.898312 0.231280
O O14 0.936229 0.218026 0.409273
O O15 0.932727 0.360508 0.641552
O O16 0.213612 0.222015 0.193564
O O17 0.000000 0.500000 0.500000
#
# Coordination Sequence:
#
# PCOD9100738 Si02
#       8
#     2   2   2   2   2   2   2   2
#     4  10  21  40  56  81 124 172 204 250 296 357
#     4  12  22  37  60  93 117 161 204 257 298 354
#     4  10  20  37  65  94 116 148 208 246 295 369
#     4  12  22  34  60  88 112 160 220 260 288 337
#     4  10  20  39  62  88 121 161 193 246 303 363
#     4  10  23  39  58  84 132 166 196 247 318 346
#     4   9  19  37  66  95 116 148 196 252 302 358
#     4  11  20  37  60  83 123 160 212 255 289 342
#
# _framework density 20.107586999999999
#
# number of rings (size 3 to 8) (size 9 to 14) (size 15 to 20)
#    0.000    1.500    5.000    1.125    0.000    0.500 
#    2.250    0.625    0.000    6.750    0.000    0.000 
#    0.000    0.000    0.000    0.000    0.000    0.000 
#
# Total GULP energy -89282.705704 kJ/mol
# GULP energy per Si atom -5580.169107 kJ/mol
# Density = 2.006182 g / cm^3
# Si number density = 20.107587 Si / 1000 Ang^3
#
#
#
# Elastic Constant Matrix: (Units=GPa)
#
#
# Indices 1 2 3 4 5 6 
#
# 1 68.9892 21.2300 5.8080 -11.2417 0.3344 -8.7436
# 2 21.2300 71.1284 16.1299 -8.4357 -0.2522 -5.7357
# 3 5.8080 16.1299 56.0930 2.7164 -9.1105 2.8371
# 4 -11.2417 -8.4357 2.7164 25.9504 -1.3383 10.0745
# 5 0.3344 -0.2522 -9.1105 -1.3383 28.8927 -6.9537
# 6 -8.7436 -5.7357 2.8371 10.0745 -6.9537 28.0062
#
#
#
# Elastic Compliance Matrix: (Units=1/GPa)
#
#
# Indices 1 2 3 4 5 6 
#
# 1 0.016998 -0.004032 -0.000926 0.005063 0.000397 0.002852
# 2 -0.004032 0.016890 -0.004822 0.003771 -0.000884 0.001113
# 3 -0.000926 -0.004822 0.020508 -0.003589 0.006139 -0.000538
# 4 0.005063 0.003771 -0.003589 0.048110 -0.002596 -0.015234
# 5 0.000397 -0.000884 0.006139 -0.002596 0.038794 0.009887
# 6 0.002852 0.001113 -0.000538 -0.015234 0.009887 0.044814
#
#
# Mechanical properties :
#
#
# Convention : Reuss Voigt Hill
#
# Bulk Modulus (GPa) = 28.70441 31.39404 30.04922
# Shear Modulus (GPa) = 23.01123 26.77270 24.89197
#
# Velocity S-wave (km/s) = 3.38658 3.65289 3.52225
# Velocity P-wave (km/s) = 5.44043 5.78260 5.61412
#
# Compressibility (1/GPa) = 0.03483785
#
# Stress axis : x y z
#
# Youngs Moduli (GPa) = 58.82965 59.20758 48.76116
#
# Poissons Ratio (x) = 0.23871 0.04513
# Poissons Ratio (y) = 0.23719 0.23511
# Poissons Ratio (z) = 0.05445 0.28548
#
# Static dielectric constant tensor:
#      x y z
#    x 1.759030 -0.012580 0.039270 
#    y -0.012580 1.735410 0.014040 
#    z 0.039270 0.014040 1.753560 
# 
# From -- ./inp_files/45822.got.cif
#   From: 2010.05.17/outbox.cif.g08.bks.cpg/sg2_23_cif.got.tgz:45822.got - 2010.06.03 11:33:40.
