data_PCOD9100468
_publ_section_title
;
Structure prediction by ZEFSAII (Michael W. Deem and Ramdas Pophale) SiO2 
 PCOD9100468
Probable space group: P -1
;
_chemical_formula_sum "Si O2"
_cell_formula_units_Z 16
_cell_length_a 9.518166
_cell_length_b 13.311923
_cell_length_c 7.266365
_cell_angle_alpha 120.502502
_cell_angle_beta 66.517476
_cell_angle_gamma 100.505372
_cell_volume 727.340479
_symmetry_space_group_name_H-M "P -1"
_symmetry_group_IT_number 2
_symmetry_cell_setting 'triclinic'
loop_
_space_group_symop_operation_xyz
x,y,z
-x,-y,-z
loop_
_atom_site_type_symbol
_atom_site_label
_atom_site_fract_x
_atom_site_fract_y
_atom_site_fract_z
Si Si1 0.856478 0.058984 0.872970
Si Si2 0.323785 0.534204 0.115524
Si Si3 0.152588 0.144732 0.590276
Si Si4 0.473894 0.137731 0.616833
Si Si5 0.065236 0.385822 0.953490
Si Si6 0.199444 0.845562 0.636351
Si Si7 0.687283 0.218984 0.846228
Si Si8 0.895603 0.389548 0.407081
O O1 0.737070 0.160864 0.956507
O O2 0.023711 0.093873 0.745937
O O3 0.823656 0.937862 0.675110
O O4 0.842768 0.059245 0.100865
O O5 0.223000 0.426761 0.001439
O O6 0.291729 0.646490 0.100699
O O7 0.265592 0.568126 0.382462
O O8 0.500000 0.500000 0.000000
O O9 0.310530 0.156898 0.630442
O O10 0.093704 0.276647 0.705655
O O11 0.616681 0.181900 0.460371
O O12 0.514173 0.193682 0.846043
O O13 0.500000 0.000000 0.500000
O O14 0.938309 0.360134 0.149448
O O15 0.000000 0.500000 0.000000
O O16 0.207202 0.860551 0.426198
O O17 0.089870 0.737226 0.624439
O O18 0.000000 0.500000 0.500000
#
# Coordination Sequence:
#
# PCOD9100468 Si02
#       8
#     2   2   2   2   2   2   2   2
#     4  11  21  39  65  89 124 167 210 261 315 373
#     4  10  20  37  64  90 118 165 205 258 317 369
#     4  11  22  37  61  93 123 161 214 263 308 377
#     4  10  20  41  62  88 130 163 203 257 320 374
#     4  11  22  38  63  86 124 167 203 260 316 368
#     4   9  20  38  66  88 128 168 201 260 324 369
#     4   9  20  39  64  88 125 162 206 248 322 378
#     4   9  19  38  61  88 124 164 208 255 315 375
#
# _framework density 21.997952000000002
#
# number of rings (size 3 to 8) (size 9 to 14) (size 15 to 20)
#    0.750    1.250    2.500    1.500    0.000    0.500 
#    0.000    7.500   16.500    0.000    0.000    0.000 
#    0.000    0.000    0.000    0.000    0.000    0.000 
#
# Total GULP energy -89091.069967 kJ/mol
# GULP energy per Si atom -5568.191873 kJ/mol
# Density = 2.194788 g / cm^3
# Si number density = 21.997952 Si / 1000 Ang^3
#
#
#
# Elastic Constant Matrix: (Units=GPa)
#
#
# Indices 1 2 3 4 5 6 
#
# 1 101.4703 29.9102 38.6663 6.1519 -15.1234 10.9828
# 2 29.9102 86.2893 22.1947 23.5517 1.5512 8.2328
# 3 38.6663 22.1947 85.1228 17.9137 -1.9940 1.4676
# 4 6.1519 23.5517 17.9137 37.9659 3.1604 2.6010
# 5 -15.1234 1.5512 -1.9940 3.1604 27.9372 4.8428
# 6 10.9828 8.2328 1.4676 2.6010 4.8428 35.3501
#
#
#
# Elastic Compliance Matrix: (Units=1/GPa)
#
#
# Indices 1 2 3 4 5 6 
#
# 1 0.014948 -0.004024 -0.005993 0.002528 0.008433 -0.004800
# 2 -0.004024 0.015613 -0.000459 -0.008561 -0.001852 -0.001483
# 3 -0.005993 -0.000459 0.015819 -0.006201 -0.001736 0.002006
# 4 0.002528 -0.008561 -0.006201 0.034414 -0.002363 -0.000743
# 5 0.008433 -0.001852 -0.001736 -0.002363 0.041939 -0.007688
# 6 -0.004800 -0.001483 0.002006 -0.000743 -0.007688 0.031150
#
#
# Mechanical properties :
#
#
# Convention : Reuss Voigt Hill
#
# Bulk Modulus (GPa) = 39.32512 50.49163 44.90838
# Shear Modulus (GPa) = 27.27613 32.39140 29.83377
#
# Velocity S-wave (km/s) = 3.52510 3.84145 3.68667
# Velocity P-wave (km/s) = 5.87230 6.53286 6.21137
#
# Compressibility (1/GPa) = 0.02542904
#
# Stress axis : x y z
#
# Youngs Moduli (GPa) = 66.89937 64.04817 63.21386
#
# Poissons Ratio (x) = 0.25771 0.37881
# Poissons Ratio (y) = 0.26918 0.02904
# Poissons Ratio (z) = 0.40090 0.02943
#
# Static dielectric constant tensor:
#      x y z
#    x 1.874980 -0.004890 0.040610 
#    y -0.004890 2.011420 -0.031210 
#    z 0.040610 -0.031210 1.852390 
# 
# From -- ./inp_files/268785.got.cif
#   From: 2010.05.17/outbox.cif.g08.bks.cpg/sg2_135_cif.got.tgz:268785.got - 2010.06.03 11:33:40.
