data_PCOD9100637
_publ_section_title
;
Structure prediction by ZEFSAII (Michael W. Deem and Ramdas Pophale) SiO2 
 PCOD9100637
Probable space group: P -1
;
_chemical_formula_sum "Si O2"
_cell_formula_units_Z 16
_cell_length_a 15.536033
_cell_length_b 7.122481
_cell_length_c 7.698732
_cell_angle_alpha 70.882368
_cell_angle_beta 58.446447
_cell_angle_gamma 93.744340
_cell_volume 655.607018
_symmetry_space_group_name_H-M "P -1"
_symmetry_group_IT_number 2
_symmetry_cell_setting 'triclinic'
loop_
_space_group_symop_operation_xyz
x,y,z
-x,-y,-z
loop_
_atom_site_type_symbol
_atom_site_label
_atom_site_fract_x
_atom_site_fract_y
_atom_site_fract_z
Si Si1 0.208694 0.579239 0.355869
Si Si2 0.650559 0.041925 0.481250
Si Si3 0.136641 0.602238 0.806431
Si Si4 0.893602 0.836558 0.495283
Si Si5 0.916664 0.269837 0.842468
Si Si6 0.542305 0.749081 0.383231
Si Si7 0.092349 0.150652 0.115537
Si Si8 0.618837 0.005045 0.904747
O O1 0.204262 0.337068 0.431461
O O2 0.016428 0.278245 0.610417
O O3 0.157387 0.628200 0.217002
O O4 0.149620 0.624219 0.578261
O O5 0.610861 0.855093 0.444796
O O6 0.760481 0.219516 0.281863
O O7 0.559224 0.160434 0.541199
O O8 0.661322 0.958948 0.688650
O O9 0.319222 0.757324 0.187677
O O10 0.052121 0.625780 0.035845
O O11 0.143115 0.373237 0.915562
O O12 0.879988 0.858158 0.707654
O O13 0.961413 0.062472 0.281523
O O14 0.871925 0.020881 0.976582
O O15 0.500000 0.500000 0.500000
O O16 0.614932 0.843762 0.111021
O O17 0.500000 0.000000 0.000000
#
# Coordination Sequence:
#
# PCOD9100637 Si02
#       8
#     2   2   2   2   2   2   2   2
#     4  11  21  36  65  88 115 161 202 234 305 352
#     4   9  21  38  56  88 120 146 199 240 296 351
#     4  11  22  37  59  87 120 162 194 244 288 358
#     4   9  20  39  60  86 121 159 198 247 292 350
#     4  10  21  40  58  84 124 156 198 248 289 347
#     4  10  20  37  65  85 110 155 195 245 299 351
#     4   9  21  39  59  83 125 157 196 251 292 337
#     4   9  20  39  60  86 120 153 189 246 296 346
#
# _framework density 24.404862999999999
#
# number of rings (size 3 to 8) (size 9 to 14) (size 15 to 20)
#    0.750    1.500    1.250    1.125    0.000    3.500 
#    2.250    0.000    5.500    0.000    0.000    0.000 
#    0.000    0.000    0.000    0.000    0.000    0.000 
#
# Total GULP energy -89285.198128 kJ/mol
# GULP energy per Si atom -5580.324883 kJ/mol
# Density = 2.434932 g / cm^3
# Si number density = 24.404863 Si / 1000 Ang^3
#
#
#
# Elastic Constant Matrix: (Units=GPa)
#
#
# Indices 1 2 3 4 5 6 
#
# 1 37.9927 18.4595 19.6783 -3.6072 6.2286 23.6892
# 2 18.4595 165.6651 55.8532 -5.3748 13.0432 39.4713
# 3 19.6783 55.8532 135.7811 -16.7925 11.6201 27.8459
# 4 -3.6072 -5.3748 -16.7925 40.6219 22.3449 -9.4762
# 5 6.2286 13.0432 11.6201 22.3449 39.7951 7.7077
# 6 23.6892 39.4713 27.8459 -9.4762 7.7077 39.8274
#
#
#
# Elastic Compliance Matrix: (Units=1/GPa)
#
#
# Indices 1 2 3 4 5 6 
#
# 1 0.042815 0.002230 -0.001966 -0.003095 0.000121 -0.027062
# 2 0.002230 0.008551 -0.002296 -0.001721 0.000158 -0.008636
# 3 -0.001966 -0.002296 0.010033 0.006268 -0.005180 -0.001077
# 4 -0.003095 -0.001721 0.006268 0.047285 -0.030492 0.016316
# 5 0.000121 0.000158 -0.005180 -0.030492 0.046171 -0.012797
# 6 -0.027062 -0.008636 -0.001077 0.016316 -0.012797 0.056874
#
#
# Mechanical properties :
#
#
# Convention : Reuss Voigt Hill
#
# Bulk Modulus (GPa) = 17.44099 58.60234 38.02166
# Shear Modulus (GPa) = 21.28519 40.41210 30.84865
#
# Velocity S-wave (km/s) = 2.95646 4.07369 3.55919
# Velocity P-wave (km/s) = 4.33777 6.79642 5.70121
#
# Compressibility (1/GPa) = 0.05733620
#
# Stress axis : x y z
#
# Youngs Moduli (GPa) = 23.35608 116.94287 99.66738
#
# Poissons Ratio (x) = -0.26075 0.19591
# Poissons Ratio (y) = -0.05208 0.22883
# Poissons Ratio (z) = 0.04591 0.26850
#
# Static dielectric constant tensor:
#      x y z
#    x 2.022010 -0.002190 -0.099600 
#    y -0.002190 2.012680 -0.006830 
#    z -0.099600 -0.006830 2.054730 
# 
# From -- ./inp_files/355793.got.cif
#   From: 2010.05.17/outbox.cif.g08.bks.cpg/sg2_178_cif.got.tgz:355793.got - 2010.06.03 11:33:40.
