data_PCOD9100110
_publ_section_title
;
Structure prediction by ZEFSAII (Michael W. Deem and Ramdas Pophale) SiO2 
 PCOD9100110
Probable space group: P -1
;
_chemical_formula_sum "Si O2"
_cell_formula_units_Z 14
_cell_length_a 5.142984
_cell_length_b 19.113692
_cell_length_c 13.121299
_cell_angle_alpha 24.579687
_cell_angle_beta 87.456306
_cell_angle_gamma 90.537476
_cell_volume 532.138504
_symmetry_space_group_name_H-M "P -1"
_symmetry_group_IT_number 2
_symmetry_cell_setting 'triclinic'
loop_
_space_group_symop_operation_xyz
x,y,z
-x,-y,-z
loop_
_atom_site_type_symbol
_atom_site_label
_atom_site_fract_x
_atom_site_fract_y
_atom_site_fract_z
Si Si1 0.553015 0.437747 0.697118
Si Si2 0.264315 0.941615 0.283284
Si Si3 0.929864 0.436250 0.470505
Si Si4 0.593477 0.754450 0.752507
Si Si5 0.180357 0.938416 0.988514
Si Si6 0.226570 0.580211 0.815889
Si Si7 0.380187 0.903122 0.758941
O O1 0.500000 0.500000 0.500000
O O2 0.259949 0.442128 0.736118
O O3 0.779422 0.565117 0.577600
O O4 0.663285 0.258781 0.950273
O O5 0.157372 0.742329 0.539786
O O6 0.532154 0.974224 0.166411
O O7 0.361907 0.001719 0.314716
O O8 0.030909 0.049372 0.114286
O O9 0.000000 0.500000 0.500000
O O10 0.782493 0.249995 0.728511
O O11 0.456361 0.671910 0.762421
O O12 0.417258 0.817996 0.761711
O O13 0.765570 0.930118 0.482177
O O14 0.705000 0.589563 0.013064
O O15 0.000000 0.000000 0.000000
O O16 0.000000 0.500000 0.000000
#
# Coordination Sequence:
#
# PCOD9100110 Si02
#       7
#     2   2   2   2   2   2   2
#     4  10  20  37  62  94 129 173 215 276 341 397
#     4  11  25  44  73 100 138 191 231 295 356 414
#     4  10  20  38  61  87 128 168 217 274 331 392
#     4   9  22  44  68  99 139 180 234 293 353 418
#     4  12  26  45  67 102 142 186 240 284 349 427
#     4  10  23  45  70 100 143 182 234 290 359 429
#     4  10  21  43  69 101 136 179 239 290 352 417
#
# _framework density 26.308938999999999
#
# number of rings (size 3 to 8) (size 9 to 14) (size 15 to 20)
#    0.000    1.714    0.000    4.714    6.000    2.286 
#    7.714    2.143    0.000    0.000    0.000    0.000 
#    0.000    0.000    0.000    0.000    0.000    0.000 
#
# Total GULP energy -77993.324497 kJ/mol
# GULP energy per Si atom -5570.951750 kJ/mol
# Density = 2.624906 g / cm^3
# Si number density = 26.308939 Si / 1000 Ang^3
#
#
#
# Elastic Constant Matrix: (Units=GPa)
#
#
# Indices 1 2 3 4 5 6 
#
# 1 146.1707 6.6540 39.3910 -2.2782 0.7052 -6.5115
# 2 6.6540 95.0379 50.4222 6.5324 13.0852 -6.5224
# 3 39.3910 50.4222 186.5323 -24.5434 -3.7135 -5.6500
# 4 -2.2782 6.5324 -24.5434 41.7250 -6.3159 14.0483
# 5 0.7052 13.0852 -3.7135 -6.3159 36.2105 1.8611
# 6 -6.5115 -6.5224 -5.6500 14.0483 1.8611 13.7146
#
#
#
# Elastic Compliance Matrix: (Units=1/GPa)
#
#
# Indices 1 2 3 4 5 6 
#
# 1 0.007792 0.002152 -0.002646 -0.004862 -0.002509 0.008954
# 2 0.002152 0.019238 -0.007499 -0.018527 -0.012421 0.027745
# 3 -0.002646 -0.007499 0.009268 0.012403 0.006626 -0.014608
# 4 -0.004862 -0.018527 0.012403 0.061604 0.022516 -0.072168
# 5 -0.002509 -0.012421 0.006626 0.022516 0.038438 -0.032649
# 6 0.008954 0.027745 -0.014608 -0.072168 -0.032649 0.162698
#
#
# Mechanical properties :
#
#
# Convention : Reuss Voigt Hill
#
# Bulk Modulus (GPa) = 49.23153 68.96391 59.09772
# Shear Modulus (GPa) = 15.53787 40.41494 27.97640
#
# Velocity S-wave (km/s) = 2.43285 3.92365 3.26449
# Velocity P-wave (km/s) = 5.16189 6.84081 6.05978
#
# Compressibility (1/GPa) = 0.02031219
#
# Stress axis : x y z
#
# Youngs Moduli (GPa) = 128.34471 51.98064 107.89494
#
# Poissons Ratio (x) = -0.11188 0.28546
# Poissons Ratio (y) = -0.27624 0.80915
# Poissons Ratio (z) = 0.33956 0.38983
#
# Static dielectric constant tensor:
#      x y z
#    x 3.321760 -0.219760 -0.601780 
#    y -0.219760 2.097570 0.291050 
#    z -0.601780 0.291050 2.416650 
# 
# From -- ./inp_files/479836.got.cif
#   From: 2010.05.17/outbox.cif.g08.bks.cpg/sg2_240_cif.got.tgz:479836.got - 2010.06.03 11:33:40.
