data_PCOD9100310
_publ_section_title
;
Structure prediction by ZEFSAII (Michael W. Deem and Ramdas Pophale) SiO2 
 PCOD9100310
Probable space group: P -1
;
_chemical_formula_sum "Si O2"
_cell_formula_units_Z 16
_cell_length_a 11.922643
_cell_length_b 8.059793
_cell_length_c 15.939364
_cell_angle_alpha 63.126179
_cell_angle_beta 114.930899
_cell_angle_gamma 63.279047
_cell_volume 757.298606
_symmetry_space_group_name_H-M "P -1"
_symmetry_group_IT_number 2
_symmetry_cell_setting 'triclinic'
loop_
_space_group_symop_operation_xyz
x,y,z
-x,-y,-z
loop_
_atom_site_type_symbol
_atom_site_label
_atom_site_fract_x
_atom_site_fract_y
_atom_site_fract_z
Si Si1 0.946935 0.349966 0.411625
Si Si2 0.438632 0.461943 0.074065
Si Si3 0.640072 0.145620 0.626032
Si Si4 0.484473 0.064140 0.279282
Si Si5 0.328425 0.655694 0.667205
Si Si6 0.038121 0.962963 0.204238
Si Si7 0.055226 0.594049 0.409037
Si Si8 0.596826 0.582568 0.669425
O O1 0.747008 0.464301 0.322666
O O2 0.010127 0.293470 0.542161
O O3 0.924655 0.590280 0.322702
O O4 0.127077 0.019123 0.501283
O O5 0.471422 0.199917 0.158519
O O6 0.574074 0.396043 0.203376
O O7 0.500000 0.500000 0.000000
O O8 0.199697 0.759799 0.950294
O O9 0.500000 0.500000 0.500000
O O10 0.865625 0.958997 0.749140
O O11 0.555623 0.157005 0.509997
O O12 0.607712 0.030581 0.714285
O O13 0.397737 0.294515 0.275101
O O14 0.720878 0.755588 0.441039
O O15 0.491182 0.516533 0.680954
O O16 0.066029 0.776998 0.327088
O O17 0.183616 0.722232 0.229640
#
# Coordination Sequence:
#
# PCOD9100310 Si02
#       8
#     2   2   2   2   2   2   2   2
#     4  10  21  35  64  92 118 154 216 251 304 353
#     4  11  25  45  61  87 129 169 203 250 308 373
#     4  10  20  37  63  99 122 154 206 258 302 362
#     4  11  22  39  66  91 124 165 201 255 313 354
#     4  10  21  39  62  92 119 164 203 259 305 359
#     4  11  24  38  62  92 126 164 201 246 316 366
#     4  11  20  38  63  94 121 162 200 263 300 363
#     4  10  20  37  63  92 126 152 205 263 304 360
#
# _framework density 21.127731000000001
#
# number of rings (size 3 to 8) (size 9 to 14) (size 15 to 20)
#    0.000    1.500    5.000    1.875    3.500    3.500 
#    0.000    0.625    2.750    0.000    0.000    0.000 
#    0.000    0.000    0.000    0.000    0.000    0.000 
#
# Total GULP energy -89195.922099 kJ/mol
# GULP energy per Si atom -5574.745131 kJ/mol
# Density = 2.107964 g / cm^3
# Si number density = 21.127731 Si / 1000 Ang^3
#
#
#
# Elastic Constant Matrix: (Units=GPa)
#
#
# Indices 1 2 3 4 5 6 
#
# 1 178.0201 25.5840 36.9194 -1.3632 -9.8017 32.3327
# 2 25.5840 49.9916 3.5349 -2.9694 0.2901 6.5274
# 3 36.9194 3.5349 61.2304 -2.7191 -2.6791 1.0046
# 4 -1.3632 -2.9694 -2.7191 17.1504 -5.8469 -2.7733
# 5 -9.8017 0.2901 -2.6791 -5.8469 46.7270 -4.0533
# 6 32.3327 6.5274 1.0046 -2.7733 -4.0533 30.1796
#
#
#
# Elastic Compliance Matrix: (Units=1/GPa)
#
#
# Indices 1 2 3 4 5 6 
#
# 1 0.008655 -0.003076 -0.004956 -0.001811 0.000584 -0.008530
# 2 -0.003076 0.021883 0.000740 0.003319 -0.000429 -0.001215
# 3 -0.004956 0.000740 0.019415 0.003961 0.000999 0.005001
# 4 -0.001811 0.003319 0.003961 0.063563 0.008480 0.008070
# 5 0.000584 -0.000429 0.000999 0.008480 0.022930 0.003293
# 6 -0.008530 -0.001215 0.005001 0.008070 0.003293 0.043554
#
#
# Mechanical properties :
#
#
# Convention : Reuss Voigt Hill
#
# Bulk Modulus (GPa) = 28.27316 46.81321 37.54318
# Shear Modulus (GPa) = 24.22804 33.69163 28.95984
#
# Velocity S-wave (km/s) = 3.39003 3.99766 3.70632
# Velocity P-wave (km/s) = 5.36042 6.59649 6.01032
#
# Compressibility (1/GPa) = 0.03536923
#
# Stress axis : x y z
#
# Youngs Moduli (GPa) = 115.54428 45.69660 51.50733
#
# Poissons Ratio (x) = 0.14056 0.25526
# Poissons Ratio (y) = 0.35541 -0.03811
# Poissons Ratio (z) = 0.57261 -0.03381
#
# Static dielectric constant tensor:
#      x y z
#    x 1.830760 0.003190 -0.011440 
#    y 0.003190 1.887850 -0.030500 
#    z -0.011440 -0.030500 1.803390 
# 
# From -- ./inp_files/333556.got.cif
#   From: 2010.05.17/outbox.cif.g08.bks.cpg/sg2_167_cif.got.tgz:333556.got - 2010.06.03 11:33:40.
