data_PCOD9100777
_publ_section_title
;
Structure prediction by ZEFSAII (Michael W. Deem and Ramdas Pophale) SiO2 
 PCOD9100777
Probable space group: P -1
;
_chemical_formula_sum "Si O2"
_cell_formula_units_Z 14
_cell_length_a 5.190814
_cell_length_b 8.314443
_cell_length_c 14.646919
_cell_angle_alpha 68.850226
_cell_angle_beta 86.059923
_cell_angle_gamma 98.613992
_cell_volume 577.723159
_symmetry_space_group_name_H-M "P -1"
_symmetry_group_IT_number 2
_symmetry_cell_setting 'triclinic'
loop_
_space_group_symop_operation_xyz
x,y,z
-x,-y,-z
loop_
_atom_site_type_symbol
_atom_site_label
_atom_site_fract_x
_atom_site_fract_y
_atom_site_fract_z
Si Si1 0.240487 0.393009 0.229153
Si Si2 0.613722 0.085986 0.596584
Si Si3 0.794479 0.802263 0.542768
Si Si4 0.791435 0.581392 0.209905
Si Si5 0.726182 0.960623 0.067900
Si Si6 0.169827 0.921897 0.765588
Si Si7 0.973840 0.709029 0.363819
O O1 0.198550 0.331748 0.347831
O O2 0.553367 0.440861 0.202817
O O3 0.079700 0.549221 0.180720
O O4 0.078239 0.231468 0.210417
O O5 0.482445 0.171112 0.499637
O O6 0.711291 0.236617 0.639052
O O7 0.837424 0.991057 0.564869
O O8 0.399971 0.937318 0.681071
O O9 0.890603 0.700457 0.473320
O O10 0.712468 0.761792 0.143181
O O11 0.822741 0.577234 0.320695
O O12 0.725946 0.075779 0.135484
O O13 0.500000 0.000000 0.000000
O O14 0.000000 0.000000 0.000000
O O15 0.074891 0.104890 0.712556
#
# Coordination Sequence:
#
# PCOD9100777 Si02
#       7
#     2   2   2   2   2   2   2
#     4  12  25  44  63 101 144 183 214 268 345 396
#     4  10  20  37  65  97 133 178 250 280 301 374
#     4  10  22  34  63  95 134 191 234 279 304 380
#     4  11  28  44  67  99 143 171 213 286 347 393
#     4  11  26  50  80 103 123 165 226 276 338 422
#     4  10  24  41  71  97 132 182 221 276 332 397
#     4  10  22  39  64  92 136 186 245 273 305 378
#
# _framework density 24.233058
#
# number of rings (size 3 to 8) (size 9 to 14) (size 15 to 20)
#    0.000    1.429    1.429    2.143   16.000    1.143 
#    0.000    4.286    0.000    0.000    0.000    0.000 
#    0.000    0.000    0.000    0.000    0.000    0.000 
#
# Total GULP energy -78011.298597 kJ/mol
# GULP energy per Si atom -5572.235614 kJ/mol
# Density = 2.417790 g / cm^3
# Si number density = 24.233058 Si / 1000 Ang^3
#
#
#
# Elastic Constant Matrix: (Units=GPa)
#
#
# Indices 1 2 3 4 5 6 
#
# 1 125.5881 27.9492 32.8451 1.0383 18.9664 18.8651
# 2 27.9492 61.0729 24.3533 6.8841 6.1972 19.5915
# 3 32.8451 24.3533 100.2281 21.8154 31.9408 15.2923
# 4 1.0383 6.8841 21.8154 35.9295 0.3894 8.1968
# 5 18.9664 6.1972 31.9408 0.3894 40.1789 2.6017
# 6 18.8651 19.5915 15.2923 8.1968 2.6017 40.8252
#
#
#
# Elastic Compliance Matrix: (Units=1/GPa)
#
#
# Indices 1 2 3 4 5 6 
#
# 1 0.009851 -0.002907 -0.001654 0.001934 -0.002728 -0.002752
# 2 -0.002907 0.021441 -0.003464 -0.000179 0.001319 -0.007696
# 3 -0.001654 -0.003464 0.017655 -0.009536 -0.012532 -0.001473
# 4 0.001934 -0.000179 -0.009536 0.034579 0.006659 -0.004602
# 5 -0.002728 0.001319 -0.012532 0.006659 0.035761 0.001706
# 6 -0.002752 -0.007696 -0.001473 -0.004602 0.001706 0.030827
#
#
# Mechanical properties :
#
#
# Convention : Reuss Voigt Hill
#
# Bulk Modulus (GPa) = 30.39746 50.79824 40.59785
# Shear Modulus (GPa) = 28.22790 36.83617 32.53203
#
# Velocity S-wave (km/s) = 3.41669 3.90305 3.66794
# Velocity P-wave (km/s) = 5.30435 6.42803 5.89303
#
# Compressibility (1/GPa) = 0.03289749
#
# Stress axis : x y z
#
# Youngs Moduli (GPa) = 101.50845 46.63978 56.64078
#
# Poissons Ratio (x) = 0.13560 0.09366
# Poissons Ratio (y) = 0.29511 0.19621
# Poissons Ratio (z) = 0.16785 0.16156
#
# Static dielectric constant tensor:
#      x y z
#    x 2.099740 0.085100 -0.198140 
#    y 0.085100 2.143680 -0.125600 
#    z -0.198140 -0.125600 2.102380 
# 
# From -- ./inp_files/479722.got.cif
#   From: 2010.05.17/outbox.cif.g08.bks.cpg/sg2_240_cif.got.tgz:479722.got - 2010.06.03 11:33:40.
