data_PCOD9100287
_publ_section_title
;
Structure prediction by ZEFSAII (Michael W. Deem and Ramdas Pophale) SiO2 
 PCOD9100287
Probable space group: P -1
;
_chemical_formula_sum "Si O2"
_cell_formula_units_Z 14
_cell_length_a 11.353921
_cell_length_b 11.501909
_cell_length_c 8.527920
_cell_angle_alpha 145.931191
_cell_angle_beta 86.647493
_cell_angle_gamma 76.017358
_cell_volume 532.468892
_symmetry_space_group_name_H-M "P -1"
_symmetry_group_IT_number 2
_symmetry_cell_setting 'triclinic'
loop_
_space_group_symop_operation_xyz
x,y,z
-x,-y,-z
loop_
_atom_site_type_symbol
_atom_site_label
_atom_site_fract_x
_atom_site_fract_y
_atom_site_fract_z
Si Si1 0.635500 0.247495 0.762782
Si Si2 0.795757 0.744485 0.300521
Si Si3 0.762043 0.249680 0.442502
Si Si4 0.953944 0.254684 0.863858
Si Si5 0.485539 0.669756 0.831810
Si Si6 0.279168 0.101194 0.182334
Si Si7 0.104932 0.592881 0.616919
O O1 0.745812 0.184544 0.546724
O O2 0.660065 0.973789 0.488541
O O3 0.500000 0.500000 0.000000
O O4 0.631731 0.311016 0.018145
O O5 0.812098 0.817864 0.560012
O O6 0.819228 0.480643 0.041713
O O7 0.921606 0.700240 0.132282
O O8 0.883789 0.274753 0.387989
O O9 0.630559 0.524685 0.743796
O O10 0.747153 0.065209 0.120319
O O11 0.933711 0.253113 0.049136
O O12 0.000000 0.000000 0.500000
O O13 0.500000 0.500000 0.500000
O O14 0.429621 0.933653 0.059709
O O15 0.247042 0.343956 0.370017
O O16 0.000000 0.500000 0.500000
#
# Coordination Sequence:
#
# PCOD9100287 Si02
#       7
#     2   2   2   2   2   2   2
#     4   9  18  35  62  96 128 164 207 272 339 394
#     4   9  19  38  61  90 122 164 218 274 316 388
#     4  10  20  37  63  91 129 174 206 263 343 391
#     4  10  21  41  66  89 120 177 230 271 320 383
#     4   8  16  35  67  93 120 162 215 268 322 392
#     4   9  19  38  62  90 126 164 218 274 325 385
#     4  11  25  40  60  95 135 174 220 270 328 395
#
# _framework density 26.292618000000001
#
# number of rings (size 3 to 8) (size 9 to 14) (size 15 to 20)
#    0.000    2.571    0.000    0.857    2.000    1.143 
#    7.714    0.000    0.000   14.571    0.000    0.000 
#    0.000    0.000    0.000    0.000    0.000    0.000 
#
# Total GULP energy -78053.294586 kJ/mol
# GULP energy per Si atom -5575.235328 kJ/mol
# Density = 2.623277 g / cm^3
# Si number density = 26.292618 Si / 1000 Ang^3
#
#
#
# Elastic Constant Matrix: (Units=GPa)
#
#
# Indices 1 2 3 4 5 6 
#
# 1 52.9947 42.3075 33.7394 -17.8694 -10.8681 25.7150
# 2 42.3075 191.3488 82.0761 12.0431 -15.5597 33.2719
# 3 33.7394 82.0761 174.1512 1.5661 -10.1322 17.1015
# 4 -17.8694 12.0431 1.5661 66.3667 2.9127 -26.8097
# 5 -10.8681 -15.5597 -10.1322 2.9127 27.6865 -6.7751
# 6 25.7150 33.2719 17.1015 -26.8097 -6.7751 49.8112
#
#
#
# Elastic Compliance Matrix: (Units=1/GPa)
#
#
# Indices 1 2 3 4 5 6 
#
# 1 0.031277 -0.003929 -0.003036 0.005410 0.006256 -0.008717
# 2 -0.003929 0.008517 -0.002625 -0.004650 0.001536 -0.005053
# 3 -0.003036 -0.002625 0.007525 -0.000278 0.000268 0.000625
# 4 0.005410 -0.004650 -0.000278 0.022415 0.000106 0.012487
# 5 0.006256 0.001536 0.000268 0.000106 0.039800 0.001123
# 6 -0.008717 -0.005053 0.000625 0.012487 0.001123 0.034611
#
#
# Mechanical properties :
#
#
# Convention : Reuss Voigt Hill
#
# Bulk Modulus (GPa) = 35.54091 81.63786 58.58939
# Shear Modulus (GPa) = 28.95134 46.13100 37.54117
#
# Velocity S-wave (km/s) = 3.32191 4.19325 3.78275
# Velocity P-wave (km/s) = 5.31604 7.38658 6.43513
#
# Compressibility (1/GPa) = 0.02813659
#
# Stress axis : x y z
#
# Youngs Moduli (GPa) = 31.97288 117.40949 132.89860
#
# Poissons Ratio (x) = 0.46130 0.40353
# Poissons Ratio (y) = 0.12562 0.34892
# Poissons Ratio (z) = 0.09708 0.30826
#
# Static dielectric constant tensor:
#      x y z
#    x 2.185250 -0.040860 -0.059130 
#    y -0.040860 2.103640 0.080020 
#    z -0.059130 0.080020 2.103230 
# 
# From -- ./inp_files/335576.got.cif
#   From: 2010.05.17/outbox.cif.g08.bks.cpg/sg2_168_cif.got.tgz:335576.got - 2010.06.03 11:33:40.
