data_PCOD9100762
_publ_section_title
;
Structure prediction by ZEFSAII (Michael W. Deem and Ramdas Pophale) SiO2 
 PCOD9100762
Probable space group: P -1
;
_chemical_formula_sum "Si O2"
_cell_formula_units_Z 14
_cell_length_a 17.512408
_cell_length_b 6.476799
_cell_length_c 22.683848
_cell_angle_alpha 61.212177
_cell_angle_beta 157.847050
_cell_angle_gamma 132.084829
_cell_volume 624.658183
_symmetry_space_group_name_H-M "P -1"
_symmetry_group_IT_number 2
_symmetry_cell_setting 'triclinic'
loop_
_space_group_symop_operation_xyz
x,y,z
-x,-y,-z
loop_
_atom_site_type_symbol
_atom_site_label
_atom_site_fract_x
_atom_site_fract_y
_atom_site_fract_z
Si Si1 0.300970 0.118101 0.709483
Si Si2 0.639487 0.793906 0.602199
Si Si3 0.349660 0.687962 0.516327
Si Si4 0.249740 0.702982 0.825010
Si Si5 0.262632 0.776474 0.068140
Si Si6 0.721227 0.704564 0.022747
Si Si7 0.816990 0.082441 0.876035
O O1 0.487461 0.203349 0.773368
O O2 0.246792 0.823158 0.743159
O O3 0.497892 0.421923 0.855022
O O4 0.000000 0.000000 0.500000
O O5 0.500000 0.500000 0.500000
O O6 0.490973 0.626820 0.580361
O O7 0.582818 0.000815 0.503607
O O8 0.965943 0.058308 0.810646
O O9 0.027192 0.417752 0.326658
O O10 0.505959 0.787684 0.675032
O O11 0.265018 0.437164 0.887546
O O12 0.500000 0.000000 0.000000
O O13 0.223328 0.854651 0.094924
O O14 0.975189 0.410063 0.906536
O O15 0.310564 0.042836 0.025396
O O16 0.000000 0.000000 0.000000
#
# Coordination Sequence:
#
# PCOD9100762 Si02
#       7
#     2   2   2   2   2   2   2
#     4  11  25  45  69  98 140 189 230 280 340 413
#     4  10  20  37  65  96 127 170 218 280 344 402
#     4  10  21  38  62  90 134 169 221 276 338 396
#     4   9  22  43  65  92 133 183 226 277 339 400
#     4  11  24  41  70  99 138 177 232 277 354 405
#     4  10  22  44  66  99 137 176 229 292 340 405
#     4  11  24  42  67 103 138 179 222 291 350 412
#
# _framework density 22.412257
#
# number of rings (size 3 to 8) (size 9 to 14) (size 15 to 20)
#    0.000    1.714    0.000    3.429    4.000    6.857 
#    0.000    2.857    0.000    0.000    0.000    0.000 
#    0.000    0.000    0.000    0.000    0.000    0.000 
#
# Total GULP energy -78008.721789 kJ/mol
# GULP energy per Si atom -5572.051556 kJ/mol
# Density = 2.236125 g / cm^3
# Si number density = 22.412257 Si / 1000 Ang^3
#
#
#
# Elastic Constant Matrix: (Units=GPa)
#
#
# Indices 1 2 3 4 5 6 
#
# 1 79.7769 26.2980 50.5164 -0.4608 18.8941 5.6151
# 2 26.2980 103.3187 40.3006 0.7388 6.5145 14.7424
# 3 50.5164 40.3006 179.2856 9.0149 12.2848 -1.5512
# 4 -0.4608 0.7388 9.0149 34.4142 1.2384 0.5129
# 5 18.8941 6.5145 12.2848 1.2384 31.1727 4.2734
# 6 5.6151 14.7424 -1.5512 0.5129 4.2734 26.6303
#
#
#
# Elastic Compliance Matrix: (Units=1/GPa)
#
#
# Indices 1 2 3 4 5 6 
#
# 1 0.018036 -0.002261 -0.004073 0.001692 -0.008727 -0.001421
# 2 -0.002261 0.011970 -0.002166 0.000354 0.000583 -0.006376
# 3 -0.004073 -0.002166 0.007350 -0.001963 -0.000249 0.002564
# 4 0.001692 0.000354 -0.001963 0.029651 -0.001364 -0.001019
# 5 -0.008727 0.000583 -0.000249 -0.001364 0.038026 -0.004573
# 6 -0.001421 -0.006376 0.002564 -0.001019 -0.004573 0.042283
#
#
# Mechanical properties :
#
#
# Convention : Reuss Voigt Hill
#
# Bulk Modulus (GPa) = 49.12843 66.29012 57.70928
# Shear Modulus (GPa) = 29.22213 34.79451 32.00832
#
# Velocity S-wave (km/s) = 3.61480 3.94442 3.78320
# Velocity P-wave (km/s) = 6.27617 7.09834 6.69988
#
# Compressibility (1/GPa) = 0.02035481
#
# Stress axis : x y z
#
# Youngs Moduli (GPa) = 55.44456 83.54278 136.05009
#
# Poissons Ratio (x) = 0.18891 0.55414
# Poissons Ratio (y) = 0.12537 0.29475
# Poissons Ratio (z) = 0.22583 0.18099
#
# Static dielectric constant tensor:
#      x y z
#    x 1.749090 0.020410 0.119020 
#    y 0.020410 1.900270 -0.031250 
#    z 0.119020 -0.031250 1.776690 
# 
# From -- ./inp_files/612615.got.cif
#   From: 2010.05.17/outbox.cif.g08.bks.cpg/sg2_307_cif.got.tgz:612615.got - 2010.06.03 11:33:40.
