data_PCOD9100438
_publ_section_title
;
Structure prediction by ZEFSAII (Michael W. Deem and Ramdas Pophale) SiO2 
 PCOD9100438
Probable space group: P -1
;
_chemical_formula_sum "Si O2"
_cell_formula_units_Z 16
_cell_length_a 18.402766
_cell_length_b 18.675294
_cell_length_c 7.823872
_cell_angle_alpha 45.511735
_cell_angle_beta 43.646593
_cell_angle_gamma 23.125187
_cell_volume 722.680213
_symmetry_space_group_name_H-M "P -1"
_symmetry_group_IT_number 2
_symmetry_cell_setting 'triclinic'
loop_
_space_group_symop_operation_xyz
x,y,z
-x,-y,-z
loop_
_atom_site_type_symbol
_atom_site_label
_atom_site_fract_x
_atom_site_fract_y
_atom_site_fract_z
Si Si1 0.493366 0.286097 0.582459
Si Si2 0.688088 0.383107 0.486108
Si Si3 0.252160 0.032544 0.741995
Si Si4 0.419756 0.156661 0.712031
Si Si5 0.791027 0.616367 0.657690
Si Si6 0.421307 0.689793 0.956899
Si Si7 0.834243 0.347924 0.977976
Si Si8 0.592976 0.044848 0.043613
O O1 0.357571 0.472260 0.598112
O O2 0.386620 0.272924 0.707642
O O3 0.591496 0.270020 0.287789
O O4 0.631436 0.119927 0.760038
O O5 0.500000 0.500000 0.500000
O O6 0.708113 0.290637 0.764024
O O7 0.843453 0.270801 0.259641
O O8 0.359845 0.006046 0.454714
O O9 0.370059 0.834966 0.894105
O O10 0.275059 0.071079 0.818754
O O11 0.034463 0.181473 0.817903
O O12 0.297506 0.285869 0.538508
O O13 0.381074 0.069077 0.939352
O O14 0.814902 0.477804 0.856440
O O15 0.626758 0.779072 0.802380
O O16 0.000000 0.500000 0.500000
O O17 0.643025 0.482136 0.966458
#
# Coordination Sequence:
#
# PCOD9100438 Si02
#       8
#     2   2   2   2   2   2   2   2
#     4  11  20  38  61  83 129 157 192 250 305 359
#     4  10  21  38  64  89 111 159 208 248 300 350
#     4  10  20  37  64  88 120 156 204 249 286 353
#     4  10  21  36  57  89 123 162 196 243 298 350
#     4  11  19  35  61  88 118 161 204 240 287 351
#     4  10  21  40  61  90 119 159 197 250 309 345
#     4  11  19  38  63  89 120 156 204 251 287 350
#     4  11  19  36  57  90 123 160 203 237 292 359
#
# _framework density 22.139804999999999
#
# number of rings (size 3 to 8) (size 9 to 14) (size 15 to 20)
#    0.000    1.500    5.000    4.500    0.000    0.500 
#    0.000    3.125    0.000   13.500    0.000    0.000 
#    0.000    0.000    0.000    0.000    0.000    0.000 
#
# Total GULP energy -89252.179999 kJ/mol
# GULP energy per Si atom -5578.261250 kJ/mol
# Density = 2.208941 g / cm^3
# Si number density = 22.139805 Si / 1000 Ang^3
#
#
#
# Elastic Constant Matrix: (Units=GPa)
#
#
# Indices 1 2 3 4 5 6 
#
# 1 47.5661 2.8321 -1.4811 -0.3399 9.9698 19.7179
# 2 2.8321 53.6586 8.8237 4.0229 -0.9432 -12.0848
# 3 -1.4811 8.8237 125.3493 -10.9519 6.0664 -4.1679
# 4 -0.3399 4.0229 -10.9519 24.3638 5.6169 -12.7568
# 5 9.9698 -0.9432 6.0664 5.6169 28.5823 -0.9349
# 6 19.7179 -12.0848 -4.1679 -12.7568 -0.9349 22.6346
#
#
#
# Elastic Compliance Matrix: (Units=1/GPa)
#
#
# Indices 1 2 3 4 5 6 
#
# 1 0.061904 -0.019892 -0.003485 -0.039849 -0.016567 -0.088332
# 2 -0.019892 0.027877 0.000215 0.015349 0.006142 0.041156
# 3 -0.003485 0.000215 0.009268 0.010107 -0.002388 0.010455
# 4 -0.039849 0.015349 0.010107 0.094462 -0.003101 0.097881
# 5 -0.016567 0.006142 -0.002388 -0.003101 0.042650 0.017286
# 6 -0.088332 0.041156 0.010455 0.097881 0.017286 0.200907
#
#
# Mechanical properties :
#
#
# Convention : Reuss Voigt Hill
#
# Bulk Modulus (GPa) = 18.96651 27.43593 23.20122
# Shear Modulus (GPa) = 9.98071 29.54277 19.76174
#
# Velocity S-wave (km/s) = 2.12552 3.65687 2.99086
# Velocity P-wave (km/s) = 3.82218 5.49994 4.73595
#
# Compressibility (1/GPa) = 0.05272450
#
# Stress axis : x y z
#
# Youngs Moduli (GPa) = 16.15413 35.87173 107.90236
#
# Poissons Ratio (x) = 0.71354 0.37607
# Poissons Ratio (y) = 0.32133 -0.02319
# Poissons Ratio (z) = 0.05630 -0.00771
#
# Static dielectric constant tensor:
#      x y z
#    x 1.854540 0.016360 0.015900 
#    y 0.016360 1.799290 -0.011030 
#    z 0.015900 -0.011030 1.892000 
# 
# From -- ./inp_files/314864.got.cif
#   From: 2010.05.17/outbox.cif.g08.bks.cpg/sg2_158_cif.got.tgz:314864.got - 2010.06.03 11:33:40.
