data_PCOD9100851
_publ_section_title
;
Structure prediction by ZEFSAII (Michael W. Deem and Ramdas Pophale) SiO2 
 PCOD9100851
Probable space group: P -1
;
_chemical_formula_sum "Si O2"
_cell_formula_units_Z 16
_cell_length_a 18.304922
_cell_length_b 8.015201
_cell_length_c 7.718647
_cell_angle_alpha 61.317561
_cell_angle_beta 97.028685
_cell_angle_gamma 57.661586
_cell_volume 721.316646
_symmetry_space_group_name_H-M "P -1"
_symmetry_group_IT_number 2
_symmetry_cell_setting 'triclinic'
loop_
_space_group_symop_operation_xyz
x,y,z
-x,-y,-z
loop_
_atom_site_type_symbol
_atom_site_label
_atom_site_fract_x
_atom_site_fract_y
_atom_site_fract_z
Si Si1 0.169356 0.396371 0.435734
Si Si2 0.198277 0.795718 0.296787
Si Si3 0.780332 0.061107 0.136889
Si Si4 0.113604 0.781760 0.714735
Si Si5 0.683141 0.606827 0.234490
Si Si6 0.015692 0.678834 0.985350
Si Si7 0.370860 0.105533 0.564488
Si Si8 0.407497 0.365704 0.156926
O O1 0.187343 0.590734 0.355825
O O2 0.057035 0.582297 0.238813
O O3 0.268138 0.173277 0.458605
O O4 0.184418 0.214406 0.679825
O O5 0.291142 0.635846 0.535640
O O6 0.209378 0.901159 0.078508
O O7 0.090266 0.037051 0.218036
O O8 0.848159 0.087149 0.257702
O O9 0.665319 0.323387 0.016519
O O10 0.203970 0.550325 0.732064
O O11 0.100435 0.651244 0.927812
O O12 0.000000 0.000000 0.500000
O O13 0.638186 0.819404 0.268961
O O14 0.615950 0.700645 0.998522
O O15 0.000000 0.500000 0.000000
O O16 0.378465 0.277311 0.354329
O O17 0.473682 0.811476 0.711660
#
# Coordination Sequence:
#
# PCOD9100851 Si02
#       8
#     2   2   2   2   2   2   2   2
#     4  11  23  41  65  94 129 180 219 266 337 386
#     4  11  23  44  64  95 134 175 217 276 322 396
#     4  11  23  40  66  92 131 173 221 273 325 395
#     4  11  21  38  61  93 130 172 219 269 325 387
#     4  10  20  37  66  92 129 176 212 271 332 388
#     4  12  25  40  64  97 136 174 221 273 326 397
#     4  10  21  40  66  96 129 173 218 276 338 390
#     4  10  20  39  68  97 127 169 224 274 333 395
#
# _framework density 22.181657000000001
#
# number of rings (size 3 to 8) (size 9 to 14) (size 15 to 20)
#    0.000    1.250    5.000    2.250    1.750    3.000 
#    0.000    0.000    0.000    0.750    0.000    0.000 
#    0.000    0.000    0.000    0.000    0.000    0.000 
#
# Total GULP energy -89121.826846 kJ/mol
# GULP energy per Si atom -5570.114178 kJ/mol
# Density = 2.213117 g / cm^3
# Si number density = 22.181657 Si / 1000 Ang^3
#
#
#
# Elastic Constant Matrix: (Units=GPa)
#
#
# Indices 1 2 3 4 5 6 
#
# 1 40.5612 7.0416 8.1335 -10.2768 -4.8345 -3.4894
# 2 7.0416 41.9342 2.7515 7.1210 -11.9590 -12.4485
# 3 8.1335 2.7515 85.1909 -5.7177 -13.9765 2.8301
# 4 -10.2768 7.1210 -5.7177 37.6620 -6.1988 -2.3618
# 5 -4.8345 -11.9590 -13.9765 -6.1988 44.3900 -4.9178
# 6 -3.4894 -12.4485 2.8301 -2.3618 -4.9178 25.0186
#
#
#
# Elastic Compliance Matrix: (Units=1/GPa)
#
#
# Indices 1 2 3 4 5 6 
#
# 1 0.028719 -0.004341 -0.001592 0.009149 0.003123 0.003503
# 2 -0.004341 0.033363 0.000043 -0.004778 0.009797 0.017464
# 3 -0.001592 0.000043 0.012720 0.002118 0.004068 -0.000640
# 4 0.009149 -0.004778 0.002118 0.031264 0.005030 0.002599
# 5 0.003123 0.009797 0.004068 0.005030 0.028705 0.010967
# 6 0.003503 0.017464 -0.000640 0.002599 0.010967 0.051622
#
#
# Mechanical properties :
#
#
# Convention : Reuss Voigt Hill
#
# Bulk Modulus (GPa) = 15.86751 22.61550 19.24150
# Shear Modulus (GPa) = 22.81240 31.39812 27.10526
#
# Velocity S-wave (km/s) = 3.21040 3.76639 3.49946
# Velocity P-wave (km/s) = 4.57288 5.39741 5.00216
#
# Compressibility (1/GPa) = 0.06302187
#
# Stress axis : x y z
#
# Youngs Moduli (GPa) = 34.82066 29.97357 78.61801
#
# Poissons Ratio (x) = 0.13012 0.12513
# Poissons Ratio (y) = 0.15116 -0.00340
# Poissons Ratio (z) = 0.05542 -0.00130
#
# Static dielectric constant tensor:
#      x y z
#    x 2.082350 -0.210980 0.572800 
#    y -0.210980 2.031190 -0.386800 
#    z 0.572800 -0.386800 3.105270 
# 
# From -- ./inp_files/216864.got.cif
#   From: 2010.05.17/outbox.cif.g08.bks.cpg/sg2_109_cif.got.tgz:216864.got - 2010.06.03 11:33:40.
