data_PCOD9100712
_publ_section_title
;
Structure prediction by ZEFSAII (Michael W. Deem and Ramdas Pophale) SiO2 
 PCOD9100712
Probable space group: P -1
;
_chemical_formula_sum "Si O2"
_cell_formula_units_Z 15
_cell_length_a 15.162984
_cell_length_b 11.829685
_cell_length_c 10.784253
_cell_angle_alpha 47.718837
_cell_angle_beta 152.038736
_cell_angle_gamma 138.394077
_cell_volume 601.775208
_symmetry_space_group_name_H-M "P -1"
_symmetry_group_IT_number 2
_symmetry_cell_setting 'triclinic'
loop_
_space_group_symop_operation_xyz
x,y,z
-x,-y,-z
loop_
_atom_site_type_symbol
_atom_site_label
_atom_site_fract_x
_atom_site_fract_y
_atom_site_fract_z
Si Si1 0.281558 0.402074 0.136808
Si Si2 0.907110 0.131691 0.758874
Si Si3 0.291892 0.883302 0.727704
Si Si4 0.375819 0.097874 0.074383
Si Si5 0.360928 0.253608 0.597149
Si Si6 0.094505 0.259368 0.492102
Si Si7 0.558876 0.401688 0.253699
Si Si8 0.500000 0.000000 0.500000
O O1 0.308622 0.313761 0.358377
O O2 0.416228 0.602428 0.182046
O O3 0.404191 0.369948 0.198331
O O4 0.043116 0.311819 0.861843
O O5 0.888491 0.168139 0.564816
O O6 0.674431 0.023839 0.595957
O O7 0.000000 0.000000 0.000000
O O8 0.475433 0.864997 0.888264
O O9 0.147141 0.800679 0.730621
O O10 0.379605 0.081978 0.721300
O O11 0.514660 0.219001 0.276584
O O12 0.310268 0.928768 0.196510
O O13 0.197309 0.155732 0.776558
O O14 0.175056 0.235063 0.474670
O O15 0.215591 0.460170 0.525321
O O16 0.500000 0.500000 0.000000
#
# Coordination Sequence:
#
# PCOD9100712 Si02
#       8
#     2   2   2   2   2   2   2   1
#     4  10  20  37  65  92 127 172 208 258 311 380
#     4  11  19  35  63  88 120 158 205 264 313 354
#     4  11  22  37  63  96 120 163 216 262 313 374
#     4  10  22  36  61  94 126 159 205 271 317 368
#     4  10  22  38  60  94 128 172 218 243 311 392
#     4  10  21  40  62  86 128 171 210 255 313 372
#     4   9  18  36  61  92 120 161 205 254 316 368
#     4  10  22  34  56 100 122 148 204 260 314 372
#
# _framework density 24.926251000000001
#
# number of rings (size 3 to 8) (size 9 to 14) (size 15 to 20)
#    0.000    1.867    1.333    3.600    1.867    1.067 
#    0.000    2.667    0.000    8.000    0.000    0.000 
#    0.000    0.000    0.000    0.000    0.000    0.000 
#
# Total GULP energy -83598.928326 kJ/mol
# GULP energy per Si atom -5573.261888 kJ/mol
# Density = 2.486952 g / cm^3
# Si number density = 24.926251 Si / 1000 Ang^3
#
#
#
# Elastic Constant Matrix: (Units=GPa)
#
#
# Indices 1 2 3 4 5 6 
#
# 1 169.5886 29.3149 34.4360 -4.2059 11.1657 5.5170
# 2 29.3149 92.4612 15.3387 32.2338 13.4458 -16.7186
# 3 34.4360 15.3387 49.7273 2.4713 5.1484 -10.1284
# 4 -4.2059 32.2338 2.4713 40.6482 -1.7581 -5.3011
# 5 11.1657 13.4458 5.1484 -1.7581 52.1511 -4.0016
# 6 5.5170 -16.7186 -10.1284 -5.3011 -4.0016 43.5008
#
#
#
# Elastic Compliance Matrix: (Units=1/GPa)
#
#
# Indices 1 2 3 4 5 6 
#
# 1 0.007688 -0.003208 -0.005067 0.003233 -0.000442 -0.003035
# 2 -0.003208 0.018644 -0.001342 -0.014545 -0.004086 0.005112
# 3 -0.005067 -0.001342 0.025318 -0.000252 -0.000622 0.005934
# 4 0.003233 -0.014545 -0.000252 0.036509 0.004220 -0.001222
# 5 -0.000442 -0.004086 -0.000622 0.004220 0.020584 0.000749
# 6 -0.003035 0.005112 0.005934 -0.001222 0.000749 0.026639
#
#
# Mechanical properties :
#
#
# Convention : Reuss Voigt Hill
#
# Bulk Modulus (GPa) = 30.84984 52.21736 41.53360
# Shear Modulus (GPa) = 30.22535 42.77252 36.49893
#
# Velocity S-wave (km/s) = 3.48601 4.14691 3.83074
# Velocity P-wave (km/s) = 5.34849 6.62747 6.02203
#
# Compressibility (1/GPa) = 0.03241507
#
# Stress axis : x y z
#
# Youngs Moduli (GPa) = 130.06931 53.63531 39.49706
#
# Poissons Ratio (x) = 0.17208 0.20015
# Poissons Ratio (y) = 0.41730 0.05301
# Poissons Ratio (z) = 0.65911 0.07199
#
# Static dielectric constant tensor:
#      x y z
#    x 1.915540 -0.083110 -0.310100 
#    y -0.083110 1.840730 -0.631000 
#    z -0.310100 -0.631000 3.770440 
# 
# From -- ./inp_files/451309.got.cif
#   From: 2010.05.17/outbox.cif.g08.bks.cpg/sg2_226_cif.got.tgz:451309.got - 2010.06.03 11:33:40.
