data_PCOD9100656
_publ_section_title
;
Structure prediction by ZEFSAII (Michael W. Deem and Ramdas Pophale) SiO2 
 PCOD9100656
Probable space group: P -1
;
_chemical_formula_sum "Si O2"
_cell_formula_units_Z 16
_cell_length_a 13.563384
_cell_length_b 9.090103
_cell_length_c 21.978688
_cell_angle_alpha 119.531255
_cell_angle_beta 21.491797
_cell_angle_gamma 130.742951
_cell_volume 685.342093
_symmetry_space_group_name_H-M "P -1"
_symmetry_group_IT_number 2
_symmetry_cell_setting 'triclinic'
loop_
_space_group_symop_operation_xyz
x,y,z
-x,-y,-z
loop_
_atom_site_type_symbol
_atom_site_label
_atom_site_fract_x
_atom_site_fract_y
_atom_site_fract_z
Si Si1 0.181315 0.031648 0.964020
Si Si2 0.938956 0.178215 0.559095
Si Si3 0.131326 0.858412 0.276403
Si Si4 0.171934 0.291851 0.179118
Si Si5 0.048973 0.830763 0.586605
Si Si6 0.202319 0.825010 0.739584
Si Si7 0.095030 0.871897 0.099023
Si Si8 0.824174 0.551848 0.290141
O O1 0.551242 0.095227 0.758135
O O2 0.130788 0.192903 0.058104
O O3 0.984597 0.839693 0.086031
O O4 0.000000 0.000000 0.000000
O O5 0.030485 0.276019 0.595253
O O6 0.069275 0.271191 0.434525
O O7 0.000000 0.000000 0.500000
O O8 0.122773 0.720146 0.198937
O O9 0.972282 0.972266 0.366980
O O10 0.521024 0.048671 0.105168
O O11 0.152112 0.310970 0.267339
O O12 0.846730 0.238064 0.316386
O O13 0.124930 0.070232 0.151894
O O14 0.500000 0.500000 0.000000
O O15 0.445833 0.949347 0.399421
O O16 0.189633 0.651352 0.750329
O O17 0.866433 0.664298 0.226758
O O18 0.500000 0.500000 0.500000
#
# Coordination Sequence:
#
# PCOD9100656 Si02
#       8
#     2   2   2   2   2   2   2   2
#     4  10  20  41  68  90 131 172 216 268 329 393
#     4   9  20  38  67  97 122 179 222 263 327 399
#     4  10  20  37  65  88 127 169 219 261 325 383
#     4  11  23  38  61  97 131 169 218 276 333 389
#     4  11  20  38  64  93 129 171 216 271 328 389
#     4  11  23  37  65  98 131 167 223 269 338 381
#     4  10  22  39  64  90 124 178 217 259 334 389
#     4  12  22  38  62  99 135 167 220 279 321 393
#
# _framework density 23.346005000000002
#
# number of rings (size 3 to 8) (size 9 to 14) (size 15 to 20)
#    0.000    1.500    3.750    1.500    1.750    1.000 
#    0.000    0.625    5.500    4.500    0.000    0.000 
#    0.000    0.000    0.000    0.000    0.000    0.000 
#
# Total GULP energy -89144.130684 kJ/mol
# GULP energy per Si atom -5571.508168 kJ/mol
# Density = 2.329287 g / cm^3
# Si number density = 23.346005 Si / 1000 Ang^3
#
#
#
# Elastic Constant Matrix: (Units=GPa)
#
#
# Indices 1 2 3 4 5 6 
#
# 1 161.5491 13.5973 48.0486 -23.0566 31.2462 -32.5371
# 2 13.5973 40.4489 30.2300 -0.9690 4.7997 -28.1771
# 3 48.0486 30.2300 86.6748 -2.3212 11.5919 -27.3803
# 4 -23.0566 -0.9690 -2.3212 30.1482 -13.0312 1.5113
# 5 31.2462 4.7997 11.5919 -13.0312 54.4274 -3.6240
# 6 -32.5371 -28.1771 -27.3803 1.5113 -3.6240 31.2127
#
#
#
# Elastic Compliance Matrix: (Units=1/GPa)
#
#
# Indices 1 2 3 4 5 6 
#
# 1 0.012461 0.015027 -0.004494 0.006638 -0.004483 0.021771
# 2 0.015027 0.087092 -0.011321 0.006287 -0.006847 0.083255
# 3 -0.004494 -0.011321 0.018437 -0.002855 -0.000945 0.001296
# 4 0.006638 0.006287 -0.002855 0.040618 0.006559 0.008885
# 5 -0.004483 -0.006847 -0.000945 0.006559 0.022699 -0.009366
# 6 0.021771 0.083255 0.001296 0.008885 -0.009366 0.129510
#
#
# Mechanical properties :
#
#
# Convention : Reuss Voigt Hill
#
# Bulk Modulus (GPa) = 8.59019 52.49163 30.54091
# Shear Modulus (GPa) = 14.23694 36.27744 25.25719
#
# Velocity S-wave (km/s) = 2.47214 3.94623 3.29274
# Velocity P-wave (km/s) = 3.44037 6.58002 5.25037
#
# Compressibility (1/GPa) = 0.11641184
#
# Stress axis : x y z
#
# Youngs Moduli (GPa) = 80.24876 11.48215 54.23910
#
# Poissons Ratio (x) = -0.17254 0.24376
# Poissons Ratio (y) = -1.20586 0.61406
# Poissons Ratio (z) = 0.36065 0.12999
#
# Static dielectric constant tensor:
#      x y z
#    x 2.250260 0.019180 0.061390 
#    y 0.019180 2.013210 0.054960 
#    z 0.061390 0.054960 1.977410 
# 
# From -- ./inp_files/320657.got.cif
#   From: 2010.05.17/outbox.cif.g08.bks.cpg/sg2_161_cif.got.tgz:320657.got - 2010.06.03 11:33:40.
