data_PCOD9100457
_publ_section_title
;
Structure prediction by ZEFSAII (Michael W. Deem and Ramdas Pophale) SiO2 
 PCOD9100457
Probable space group: P -1
;
_chemical_formula_sum "Si O2"
_cell_formula_units_Z 16
_cell_length_a 12.527645
_cell_length_b 9.286668
_cell_length_c 7.511763
_cell_angle_alpha 75.863266
_cell_angle_beta 111.579550
_cell_angle_gamma 133.117064
_cell_volume 593.178475
_symmetry_space_group_name_H-M "P -1"
_symmetry_group_IT_number 2
_symmetry_cell_setting 'triclinic'
loop_
_space_group_symop_operation_xyz
x,y,z
-x,-y,-z
loop_
_atom_site_type_symbol
_atom_site_label
_atom_site_fract_x
_atom_site_fract_y
_atom_site_fract_z
Si Si1 0.019392 0.133669 0.315642
Si Si2 0.314468 0.488180 0.541579
Si Si3 0.808652 0.461785 0.224726
Si Si4 0.496863 0.632559 0.284899
Si Si5 0.838941 0.223825 0.569170
Si Si6 0.818372 0.368181 0.884434
Si Si7 0.246563 0.159690 0.226421
Si Si8 0.299480 0.028667 0.939808
O O1 0.151815 0.360823 0.382576
O O2 0.088360 0.106220 0.196913
O O3 0.000000 0.000000 0.500000
O O4 0.862640 0.083893 0.219664
O O5 0.305257 0.542518 0.717335
O O6 0.434815 0.653225 0.422701
O O7 0.353279 0.345760 0.612844
O O8 0.802249 0.287649 0.351045
O O9 0.786769 0.460289 0.999549
O O10 0.980816 0.656501 0.327662
O O11 0.374012 0.397486 0.244321
O O12 0.552439 0.798169 0.128611
O O13 0.755664 0.994763 0.609924
O O14 0.805289 0.311191 0.683575
O O15 0.703864 0.141988 0.950464
O O16 0.000000 0.500000 0.000000
O O17 0.274940 0.117497 0.063726
#
# Coordination Sequence:
#
# PCOD9100457 Si02
#       8
#     2   2   2   2   2   2   2   2
#     4  11  21  34  62  93 119 152 206 258 305 359
#     4  10  22  38  58  94 123 158 209 249 300 369
#     4  10  20  37  64  89 121 165 205 252 314 360
#     4  10  22  41  60  85 127 165 200 249 302 372
#     4   9  20  36  61  93 126 153 205 259 309 361
#     4   9  21  38  58  93 125 154 197 261 308 357
#     4  10  22  40  59  88 126 160 200 253 309 365
#     4  11  22  39  63  89 121 160 204 251 313 360
#
# _framework density 26.973333
#
# number of rings (size 3 to 8) (size 9 to 14) (size 15 to 20)
#    0.000    2.000    1.250    1.500    7.000    0.000 
#    2.250    3.750    0.000    3.000    0.000    0.000 
#    0.000    0.000    0.000    0.000    0.000    0.000 
#
# Total GULP energy -89413.932419 kJ/mol
# GULP energy per Si atom -5588.370776 kJ/mol
# Density = 2.691194 g / cm^3
# Si number density = 26.973333 Si / 1000 Ang^3
#
#
#
# Elastic Constant Matrix: (Units=GPa)
#
#
# Indices 1 2 3 4 5 6 
#
# 1 126.4174 49.7661 30.9180 8.5658 -47.9434 -3.4682
# 2 49.7661 131.5125 25.0904 -20.9938 -16.5851 2.9532
# 3 30.9180 25.0904 104.7891 1.1199 -47.1593 -1.9293
# 4 8.5658 -20.9938 1.1199 44.2858 -3.5901 -12.2474
# 5 -47.9434 -16.5851 -47.1593 -3.5901 57.6969 3.1023
# 6 -3.4682 2.9532 -1.9293 -12.2474 3.1023 43.6557
#
#
#
# Elastic Compliance Matrix: (Units=1/GPa)
#
#
# Indices 1 2 3 4 5 6 
#
# 1 0.014131 -0.004975 0.002517 -0.004311 0.012128 -0.000501
# 2 -0.004975 0.010530 -0.002297 0.005979 -0.002648 0.000656
# 3 0.002517 -0.002297 0.015788 -0.000874 0.014292 -0.000208
# 4 -0.004311 0.005979 -0.000874 0.028164 -0.001212 0.007202
# 5 0.012128 -0.002648 0.014292 -0.001212 0.038325 -0.001289
# 6 -0.000501 0.000656 -0.000208 0.007202 -0.001289 0.024925
#
#
# Mechanical properties :
#
#
# Convention : Reuss Voigt Hill
#
# Bulk Modulus (GPa) = 32.32108 63.80756 48.06432
# Shear Modulus (GPa) = 32.96254 46.25731 39.60993
#
# Velocity S-wave (km/s) = 3.49956 4.14566 3.83624
# Velocity P-wave (km/s) = 5.32333 6.82807 6.12211
#
# Compressibility (1/GPa) = 0.03093956
#
# Stress axis : x y z
#
# Youngs Moduli (GPa) = 70.76584 94.96230 63.33907
#
# Poissons Ratio (x) = 0.47243 -0.15941
# Poissons Ratio (y) = 0.35206 0.14548
# Poissons Ratio (z) = -0.17810 0.21811
#
# Static dielectric constant tensor:
#      x y z
#    x 2.182450 -0.060250 0.165200 
#    y -0.060250 2.223920 -0.136650 
#    z 0.165200 -0.136650 2.457110 
# 
# From -- ./inp_files/190847.got.cif
#   From: 2010.05.17/outbox.cif.g08.bks.cpg/sg2_96_cif.got.tgz:190847.got - 2010.06.03 11:33:40.
