data_PCOD9100904
_publ_section_title
;
Structure prediction by ZEFSAII (Michael W. Deem and Ramdas Pophale) SiO2 
 PCOD9100904
Probable space group: P -1
;
_chemical_formula_sum "Si O2"
_cell_formula_units_Z 14
_cell_length_a 13.879338
_cell_length_b 9.689710
_cell_length_c 8.070221
_cell_angle_alpha 81.013367
_cell_angle_beta 54.693648
_cell_angle_gamma 44.127518
_cell_volume 549.091258
_symmetry_space_group_name_H-M "P -1"
_symmetry_group_IT_number 2
_symmetry_cell_setting 'triclinic'
loop_
_space_group_symop_operation_xyz
x,y,z
-x,-y,-z
loop_
_atom_site_type_symbol
_atom_site_label
_atom_site_fract_x
_atom_site_fract_y
_atom_site_fract_z
Si Si1 0.099003 0.079285 0.450226
Si Si2 0.580526 0.127008 0.041569
Si Si3 0.084712 0.341848 0.790086
Si Si4 0.356000 0.891521 0.527400
Si Si5 0.231919 0.493910 0.509256
Si Si6 0.865024 0.160841 0.257270
Si Si7 0.677034 0.712993 0.041922
O O1 0.222955 0.053310 0.467236
O O2 0.911929 0.321033 0.523427
O O3 0.061937 0.976771 0.617349
O O4 0.250180 0.931744 0.178240
O O5 0.451343 0.308635 0.281471
O O6 0.660953 0.896030 0.026999
O O7 0.429970 0.246759 0.019404
O O8 0.232547 0.088339 0.745672
O O9 0.196493 0.361852 0.583343
O O10 0.893144 0.468344 0.870428
O O11 0.000000 0.500000 0.000000
O O12 0.323801 0.757007 0.600576
O O13 0.557827 0.764444 0.306765
O O14 0.173470 0.644231 0.695479
O O15 0.000000 0.000000 0.000000
#
# Coordination Sequence:
#
# PCOD9100904 Si02
#       7
#     2   2   2   2   2   2   2
#     4   9  21  40  65  92 124 169 208 263 316 369
#     4  10  20  37  66  98 124 160 215 266 312 368
#     4  12  24  37  63  95 128 171 208 255 321 379
#     4   9  21  41  61  91 122 167 208 252 320 366
#     4  12  22  39  67  95 127 167 215 263 310 379
#     4  10  23  44  63  89 133 170 210 259 321 383
#     4  10  20  39  61  93 132 157 204 267 313 369
#
# _framework density 25.496672
#
# number of rings (size 3 to 8) (size 9 to 14) (size 15 to 20)
#    0.857    0.857    2.857    2.143    0.000    2.286 
#    0.000    0.000    0.000    5.143    0.000    0.000 
#    0.000    0.000    0.000    0.000    0.000    0.000 
#
# Total GULP energy -78265.717208 kJ/mol
# GULP energy per Si atom -5590.408372 kJ/mol
# Density = 2.543864 g / cm^3
# Si number density = 25.496672 Si / 1000 Ang^3
#
#
#
# Elastic Constant Matrix: (Units=GPa)
#
#
# Indices 1 2 3 4 5 6 
#
# 1 97.6432 40.3008 32.3502 8.7983 -16.9992 13.9203
# 2 40.3008 104.6593 34.7739 19.3621 -19.2201 -12.3391
# 3 32.3502 34.7739 169.8944 19.9334 -21.7888 3.3850
# 4 8.7983 19.3621 19.9334 38.6225 4.6576 -8.4469
# 5 -16.9992 -19.2201 -21.7888 4.6576 43.7207 6.0019
# 6 13.9203 -12.3391 3.3850 -8.4469 6.0019 36.5390
#
#
#
# Elastic Compliance Matrix: (Units=1/GPa)
#
#
# Indices 1 2 3 4 5 6 
#
# 1 0.014942 -0.005154 -0.000654 -0.002990 0.004751 -0.008844
# 2 -0.005154 0.013955 -0.001001 -0.004592 0.003415 0.005146
# 3 -0.000654 -0.001001 0.007195 -0.003998 0.003630 -0.002276
# 4 -0.002990 -0.004592 -0.003998 0.034246 -0.010132 0.009540
# 5 0.004751 0.003415 0.003630 -0.010132 0.030249 -0.008304
# 6 -0.008844 0.005146 -0.002276 0.009540 -0.008304 0.036255
#
#
# Mechanical properties :
#
#
# Convention : Reuss Voigt Hill
#
# Bulk Modulus (GPa) = 44.49199 65.22739 54.85969
# Shear Modulus (GPa) = 31.65492 41.42793 36.54142
#
# Velocity S-wave (km/s) = 3.52736 4.03530 3.78985
# Velocity P-wave (km/s) = 5.83761 6.88112 6.38073
#
# Compressibility (1/GPa) = 0.02247595
#
# Stress axis : x y z
#
# Youngs Moduli (GPa) = 66.92322 71.65796 138.97722
#
# Poissons Ratio (x) = 0.36930 0.09091
# Poissons Ratio (y) = 0.34490 0.13910
# Poissons Ratio (z) = 0.04378 0.07172
#
# Static dielectric constant tensor:
#      x y z
#    x 2.187830 -0.041110 0.094530 
#    y -0.041110 1.995830 -0.028190 
#    z 0.094530 -0.028190 2.129530 
# 
# From -- ./inp_files/331885.got.cif
#   From: 2010.05.17/outbox.cif.g08.bks.cpg/sg2_166_cif.got.tgz:331885.got - 2010.06.03 11:33:40.
