data_PCOD9100213
_publ_section_title
;
Structure prediction by ZEFSAII (Michael W. Deem and Ramdas Pophale) SiO2 
 PCOD9100213
Probable space group: P -1
;
_chemical_formula_sum "Si O2"
_cell_formula_units_Z 14
_cell_length_a 7.867814
_cell_length_b 7.316773
_cell_length_c 12.809028
_cell_angle_alpha 120.991679
_cell_angle_beta 123.322580
_cell_angle_gamma 59.544448
_cell_volume 501.695591
_symmetry_space_group_name_H-M "P -1"
_symmetry_group_IT_number 2
_symmetry_cell_setting 'triclinic'
loop_
_space_group_symop_operation_xyz
x,y,z
-x,-y,-z
loop_
_atom_site_type_symbol
_atom_site_label
_atom_site_fract_x
_atom_site_fract_y
_atom_site_fract_z
Si Si1 0.416177 0.124021 0.901456
Si Si2 0.287919 0.735862 0.681547
Si Si3 0.535376 0.172682 0.449188
Si Si4 0.937063 0.470521 0.161693
Si Si5 0.078716 0.214410 0.553834
Si Si6 0.795622 0.971870 0.814617
Si Si7 0.685786 0.390731 0.764548
O O1 0.248259 0.992709 0.773831
O O2 0.610922 0.049036 0.863146
O O3 0.282019 0.385726 0.926480
O O4 0.500000 0.000000 0.000000
O O5 0.404679 0.713861 0.601316
O O6 0.455502 0.571335 0.767378
O O7 0.069134 0.693932 0.568661
O O8 0.298935 0.167326 0.343314
O O9 0.619458 0.273475 0.606064
O O10 0.673906 0.908911 0.421176
O O11 0.985413 0.207792 0.124981
O O12 0.143840 0.483910 0.170992
O O13 0.940611 0.607618 0.309736
O O14 0.000000 0.000000 0.500000
O O15 0.799306 0.197131 0.826695
#
# Coordination Sequence:
#
# PCOD9100213 Si02
#       7
#     2   2   2   2   2   2   2
#     4  11  24  46  68  88 123 168 212 261 314 369
#     4  10  18  36  62  91 125 166 203 251 309 366
#     4  10  17  35  57  93 134 164 199 249 307 374
#     4  12  21  43  68  88 130 167 201 258 319 372
#     4  10  16  31  64  91 122 167 205 241 307 382
#     4  11  25  41  60 100 127 161 214 257 309 375
#     4  12  21  37  66  95 131 164 205 258 313 373
#
# _framework density 27.905369
#
# number of rings (size 3 to 8) (size 9 to 14) (size 15 to 20)
#    0.000    1.143   10.000    1.714    0.000    0.571 
#    5.143    2.857    0.000    0.000    0.000    0.000 
#    0.000    0.000    0.000    0.000    0.000    0.000 
#
# Total GULP energy -78477.751425 kJ/mol
# GULP energy per Si atom -5605.553673 kJ/mol
# Density = 2.784186 g / cm^3
# Si number density = 27.905369 Si / 1000 Ang^3
#
#
#
# Elastic Constant Matrix: (Units=GPa)
#
#
# Indices 1 2 3 4 5 6 
#
# 1 67.2823 31.8389 21.4987 -8.8050 -1.9639 2.9824
# 2 31.8389 237.6666 48.2622 -44.3441 1.2899 -18.2569
# 3 21.4987 48.2622 113.8637 -32.4953 10.0210 -0.5122
# 4 -8.8050 -44.3441 -32.4953 53.0767 -1.5382 9.9064
# 5 -1.9639 1.2899 10.0210 -1.5382 28.6001 -8.3961
# 6 2.9824 -18.2569 -0.5122 9.9064 -8.3961 45.7669
#
#
#
# Elastic Compliance Matrix: (Units=1/GPa)
#
#
# Indices 1 2 3 4 5 6 
#
# 1 0.016658 -0.001846 -0.002509 0.000023 0.001652 -0.001552
# 2 -0.001846 0.005405 -0.001062 0.003265 0.000671 0.001681
# 3 -0.002509 -0.001062 0.011897 0.006282 -0.004641 -0.002338
# 4 0.000023 0.003265 0.006282 0.026235 -0.002326 -0.004734
# 5 0.001652 0.000671 -0.004641 -0.002326 0.038819 0.007733
# 6 -0.001552 0.001681 -0.002338 -0.004734 0.007733 0.025039
#
#
# Mechanical properties :
#
#
# Convention : Reuss Voigt Hill
#
# Bulk Modulus (GPa) = 43.24014 69.11247 56.17631
# Shear Modulus (GPa) = 35.06421 46.63626 40.85023
#
# Velocity S-wave (km/s) = 3.54862 4.09250 3.83022
# Velocity P-wave (km/s) = 5.68499 6.86673 6.30361
#
# Compressibility (1/GPa) = 0.02312666
#
# Stress axis : x y z
#
# Youngs Moduli (GPa) = 60.03162 185.00468 84.05404
#
# Poissons Ratio (x) = 0.34154 0.21085
# Poissons Ratio (y) = 0.11082 0.08928
# Poissons Ratio (z) = 0.15059 0.19650
#
# Static dielectric constant tensor:
#      x y z
#    x 2.183860 -0.015730 -0.029860 
#    y -0.015730 2.204820 -0.016840 
#    z -0.029860 -0.016840 2.257770 
# 
# From -- ./inp_files/379622.got.cif
#   From: 2010.05.17/outbox.cif.g08.bks.cpg/sg2_190_cif.got.tgz:379622.got - 2010.06.03 11:33:40.
