data_PCOD9100199
_publ_section_title
;
Structure prediction by ZEFSAII (Michael W. Deem and Ramdas Pophale) SiO2 
 PCOD9100199
Probable space group: P -1
;
_chemical_formula_sum "Si O2"
_cell_formula_units_Z 12
_cell_length_a 7.120308
_cell_length_b 18.792211
_cell_length_c 9.921402
_cell_angle_alpha 30.245450
_cell_angle_beta 107.669946
_cell_angle_gamma 125.491267
_cell_volume 476.786553
_symmetry_space_group_name_H-M "P -1"
_symmetry_group_IT_number 2
_symmetry_cell_setting 'triclinic'
loop_
_space_group_symop_operation_xyz
x,y,z
-x,-y,-z
loop_
_atom_site_type_symbol
_atom_site_label
_atom_site_fract_x
_atom_site_fract_y
_atom_site_fract_z
Si Si1 0.795841 0.714024 0.321008
Si Si2 0.495741 0.695294 0.038408
Si Si3 0.689818 0.952229 0.205132
Si Si4 0.785331 0.745533 0.754723
Si Si5 0.200164 0.806913 0.911497
Si Si6 0.318355 0.584916 0.617565
O O1 0.713814 0.730532 0.127303
O O2 0.754865 0.527347 0.630518
O O3 0.567778 0.666775 0.444121
O O4 0.093319 0.904105 0.093499
O O5 0.592707 0.719755 0.867867
O O6 0.412870 0.810329 0.879391
O O7 0.784715 0.848295 0.461585
O O8 0.399260 0.775756 0.377723
O O9 0.698494 0.071440 0.130805
O O10 0.072282 0.864870 0.691440
O O11 0.706317 0.542182 0.058400
O O12 0.945947 0.582931 0.244721
#
# Coordination Sequence:
#
# PCOD9100199 Si02
#       6
#     2   2   2   2   2   2
#     4  10  20  37  63  87 118 159 195 245 293 349
#     4  10  20  41  62  88 118 157 201 237 299 350
#     4  12  20  39  63  90 121 153 199 244 294 350
#     4   9  21  41  61  88 119 158 194 243 296 345
#     4  10  22  38  66  85 119 159 194 245 292 350
#     4   9  22  39  59  90 118 160 195 238 298 347
#
# _framework density 25.168496000000001
#
# number of rings (size 3 to 8) (size 9 to 14) (size 15 to 20)
#    1.000    1.000    1.667    2.500    0.000    3.333 
#    0.000    7.500    0.000    0.000    0.000    0.000 
#    0.000    0.000    0.000    0.000    0.000    0.000 
#
# Total GULP energy -67057.848796 kJ/mol
# GULP energy per Si atom -5588.154066 kJ/mol
# Density = 2.511121 g / cm^3
# Si number density = 25.168496 Si / 1000 Ang^3
#
#
#
# Elastic Constant Matrix: (Units=GPa)
#
#
# Indices 1 2 3 4 5 6 
#
# 1 103.1411 10.3410 33.7223 -9.4204 8.3896 -23.6136
# 2 10.3410 68.1334 34.7084 -27.8739 5.0776 -7.7432
# 3 33.7223 34.7084 138.6248 -34.4681 -18.5567 8.2434
# 4 -9.4204 -27.8739 -34.4681 68.3798 7.4030 12.5300
# 5 8.3896 5.0776 -18.5567 7.4030 28.2173 6.4821
# 6 -23.6136 -7.7432 8.2434 12.5300 6.4821 28.5181
#
#
#
# Elastic Compliance Matrix: (Units=1/GPa)
#
#
# Indices 1 2 3 4 5 6 
#
# 1 0.021152 0.006431 -0.012264 -0.003707 -0.021262 0.029267
# 2 0.006431 0.023681 -0.009706 0.004510 -0.017546 0.016567
# 3 -0.012264 -0.009706 0.018623 0.006098 0.021978 -0.025848
# 4 -0.003707 0.004510 0.006098 0.021281 0.001788 -0.013365
# 5 -0.021262 -0.017546 0.021978 0.001788 0.069300 -0.045259
# 6 0.029267 0.016567 -0.025848 -0.013365 -0.045259 0.087429
#
#
# Mechanical properties :
#
#
# Convention : Reuss Voigt Hill
#
# Bulk Modulus (GPa) = 30.88555 51.93810 41.41182
# Shear Modulus (GPa) = 17.64693 40.43153 29.03923
#
# Velocity S-wave (km/s) = 2.65080 4.01238 3.40044
# Velocity P-wave (km/s) = 4.65480 6.49204 5.64862
#
# Compressibility (1/GPa) = 0.03237760
#
# Stress axis : x y z
#
# Youngs Moduli (GPa) = 47.27707 42.22793 53.69816
#
# Poissons Ratio (x) = -0.27157 0.65856
# Poissons Ratio (y) = -0.30405 0.52119
# Poissons Ratio (z) = 0.57981 0.40986
#
# Static dielectric constant tensor:
#      x y z
#    x 1.951620 0.022080 0.026540 
#    y 0.022080 2.063980 -0.058920 
#    z 0.026540 -0.058920 2.039070 
# 
# From -- ./inp_files/263396.got.cif
#   From: 2010.05.17/outbox.cif.g08.bks.cpg/sg2_132_cif.got.tgz:263396.got - 2010.06.03 11:33:40.
