data_PCOD9100695
_publ_section_title
;
Structure prediction by ZEFSAII (Michael W. Deem and Ramdas Pophale) SiO2 
 PCOD9100695
Probable space group: P -1
;
_chemical_formula_sum "Si O2"
_cell_formula_units_Z 16
_cell_length_a 20.769872
_cell_length_b 15.341970
_cell_length_c 5.463861
_cell_angle_alpha 97.521195
_cell_angle_beta 82.573239
_cell_angle_gamma 156.657823
_cell_volume 683.728964
_symmetry_space_group_name_H-M "P -1"
_symmetry_group_IT_number 2
_symmetry_cell_setting 'triclinic'
loop_
_space_group_symop_operation_xyz
x,y,z
-x,-y,-z
loop_
_atom_site_type_symbol
_atom_site_label
_atom_site_fract_x
_atom_site_fract_y
_atom_site_fract_z
Si Si1 0.455327 0.631644 0.933867
Si Si2 0.601917 0.254358 0.816816
Si Si3 0.001412 0.148701 0.621356
Si Si4 0.186777 0.965840 0.975628
Si Si5 0.142192 0.158643 0.792664
Si Si6 0.437120 0.077901 0.322942
Si Si7 0.078931 0.408717 0.405858
Si Si8 0.922830 0.341128 0.779269
O O1 0.324905 0.393161 0.882360
O O2 0.509583 0.754162 0.706885
O O3 0.370920 0.606268 0.117657
O O4 0.619666 0.800830 0.040372
O O5 0.507642 0.128956 0.560223
O O6 0.770689 0.412295 0.783709
O O7 0.502332 0.109908 0.058590
O O8 0.121863 0.219966 0.656642
O O9 0.104446 0.361128 0.567605
O O10 0.894641 0.973476 0.393585
O O11 0.885672 0.037836 0.857689
O O12 0.091396 0.827899 0.723376
O O13 0.131438 0.815311 0.114552
O O14 0.000000 0.000000 0.000000
O O15 0.243606 0.833246 0.322365
O O16 0.053609 0.469909 0.567427
O O17 0.000000 0.500000 0.000000
#
# Coordination Sequence:
#
# PCOD9100695 Si02
#       8
#     2   2   2   2   2   2   2   2
#     4   9  20  35  61  84 128 164 214 257 322 367
#     4  10  20  37  65  91 125 169 215 263 311 384
#     4  10  22  36  58  86 125 157 218 258 315 380
#     4  10  21  40  61  90 117 170 210 258 317 393
#     4  11  21  37  57  90 120 164 207 272 314 371
#     4   9  21  40  62  94 127 168 216 256 323 382
#     4  11  22  39  67  89 125 168 216 260 323 387
#     4  10  23  42  66  93 128 166 210 266 323 386
#
# _framework density 23.401085999999999
#
# number of rings (size 3 to 8) (size 9 to 14) (size 15 to 20)
#    0.750    1.250    0.000    3.750    3.500    2.000 
#    0.000    3.750    0.000    0.000    0.000    0.000 
#    0.000    0.000    0.000    0.000    0.000    0.000 
#
# Total GULP energy -89402.261286 kJ/mol
# GULP energy per Si atom -5587.641330 kJ/mol
# Density = 2.334782 g / cm^3
# Si number density = 23.401086 Si / 1000 Ang^3
#
#
#
# Elastic Constant Matrix: (Units=GPa)
#
#
# Indices 1 2 3 4 5 6 
#
# 1 61.3197 36.7207 22.7765 4.7110 -31.2761 0.6490
# 2 36.7207 82.3604 20.0897 9.7343 -9.1998 0.0760
# 3 22.7765 20.0897 106.0139 14.4909 -24.3641 -6.8328
# 4 4.7110 9.7343 14.4909 33.9272 1.8058 5.3567
# 5 -31.2761 -9.1998 -24.3641 1.8058 42.0512 -5.5455
# 6 0.6490 0.0760 -6.8328 5.3567 -5.5455 21.0221
#
#
#
# Elastic Compliance Matrix: (Units=1/GPa)
#
#
# Indices 1 2 3 4 5 6 
#
# 1 0.038527 -0.013953 0.002032 -0.005004 0.028076 0.008203
# 2 -0.013953 0.018209 -0.002159 -0.001634 -0.007837 -0.001988
# 3 0.002032 -0.002159 0.013324 -0.007294 0.010237 0.008835
# 4 -0.005004 -0.001634 -0.007294 0.036700 -0.011817 -0.014679
# 5 0.028076 -0.007837 0.010237 -0.011817 0.051918 0.019196
# 6 0.008203 -0.001988 0.008835 -0.014679 0.019196 0.058999
#
#
# Mechanical properties :
#
#
# Convention : Reuss Voigt Hill
#
# Bulk Modulus (GPa) = 23.86606 45.42975 34.64791
# Shear Modulus (GPa) = 19.24533 30.74057 24.99295
#
# Velocity S-wave (km/s) = 2.87088 3.62835 3.27161
# Velocity P-wave (km/s) = 4.60545 6.08349 5.39532
#
# Compressibility (1/GPa) = 0.04190050
#
# Stress axis : x y z
#
# Youngs Moduli (GPa) = 25.95612 54.91826 75.05038
#
# Poissons Ratio (x) = 0.76627 -0.15249
# Poissons Ratio (y) = 0.36216 0.16201
# Poissons Ratio (z) = -0.05274 0.11855
#
# Static dielectric constant tensor:
#      x y z
#    x 1.914160 -0.033460 0.053090 
#    y -0.033460 1.879600 -0.013830 
#    z 0.053090 -0.013830 1.965800 
# 
# From -- ./inp_files/124799.got.cif
#   From: 2010.05.17/outbox.cif.g08.bks.cpg/sg2_63_cif.got.tgz:124799.got - 2010.06.03 11:33:40.
