data_PCOD9100016
_publ_section_title
;
Structure prediction by ZEFSAII (Michael W. Deem and Ramdas Pophale) SiO2 
 PCOD9100016
Probable space group: P -1
;
_chemical_formula_sum "Si O2"
_cell_formula_units_Z 12
_cell_length_a 12.327532
_cell_length_b 6.675327
_cell_length_c 8.983175
_cell_angle_alpha 109.193846
_cell_angle_beta 75.616700
_cell_angle_gamma 135.242627
_cell_volume 491.437368
_symmetry_space_group_name_H-M "P -1"
_symmetry_group_IT_number 2
_symmetry_cell_setting 'triclinic'
loop_
_space_group_symop_operation_xyz
x,y,z
-x,-y,-z
loop_
_atom_site_type_symbol
_atom_site_label
_atom_site_fract_x
_atom_site_fract_y
_atom_site_fract_z
Si Si1 0.976213 0.001129 0.685176
Si Si2 0.850644 0.170176 0.417760
Si Si3 0.456519 0.714550 0.871345
Si Si4 0.297738 0.514087 0.149629
Si Si5 0.411827 0.926003 0.665470
Si Si6 0.780589 0.102509 0.756644
O O1 0.815430 0.712545 0.739261
O O2 0.098057 0.990591 0.702073
O O3 0.942712 0.206626 0.773951
O O4 0.000000 0.000000 0.500000
O O5 0.748451 0.174061 0.342709
O O6 0.759953 0.022861 0.568805
O O7 0.000000 0.500000 0.500000
O O8 0.395927 0.701707 0.724833
O O9 0.623630 0.824717 0.824256
O O10 0.333920 0.455302 0.963188
O O11 0.500000 0.000000 0.000000
O O12 0.223710 0.649603 0.170427
O O13 0.467603 0.763440 0.219486
O O14 0.500000 0.000000 0.500000
#
# Coordination Sequence:
#
# PCOD9100016 Si02
#       6
#     2   2   2   2   2   2
#     4  10  21  32  54  82 107 146 179 219 272 327
#     4  11  18  32  55  82 111 140 177 225 270 316
#     4   8  17  32  57  80 105 141 182 222 268 314
#     4  10  19  37  58  79 109 144 179 226 271 312
#     4  10  16  31  59  82 104 140 187 223 259 321
#     4   9  17  33  54  79 105 139 185 218 265 321
#
# _framework density 24.418168000000001
#
# number of rings (size 3 to 8) (size 9 to 14) (size 15 to 20)
#    0.000    2.667    5.000    0.000    0.000    0.667 
#    0.000    4.167    7.333    9.000    0.000    0.000 
#    0.000    0.000    0.000    0.000    0.000    0.000 
#
# Total GULP energy -66843.587106 kJ/mol
# GULP energy per Si atom -5570.298926 kJ/mol
# Density = 2.436259 g / cm^3
# Si number density = 24.418168 Si / 1000 Ang^3
#
#
#
# Elastic Constant Matrix: (Units=GPa)
#
#
# Indices 1 2 3 4 5 6 
#
# 1 165.3356 16.7358 42.9886 -4.1705 -23.1596 23.0861
# 2 16.7358 84.6981 50.5656 -29.1734 2.4828 11.9668
# 3 42.9886 50.5656 115.6776 -42.5652 -0.3651 21.4798
# 4 -4.1705 -29.1734 -42.5652 48.0740 9.1337 -4.0579
# 5 -23.1596 2.4828 -0.3651 9.1337 38.5996 -2.9830
# 6 23.0861 11.9668 21.4798 -4.0579 -2.9830 22.0505
#
#
#
# Elastic Compliance Matrix: (Units=1/GPa)
#
#
# Indices 1 2 3 4 5 6 
#
# 1 0.008397 -0.000440 -0.003458 -0.004102 0.005604 -0.005181
# 2 -0.000440 0.017525 -0.004013 0.007349 -0.003497 -0.004262
# 3 -0.003458 -0.004013 0.018886 0.014184 -0.005827 -0.010777
# 4 -0.004102 0.007349 0.014184 0.039199 -0.012695 -0.008014
# 5 0.005604 -0.003497 -0.005827 -0.012695 0.032737 0.003800
# 6 -0.005181 -0.004262 -0.010777 -0.008014 0.003800 0.062625
#
#
# Mechanical properties :
#
#
# Convention : Reuss Voigt Hill
#
# Bulk Modulus (GPa) = 34.49899 65.14347 49.82123
# Shear Modulus (GPa) = 24.40788 38.77292 31.59040
#
# Velocity S-wave (km/s) = 3.16504 3.98913 3.60074
# Velocity P-wave (km/s) = 5.24554 6.92487 6.14286
#
# Compressibility (1/GPa) = 0.02898636
#
# Stress axis : x y z
#
# Youngs Moduli (GPa) = 119.09233 57.06107 52.94984
#
# Poissons Ratio (x) = 0.02511 0.18310
# Poissons Ratio (y) = 0.05240 0.21247
# Poissons Ratio (z) = 0.41181 0.22897
#
# Static dielectric constant tensor:
#      x y z
#    x 2.061840 -0.070920 0.081790 
#    y -0.070920 2.071110 -0.024830 
#    z 0.081790 -0.024830 2.059170 
# 
# From -- ./inp_files/239703.got.cif
#   From: 2010.05.17/outbox.cif.g08.bks.cpg/sg2_120_cif.got.tgz:239703.got - 2010.06.03 11:33:40.
