data_PCOD9100828
_publ_section_title
;
Structure prediction by ZEFSAII (Michael W. Deem and Ramdas Pophale) SiO2 
 PCOD9100828
Probable space group: P -1
;
_chemical_formula_sum "Si O2"
_cell_formula_units_Z 14
_cell_length_a 16.859753
_cell_length_b 18.860526
_cell_length_c 8.200481
_cell_angle_alpha 132.224851
_cell_angle_beta 122.235835
_cell_angle_gamma 21.233877
_cell_volume 655.949620
_symmetry_space_group_name_H-M "P -1"
_symmetry_group_IT_number 2
_symmetry_cell_setting 'triclinic'
loop_
_space_group_symop_operation_xyz
x,y,z
-x,-y,-z
loop_
_atom_site_type_symbol
_atom_site_label
_atom_site_fract_x
_atom_site_fract_y
_atom_site_fract_z
Si Si1 0.553677 0.673664 0.663217
Si Si2 0.941925 0.418402 0.857890
Si Si3 0.606001 0.502944 0.161029
Si Si4 0.098156 0.123502 0.063806
Si Si5 0.697651 0.736982 0.787125
Si Si6 0.354914 0.919655 0.371529
Si Si7 0.858384 0.540498 0.323806
O O1 0.742120 0.522579 0.776586
O O2 0.604983 0.531957 0.396099
O O3 0.586163 0.733663 0.666433
O O4 0.299785 0.909515 0.827072
O O5 0.856197 0.574491 0.869435
O O6 0.940658 0.461183 0.103229
O O7 0.179879 0.145980 0.640824
O O8 0.448684 0.732439 0.258779
O O9 0.874655 0.263492 0.030678
O O10 0.500000 0.500000 0.000000
O O11 0.997714 0.321324 0.214952
O O12 0.210636 0.028922 0.219227
O O13 0.826993 0.636525 0.602101
O O14 0.500000 0.000000 0.000000
O O15 0.581876 0.771597 0.352638
#
# Coordination Sequence:
#
# PCOD9100828 Si02
#       7
#     2   2   2   2   2   2   2
#     4  10  20  41  62  88 126 161 210 253 308 368
#     4  10  20  37  66  89 120 170 204 252 313 359
#     4  11  24  40  63  93 125 165 207 256 316 371
#     4  11  20  39  66  89 122 168 206 255 311 368
#     4  10  21  41  62  94 131 158 210 262 300 372
#     4  11  18  40  65  87 123 163 206 254 309 370
#     4  11  21  36  67  89 121 170 209 247 315 367
#
# _framework density 21.343101999999998
#
# number of rings (size 3 to 8) (size 9 to 14) (size 15 to 20)
#    0.857    0.571    7.143    0.857    0.000    1.714 
#    0.000    2.143    0.000    0.000    0.000    0.000 
#    0.000    0.000    0.000    0.000    0.000    0.000 
#
# Total GULP energy -78138.443576 kJ/mol
# GULP energy per Si atom -5581.317398 kJ/mol
# Density = 2.129452 g / cm^3
# Si number density = 21.343102 Si / 1000 Ang^3
#
#
#
# Elastic Constant Matrix: (Units=GPa)
#
#
# Indices 1 2 3 4 5 6 
#
# 1 299.2973 210.6656 96.4086 14.8059 52.2168 -154.4845
# 2 210.6656 249.4629 69.5857 8.7100 41.3687 -102.0946
# 3 96.4086 69.5857 167.4049 -1.8632 -17.7688 -37.1501
# 4 14.8059 8.7100 -1.8632 58.5740 -4.8508 -22.4407
# 5 52.2168 41.3687 -17.7688 -4.8508 57.4898 -43.5461
# 6 -154.4845 -102.0946 -37.1501 -22.4407 -43.5461 124.6926
#
#
#
# Elastic Compliance Matrix: (Units=1/GPa)
#
#
# Indices 1 2 3 4 5 6 
#
# 1 0.017243 -0.007790 -0.003519 0.002141 -0.000157 0.014267
# 2 -0.007790 0.010142 -0.000512 -0.000666 -0.002262 -0.002409
# 3 -0.003519 -0.000512 0.009212 0.002210 0.007286 0.000908
# 4 0.002141 -0.000666 0.002210 0.020953 0.008072 0.009356
# 5 -0.000157 -0.002262 0.007286 0.008072 0.031670 0.012638
# 6 0.014267 -0.002409 0.000908 0.009356 0.012638 0.030091
#
#
# Mechanical properties :
#
#
# Convention : Reuss Voigt Hill
#
# Bulk Modulus (GPa) = 77.18111 163.27610 120.22861
# Shear Modulus (GPa) = 33.95112 70.78494 52.36803
#
# Velocity S-wave (km/s) = 3.99272 5.76518 4.95878
# Velocity P-wave (km/s) = 7.58264 10.99923 9.44668
#
# Compressibility (1/GPa) = 0.01295654
#
# Stress axis : x y z
#
# Youngs Moduli (GPa) = 57.99489 98.60052 108.54961
#
# Poissons Ratio (x) = 0.76806 0.38198
# Poissons Ratio (y) = 0.45175 0.05555
# Poissons Ratio (z) = 0.20408 0.05046
#
# Static dielectric constant tensor:
#      x y z
#    x 1.856080 -0.088040 0.007790 
#    y -0.088040 1.840890 -0.056830 
#    z 0.007790 -0.056830 1.776350 
# 
# From -- ./inp_files/337829.got.cif
#   From: 2010.05.17/outbox.cif.g08.bks.cpg/sg2_169_cif.got.tgz:337829.got - 2010.06.03 11:33:40.
