data_PCOD9100088
_publ_section_title
;
Structure prediction by ZEFSAII (Michael W. Deem and Ramdas Pophale) SiO2 
 PCOD9100088
Probable space group: P -1
;
_chemical_formula_sum "Si O2"
_cell_formula_units_Z 16
_cell_length_a 18.653491
_cell_length_b 7.701554
_cell_length_c 9.546079
_cell_angle_alpha 61.644216
_cell_angle_beta 40.759662
_cell_angle_gamma 85.105409
_cell_volume 692.248847
_symmetry_space_group_name_H-M "P -1"
_symmetry_group_IT_number 2
_symmetry_cell_setting 'triclinic'
loop_
_space_group_symop_operation_xyz
x,y,z
-x,-y,-z
loop_
_atom_site_type_symbol
_atom_site_label
_atom_site_fract_x
_atom_site_fract_y
_atom_site_fract_z
Si Si1 0.262317 0.453611 0.947744
Si Si2 0.701007 0.773183 0.531294
Si Si3 0.844265 0.038051 0.595751
Si Si4 0.975076 0.505977 0.695565
Si Si5 0.888362 0.235732 0.170227
Si Si6 0.778628 0.549723 0.303959
Si Si7 0.574900 0.383163 0.091850
Si Si8 0.387445 0.873733 0.107087
O O1 0.169428 0.557370 0.058066
O O2 0.376586 0.580675 0.835422
O O3 0.180255 0.198647 0.220290
O O4 0.283768 0.447941 0.752741
O O5 0.803280 0.764920 0.277481
O O6 0.664507 0.615914 0.785327
O O7 0.755755 0.032654 0.392574
O O8 0.568419 0.674670 0.686555
O O9 0.909745 0.110951 0.318758
O O10 0.708500 0.027318 0.794684
O O11 0.932458 0.244563 0.484163
O O12 0.000000 0.500000 0.500000
O O13 0.983066 0.334820 0.861906
O O14 0.872020 0.447269 0.170662
O O15 0.685110 0.364802 0.619237
O O16 0.581897 0.183994 0.070260
O O17 0.500000 0.000000 0.000000
#
# Coordination Sequence:
#
# PCOD9100088 Si02
#       8
#     2   2   2   2   2   2   2   2
#     4  11  23  41  61  93 129 158 206 264 318 365
#     4  10  20  38  64  93 123 170 207 250 309 378
#     4  11  22  41  66  88 122 169 210 252 317 371
#     4  11  25  43  63  89 125 164 210 267 313 368
#     4  10  21  43  65  90 124 165 215 254 312 376
#     4   9  22  37  61  90 131 157 205 258 311 367
#     4  10  20  37  62  93 127 159 209 254 303 380
#     4  10  21  40  66  91 124 168 211 251 311 377
#
# _framework density 23.113076
#
# number of rings (size 3 to 8) (size 9 to 14) (size 15 to 20)
#    0.000    1.750    1.250    3.000    5.250    0.500 
#    0.000    3.750    0.000    0.000    0.000    0.000 
#    0.000    0.000    0.000    0.000    0.000    0.000 
#
# Total GULP energy -89300.339325 kJ/mol
# GULP energy per Si atom -5581.271208 kJ/mol
# Density = 2.306047 g / cm^3
# Si number density = 23.113076 Si / 1000 Ang^3
#
#
#
# Elastic Constant Matrix: (Units=GPa)
#
#
# Indices 1 2 3 4 5 6 
#
# 1 105.4531 17.5136 10.3289 9.7989 11.6224 13.9078
# 2 17.5136 62.0744 28.8155 6.5328 7.3945 4.1400
# 3 10.3289 28.8155 43.6435 15.0185 15.9838 5.6200
# 4 9.7989 6.5328 15.0185 32.4303 9.2917 -0.7704
# 5 11.6224 7.3945 15.9838 9.2917 43.2522 1.2470
# 6 13.9078 4.1400 5.6200 -0.7704 1.2470 30.5987
#
#
#
# Elastic Compliance Matrix: (Units=1/GPa)
#
#
# Indices 1 2 3 4 5 6 
#
# 1 0.010996 -0.003097 0.001996 -0.003063 -0.002363 -0.004927
# 2 -0.003097 0.024439 -0.017667 0.003543 0.002383 0.001338
# 3 0.001996 -0.017667 0.043721 -0.014473 -0.010377 -0.006489
# 4 -0.003063 0.003543 -0.014473 0.038685 -0.002879 0.004662
# 5 -0.002363 0.002383 -0.010377 -0.002879 0.027759 0.001454
# 6 -0.004927 0.001338 -0.006489 0.004662 0.001454 0.035989
#
#
# Mechanical properties :
#
#
# Convention : Reuss Voigt Hill
#
# Bulk Modulus (GPa) = 24.02629 36.05411 30.04020
# Shear Modulus (GPa) = 21.45931 31.55709 26.50820
#
# Velocity S-wave (km/s) = 3.05035 3.69905 3.39025
# Velocity P-wave (km/s) = 4.77743 5.82038 5.32451
#
# Compressibility (1/GPa) = 0.04162108
#
# Stress axis : x y z
#
# Youngs Moduli (GPa) = 90.93808 40.91893 22.87210
#
# Poissons Ratio (x) = 0.12671 -0.04565
# Poissons Ratio (y) = 0.28160 0.40408
# Poissons Ratio (z) = -0.18151 0.72292
#
# Static dielectric constant tensor:
#      x y z
#    x 1.930900 -0.045780 0.007800 
#    y -0.045780 2.027740 0.053820 
#    z 0.007800 0.053820 1.874010 
# 
# From -- ./inp_files/221793.got.cif
#   From: 2010.05.17/outbox.cif.g08.bks.cpg/sg2_111_cif.got.tgz:221793.got - 2010.06.03 11:33:40.
