data_PCOD9100334
_publ_section_title
;
Structure prediction by ZEFSAII (Michael W. Deem and Ramdas Pophale) SiO2 
 PCOD9100334
Probable space group: P -1
;
_chemical_formula_sum "Si O2"
_cell_formula_units_Z 16
_cell_length_a 8.202012
_cell_length_b 14.780973
_cell_length_c 12.812209
_cell_angle_alpha 141.529100
_cell_angle_beta 136.474038
_cell_angle_gamma 42.405307
_cell_volume 610.369597
_symmetry_space_group_name_H-M "P -1"
_symmetry_group_IT_number 2
_symmetry_cell_setting 'triclinic'
loop_
_space_group_symop_operation_xyz
x,y,z
-x,-y,-z
loop_
_atom_site_type_symbol
_atom_site_label
_atom_site_fract_x
_atom_site_fract_y
_atom_site_fract_z
Si Si1 0.534590 0.300855 0.422450
Si Si2 0.264340 0.223414 0.878484
Si Si3 0.593416 0.593213 0.212009
Si Si4 0.690597 0.931130 0.892678
Si Si5 0.128993 0.224619 0.582038
Si Si6 0.796304 0.160714 0.614634
Si Si7 0.384867 0.600159 0.747809
Si Si8 0.922742 0.929583 0.772541
O O1 0.351823 0.220822 0.219339
O O2 0.830317 0.248285 0.477533
O O3 0.569095 0.218420 0.477805
O O4 0.431123 0.484393 0.566665
O O5 0.281445 0.185694 0.727316
O O6 0.963152 0.267548 0.793248
O O7 0.412808 0.078976 0.896863
O O8 0.374443 0.354564 0.072985
O O9 0.374284 0.769571 0.296975
O O10 0.667295 0.485213 0.252396
O O11 0.835471 0.622980 0.307378
O O12 0.500000 0.500000 0.000000
O O13 0.761228 0.957745 0.828794
O O14 0.929538 0.955928 0.079490
O O15 0.218753 0.093672 0.415554
O O16 0.000000 0.000000 0.500000
O O17 0.152459 0.761635 0.756784
#
# Coordination Sequence:
#
# PCOD9100334 Si02
#       8
#     2   2   2   2   2   2   2   2
#     4  10  22  38  66  92 128 171 212 266 322 394
#     4  10  21  39  65  93 127 169 212 262 325 395
#     4  11  23  40  65 101 132 161 218 281 317 381
#     4  10  21  43  65  87 128 171 217 256 332 396
#     4  11  24  38  61  99 127 158 218 273 316 371
#     4  10  20  37  63  93 129 172 204 258 335 389
#     4  10  22  42  66  87 127 179 211 254 335 391
#     4  10  23  42  64  92 122 172 215 269 317 393
#
# _framework density 26.213626000000001
#
# number of rings (size 3 to 8) (size 9 to 14) (size 15 to 20)
#    0.000    1.750    2.500    1.500    1.750    5.000 
#    2.250    0.000    0.000    0.000    0.000    0.000 
#    0.000    0.000    0.000    0.000    0.000    0.000 
#
# Total GULP energy -89229.953468 kJ/mol
# GULP energy per Si atom -5576.872092 kJ/mol
# Density = 2.615396 g / cm^3
# Si number density = 26.213626 Si / 1000 Ang^3
#
#
#
# Elastic Constant Matrix: (Units=GPa)
#
#
# Indices 1 2 3 4 5 6 
#
# 1 98.5422 10.4705 76.4855 -1.3955 15.7929 3.3678
# 2 10.4705 65.3500 33.0068 3.4426 -2.2906 -0.8846
# 3 76.4855 33.0068 189.1469 -2.5150 24.0433 1.4386
# 4 -1.3955 3.4426 -2.5150 31.5355 -3.9383 -1.8512
# 5 15.7929 -2.2906 24.0433 -3.9383 60.3753 5.4739
# 6 3.3678 -0.8846 1.4386 -1.8512 5.4739 19.7270
#
#
#
# Elastic Compliance Matrix: (Units=1/GPa)
#
#
# Indices 1 2 3 4 5 6 
#
# 1 0.015008 0.000551 -0.005979 -0.000146 -0.001376 -0.001733
# 2 0.000551 0.017125 -0.003459 -0.001888 0.001736 0.000267
# 3 -0.005979 -0.003459 0.008566 0.000595 -0.002017 0.000856
# 4 -0.000146 -0.001888 0.000595 0.032304 0.001612 0.002481
# 5 -0.001376 0.001736 -0.002017 0.001612 0.018303 -0.004467
# 6 -0.001733 0.000267 0.000856 0.002481 -0.004467 0.052410
#
#
# Mechanical properties :
#
#
# Convention : Reuss Voigt Hill
#
# Bulk Modulus (GPa) = 43.61967 65.88497 54.75232
# Shear Modulus (GPa) = 29.56309 37.86597 33.71453
#
# Velocity S-wave (km/s) = 3.36188 3.80480 3.59018
# Velocity P-wave (km/s) = 5.63435 6.67012 6.17399
#
# Compressibility (1/GPa) = 0.02292544
#
# Stress axis : x y z
#
# Youngs Moduli (GPa) = 66.63325 58.39447 116.74182
#
# Poissons Ratio (x) = -0.03218 0.69795
# Poissons Ratio (y) = -0.03672 0.40381
# Poissons Ratio (z) = 0.39837 0.20199
#
# Static dielectric constant tensor:
#      x y z
#    x 2.385820 0.045410 -0.065550 
#    y 0.045410 2.061940 0.111250 
#    z -0.065550 0.111250 2.173370 
# 
# From -- ./inp_files/382774.got.cif
#   From: 2010.05.17/outbox.cif.g08.bks.cpg/sg2_192_cif.got.tgz:382774.got - 2010.06.03 11:33:40.
