data_PCOD9100722
_publ_section_title
;
Structure prediction by ZEFSAII (Michael W. Deem and Ramdas Pophale) SiO2 
 PCOD9100722
Probable space group: P -1
;
_chemical_formula_sum "Si O2"
_cell_formula_units_Z 16
_cell_length_a 11.781058
_cell_length_b 11.776312
_cell_length_c 11.951443
_cell_angle_alpha 141.271671
_cell_angle_beta 103.058760
_cell_angle_gamma 103.799906
_cell_volume 740.359095
_symmetry_space_group_name_H-M "P -1"
_symmetry_group_IT_number 2
_symmetry_cell_setting 'triclinic'
loop_
_space_group_symop_operation_xyz
x,y,z
-x,-y,-z
loop_
_atom_site_type_symbol
_atom_site_label
_atom_site_fract_x
_atom_site_fract_y
_atom_site_fract_z
Si Si1 0.419658 0.605918 0.085748
Si Si2 0.247898 0.361442 0.645300
Si Si3 0.073601 0.801786 0.636623
Si Si4 0.884974 0.233339 0.131246
Si Si5 0.815929 0.440417 0.887539
Si Si6 0.137068 0.865575 0.201949
Si Si7 0.441195 0.897193 0.029683
Si Si8 0.696575 0.096879 0.402643
O O1 0.270644 0.446151 0.843423
O O2 0.500000 0.500000 0.000000
O O3 0.335932 0.589528 0.164952
O O4 0.561545 0.885765 0.295192
O O5 0.385913 0.628368 0.823445
O O6 0.077791 0.240515 0.465640
O O7 0.259039 0.156853 0.479774
O O8 0.114687 0.873370 0.832059
O O9 0.216208 0.960639 0.699916
O O10 0.016792 0.530941 0.403984
O O11 0.715391 0.153351 0.020634
O O12 0.904737 0.161245 0.959636
O O13 0.806581 0.276369 0.856659
O O14 0.817587 0.330720 0.687468
O O15 0.981109 0.723611 0.136532
O O16 0.500000 0.000000 0.000000
O O17 0.589783 0.099839 0.296940
#
# Coordination Sequence:
#
# PCOD9100722 Si02
#       8
#     2   2   2   2   2   2   2   2
#     4  11  25  42  63  92 132 168 208 260 324 383
#     4  10  24  39  62  91 129 164 213 266 312 373
#     4  10  20  37  65  93 120 166 217 256 313 377
#     4  10  20  39  64  91 124 167 214 257 313 381
#     4  11  24  40  65  95 123 170 214 262 321 372
#     4  11  23  41  64  94 129 165 216 268 312 370
#     4  10  20  39  64  92 126 168 211 252 320 384
#     4  11  21  38  65  93 126 162 215 262 315 380
#
# _framework density 21.611134
#
# number of rings (size 3 to 8) (size 9 to 14) (size 15 to 20)
#    0.000    1.500    2.500    3.375    3.500    2.000 
#    0.000    0.625    0.000    0.000    0.000    0.000 
#    0.000    0.000    0.000    0.000    0.000    0.000 
#
# Total GULP energy -89204.915904 kJ/mol
# GULP energy per Si atom -5575.307244 kJ/mol
# Density = 2.156195 g / cm^3
# Si number density = 21.611134 Si / 1000 Ang^3
#
#
#
# Elastic Constant Matrix: (Units=GPa)
#
#
# Indices 1 2 3 4 5 6 
#
# 1 77.2387 24.4428 -0.6689 5.8261 7.1905 9.7503
# 2 24.4428 67.0035 15.5884 -13.3941 -5.3672 10.7023
# 3 -0.6689 15.5884 53.9492 -9.5608 -1.1376 -4.4054
# 4 5.8261 -13.3941 -9.5608 24.2310 -5.2195 4.8738
# 5 7.1905 -5.3672 -1.1376 -5.2195 28.9126 -2.5715
# 6 9.7503 10.7023 -4.4054 4.8738 -2.5715 30.8110
#
#
#
# Elastic Compliance Matrix: (Units=1/GPa)
#
#
# Indices 1 2 3 4 5 6 
#
# 1 0.017519 -0.009069 0.000718 -0.010402 -0.008007 -0.001314
# 2 -0.009069 0.024984 -0.004673 0.017839 0.009171 -0.008533
# 3 0.000718 -0.004673 0.021114 0.005052 0.001026 0.003702
# 4 -0.010402 0.017839 0.005052 0.061233 0.016216 -0.010515
# 5 -0.008007 0.009171 0.001026 0.016216 0.041282 0.000375
# 6 -0.001314 -0.008533 0.003702 -0.010515 0.000375 0.038059
#
#
# Mechanical properties :
#
#
# Convention : Reuss Voigt Hill
#
# Bulk Modulus (GPa) = 26.61822 30.76846 28.69334
# Shear Modulus (GPa) = 20.59625 27.37952 23.98789
#
# Velocity S-wave (km/s) = 3.09048 3.56324 3.33525
# Velocity P-wave (km/s) = 5.00783 5.58544 5.30450
#
# Compressibility (1/GPa) = 0.03756826
#
# Stress axis : x y z
#
# Youngs Moduli (GPa) = 57.08096 40.02609 47.36115
#
# Poissons Ratio (x) = 0.36299 -0.03400
# Poissons Ratio (y) = 0.51766 0.22134
# Poissons Ratio (z) = -0.04098 0.18706
#
# Static dielectric constant tensor:
#      x y z
#    x 1.794920 -0.008260 -0.008100 
#    y -0.008260 1.823320 0.012580 
#    z -0.008100 0.012580 1.822130 
# 
# From -- ./inp_files/239943.got.cif
#   From: 2010.05.17/outbox.cif.g08.bks.cpg/sg2_120_cif.got.tgz:239943.got - 2010.06.03 11:33:40.
