data_PCOD9100910
_publ_section_title
;
Structure prediction by ZEFSAII (Michael W. Deem and Ramdas Pophale) SiO2 
 PCOD9100910
Probable space group: P -1
;
_chemical_formula_sum "Si O2"
_cell_formula_units_Z 10
_cell_length_a 16.846428
_cell_length_b 5.070570
_cell_length_c 9.166896
_cell_angle_alpha 106.876366
_cell_angle_beta 36.306645
_cell_angle_gamma 88.677706
_cell_volume 395.404594
_symmetry_space_group_name_H-M "P -1"
_symmetry_group_IT_number 2
_symmetry_cell_setting 'triclinic'
loop_
_space_group_symop_operation_xyz
x,y,z
-x,-y,-z
loop_
_atom_site_type_symbol
_atom_site_label
_atom_site_fract_x
_atom_site_fract_y
_atom_site_fract_z
Si Si1 0.880397 0.215195 0.334278
Si Si2 0.395414 0.822156 0.130540
Si Si3 0.836594 0.876828 0.998223
Si Si4 0.746395 0.578528 0.328728
Si Si5 0.428916 0.812505 0.752486
O O1 0.762883 0.095522 0.540115
O O2 0.788780 0.529004 0.428674
O O3 0.987768 0.220876 0.307010
O O4 0.000000 0.000000 0.000000
O O5 0.500000 0.500000 0.000000
O O6 0.371971 0.766618 0.986472
O O7 0.500000 0.000000 0.000000
O O8 0.847884 0.649886 0.077304
O O9 0.764482 0.238208 0.209245
O O10 0.710849 0.903452 0.071596
O O11 0.580541 0.841010 0.571500
O O12 0.500000 0.500000 0.500000
#
# Coordination Sequence:
#
# PCOD9100910 Si02
#       5
#     2   2   2   2   2
#     4  10  23  43  70 103 142 186 233 294 355 419
#     4  12  28  46  73 108 142 188 244 290 349 435
#     4  10  22  37  65 100 133 179 230 283 350 409
#     4  10  20  37  66  98 132 182 231 274 346 424
#     4  10  23  44  72 102 145 185 236 291 361 416
#
# _framework density 25.29055
#
# number of rings (size 3 to 8) (size 9 to 14) (size 15 to 20)
#    0.000    1.600    2.000    1.200    5.600    7.200 
#    0.000    0.000    0.000   12.000    0.000    0.000 
#    0.000    0.000    0.000    0.000    0.000    0.000 
#
# Total GULP energy -55692.907795 kJ/mol
# GULP energy per Si atom -5569.290780 kJ/mol
# Density = 2.523299 g / cm^3
# Si number density = 25.290550 Si / 1000 Ang^3
#
#
#
# Elastic Constant Matrix: (Units=GPa)
#
#
# Indices 1 2 3 4 5 6 
#
# 1 124.7047 43.8577 52.8407 -3.7056 -42.1630 -42.2075
# 2 43.8577 132.8844 47.0769 -38.3389 -10.9871 -15.7920
# 3 52.8407 47.0769 172.9612 -27.4758 -25.3753 -3.2670
# 4 -3.7056 -38.3389 -27.4758 31.0203 -8.8086 -3.4518
# 5 -42.1630 -10.9871 -25.3753 -8.8086 71.3690 8.4351
# 6 -42.2075 -15.7920 -3.2670 -3.4518 8.4351 36.4729
#
#
#
# Elastic Compliance Matrix: (Units=1/GPa)
#
#
# Indices 1 2 3 4 5 6 
#
# 1 0.019706 -0.001780 -0.003823 0.001207 0.007793 0.020003
# 2 -0.001780 0.014514 0.000214 0.019369 0.003014 0.005380
# 3 -0.003823 0.000214 0.008294 0.007356 0.002029 -0.003361
# 4 0.001207 0.019369 0.007356 0.068092 0.013076 0.013863
# 5 0.007793 0.003014 0.002029 0.013076 0.020590 0.006981
# 6 0.020003 0.005380 -0.003361 0.013863 0.006981 0.052292
#
#
# Mechanical properties :
#
#
# Convention : Reuss Voigt Hill
#
# Bulk Modulus (GPa) = 31.50929 79.78900 55.64914
# Shear Modulus (GPa) = 24.40903 46.89077 35.64990
#
# Velocity S-wave (km/s) = 3.11005 4.31058 3.75855
# Velocity P-wave (km/s) = 5.03810 7.50947 6.39432
#
# Compressibility (1/GPa) = 0.03173667
#
# Stress axis : x y z
#
# Youngs Moduli (GPa) = 50.74690 68.90017 120.56918
#
# Poissons Ratio (x) = 0.12261 0.46092
# Poissons Ratio (y) = 0.09031 -0.02580
# Poissons Ratio (z) = 0.19400 -0.01475
#
# Static dielectric constant tensor:
#      x y z
#    x 2.344370 0.133840 0.108270 
#    y 0.133840 2.124310 0.210100 
#    z 0.108270 0.210100 2.228740 
# 
# From -- ./inp_files/61104.got.cif
#   From: 2010.05.17/outbox.cif.g08.bks.cpg/sg2_31_cif.got.tgz:61104.got - 2010.06.03 11:33:40.
