data_PCOD9100917
_publ_section_title
;
Structure prediction by ZEFSAII (Michael W. Deem and Ramdas Pophale) SiO2 
 PCOD9100917
Probable space group: P -1
;
_chemical_formula_sum "Si O2"
_cell_formula_units_Z 16
_cell_length_a 16.561779
_cell_length_b 11.545650
_cell_length_c 8.602274
_cell_angle_alpha 47.381517
_cell_angle_beta 63.423063
_cell_angle_gamma 34.092376
_cell_volume 652.371756
_symmetry_space_group_name_H-M "P -1"
_symmetry_group_IT_number 2
_symmetry_cell_setting 'triclinic'
loop_
_space_group_symop_operation_xyz
x,y,z
-x,-y,-z
loop_
_atom_site_type_symbol
_atom_site_label
_atom_site_fract_x
_atom_site_fract_y
_atom_site_fract_z
Si Si1 0.925253 0.980471 0.742015
Si Si2 0.080229 0.535089 0.817375
Si Si3 0.509861 0.908397 0.808098
Si Si4 0.778416 0.302602 0.092019
Si Si5 0.329128 0.722253 0.494239
Si Si6 0.908855 0.859278 0.173674
Si Si7 0.367092 0.019993 0.154856
Si Si8 0.810461 0.656213 0.453397
O O1 0.994619 0.813506 0.676679
O O2 0.059649 0.877325 0.810190
O O3 0.763125 0.257741 0.567497
O O4 0.889075 0.891890 0.976447
O O5 0.113391 0.467422 0.670092
O O6 0.238965 0.327105 0.955881
O O7 0.000000 0.500000 0.000000
O O8 0.545991 0.034160 0.722804
O O9 0.366696 0.114311 0.630415
O O10 0.655451 0.611648 0.891409
O O11 0.458453 0.894220 0.028179
O O12 0.699421 0.302799 0.288538
O O13 0.824157 0.129672 0.065124
O O14 0.500000 0.500000 0.500000
O O15 0.288130 0.964153 0.302577
O O16 0.839605 0.794448 0.357831
O O17 0.085541 0.602793 0.297236
#
# Coordination Sequence:
#
# PCOD9100917 Si02
#       8
#     2   2   2   2   2   2   2   2
#     4  12  24  44  68  98 137 183 224 285 336 404
#     4  11  18  36  73  94 122 167 233 276 334 382
#     4  10  21  41  67 100 138 170 224 284 346 397
#     4  12  26  43  70 106 139 181 225 284 345 412
#     4  12  25  42  69 104 135 173 231 284 345 402
#     4  11  25  44  68  94 144 186 233 268 344 416
#     4  10  20  37  66  99 134 169 216 285 345 397
#     4  10  23  42  68 102 130 184 232 283 333 413
#
# _framework density 24.525893
#
# number of rings (size 3 to 8) (size 9 to 14) (size 15 to 20)
#    0.000    1.000    5.000    2.250    0.000    1.500 
#    0.000    0.625    0.000    0.000    0.000    0.000 
#    0.000    0.000    0.000    0.000    0.000    0.000 
#
# Total GULP energy -89404.146563 kJ/mol
# GULP energy per Si atom -5587.759160 kJ/mol
# Density = 2.447007 g / cm^3
# Si number density = 24.525893 Si / 1000 Ang^3
#
#
#
# Elastic Constant Matrix: (Units=GPa)
#
#
# Indices 1 2 3 4 5 6 
#
# 1 110.0677 44.2216 9.3415 -12.9261 20.0600 -13.7504
# 2 44.2216 124.3149 27.5415 -21.0168 13.6403 -9.9017
# 3 9.3415 27.5415 74.5350 -4.9974 14.9086 -3.8852
# 4 -12.9261 -21.0168 -4.9974 33.3710 -10.5859 -3.8380
# 5 20.0600 13.6403 14.9086 -10.5859 29.6111 -4.7095
# 6 -13.7504 -9.9017 -3.8852 -3.8380 -4.7095 42.3388
#
#
#
# Elastic Compliance Matrix: (Units=1/GPa)
#
#
# Indices 1 2 3 4 5 6 
#
# 1 0.011969 -0.003479 0.001262 0.000893 -0.006415 0.002557
# 2 -0.003479 0.010999 -0.003419 0.005697 0.001334 0.001793
# 3 0.001262 -0.003419 0.015997 -0.001794 -0.007971 0.000029
# 4 0.000893 0.005697 -0.001794 0.038277 0.012360 0.006302
# 5 -0.006415 0.001334 -0.007971 0.012360 0.046538 0.003794
# 6 0.002557 0.001793 0.000029 0.006302 0.003794 0.025865
#
#
# Mechanical properties :
#
#
# Convention : Reuss Voigt Hill
#
# Bulk Modulus (GPa) = 36.11070 52.34744 44.22907
# Shear Modulus (GPa) = 29.38595 36.25173 32.81884
#
# Velocity S-wave (km/s) = 3.46520 3.84878 3.66201
# Velocity P-wave (km/s) = 5.54668 6.41411 5.99610
#
# Compressibility (1/GPa) = 0.02769262
#
# Stress axis : x y z
#
# Youngs Moduli (GPa) = 83.54621 90.91971 62.50996
#
# Poissons Ratio (x) = 0.31628 -0.07887
# Poissons Ratio (y) = 0.29063 0.21375
# Poissons Ratio (z) = -0.10541 0.31090
#
# Static dielectric constant tensor:
#      x y z
#    x 1.980220 -0.025830 -0.045520 
#    y -0.025830 2.070830 -0.095970 
#    z -0.045520 -0.095970 1.985090 
# 
# From -- ./inp_files/332864.got.cif
#   From: 2010.05.17/outbox.cif.g08.bks.cpg/sg2_167_cif.got.tgz:332864.got - 2010.06.03 11:33:40.
