data_PCOD9100169
_publ_section_title
;
Structure prediction by ZEFSAII (Michael W. Deem and Ramdas Pophale) SiO2 
 PCOD9100169
Probable space group: P -1
;
_chemical_formula_sum "Si O2"
_cell_formula_units_Z 14
_cell_length_a 14.076129
_cell_length_b 7.948600
_cell_length_c 10.952161
_cell_angle_alpha 110.832395
_cell_angle_beta 56.291793
_cell_angle_gamma 146.719825
_cell_volume 543.387677
_symmetry_space_group_name_H-M "P -1"
_symmetry_group_IT_number 2
_symmetry_cell_setting 'triclinic'
loop_
_space_group_symop_operation_xyz
x,y,z
-x,-y,-z
loop_
_atom_site_type_symbol
_atom_site_label
_atom_site_fract_x
_atom_site_fract_y
_atom_site_fract_z
Si Si1 0.625139 0.906334 0.431018
Si Si2 0.228975 0.586061 0.388493
Si Si3 0.782637 0.274399 0.814462
Si Si4 0.070977 0.905753 0.323410
Si Si5 0.662131 0.474566 0.060006
Si Si6 0.782993 0.740246 0.317010
Si Si7 0.502553 0.377340 0.806863
O O1 0.773346 0.943424 0.383985
O O2 0.406480 0.573267 0.551243
O O3 0.617889 0.866342 0.281689
O O4 0.671129 0.160775 0.514529
O O5 0.160819 0.628297 0.341372
O O6 0.391396 0.664179 0.225425
O O7 0.062204 0.266629 0.503270
O O8 0.912660 0.281803 0.779115
O O9 0.554859 0.903873 0.880714
O O10 0.802349 0.495890 0.917618
O O11 0.973804 0.895148 0.281678
O O12 0.296213 0.257941 0.285103
O O13 0.737471 0.625385 0.180242
O O14 0.630053 0.625684 0.050907
#
# Coordination Sequence:
#
# PCOD9100169 Si02
#       7
#     2   2   2   2   2   2   2
#     4  10  21  37  60  91 116 155 198 237 299 351
#     4  12  22  35  62  94 121 148 199 250 292 351
#     4  10  22  39  59  86 121 160 200 241 286 356
#     4  11  24  37  59  95 123 152 190 250 312 337
#     4   9  20  42  62  81 117 166 203 231 291 360
#     4  10  20  37  63  84 119 155 193 244 297 352
#     4  10  22  39  62  90 120 157 194 245 299 353
#
# _framework density 25.764294
#
# number of rings (size 3 to 8) (size 9 to 14) (size 15 to 20)
#    0.000    1.714    2.857    1.286    2.000    2.286 
#    0.000    0.000    0.000    7.714    0.000    0.000 
#    0.000    0.000    0.000    0.000    0.000    0.000 
#
# Total GULP energy -78302.169528 kJ/mol
# GULP energy per Si atom -5593.012109 kJ/mol
# Density = 2.570565 g / cm^3
# Si number density = 25.764294 Si / 1000 Ang^3
#
#
#
# Elastic Constant Matrix: (Units=GPa)
#
#
# Indices 1 2 3 4 5 6 
#
# 1 135.0963 19.7849 25.1763 16.7752 -35.1287 0.2503
# 2 19.7849 81.2456 25.1882 17.1280 -16.3469 -2.4135
# 3 25.1763 25.1882 101.1866 24.2311 -42.6350 -1.4060
# 4 16.7752 17.1280 24.2311 47.9615 -15.8419 -7.1469
# 5 -35.1287 -16.3469 -42.6350 -15.8419 40.0992 7.1222
# 6 0.2503 -2.4135 -1.4060 -7.1469 7.1222 31.0566
#
#
#
# Elastic Compliance Matrix: (Units=1/GPa)
#
#
# Indices 1 2 3 4 5 6 
#
# 1 0.010182 -0.000837 0.002838 -0.001306 0.011611 -0.002982
# 2 -0.000837 0.014117 -0.001704 -0.003270 0.001949 -0.000173
# 3 0.002838 -0.001704 0.019846 -0.003823 0.022316 -0.005254
# 4 -0.001306 -0.003270 -0.003823 0.026095 0.002893 0.004925
# 5 0.011611 0.001949 0.022316 0.002893 0.063033 -0.012721
# 6 -0.002982 -0.000173 -0.005254 0.004925 -0.012721 0.036023
#
#
# Mechanical properties :
#
#
# Convention : Reuss Voigt Hill
#
# Bulk Modulus (GPa) = 22.35148 50.86971 36.61060
# Shear Modulus (GPa) = 27.23086 40.31540 33.77313
#
# Velocity S-wave (km/s) = 3.25456 3.96002 3.62449
# Velocity P-wave (km/s) = 4.77672 6.37935 5.63530
#
# Compressibility (1/GPa) = 0.04473976
#
# Stress axis : x y z
#
# Youngs Moduli (GPa) = 98.20777 70.83781 50.38846
#
# Poissons Ratio (x) = 0.05927 -0.14301
# Poissons Ratio (y) = 0.08217 0.08587
# Poissons Ratio (z) = -0.27873 0.12071
#
# Static dielectric constant tensor:
#      x y z
#    x 2.066150 -0.006670 -0.082050 
#    y -0.006670 2.001970 0.006550 
#    z -0.082050 0.006550 2.055540 
# 
# From -- ./inp_files/189674.got.cif
#   From: 2010.05.17/outbox.cif.g08.bks.cpg/sg2_95_cif.got.tgz:189674.got - 2010.06.03 11:33:40.
