data_PCOD9100119
_publ_section_title
;
Structure prediction by ZEFSAII (Michael W. Deem and Ramdas Pophale) SiO2 
 PCOD9100119
Probable space group: P -1
;
_chemical_formula_sum "Si O2"
_cell_formula_units_Z 14
_cell_length_a 5.145221
_cell_length_b 13.950305
_cell_length_c 9.704379
_cell_angle_alpha 59.489716
_cell_angle_beta 110.262254
_cell_angle_gamma 115.370662
_cell_volume 534.759233
_symmetry_space_group_name_H-M "P -1"
_symmetry_group_IT_number 2
_symmetry_cell_setting 'triclinic'
loop_
_space_group_symop_operation_xyz
x,y,z
-x,-y,-z
loop_
_atom_site_type_symbol
_atom_site_label
_atom_site_fract_x
_atom_site_fract_y
_atom_site_fract_z
Si Si1 0.757496 0.529384 0.842199
Si Si2 0.247799 0.096947 0.267867
Si Si3 0.775485 0.673771 0.987210
Si Si4 0.671435 0.926263 0.166403
Si Si5 0.812666 0.395687 0.702438
Si Si6 0.145544 0.286774 0.635761
Si Si7 0.586310 0.129373 0.565863
O O1 0.750739 0.643388 0.841429
O O2 0.846187 0.513884 0.712950
O O3 0.450112 0.431544 0.892817
O O4 0.909105 0.316595 0.896934
O O5 0.318620 0.211094 0.104704
O O6 0.335126 0.133995 0.413355
O O7 0.415729 0.004386 0.337053
O O8 0.921408 0.021872 0.226815
O O9 0.000000 0.500000 0.000000
O O10 0.816115 0.832748 0.194843
O O11 0.465032 0.848124 0.301928
O O12 0.500000 0.000000 0.000000
O O13 0.480213 0.359040 0.618669
O O14 0.904337 0.221184 0.524781
O O15 0.012475 0.374762 0.631022
#
# Coordination Sequence:
#
# PCOD9100119 Si02
#       7
#     2   2   2   2   2   2   2
#     4   9  20  36  60  95 126 156 205 273 324 377
#     4  10  23  39  63  89 132 177 209 257 315 380
#     4  10  20  37  62  95 123 164 213 262 323 378
#     4  11  23  37  63  95 130 165 220 264 308 373
#     4  11  20  36  63  93 124 160 206 267 322 364
#     4  11  22  37  61  89 123 169 206 257 320 371
#     4  10  23  41  57  93 132 176 213 253 307 387
#
# _framework density 26.180004
#
# number of rings (size 3 to 8) (size 9 to 14) (size 15 to 20)
#    0.000    1.714    2.857    1.286    2.000    3.429 
#    0.000    0.000    0.000    1.714    0.000    0.000 
#    0.000    0.000    0.000    0.000    0.000    0.000 
#
# Total GULP energy -78072.621690 kJ/mol
# GULP energy per Si atom -5576.615835 kJ/mol
# Density = 2.612042 g / cm^3
# Si number density = 26.180004 Si / 1000 Ang^3
#
#
#
# Elastic Constant Matrix: (Units=GPa)
#
#
# Indices 1 2 3 4 5 6 
#
# 1 114.4129 41.5544 44.3233 13.8204 21.2765 -23.8214
# 2 41.5544 77.4385 44.9151 -17.1780 11.2444 -22.6010
# 3 44.3233 44.9151 120.6438 3.1129 28.2260 0.8956
# 4 13.8204 -17.1780 3.1129 33.6187 -2.2877 3.3044
# 5 21.2765 11.2444 28.2260 -2.2877 34.2643 14.4339
# 6 -23.8214 -22.6010 0.8956 3.3044 14.4339 41.0561
#
#
#
# Elastic Compliance Matrix: (Units=1/GPa)
#
#
# Indices 1 2 3 4 5 6 
#
# 1 0.018755 -0.006218 -0.000603 -0.013308 -0.015959 0.014154
# 2 -0.006218 0.028556 -0.008252 0.016567 -0.002609 0.011876
# 3 -0.000603 -0.008252 0.013501 -0.005525 -0.007525 -0.002097
# 4 -0.013308 0.016567 -0.005525 0.045772 0.013319 -0.006848
# 5 -0.015959 -0.002609 -0.007525 0.013319 0.060954 -0.033033
# 6 0.014154 0.011876 -0.002097 -0.006848 -0.033033 0.051317
#
#
# Mechanical properties :
#
#
# Convention : Reuss Voigt Hill
#
# Bulk Modulus (GPa) = 32.61004 63.78676 48.19840
# Shear Modulus (GPa) = 19.28832 33.90131 26.59481
#
# Velocity S-wave (km/s) = 2.71727 3.60242 3.19069
# Velocity P-wave (km/s) = 4.72524 6.45917 5.65901
#
# Compressibility (1/GPa) = 0.03066540
#
# Stress axis : x y z
#
# Youngs Moduli (GPa) = 53.32052 35.01836 74.06644
#
# Poissons Ratio (x) = 0.21775 0.04467
# Poissons Ratio (y) = 0.33155 0.61121
# Poissons Ratio (z) = 0.03216 0.28898
#
# Static dielectric constant tensor:
#      x y z
#    x 2.205210 -0.034150 -0.061500 
#    y -0.034150 2.156220 0.032130 
#    z -0.061500 0.032130 2.075610 
# 
# From -- ./inp_files/362824.got.cif
#   From: 2010.05.17/outbox.cif.g08.bks.cpg/sg2_182_cif.got.tgz:362824.got - 2010.06.03 11:33:40.
