data_PCOD9100641
_publ_section_title
;
Structure prediction by ZEFSAII (Michael W. Deem and Ramdas Pophale) SiO2 
 PCOD9100641
Probable space group: P -1
;
_chemical_formula_sum "Si O2"
_cell_formula_units_Z 10
_cell_length_a 9.759567
_cell_length_b 9.377167
_cell_length_c 7.657757
_cell_angle_alpha 128.452743
_cell_angle_beta 122.983679
_cell_angle_gamma 48.389437
_cell_volume 399.869389
_symmetry_space_group_name_H-M "P -1"
_symmetry_group_IT_number 2
_symmetry_cell_setting 'triclinic'
loop_
_space_group_symop_operation_xyz
x,y,z
-x,-y,-z
loop_
_atom_site_type_symbol
_atom_site_label
_atom_site_fract_x
_atom_site_fract_y
_atom_site_fract_z
Si Si1 0.165109 0.303428 0.567579
Si Si2 0.656921 0.281777 0.705853
Si Si3 0.392171 0.154108 0.270696
Si Si4 0.897675 0.400002 0.745066
Si Si5 0.472397 0.726662 0.016499
O O1 0.286251 0.161050 0.383446
O O2 0.320682 0.337064 0.807004
O O3 0.000000 0.500000 0.500000
O O4 0.039800 0.260704 0.585289
O O5 0.585848 0.139742 0.454197
O O6 0.833447 0.272596 0.727046
O O7 0.659867 0.248892 0.891612
O O8 0.498491 0.530826 0.773511
O O9 0.276365 0.381977 0.279703
O O10 0.412780 0.943115 0.039543
O O11 0.000000 0.500000 0.000000
#
# Coordination Sequence:
#
# PCOD9100641 Si02
#       5
#     2   2   2   2   2
#     4   9  18  35  60  83 117 156 185 237 300 338
#     4  10  20  37  65  86 117 155 199 239 294 348
#     4  10  22  40  65  85 115 160 203 235 287 360
#     4  11  21  38  61  89 123 155 189 250 303 336
#     4  10  20  39  64  87 115 158 203 237 285 359
#
# _framework density 25.008164000000001
#
# number of rings (size 3 to 8) (size 9 to 14) (size 15 to 20)
#    0.000    2.000    2.000    3.000    0.000    0.800 
#    0.000    5.000   17.600    0.000    0.000    0.000 
#    0.000    0.000    0.000    0.000    0.000    0.000 
#
# Total GULP energy -55831.317868 kJ/mol
# GULP energy per Si atom -5583.131787 kJ/mol
# Density = 2.495124 g / cm^3
# Si number density = 25.008164 Si / 1000 Ang^3
#
#
#
# Elastic Constant Matrix: (Units=GPa)
#
#
# Indices 1 2 3 4 5 6 
#
# 1 199.2304 27.8250 -2.2398 1.8345 8.4630 44.8470
# 2 27.8250 82.4370 18.8067 11.1165 9.4200 5.8148
# 3 -2.2398 18.8067 55.2427 22.5793 7.5669 10.7891
# 4 1.8345 11.1165 22.5793 42.6414 6.9498 9.2827
# 5 8.4630 9.4200 7.5669 6.9498 20.7730 -0.0517
# 6 44.8470 5.8148 10.7891 9.2827 -0.0517 35.1805
#
#
#
# Elastic Compliance Matrix: (Units=1/GPa)
#
#
# Indices 1 2 3 4 5 6 
#
# 1 0.008114 -0.002449 0.003234 0.001702 -0.003971 -0.011385
# 2 -0.002449 0.014371 -0.004492 -0.001230 -0.003465 0.002444
# 3 0.003234 -0.004492 0.026374 -0.010116 -0.005526 -0.008808
# 4 0.001702 -0.001230 -0.010116 0.031795 -0.007106 -0.007264
# 5 -0.003971 -0.003465 -0.005526 -0.007106 0.055742 0.009286
# 6 -0.011385 0.002444 -0.008808 -0.007264 0.009286 0.047166
#
#
# Mechanical properties :
#
#
# Convention : Reuss Voigt Hill
#
# Bulk Modulus (GPa) = 24.12795 47.29931 35.71363
# Shear Modulus (GPa) = 24.41528 39.22019 31.81774
#
# Velocity S-wave (km/s) = 3.12796 3.96447 3.57079
# Velocity P-wave (km/s) = 4.76597 6.31748 5.59576
#
# Compressibility (1/GPa) = 0.04144570
#
# Stress axis : x y z
#
# Youngs Moduli (GPa) = 123.25106 69.58293 37.91635
#
# Poissons Ratio (x) = 0.17042 -0.12264
# Poissons Ratio (y) = 0.30186 0.17031
# Poissons Ratio (z) = -0.39864 0.31255
#
# Static dielectric constant tensor:
#      x y z
#    x 1.997770 -0.031870 -0.055700 
#    y -0.031870 2.164380 -0.027480 
#    z -0.055700 -0.027480 2.007550 
# 
# From -- ./inp_files/143922.got.cif
#   From: 2010.05.17/outbox.cif.g08.bks.cpg/sg2_72_cif.got.tgz:143922.got - 2010.06.03 11:33:40.
