data_PCOD9100634
_publ_section_title
;
Structure prediction by ZEFSAII (Michael W. Deem and Ramdas Pophale) SiO2 
 PCOD9100634
Probable space group: P -1
;
_chemical_formula_sum "Si O2"
_cell_formula_units_Z 15
_cell_length_a 13.503277
_cell_length_b 11.191801
_cell_length_c 14.239036
_cell_angle_alpha 42.033104
_cell_angle_beta 31.520598
_cell_angle_gamma 43.429930
_cell_volume 726.166625
_symmetry_space_group_name_H-M "P -1"
_symmetry_group_IT_number 2
_symmetry_cell_setting 'triclinic'
loop_
_space_group_symop_operation_xyz
x,y,z
-x,-y,-z
loop_
_atom_site_type_symbol
_atom_site_label
_atom_site_fract_x
_atom_site_fract_y
_atom_site_fract_z
Si Si1 0.333325 0.820149 0.674626
Si Si2 0.476271 0.145763 0.130137
Si Si3 0.131862 0.349120 0.835556
Si Si4 0.500000 0.500000 0.500000
Si Si5 0.289829 0.426209 0.980987
Si Si6 0.190692 0.902667 0.539123
Si Si7 0.792769 0.858360 0.919204
Si Si8 0.315149 0.017497 0.759270
O O1 0.205750 0.913076 0.634683
O O2 0.541198 0.866092 0.466852
O O3 0.253212 0.908078 0.787816
O O4 0.351753 0.601260 0.786864
O O5 0.401052 0.350486 0.030365
O O6 0.293154 0.053898 0.328319
O O7 0.562311 0.120778 0.180102
O O8 0.646532 0.023105 0.997386
O O9 0.337917 0.398884 0.646667
O O10 0.154665 0.170389 0.856086
O O11 0.945697 0.506037 0.859981
O O12 0.098095 0.290431 0.003631
O O13 0.329870 0.701633 0.517839
O O14 0.327562 0.253215 0.980380
O O15 0.963493 0.920453 0.690371
#
# Coordination Sequence:
#
# PCOD9100634 Si02
#       8
#     2   2   2   1   2   2   2   2
#     4  10  20  37  65  83 112 156 212 245 285 353
#     4  10  24  41  56  88 130 155 190 251 308 348
#     4  11  21  35  62  90 116 154 204 246 293 355
#     4  12  18  36  62  90 118 150 194 250 290 346
#     4  12  23  36  59  92 119 155 198 248 301 356
#     4  11  21  38  63  88 118 160 194 250 296 356
#     4  11  21  39  59  88 121 158 200 238 300 367
#     4   9  21  41  60  83 114 161 203 246 297 343
#
# _framework density 20.656417000000001
#
# number of rings (size 3 to 8) (size 9 to 14) (size 15 to 20)
#    0.000    1.333    6.667    1.600    0.000    1.600 
#    2.400    0.000    0.000    2.400    0.000    0.000 
#    0.000    0.000    0.000    0.000    0.000    0.000 
#
# Total GULP energy -83518.545068 kJ/mol
# GULP energy per Si atom -5567.903005 kJ/mol
# Density = 2.060940 g / cm^3
# Si number density = 20.656417 Si / 1000 Ang^3
#
#
#
# Elastic Constant Matrix: (Units=GPa)
#
#
# Indices 1 2 3 4 5 6 
#
# 1 31.4252 0.9007 15.7375 3.2555 -6.3115 -16.1524
# 2 0.9007 12.4874 9.4924 -1.2947 3.7167 -31.7449
# 3 15.7375 9.4924 79.0664 -1.3030 -18.7768 -12.9912
# 4 3.2555 -1.2947 -1.3030 18.7011 0.0449 2.7077
# 5 -6.3115 3.7167 -18.7768 0.0449 31.1162 -3.1405
# 6 -16.1524 -31.7449 -12.9912 2.7077 -3.1405 16.3895
#
#
#
# Elastic Compliance Matrix: (Units=1/GPa)
#
#
# Indices 1 2 3 4 5 6 
#
# 1 0.032574 -0.019711 -0.003997 -0.006302 0.005844 -0.007083
# 2 -0.019711 -0.005993 -0.003433 0.008133 -0.009084 -0.036840
# 3 -0.003997 -0.003433 0.017145 0.000926 0.010433 0.004846
# 4 -0.006302 0.008133 0.000926 0.055078 -0.001684 0.000854
# 5 0.005844 -0.009084 0.010433 -0.001684 0.041170 0.004601
# 6 -0.007083 -0.036840 0.004846 0.000854 0.004601 -0.012740
#
#
# Mechanical properties :
#
#
# Convention : Reuss Voigt Hill
#
# Bulk Modulus (GPa) = -94.71475 19.47113 -37.62181
# Shear Modulus (GPa) = 28.09007 19.69790 23.89399
#
# Velocity S-wave (km/s) = 3.69164 3.09139 3.40477
# Velocity P-wave (km/s) = 5.27077 4.71051 1.67214
#
# Compressibility (1/GPa) = -0.01055802
#
# Stress axis : x y z
#
# Youngs Moduli (GPa) = 30.69937 -166.86422 58.32751
#
# Poissons Ratio (x) = -3.28910 0.23314
# Poissons Ratio (y) = 0.60512 0.20027
# Poissons Ratio (z) = 0.12271 -0.57293
#
# Static dielectric constant tensor:
#      x y z
#    x 1.775010 0.014860 0.009650 
#    y 0.014860 1.716450 0.017810 
#    z 0.009650 0.017810 1.808610 
# 
# From -- ./inp_files/276980.got.cif
#   From: 2010.05.17/outbox.cif.g08.bks.cpg/sg2_139_cif.got.tgz:276980.got - 2010.06.03 11:33:40.
