data_PCOD9100243
_publ_section_title
;
Structure prediction by ZEFSAII (Michael W. Deem and Ramdas Pophale) SiO2 
 PCOD9100243
Probable space group: P -1
;
_chemical_formula_sum "Si O2"
_cell_formula_units_Z 16
_cell_length_a 22.997499
_cell_length_b 20.243896
_cell_length_c 13.564219
_cell_angle_alpha 158.294350
_cell_angle_beta 31.211681
_cell_angle_gamma 161.136303
_cell_volume 739.828290
_symmetry_space_group_name_H-M "P -1"
_symmetry_group_IT_number 2
_symmetry_cell_setting 'triclinic'
loop_
_space_group_symop_operation_xyz
x,y,z
-x,-y,-z
loop_
_atom_site_type_symbol
_atom_site_label
_atom_site_fract_x
_atom_site_fract_y
_atom_site_fract_z
Si Si1 0.653937 0.564545 0.645088
Si Si2 0.633655 0.120523 0.382780
Si Si3 0.896669 0.757174 0.895664
Si Si4 0.230780 0.951477 0.756938
Si Si5 0.085215 0.111806 0.738117
Si Si6 0.524277 0.024483 0.115273
Si Si7 0.703003 0.292074 0.820534
Si Si8 0.392391 0.261464 0.412156
O O1 0.612308 0.326375 0.430482
O O2 0.521017 0.424816 0.550420
O O3 0.639075 0.714359 0.948259
O O4 0.865588 0.818318 0.653009
O O5 0.735418 0.429908 0.634866
O O6 0.500000 0.000000 0.500000
O O7 0.767599 0.147327 0.276847
O O8 0.492943 0.875845 0.166415
O O9 0.843884 0.804248 0.134212
O O10 0.039591 0.797298 0.791158
O O11 0.000000 0.000000 0.000000
O O12 0.277026 0.869480 0.490179
O O13 0.200440 0.113527 0.511598
O O14 0.143522 0.376585 0.975599
O O15 0.331401 0.770426 0.100752
O O16 0.500000 0.000000 0.000000
O O17 0.633736 0.979330 0.911653
O O18 0.500000 0.500000 0.500000
#
# Coordination Sequence:
#
# PCOD9100243 Si02
#       8
#     2   2   2   2   2   2   2   2
#     4  10  25  41  67  99 136 169 217 284 338 392
#     4  10  20  37  63  89 129 175 219 256 321 406
#     4  11  24  39  59  98 143 169 213 277 331 401
#     4  10  22  40  64  97 134 174 216 262 338 405
#     4  11  23  43  67  99 134 171 232 270 327 405
#     4  10  24  46  64  95 134 168 228 286 330 390
#     4  11  22  40  70  97 131 179 224 271 329 407
#     4  11  23  45  73  93 126 180 231 278 329 387
#
# _framework density 21.626639999999998
#
# number of rings (size 3 to 8) (size 9 to 14) (size 15 to 20)
#    0.000    1.500    3.750    1.125    7.000    3.500 
#    0.000    0.000    0.000    0.000    0.000    0.000 
#    0.000    0.000    0.000    0.000    0.000    0.000 
#
# Total GULP energy -89286.590622 kJ/mol
# GULP energy per Si atom -5580.411914 kJ/mol
# Density = 2.157742 g / cm^3
# Si number density = 21.626640 Si / 1000 Ang^3
#
#
#
# Elastic Constant Matrix: (Units=GPa)
#
#
# Indices 1 2 3 4 5 6 
#
# 1 41.7056 16.0255 1.9471 -4.2700 -10.3301 -10.4606
# 2 16.0255 86.1422 22.5115 1.8620 -18.1062 -18.3544
# 3 1.9471 22.5115 124.4300 -4.8300 -30.1392 -19.8282
# 4 -4.2700 1.8620 -4.8300 50.4668 -6.9729 -0.0854
# 5 -10.3301 -18.1062 -30.1392 -6.9729 27.8340 3.8220
# 6 -10.4606 -18.3544 -19.8282 -0.0854 3.8220 43.5472
#
#
#
# Elastic Compliance Matrix: (Units=1/GPa)
#
#
# Indices 1 2 3 4 5 6 
#
# 1 0.030999 -0.002297 0.005198 0.005425 0.015975 0.007454
# 2 -0.002297 0.014821 0.000226 0.000457 0.008454 0.005057
# 3 0.005198 0.000226 0.012933 0.003926 0.016266 0.005813
# 4 0.005425 0.000457 0.003926 0.022271 0.011827 0.002289
# 5 0.015975 0.008454 0.016266 0.011827 0.066699 0.008976
# 6 0.007454 0.005057 0.005813 0.002289 0.008976 0.028749
#
#
# Mechanical properties :
#
#
# Convention : Reuss Voigt Hill
#
# Bulk Modulus (GPa) = 15.38262 37.02735 26.20499
# Shear Modulus (GPa) = 26.05698 38.48919 32.27309
#
# Velocity S-wave (km/s) = 3.47487 4.22324 3.86720
# Velocity P-wave (km/s) = 4.81953 6.39839 5.66424
#
# Compressibility (1/GPa) = 0.06500843
#
# Stress axis : x y z
#
# Youngs Moduli (GPa) = 32.25870 67.46967 77.32166
#
# Poissons Ratio (x) = 0.15496 -0.40194
# Poissons Ratio (y) = 0.07409 -0.01745
# Poissons Ratio (z) = -0.16769 -0.01523
#
# Static dielectric constant tensor:
#      x y z
#    x 1.869330 -0.021370 0.000580 
#    y -0.021370 1.836190 -0.022000 
#    z 0.000580 -0.022000 1.875350 
# 
# From -- ./inp_files/543239.got.cif
#   From: 2010.05.17/outbox.cif.g08.bks.cpg/sg2_272_cif.got.tgz:543239.got - 2010.06.03 11:33:40.
