data_PCOD9100435
_publ_section_title
;
Structure prediction by ZEFSAII (Michael W. Deem and Ramdas Pophale) SiO2 
 PCOD9100435
Probable space group: P -1
;
_chemical_formula_sum "Si O2"
_cell_formula_units_Z 16
_cell_length_a 10.988733
_cell_length_b 21.646291
_cell_length_c 9.269986
_cell_angle_alpha 22.847798
_cell_angle_beta 54.474628
_cell_angle_gamma 51.086941
_cell_volume 666.168468
_symmetry_space_group_name_H-M "P -1"
_symmetry_group_IT_number 2
_symmetry_cell_setting 'triclinic'
loop_
_space_group_symop_operation_xyz
x,y,z
-x,-y,-z
loop_
_atom_site_type_symbol
_atom_site_label
_atom_site_fract_x
_atom_site_fract_y
_atom_site_fract_z
Si Si1 0.111645 0.829265 0.601068
Si Si2 0.066107 0.430716 0.753933
Si Si3 0.315705 0.119730 0.217228
Si Si4 0.578302 0.319313 0.778102
Si Si5 0.869480 0.605493 0.750207
Si Si6 0.139630 0.867905 0.826286
Si Si7 0.372818 0.594666 0.763424
Si Si8 0.633031 0.889508 0.481480
O O1 0.133972 0.790295 0.840395
O O2 0.272893 0.760074 0.558204
O O3 0.026663 0.025013 0.227269
O O4 0.009038 0.719460 0.837083
O O5 0.000000 0.500000 0.500000
O O6 0.992156 0.585256 0.577350
O O7 0.244649 0.319629 0.846256
O O8 0.301179 0.060927 0.520656
O O9 0.214892 0.021638 0.410875
O O10 0.491205 0.047578 0.190035
O O11 0.500000 0.500000 0.500000
O O12 0.579331 0.343158 0.555139
O O13 0.749418 0.250099 0.881073
O O14 0.470477 0.220775 0.140932
O O15 0.765096 0.776300 0.530091
O O16 0.738502 0.520548 0.962716
O O17 0.000000 0.500000 0.000000
O O18 0.500000 0.500000 0.000000
#
# Coordination Sequence:
#
# PCOD9100435 Si02
#       8
#     2   2   2   2   2   2   2   2
#     4   9  20  38  60  86 125 165 199 259 320 366
#     4  10  21  37  60  91 123 161 203 253 312 377
#     4   9  19  36  61  82 119 158 205 250 312 359
#     4  11  21  36  63  92 118 161 215 256 302 382
#     4  11  22  40  63  93 124 163 208 259 312 374
#     4   9  19  37  62  84 118 165 211 251 310 373
#     4  11  24  39  60  95 130 160 203 263 320 368
#     4  10  20  37  64  88 116 161 205 262 305 363
#
# _framework density 24.017948000000001
#
# number of rings (size 3 to 8) (size 9 to 14) (size 15 to 20)
#    0.000    2.000    2.500    0.750    1.750    4.500 
#    0.000    0.625   24.750    0.000    0.000    0.000 
#    0.000    0.000    0.000    0.000    0.000    0.000 
#
# Total GULP energy -89141.982044 kJ/mol
# GULP energy per Si atom -5571.373878 kJ/mol
# Density = 2.396328 g / cm^3
# Si number density = 24.017948 Si / 1000 Ang^3
#
#
#
# Elastic Constant Matrix: (Units=GPa)
#
#
# Indices 1 2 3 4 5 6 
#
# 1 122.3212 51.8990 31.3260 -7.4768 22.0953 -6.4643
# 2 51.8990 253.6713 65.6675 -42.6342 38.3490 -12.2606
# 3 31.3260 65.6675 66.3166 -12.3050 21.6494 -16.4332
# 4 -7.4768 -42.6342 -12.3050 44.9015 -3.6135 8.3214
# 5 22.0953 38.3490 21.6494 -3.6135 53.3254 -12.7488
# 6 -6.4643 -12.2606 -16.4332 8.3214 -12.7488 36.3147
#
#
#
# Elastic Compliance Matrix: (Units=1/GPa)
#
#
# Indices 1 2 3 4 5 6 
#
# 1 0.009732 -0.000874 -0.003199 -0.000125 -0.002302 -0.000790
# 2 -0.000874 0.006455 -0.004783 0.004866 -0.002520 -0.002141
# 3 -0.003199 -0.004783 0.024274 -0.000108 -0.003261 0.007680
# 4 -0.000125 0.004866 -0.000108 0.027680 -0.002913 -0.005794
# 5 -0.002302 -0.002520 -0.003261 -0.002913 0.024180 0.006420
# 6 -0.000790 -0.002141 0.007680 -0.005794 0.006420 0.033731
#
#
# Mechanical properties :
#
#
# Convention : Reuss Voigt Hill
#
# Bulk Modulus (GPa) = 43.95966 82.23267 63.09616
# Shear Modulus (GPa) = 33.03664 46.46942 39.75303
#
# Velocity S-wave (km/s) = 3.71279 4.40338 4.07275
# Velocity P-wave (km/s) = 6.05990 7.75664 6.96016
#
# Compressibility (1/GPa) = 0.02274813
#
# Stress axis : x y z
#
# Youngs Moduli (GPa) = 102.75641 154.93061 41.19564
#
# Poissons Ratio (x) = 0.13542 0.13177
# Poissons Ratio (y) = 0.08982 0.19706
# Poissons Ratio (z) = 0.32869 0.74110
#
# Static dielectric constant tensor:
#      x y z
#    x 2.044050 -0.048080 -0.024320 
#    y -0.048080 1.884460 -0.044650 
#    z -0.024320 -0.044650 2.027350 
# 
# From -- ./inp_files/281391.got.cif
#   From: 2010.05.17/outbox.cif.g08.bks.cpg/sg2_141_cif.got.tgz:281391.got - 2010.06.03 11:33:40.
