data_PCOD9100270
_publ_section_title
;
Structure prediction by ZEFSAII (Michael W. Deem and Ramdas Pophale) SiO2 
 PCOD9100270
Probable space group: P -1
;
_chemical_formula_sum "Si O2"
_cell_formula_units_Z 14
_cell_length_a 18.466310
_cell_length_b 7.582486
_cell_length_c 7.317775
_cell_angle_alpha 38.635000
_cell_angle_beta 61.247041
_cell_angle_gamma 53.996293
_cell_volume 517.051900
_symmetry_space_group_name_H-M "P -1"
_symmetry_group_IT_number 2
_symmetry_cell_setting 'triclinic'
loop_
_space_group_symop_operation_xyz
x,y,z
-x,-y,-z
loop_
_atom_site_type_symbol
_atom_site_label
_atom_site_fract_x
_atom_site_fract_y
_atom_site_fract_z
Si Si1 0.537676 0.181443 0.594765
Si Si2 0.588900 0.512019 0.990949
Si Si3 0.091494 0.805247 0.152781
Si Si4 0.351443 0.536710 0.410634
Si Si5 0.156329 0.129192 0.536979
Si Si6 0.086452 0.196186 0.180071
Si Si7 0.731949 0.785823 0.976655
O O1 0.500000 0.500000 0.500000
O O2 0.444156 0.247095 0.551816
O O3 0.570225 0.820230 0.883781
O O4 0.608116 0.236623 0.330273
O O5 0.663806 0.472356 0.779876
O O6 0.500000 0.500000 0.000000
O O7 0.164383 0.868631 0.882798
O O8 0.089193 0.935316 0.250619
O O9 0.105499 0.454853 0.429128
O O10 0.000000 0.000000 0.000000
O O11 0.292180 0.478697 0.689121
O O12 0.346993 0.879956 0.167519
O O13 0.097736 0.100847 0.456445
O O14 0.237280 0.183673 0.290699
O O15 0.179255 0.240718 0.998691
O O16 0.000000 0.500000 0.000000
#
# Coordination Sequence:
#
# PCOD9100270 Si02
#       7
#     2   2   2   2   2   2   2
#     4  11  22  38  62  98 127 163 211 264 320 374
#     4  10  20  37  63  91 118 163 214 249 304 393
#     4  12  22  41  66  93 120 165 209 282 331 380
#     4  11  20  41  65  85 128 170 204 257 321 380
#     4  10  25  41  61  95 129 160 222 262 335 381
#     4  10  24  43  68  93 129 170 228 271 325 395
#     4  10  23  41  60  90 123 174 210 263 334 377
#
# _framework density 27.076584
#
# number of rings (size 3 to 8) (size 9 to 14) (size 15 to 20)
#    0.857    0.571    1.429    6.000    0.000    2.857 
#    0.000    8.571    0.000    0.000    0.000    0.000 
#    0.000    0.000    0.000    0.000    0.000    0.000 
#
# Total GULP energy -78174.562292 kJ/mol
# GULP energy per Si atom -5583.897307 kJ/mol
# Density = 2.701496 g / cm^3
# Si number density = 27.076584 Si / 1000 Ang^3
#
#
#
# Elastic Constant Matrix: (Units=GPa)
#
#
# Indices 1 2 3 4 5 6 
#
# 1 83.1047 24.3721 28.4392 -3.8091 9.4922 12.7462
# 2 24.3721 116.6132 41.5658 -7.3794 -1.0904 32.8693
# 3 28.4392 41.5658 181.0107 -6.6888 -19.6959 9.3868
# 4 -3.8091 -7.3794 -6.6888 46.0622 -7.7847 -5.8275
# 5 9.4922 -1.0904 -19.6959 -7.7847 32.1328 -2.5451
# 6 12.7462 32.8693 9.3868 -5.8275 -2.5451 50.4592
#
#
#
# Elastic Compliance Matrix: (Units=1/GPa)
#
#
# Indices 1 2 3 4 5 6 
#
# 1 0.014399 -0.001496 -0.002491 -0.000793 -0.006229 -0.002605
# 2 -0.001496 0.011581 -0.002159 0.000406 -0.000926 -0.006764
# 3 -0.002491 -0.002159 0.006996 0.001529 0.005415 0.001184
# 4 -0.000793 0.000406 0.001529 0.023473 0.007087 0.002720
# 5 -0.006229 -0.000926 0.005415 0.007087 0.038276 0.003919
# 6 -0.002605 -0.006764 0.001184 0.002720 0.003919 0.025174
#
#
# Mechanical properties :
#
#
# Convention : Reuss Voigt Hill
#
# Bulk Modulus (GPa) = 48.34546 63.27585 55.81065
# Shear Modulus (GPa) = 35.94892 44.82092 40.38492
#
# Velocity S-wave (km/s) = 3.64768 4.07300 3.86619
# Velocity P-wave (km/s) = 5.96947 6.74826 6.37078
#
# Compressibility (1/GPa) = 0.02068447
#
# Stress axis : x y z
#
# Youngs Moduli (GPa) = 69.45026 86.34570 142.93744
#
# Poissons Ratio (x) = 0.12913 0.35603
# Poissons Ratio (y) = 0.10387 0.30867
# Poissons Ratio (z) = 0.17299 0.18646
#
# Static dielectric constant tensor:
#      x y z
#    x 2.293640 0.000230 0.004740 
#    y 0.000230 2.139340 0.137510 
#    z 0.004740 0.137510 2.090800 
# 
# From -- ./inp_files/351944.got.cif
#   From: 2010.05.17/outbox.cif.g08.bks.cpg/sg2_176_cif.got.tgz:351944.got - 2010.06.03 11:33:40.
