data_PCOD9100708
_publ_section_title
;
Structure prediction by ZEFSAII (Michael W. Deem and Ramdas Pophale) SiO2 
 PCOD9100708
Probable space group: P -1
;
_chemical_formula_sum "Si O2"
_cell_formula_units_Z 13
_cell_length_a 14.495284
_cell_length_b 11.362182
_cell_length_c 15.134677
_cell_angle_alpha 26.983940
_cell_angle_beta 28.425900
_cell_angle_gamma 32.284458
_cell_volume 515.944505
_symmetry_space_group_name_H-M "P -1"
_symmetry_group_IT_number 2
_symmetry_cell_setting 'triclinic'
loop_
_space_group_symop_operation_xyz
x,y,z
-x,-y,-z
loop_
_atom_site_type_symbol
_atom_site_label
_atom_site_fract_x
_atom_site_fract_y
_atom_site_fract_z
Si Si1 0.287504 0.940313 0.117234
Si Si2 0.000000 0.500000 0.500000
Si Si3 0.843598 0.160478 0.409034
Si Si4 0.408656 0.440556 0.768916
Si Si5 0.072580 0.391231 0.201760
Si Si6 0.145218 0.194442 0.746893
Si Si7 0.651798 0.231276 0.013877
O O1 0.379655 0.689984 0.274197
O O2 0.380041 0.863300 0.994607
O O3 0.042315 0.029665 0.268106
O O4 0.354176 0.192868 0.930244
O O5 0.174667 0.321244 0.543931
O O6 0.142572 0.684467 0.228020
O O7 0.647816 0.312359 0.416800
O O8 0.914704 0.368306 0.273807
O O9 0.821705 0.916801 0.651146
O O10 0.238742 0.517618 0.936785
O O11 0.970520 0.555315 0.261689
O O12 0.333005 0.011496 0.767232
O O13 0.000000 0.000000 0.000000
O O14 0.500000 0.500000 0.000000
#
# Coordination Sequence:
#
# PCOD9100708 Si02
#       7
#     2   1   2   2   2   2   2
#     4  10  21  40  62  97 133 164 219 268 329 403
#     4  10  24  44  64  94 124 174 228 270 334 388
#     4  10  20  39  64  94 127 169 210 269 336 391
#     4  10  21  38  66  94 130 171 206 274 333 391
#     4  10  20  37  65  92 124 167 219 260 331 402
#     4  10  22  40  65  91 129 173 219 278 329 396
#     4  11  24  43  67  96 134 176 225 276 336 403
#
# _framework density 25.196508000000001
#
# number of rings (size 3 to 8) (size 9 to 14) (size 15 to 20)
#    0.000    1.846    0.000    4.615    4.308    1.846 
#    0.000   16.923    0.000    0.000    0.000    0.000 
#    0.000    0.000    0.000    0.000    0.000    0.000 
#
# Total GULP energy -72506.122296 kJ/mol
# GULP energy per Si atom -5577.394023 kJ/mol
# Density = 2.513916 g / cm^3
# Si number density = 25.196508 Si / 1000 Ang^3
#
#
#
# Elastic Constant Matrix: (Units=GPa)
#
#
# Indices 1 2 3 4 5 6 
#
# 1 92.4076 48.1184 35.7212 -14.7590 32.7837 -32.9130
# 2 48.1184 70.2464 8.2995 -12.7316 17.0053 -18.8310
# 3 35.7212 8.2995 78.2232 -19.6081 24.0625 -14.6922
# 4 -14.7590 -12.7316 -19.6081 33.0718 -20.0077 21.2371
# 5 32.7837 17.0053 24.0625 -20.0077 48.1816 -19.4363
# 6 -32.9130 -18.8310 -14.6922 21.2371 -19.4363 41.2200
#
#
#
# Elastic Compliance Matrix: (Units=1/GPa)
#
#
# Indices 1 2 3 4 5 6 
#
# 1 0.028655 -0.014622 -0.009264 -0.014023 -0.009158 0.015805
# 2 -0.014622 0.024179 0.005356 0.008211 0.001185 -0.002392
# 3 -0.009264 0.005356 0.019026 0.010830 -0.002598 -0.004973
# 4 -0.014023 0.008211 0.010830 0.060473 0.015228 -0.027561
# 5 -0.009158 0.001185 -0.002598 0.015228 0.034477 0.000714
# 6 0.015805 -0.002392 -0.004973 -0.027561 0.000714 0.048552
#
#
# Mechanical properties :
#
#
# Convention : Reuss Voigt Hill
#
# Bulk Modulus (GPa) = 28.73458 47.23950 37.98704
# Shear Modulus (GPa) = 18.93803 34.41055 26.67429
#
# Velocity S-wave (km/s) = 2.74453 3.69953 3.25722
# Velocity P-wave (km/s) = 4.63381 6.08587 5.40879
#
# Compressibility (1/GPa) = 0.03480128
#
# Stress axis : x y z
#
# Youngs Moduli (GPa) = 34.89794 41.35871 52.56033
#
# Poissons Ratio (x) = 0.60474 0.48690
# Poissons Ratio (y) = 0.51027 -0.28153
# Poissons Ratio (z) = 0.32328 -0.22153
#
# Static dielectric constant tensor:
#      x y z
#    x 2.110800 -0.045160 -0.035620 
#    y -0.045160 1.996630 0.014470 
#    z -0.035620 0.014470 1.916740 
# 
# From -- ./inp_files/530332.got.cif
#   From: 2010.05.17/outbox.cif.g08.bks.cpg/sg2_266_cif.got.tgz:530332.got - 2010.06.03 11:33:40.
