data_PCOD9100179
_publ_section_title
;
Structure prediction by ZEFSAII (Michael W. Deem and Ramdas Pophale) SiO2 
 PCOD9100179
Probable space group: P -1
;
_chemical_formula_sum "Si O2"
_cell_formula_units_Z 10
_cell_length_a 9.686296
_cell_length_b 14.210846
_cell_length_c 6.975358
_cell_angle_alpha 48.514207
_cell_angle_beta 88.160620
_cell_angle_gamma 126.386771
_cell_volume 410.739979
_symmetry_space_group_name_H-M "P -1"
_symmetry_group_IT_number 2
_symmetry_cell_setting 'triclinic'
loop_
_space_group_symop_operation_xyz
x,y,z
-x,-y,-z
loop_
_atom_site_type_symbol
_atom_site_label
_atom_site_fract_x
_atom_site_fract_y
_atom_site_fract_z
Si Si1 0.561195 0.383136 0.473206
Si Si2 0.058279 0.544085 0.708823
Si Si3 0.477023 0.841646 0.787162
Si Si4 0.602164 0.481441 0.793065
Si Si5 0.170796 0.902969 0.226075
O O1 0.791626 0.468789 0.312119
O O2 0.572686 0.428250 0.637939
O O3 0.546672 0.501803 0.196805
O O4 0.323718 0.118913 0.809762
O O5 0.197833 0.776877 0.337851
O O6 0.000000 0.500000 0.000000
O O7 0.802847 0.363605 0.855217
O O8 0.500000 0.000000 0.500000
O O9 0.699760 0.994199 0.713860
O O10 0.475677 0.708691 0.849372
O O11 0.886287 0.717046 0.495683
#
# Coordination Sequence:
#
# PCOD9100179 Si02
#       5
#     2   2   2   2   2
#     4  10  21  39  60  89 118 149 194 241 289 345
#     4  11  22  37  60  86 118 156 194 236 287 347
#     4  10  20  38  60  82 119 155 193 238 284 346
#     4   9  21  38  62  87 117 150 194 241 290 342
#     4  10  20  37  63  86 113 155 194 240 288 342
#
# _framework density 24.346304
#
# number of rings (size 3 to 8) (size 9 to 14) (size 15 to 20)
#    0.000    2.000    2.000    1.200    0.000    8.800 
#    0.000    5.000    0.000    0.000    0.000    0.000 
#    0.000    0.000    0.000    0.000    0.000    0.000 
#
# Total GULP energy -55850.123600 kJ/mol
# GULP energy per Si atom -5585.012360 kJ/mol
# Density = 2.429089 g / cm^3
# Si number density = 24.346304 Si / 1000 Ang^3
#
#
#
# Elastic Constant Matrix: (Units=GPa)
#
#
# Indices 1 2 3 4 5 6 
#
# 1 220.2775 34.0415 59.4021 -22.0265 37.1219 -14.0555
# 2 34.0415 75.9136 38.3832 -18.6441 -0.7245 7.0269
# 3 59.4021 38.3832 116.0754 -34.6721 22.5808 3.5702
# 4 -22.0265 -18.6441 -34.6721 43.8279 5.3234 -0.8165
# 5 37.1219 -0.7245 22.5808 5.3234 42.4271 -2.3049
# 6 -14.0555 7.0269 3.5702 -0.8165 -2.3049 42.3521
#
#
#
# Elastic Compliance Matrix: (Units=1/GPa)
#
#
# Indices 1 2 3 4 5 6 
#
# 1 0.006378 -0.002093 -0.000945 0.002250 -0.005271 0.002300
# 2 -0.002093 0.017337 -0.004836 0.001921 0.004303 -0.002892
# 3 -0.000945 -0.004836 0.015811 0.011063 -0.009120 -0.001127
# 4 0.002250 0.001921 0.011063 0.034994 -0.012242 -0.000496
# 5 -0.005271 0.004303 -0.009120 -0.012242 0.034642 -0.000045
# 6 0.002300 -0.002892 -0.001127 -0.000496 -0.000045 0.024938
#
#
# Mechanical properties :
#
#
# Convention : Reuss Voigt Hill
#
# Bulk Modulus (GPa) = 42.05567 75.10224 58.57895
# Shear Modulus (GPa) = 31.69069 44.41741 38.05405
#
# Velocity S-wave (km/s) = 3.61177 4.27593 3.95781
# Velocity P-wave (km/s) = 5.89106 7.43590 6.70810
#
# Compressibility (1/GPa) = 0.02377801
#
# Stress axis : x y z
#
# Youngs Moduli (GPa) = 156.78817 57.67962 63.24562
#
# Poissons Ratio (x) = 0.12070 0.05978
# Poissons Ratio (y) = 0.32810 0.30588
# Poissons Ratio (z) = 0.14820 0.27896
#
# Static dielectric constant tensor:
#      x y z
#    x 1.921210 -0.023130 0.067980 
#    y -0.023130 2.079290 0.096920 
#    z 0.067980 0.096920 1.999030 
# 
# From -- ./inp_files/15699.got.cif
#   From: 2010.05.17/outbox.cif.g08.bks.cpg/sg2_8_cif.got.tgz:15699.got - 2010.06.03 11:33:40.
