data_PCOD9100755
_publ_section_title
;
Structure prediction by ZEFSAII (Michael W. Deem and Ramdas Pophale) SiO2 
 PCOD9100755
Probable space group: P -1
;
_chemical_formula_sum "Si O2"
_cell_formula_units_Z 12
_cell_length_a 15.752779
_cell_length_b 18.860015
_cell_length_c 23.903885
_cell_angle_alpha 168.571297
_cell_angle_beta 157.617087
_cell_angle_gamma 24.622564
_cell_volume 535.502089
_symmetry_space_group_name_H-M "P -1"
_symmetry_group_IT_number 2
_symmetry_cell_setting 'triclinic'
loop_
_space_group_symop_operation_xyz
x,y,z
-x,-y,-z
loop_
_atom_site_type_symbol
_atom_site_label
_atom_site_fract_x
_atom_site_fract_y
_atom_site_fract_z
Si Si1 0.000906 0.382391 0.766730
Si Si2 0.064365 0.782857 0.807678
Si Si3 0.375572 0.462996 0.621787
Si Si4 0.741711 0.743772 0.792331
Si Si5 0.384957 0.388638 0.226490
Si Si6 0.491882 0.639743 0.251811
O O1 0.856879 0.449062 0.674349
O O2 0.870805 0.626446 0.922702
O O3 0.000000 0.000000 0.500000
O O4 0.249256 0.480300 0.978401
O O5 0.307805 0.628599 0.854668
O O6 0.000000 0.500000 0.500000
O O7 0.854994 0.738040 0.686443
O O8 0.092855 0.145931 0.071370
O O9 0.556497 0.447668 0.671241
O O10 0.465264 0.308076 0.615381
O O11 0.313095 0.886197 0.921415
O O12 0.516187 0.622180 0.532359
O O13 0.500000 0.000000 0.000000
O O14 0.500000 0.000000 0.500000
#
# Coordination Sequence:
#
# PCOD9100755 Si02
#       6
#     2   2   2   2   2   2
#     4  12  24  40  65  96 134 167 208 273 332 370
#     4   8  17  37  68  89 118 169 217 253 311 383
#     4  10  21  42  69  96 124 172 220 258 317 394
#     4  10  21  43  64  89 128 172 218 261 309 390
#     4  12  26  40  67  92 127 177 221 253 315 392
#     4  10  20  37  65  95 128 164 209 266 328 371
#
# _framework density 22.408875999999999
#
# number of rings (size 3 to 8) (size 9 to 14) (size 15 to 20)
#    0.000    2.000    1.667    5.500    2.333    1.333 
#    0.000    0.000    0.000    9.000    0.000    0.000 
#    0.000    0.000    0.000    0.000    0.000    0.000 
#
# Total GULP energy -67031.170653 kJ/mol
# GULP energy per Si atom -5585.930888 kJ/mol
# Density = 2.235787 g / cm^3
# Si number density = 22.408876 Si / 1000 Ang^3
#
#
#
# Elastic Constant Matrix: (Units=GPa)
#
#
# Indices 1 2 3 4 5 6 
#
# 1 139.5067 51.9541 21.4414 10.4552 24.5036 11.5373
# 2 51.9541 89.7582 25.8280 16.8130 9.6493 13.9214
# 3 21.4414 25.8280 78.6412 8.2276 29.3937 4.6601
# 4 10.4552 16.8130 8.2276 40.5016 4.9757 11.6209
# 5 24.5036 9.6493 29.3937 4.9757 31.8332 9.6819
# 6 11.5373 13.9214 4.6601 11.6209 9.6819 49.5105
#
#
#
# Elastic Compliance Matrix: (Units=1/GPa)
#
#
# Indices 1 2 3 4 5 6 
#
# 1 0.010460 -0.005907 0.002223 0.000164 -0.008536 0.000645
# 2 -0.005907 0.016759 -0.005599 -0.004186 0.006216 -0.003042
# 3 0.002223 -0.005599 0.021659 -0.001046 -0.020867 0.003344
# 4 0.000164 -0.004186 -0.001046 0.028188 -0.000704 -0.005242
# 5 -0.008536 0.006216 -0.020867 -0.000704 0.058220 -0.009015
# 6 0.000645 -0.003042 0.003344 -0.005242 -0.009015 0.023581
#
#
# Mechanical properties :
#
#
# Convention : Reuss Voigt Hill
#
# Bulk Modulus (GPa) = 32.98968 56.26145 44.62557
# Shear Modulus (GPa) = 26.66129 38.28123 32.47126
#
# Velocity S-wave (km/s) = 3.45304 4.13765 3.81075
# Velocity P-wave (km/s) = 5.53639 6.92735 6.27056
#
# Compressibility (1/GPa) = 0.03031251
#
# Stress axis : x y z
#
# Youngs Moduli (GPa) = 95.60241 59.66967 46.16917
#
# Poissons Ratio (x) = 0.35249 -0.10264
# Poissons Ratio (y) = 0.56476 0.25849
# Poissons Ratio (z) = -0.21254 0.33408
#
# Static dielectric constant tensor:
#      x y z
#    x 1.939750 -0.034040 -0.047760 
#    y -0.034040 1.817600 -0.012820 
#    z -0.047760 -0.012820 1.877570 
# 
# From -- ./inp_files/620511.got.cif
#   From: 2010.05.17/outbox.cif.g08.bks.cpg/sg2_311_cif.got.tgz:620511.got - 2010.06.03 11:33:40.
