data_PCOD9100882
_publ_section_title
;
Structure prediction by ZEFSAII (Michael W. Deem and Ramdas Pophale) SiO2 
 PCOD9100882
Probable space group: P -1
;
_chemical_formula_sum "Si O2"
_cell_formula_units_Z 16
_cell_length_a 8.353150
_cell_length_b 16.940314
_cell_length_c 5.459459
_cell_angle_alpha 66.295178
_cell_angle_beta 93.351911
_cell_angle_gamma 110.215554
_cell_volume 660.870316
_symmetry_space_group_name_H-M "P -1"
_symmetry_group_IT_number 2
_symmetry_cell_setting 'triclinic'
loop_
_space_group_symop_operation_xyz
x,y,z
-x,-y,-z
loop_
_atom_site_type_symbol
_atom_site_label
_atom_site_fract_x
_atom_site_fract_y
_atom_site_fract_z
Si Si1 0.322774 0.521534 0.479417
Si Si2 0.239175 0.156393 0.002527
Si Si3 0.294176 0.448821 0.067600
Si Si4 0.549655 0.111781 0.572140
Si Si5 0.146037 0.233246 0.396849
Si Si6 0.239334 0.984956 0.965112
Si Si7 0.818483 0.171330 0.155798
Si Si8 0.621526 0.266227 0.731961
O O1 0.500000 0.500000 0.500000
O O2 0.235082 0.491206 0.246389
O O3 0.362190 0.628790 0.395256
O O4 0.225366 0.465734 0.776583
O O5 0.172901 0.199954 0.709491
O O6 0.184736 0.047237 0.075425
O O7 0.445999 0.205018 0.927844
O O8 0.204861 0.184977 0.234894
O O9 0.248054 0.341544 0.246808
O O10 0.500000 0.500000 0.000000
O O11 0.353448 0.058422 0.685657
O O12 0.631916 0.109800 0.321112
O O13 0.598320 0.217926 0.524508
O O14 0.648851 0.064354 0.818257
O O15 0.946767 0.210976 0.340674
O O16 0.117906 0.898857 0.907286
O O17 0.781836 0.248615 0.895920
#
# Coordination Sequence:
#
# PCOD9100882 Si02
#       8
#     2   2   2   2   2   2   2   2
#     4  10  20  37  66  96 123 160 216 281 321 381
#     4  11  25  42  69  99 135 174 234 275 325 400
#     4  10  20  39  64  89 127 170 213 264 330 396
#     4   9  20  40  66  94 135 176 228 270 325 401
#     4  12  27  44  65 103 140 176 216 286 348 388
#     4   9  21  40  65  98 126 181 233 272 320 392
#     4  11  25  41  69  92 145 177 218 277 343 398
#     4  10  23  41  69 102 125 179 230 272 327 405
#
# _framework density 24.210501000000001
#
# number of rings (size 3 to 8) (size 9 to 14) (size 15 to 20)
#    0.000    1.750    0.000    4.875   10.500    1.000 
#    0.000    1.250    0.000    0.000    0.000    0.000 
#    0.000    0.000    0.000    0.000    0.000    0.000 
#
# Total GULP energy -89444.393642 kJ/mol
# GULP energy per Si atom -5590.274603 kJ/mol
# Density = 2.415540 g / cm^3
# Si number density = 24.210501 Si / 1000 Ang^3
#
#
#
# Elastic Constant Matrix: (Units=GPa)
#
#
# Indices 1 2 3 4 5 6 
#
# 1 56.8955 28.5160 27.2418 -2.1828 5.3793 -1.3364
# 2 28.5160 189.4608 64.3522 -10.0482 3.7133 -26.3571
# 3 27.2418 64.3522 135.7779 15.1943 0.9356 -3.5105
# 4 -2.1828 -10.0482 15.1943 36.7665 -9.3965 -1.8218
# 5 5.3793 3.7133 0.9356 -9.3965 41.5937 8.8127
# 6 -1.3364 -26.3571 -3.5105 -1.8218 8.8127 34.8256
#
#
#
# Elastic Compliance Matrix: (Units=1/GPa)
#
#
# Indices 1 2 3 4 5 6 
#
# 1 0.020358 -0.001845 -0.003384 0.001585 -0.001954 -0.000379
# 2 -0.001845 0.007786 -0.003563 0.003574 -0.000809 0.005854
# 3 -0.003384 -0.003563 0.010312 -0.005617 -0.000322 -0.001999
# 4 0.001585 0.003574 -0.005617 0.032347 0.006430 0.002265
# 5 -0.001954 -0.000809 -0.000322 0.006430 0.027376 -0.007311
# 6 -0.000379 0.005854 -0.001999 0.002265 -0.007311 0.034898
#
#
# Mechanical properties :
#
#
# Convention : Reuss Voigt Hill
#
# Bulk Modulus (GPa) = 47.91180 69.15048 58.53114
# Shear Modulus (GPa) = 31.72268 40.10543 35.91406
#
# Velocity S-wave (km/s) = 3.62371 4.07447 3.85568
# Velocity P-wave (km/s) = 6.11073 7.12455 6.63703
#
# Compressibility (1/GPa) = 0.02087168
#
# Stress axis : x y z
#
# Youngs Moduli (GPa) = 49.12181 128.43704 96.97780
#
# Poissons Ratio (x) = 0.23699 0.32813
# Poissons Ratio (y) = 0.09064 0.34553
# Poissons Ratio (z) = 0.16621 0.45762
#
# Static dielectric constant tensor:
#      x y z
#    x 1.992330 -0.011930 -0.008900 
#    y -0.011930 1.888960 0.026780 
#    z -0.008900 0.026780 1.916670 
# 
# From -- ./inp_files/37484.got.cif
#   From: 2010.05.17/outbox.cif.g08.bks.cpg/sg2_19_cif.got.tgz:37484.got - 2010.06.03 11:33:40.
