data_PCOD9100178
_publ_section_title
;
Structure prediction by ZEFSAII (Michael W. Deem and Ramdas Pophale) SiO2 
 PCOD9100178
Probable space group: P -1
;
_chemical_formula_sum "Si O2"
_cell_formula_units_Z 16
_cell_length_a 8.614294
_cell_length_b 12.224003
_cell_length_c 13.201732
_cell_angle_alpha 98.211137
_cell_angle_beta 94.184833
_cell_angle_gamma 147.414963
_cell_volume 690.546432
_symmetry_space_group_name_H-M "P -1"
_symmetry_group_IT_number 2
_symmetry_cell_setting 'triclinic'
loop_
_space_group_symop_operation_xyz
x,y,z
-x,-y,-z
loop_
_atom_site_type_symbol
_atom_site_label
_atom_site_fract_x
_atom_site_fract_y
_atom_site_fract_z
Si Si1 0.468090 0.604369 0.971854
Si Si2 0.831368 0.544219 0.546259
Si Si3 0.275778 0.664488 0.669180
Si Si4 0.128340 0.710672 0.229335
Si Si5 0.307018 0.289107 0.636767
Si Si6 0.646532 0.862209 0.205332
Si Si7 0.789529 0.103138 0.562236
Si Si8 0.316030 0.266958 0.216953
O O1 0.697914 0.754411 0.907115
O O2 0.130923 0.424246 0.884508
O O3 0.500000 0.500000 0.000000
O O4 0.536426 0.729689 0.082477
O O5 0.719040 0.368436 0.453387
O O6 0.540872 0.413875 0.572670
O O7 0.109694 0.681465 0.653483
O O8 0.965868 0.700927 0.484274
O O9 0.577648 0.788073 0.743972
O O10 0.024831 0.452005 0.705825
O O11 0.414961 0.819623 0.213311
O O12 0.221040 0.877968 0.315150
O O13 0.360206 0.225751 0.712400
O O14 0.427154 0.480159 0.716576
O O15 0.942321 0.075145 0.565946
O O16 0.000345 0.111170 0.233042
O O17 0.500000 0.000000 0.500000
#
# Coordination Sequence:
#
# PCOD9100178 Si02
#       8
#     2   2   2   2   2   2   2   2
#     4  11  21  46  72  90 129 171 207 267 332 371
#     4  10  20  37  63  85 128 177 212 251 329 369
#     4   9  19  39  60  87 127 175 203 261 320 374
#     4  10  21  43  62  95 131 165 212 266 317 378
#     4  12  23  43  62  95 133 169 212 266 318 373
#     4  12  25  40  70  97 124 171 219 261 317 385
#     4  11  24  39  63  94 133 172 215 265 314 380
#     4  11  24  42  65  93 131 160 217 263 318 380
#
# _framework density 23.170055000000001
#
# number of rings (size 3 to 8) (size 9 to 14) (size 15 to 20)
#    0.000    1.250    6.250    1.125    3.500    0.000 
#    0.000    1.875    0.000    0.000    0.000    0.000 
#    0.000    0.000    0.000    0.000    0.000    0.000 
#
# Total GULP energy -89212.835041 kJ/mol
# GULP energy per Si atom -5575.802190 kJ/mol
# Density = 2.311732 g / cm^3
# Si number density = 23.170055 Si / 1000 Ang^3
#
#
#
# Elastic Constant Matrix: (Units=GPa)
#
#
# Indices 1 2 3 4 5 6 
#
# 1 132.9664 57.9775 42.8555 -7.6183 7.5874 41.3241
# 2 57.9775 107.0661 38.8141 -7.3036 6.6836 50.0391
# 3 42.8555 38.8141 93.1601 -11.8201 12.7125 12.5379
# 4 -7.6183 -7.3036 -11.8201 30.8276 7.4566 -5.7871
# 5 7.5874 6.6836 12.7125 7.4566 44.7671 -5.5005
# 6 41.3241 50.0391 12.5379 -5.7871 -5.5005 53.8348
#
#
#
# Elastic Compliance Matrix: (Units=1/GPa)
#
#
# Indices 1 2 3 4 5 6 
#
# 1 0.011552 -0.001892 -0.003415 0.000260 -0.001540 -0.006442
# 2 -0.001892 0.019915 -0.004760 0.000176 -0.003329 -0.016270
# 3 -0.003415 -0.004760 0.014903 0.005267 -0.003353 0.003799
# 4 0.000260 0.000176 0.005267 0.036671 -0.007479 0.001588
# 5 -0.001540 -0.003329 -0.003353 -0.007479 0.026145 0.006925
# 6 -0.006442 -0.016270 0.003799 0.001588 0.006925 0.038637
#
#
# Mechanical properties :
#
#
# Convention : Reuss Voigt Hill
#
# Bulk Modulus (GPa) = 38.11950 68.05410 53.08680
# Shear Modulus (GPa) = 28.29619 38.78894 33.54256
#
# Velocity S-wave (km/s) = 3.49841 4.09601 3.80895
# Velocity P-wave (km/s) = 5.72768 7.19758 6.50428
#
# Compressibility (1/GPa) = 0.02623329
#
# Stress axis : x y z
#
# Youngs Moduli (GPa) = 86.56868 50.21442 67.10013
#
# Poissons Ratio (x) = 0.09503 0.22917
# Poissons Ratio (y) = 0.16383 0.31941
# Poissons Ratio (z) = 0.29566 0.23903
#
# Static dielectric constant tensor:
#      x y z
#    x 1.912690 -0.089910 -0.015600 
#    y -0.089910 2.016280 0.085380 
#    z -0.015600 0.085380 1.852690 
# 
# From -- ./inp_files/351664.got.cif
#   From: 2010.05.17/outbox.cif.g08.bks.cpg/sg2_176_cif.got.tgz:351664.got - 2010.06.03 11:33:40.
