data_PCOD9100891
_publ_section_title
;
Structure prediction by ZEFSAII (Michael W. Deem and Ramdas Pophale) SiO2 
 PCOD9100891
Probable space group: P -1
;
_chemical_formula_sum "Si O2"
_cell_formula_units_Z 14
_cell_length_a 11.914678
_cell_length_b 7.708610
_cell_length_c 7.848211
_cell_angle_alpha 65.280911
_cell_angle_beta 118.091610
_cell_angle_gamma 125.137114
_cell_volume 509.096943
_symmetry_space_group_name_H-M "P -1"
_symmetry_group_IT_number 2
_symmetry_cell_setting 'triclinic'
loop_
_space_group_symop_operation_xyz
x,y,z
-x,-y,-z
loop_
_atom_site_type_symbol
_atom_site_label
_atom_site_fract_x
_atom_site_fract_y
_atom_site_fract_z
Si Si1 0.629754 0.037572 0.744375
Si Si2 0.906828 0.678989 0.983458
Si Si3 0.403821 0.294235 0.893038
Si Si4 0.904564 0.219731 0.234189
Si Si5 0.866829 0.650249 0.355158
Si Si6 0.385876 0.560821 0.302489
Si Si7 0.291436 0.856740 0.591037
O O1 0.659479 0.283633 0.687895
O O2 0.702914 0.021308 0.629373
O O3 0.455646 0.897741 0.687014
O O4 0.673181 0.928119 0.968129
O O5 0.755943 0.627895 0.806402
O O6 0.030108 0.816888 0.878982
O O7 0.899058 0.441728 0.094229
O O8 0.918772 0.746158 0.162437
O O9 0.278197 0.336967 0.710886
O O10 0.519428 0.293208 0.845965
O O11 0.500000 0.500000 0.000000
O O12 0.758836 0.079182 0.298380
O O13 0.022247 0.254095 0.451064
O O14 0.818088 0.395312 0.409282
O O15 0.500000 0.500000 0.500000
#
# Coordination Sequence:
#
# PCOD9100891 Si02
#       7
#     2   2   2   2   2   2   2
#     4  11  24  39  66  97 134 173 214 282 336 388
#     4  10  20  37  66  96 133 171 229 273 323 393
#     4  12  22  41  65  96 135 170 218 273 334 393
#     4  10  21  38  63  99 130 181 226 268 323 401
#     4  11  21  40  67  97 131 180 224 268 328 398
#     4  12  25  41  68 102 131 170 224 277 338 396
#     4  10  20  38  63  94 133 170 223 269 332 393
#
# _framework density 27.499676000000001
#
# number of rings (size 3 to 8) (size 9 to 14) (size 15 to 20)
#    0.000    1.143    2.857    5.571    2.000    1.143 
#    0.000    0.714    0.000   13.714    0.000    0.000 
#    0.000    0.000    0.000    0.000    0.000    0.000 
#
# Total GULP energy -78431.701773 kJ/mol
# GULP energy per Si atom -5602.264412 kJ/mol
# Density = 2.743709 g / cm^3
# Si number density = 27.499676 Si / 1000 Ang^3
#
#
#
# Elastic Constant Matrix: (Units=GPa)
#
#
# Indices 1 2 3 4 5 6 
#
# 1 163.3594 59.1936 68.1639 -10.6147 -38.7856 36.2224
# 2 59.1936 86.3128 43.7450 -0.6897 -1.1414 5.0926
# 3 68.1639 43.7450 156.7263 -5.8380 -18.7629 12.5380
# 4 -10.6147 -0.6897 -5.8380 27.1791 7.0752 10.7774
# 5 -38.7856 -1.1414 -18.7629 7.0752 72.3626 -17.9533
# 6 36.2224 5.0926 12.5380 10.7774 -17.9533 54.2010
#
#
#
# Elastic Compliance Matrix: (Units=1/GPa)
#
#
# Indices 1 2 3 4 5 6 
#
# 1 0.012346 -0.006813 -0.002246 0.006057 0.003571 -0.007113
# 2 -0.006813 0.017323 -0.002603 -0.003289 -0.002936 0.003209
# 3 -0.002246 -0.002603 0.008205 0.000605 0.000824 0.000000
# 4 0.006057 -0.003289 0.000605 0.046278 -0.004814 -0.014676
# 5 0.003571 -0.002936 0.000824 -0.004814 0.017474 0.004444
# 6 -0.007113 0.003209 0.000000 -0.014676 0.004444 0.027292
#
#
# Mechanical properties :
#
#
# Convention : Reuss Voigt Hill
#
# Bulk Modulus (GPa) = 68.72641 83.17818 75.95230
# Shear Modulus (GPa) = 31.82881 46.43495 39.13188
#
# Velocity S-wave (km/s) = 3.40579 4.11367 3.77635
# Velocity P-wave (km/s) = 6.36489 7.27157 6.83328
#
# Compressibility (1/GPa) = 0.01455045
#
# Stress axis : x y z
#
# Youngs Moduli (GPa) = 80.99909 57.72686 121.88007
#
# Poissons Ratio (x) = 0.39331 0.27370
# Poissons Ratio (y) = 0.55188 0.31720
# Poissons Ratio (z) = 0.18190 0.15024
#
# Static dielectric constant tensor:
#      x y z
#    x 2.094220 0.082260 0.038390 
#    y 0.082260 2.418840 0.226710 
#    z 0.038390 0.226710 2.294680 
# 
# From -- ./inp_files/242733.got.cif
#   From: 2010.05.17/outbox.cif.g08.bks.cpg/sg2_122_cif.got.tgz:242733.got - 2010.06.03 11:33:40.
