data_PCOD9100683
_publ_section_title
;
Structure prediction by ZEFSAII (Michael W. Deem and Ramdas Pophale) SiO2 
 PCOD9100683
Probable space group: P -1
;
_chemical_formula_sum "Si O2"
_cell_formula_units_Z 16
_cell_length_a 17.070142
_cell_length_b 17.762348
_cell_length_c 7.474360
_cell_angle_alpha 135.358731
_cell_angle_beta 52.663218
_cell_angle_gamma 155.480352
_cell_volume 654.348524
_symmetry_space_group_name_H-M "P -1"
_symmetry_group_IT_number 2
_symmetry_cell_setting 'triclinic'
loop_
_space_group_symop_operation_xyz
x,y,z
-x,-y,-z
loop_
_atom_site_type_symbol
_atom_site_label
_atom_site_fract_x
_atom_site_fract_y
_atom_site_fract_z
Si Si1 0.887375 0.754844 0.294298
Si Si2 0.229411 0.812853 0.533276
Si Si3 0.306124 0.211035 0.418821
Si Si4 0.104901 0.705765 0.155856
Si Si5 0.915783 0.549342 0.796215
Si Si6 0.635393 0.837973 0.092167
Si Si7 0.038169 0.206761 0.349464
Si Si8 0.436584 0.562660 0.227782
O O1 0.755144 0.724264 0.347946
O O2 0.913977 0.810213 0.561214
O O3 0.102631 0.962294 0.272802
O O4 0.826072 0.577363 0.032747
O O5 0.225864 0.684618 0.380537
O O6 0.266967 0.852668 0.332621
O O7 0.017055 0.645391 0.624535
O O8 0.350982 0.030131 0.788540
O O9 0.558558 0.708943 0.480787
O O10 0.402569 0.281472 0.214207
O O11 0.987469 0.698494 0.374468
O O12 0.094540 0.700905 0.947406
O O13 0.000000 0.500000 0.000000
O O14 0.496048 0.694480 0.208177
O O15 0.841090 0.999906 0.172299
O O16 0.214976 0.360043 0.234588
O O17 0.500000 0.500000 0.000000
#
# Coordination Sequence:
#
# PCOD9100683 Si02
#       8
#     2   2   2   2   2   2   2   2
#     4  10  20  37  65  90 126 168 219 262 321 381
#     4   9  17  30  58  91 120 152 205 259 313 373
#     4  11  24  40  62  94 130 170 214 270 322 380
#     4   8  16  31  57  91 117 154 208 257 305 373
#     4   9  16  31  54  94 118 152 209 258 308 376
#     4  11  23  43  66  95 130 168 217 268 321 388
#     4  10  22  41  66  93 127 171 213 265 323 387
#     4  12  28  43  61  95 136 174 216 268 323 384
#
# _framework density 24.451803000000002
#
# number of rings (size 3 to 8) (size 9 to 14) (size 15 to 20)
#    0.000    2.000    2.500    0.750    3.500    3.000 
#    0.000    0.000    0.000   12.000    0.000   26.250 
#    0.000    0.000    0.000    0.000    0.000    0.000 
#
# Total GULP energy -89290.799059 kJ/mol
# GULP energy per Si atom -5580.674941 kJ/mol
# Density = 2.439615 g / cm^3
# Si number density = 24.451803 Si / 1000 Ang^3
#
#
#
# Elastic Constant Matrix: (Units=GPa)
#
#
# Indices 1 2 3 4 5 6 
#
# 1 79.3216 25.6068 17.5370 0.9888 26.4211 -8.4900
# 2 25.6068 91.1753 2.8261 -13.3268 4.2238 -6.4513
# 3 17.5370 2.8261 91.5809 7.6655 7.2517 -3.9872
# 4 0.9888 -13.3268 7.6655 37.2179 -20.4264 -2.6746
# 5 26.4211 4.2238 7.2517 -20.4264 44.6911 3.7883
# 6 -8.4900 -6.4513 -3.9872 -2.6746 3.7883 32.7414
#
#
#
# Elastic Compliance Matrix: (Units=1/GPa)
#
#
# Indices 1 2 3 4 5 6 
#
# 1 0.021778 -0.006655 -0.001279 -0.012243 -0.018081 0.005272
# 2 -0.006655 0.013919 -0.000400 0.008996 0.006717 0.000926
# 3 -0.001279 -0.000400 0.011820 -0.004183 -0.003125 0.001049
# 4 -0.012243 0.008996 -0.004183 0.046880 0.028611 -0.001392
# 5 -0.018081 0.006717 -0.003125 0.028611 0.046590 -0.006799
# 6 0.005272 0.000926 0.001049 -0.001392 -0.006799 0.032892
#
#
# Mechanical properties :
#
#
# Convention : Reuss Voigt Hill
#
# Bulk Modulus (GPa) = 32.41701 39.33529 35.87615
# Shear Modulus (GPa) = 24.89678 37.33727 31.11703
#
# Velocity S-wave (km/s) = 3.19438 3.91189 3.57120
# Velocity P-wave (km/s) = 5.18572 6.04364 5.63105
#
# Compressibility (1/GPa) = 0.03084800
#
# Stress axis : x y z
#
# Youngs Moduli (GPa) = 45.91892 71.84551 84.60381
#
# Poissons Ratio (x) = 0.47817 0.10820
# Poissons Ratio (y) = 0.30561 0.03381
# Poissons Ratio (z) = 0.05873 0.02871
#
# Static dielectric constant tensor:
#      x y z
#    x 2.043130 -0.008950 0.032560 
#    y -0.008950 1.926970 0.028040 
#    z 0.032560 0.028040 1.952520 
# 
# From -- ./inp_files/203778.got.cif
#   From: 2010.05.17/outbox.cif.g08.bks.cpg/sg2_102_cif.got.tgz:203778.got - 2010.06.03 11:33:40.
