data_PCOD9100934
_publ_section_title
;
Structure prediction by ZEFSAII (Michael W. Deem and Ramdas Pophale) SiO2 
 PCOD9100934
Probable space group: P -1
;
_chemical_formula_sum "Si O2"
_cell_formula_units_Z 16
_cell_length_a 23.834994
_cell_length_b 8.452710
_cell_length_c 5.391371
_cell_angle_alpha 126.900019
_cell_angle_beta 113.516545
_cell_angle_gamma 56.061925
_cell_volume 717.301696
_symmetry_space_group_name_H-M "P -1"
_symmetry_group_IT_number 2
_symmetry_cell_setting 'triclinic'
loop_
_space_group_symop_operation_xyz
x,y,z
-x,-y,-z
loop_
_atom_site_type_symbol
_atom_site_label
_atom_site_fract_x
_atom_site_fract_y
_atom_site_fract_z
Si Si1 0.445255 0.366471 0.044776
Si Si2 0.130128 0.228618 0.732631
Si Si3 0.953147 0.282678 0.940945
Si Si4 0.253835 0.348538 0.122389
Si Si5 0.663254 0.768474 0.331924
Si Si6 0.525531 0.211228 0.536374
Si Si7 0.909537 0.070939 0.255826
Si Si8 0.827108 0.205824 0.842875
O O1 0.477190 0.244297 0.244218
O O2 0.453125 0.589961 0.261056
O O3 0.367572 0.407295 0.928411
O O4 0.486590 0.236950 0.752239
O O5 0.105561 0.090908 0.741485
O O6 0.163711 0.041296 0.406274
O O7 0.066930 0.464620 0.799662
O O8 0.188764 0.296492 0.988202
O O9 0.896466 0.228133 0.921153
O O10 0.029597 0.112230 0.971158
O O11 0.940696 0.224493 0.580340
O O12 0.295985 0.281706 0.386575
O O13 0.228680 0.603537 0.234067
O O14 0.295490 0.225581 0.833972
O O15 0.594605 0.992133 0.440597
O O16 0.834201 0.229514 0.170518
#
# Coordination Sequence:
#
# PCOD9100934 Si02
#       8
#     2   2   2   2   2   2   2   2
#     4  10  21  39  67  97 131 159 201 263 318 369
#     4  10  23  39  59  88 121 169 211 268 321 385
#     4   9  20  38  59  97 118 150 210 269 340 395
#     4  11  28  41  62  89 132 174 225 257 306 376
#     4  12  24  42  65  93 127 176 212 257 305 380
#     4  10  21  39  67  99 128 160 203 260 320 369
#     4  10  20  37  67  86 124 156 206 272 336 387
#     4  10  23  39  60  86 121 171 206 272 324 379
#
# _framework density 22.305817999999999
#
# number of rings (size 3 to 8) (size 9 to 14) (size 15 to 20)
#    0.000    1.750    0.000    3.000    7.000    3.500 
#    0.000    0.000    0.000    0.000    0.000    0.000 
#    0.000    0.000    0.000    0.000    0.000    0.000 
#
# Total GULP energy -89183.078213 kJ/mol
# GULP energy per Si atom -5573.942388 kJ/mol
# Density = 2.225505 g / cm^3
# Si number density = 22.305818 Si / 1000 Ang^3
#
#
#
# Elastic Constant Matrix: (Units=GPa)
#
#
# Indices 1 2 3 4 5 6 
#
# 1 73.2569 8.7865 14.9926 -7.1707 -7.1372 -3.2689
# 2 8.7865 103.1518 59.8319 -18.0780 -1.6981 -7.2756
# 3 14.9926 59.8319 82.9355 -10.2482 4.5927 4.8199
# 4 -7.1707 -18.0780 -10.2482 44.0436 2.4075 8.8424
# 5 -7.1372 -1.6981 4.5927 2.4075 31.9734 3.4613
# 6 -3.2689 -7.2756 4.8199 8.8424 3.4613 17.8230
#
#
#
# Elastic Compliance Matrix: (Units=1/GPa)
#
#
# Indices 1 2 3 4 5 6 
#
# 1 0.014906 0.001599 -0.004066 0.001311 0.003557 0.003145
# 2 0.001599 0.019222 -0.014564 0.002558 0.002152 0.010392
# 3 -0.004066 -0.014564 0.024552 0.002011 -0.003890 -0.013572
# 4 0.001311 0.002558 0.002011 0.026983 -0.000534 -0.012542
# 5 0.003557 0.002152 -0.003890 -0.000534 0.033172 -0.003594
# 6 0.003145 0.010392 -0.013572 -0.012542 -0.003594 0.071517
#
#
# Mechanical properties :
#
#
# Convention : Reuss Voigt Hill
#
# Bulk Modulus (GPa) = 40.61894 47.39625 44.00759
# Shear Modulus (GPa) = 21.49428 30.48356 25.98892
#
# Velocity S-wave (km/s) = 3.10759 3.70079 3.41709
# Velocity P-wave (km/s) = 5.57904 6.28933 5.94480
#
# Compressibility (1/GPa) = 0.02461906
#
# Stress axis : x y z
#
# Youngs Moduli (GPa) = 67.08634 52.02292 40.73034
#
# Poissons Ratio (x) = -0.08317 0.16560
# Poissons Ratio (y) = -0.10725 0.59318
# Poissons Ratio (z) = 0.27276 0.75764
#
# Static dielectric constant tensor:
#      x y z
#    x 1.858310 0.034390 -0.124090 
#    y 0.034390 1.861300 -0.069290 
#    z -0.124090 -0.069290 2.027060 
# 
# From -- ./inp_files/126536.got.cif
#   From: 2010.05.17/outbox.cif.g08.bks.cpg/sg2_64_cif.got.tgz:126536.got - 2010.06.03 11:33:40.
