data_PCOD9100140
_publ_section_title
;
Structure prediction by ZEFSAII (Michael W. Deem and Ramdas Pophale) SiO2 
 PCOD9100140
Probable space group: P -1
;
_chemical_formula_sum "Si O2"
_cell_formula_units_Z 15
_cell_length_a 14.016997
_cell_length_b 9.029321
_cell_length_c 7.480596
_cell_angle_alpha 74.482646
_cell_angle_beta 47.083212
_cell_angle_gamma 93.410231
_cell_volume 627.692742
_symmetry_space_group_name_H-M "P -1"
_symmetry_group_IT_number 2
_symmetry_cell_setting 'triclinic'
loop_
_space_group_symop_operation_xyz
x,y,z
-x,-y,-z
loop_
_atom_site_type_symbol
_atom_site_label
_atom_site_fract_x
_atom_site_fract_y
_atom_site_fract_z
Si Si1 0.296215 0.401422 0.176113
Si Si2 0.804712 0.126717 0.168875
Si Si3 0.115945 0.582677 0.477151
Si Si4 0.071396 0.326779 0.932824
Si Si5 0.331956 0.236210 0.521441
Si Si6 0.718932 0.436166 0.185954
Si Si7 0.500000 0.500000 0.500000
Si Si8 0.985489 0.148881 0.581473
O O1 0.256719 0.558987 0.235826
O O2 0.373590 0.336219 0.248922
O O3 0.144067 0.263329 0.387056
O O4 0.356953 0.461674 0.879371
O O5 0.742893 0.271253 0.161575
O O6 0.690406 0.954130 0.412387
O O7 0.899081 0.107251 0.889138
O O8 0.917370 0.200699 0.157106
O O9 0.083417 0.472244 0.730512
O O10 0.104733 0.760114 0.439974
O O11 0.000000 0.500000 0.500000
O O12 0.178755 0.242232 0.756914
O O13 0.137553 0.422555 0.996883
O O14 0.424683 0.317330 0.545151
O O15 0.613651 0.423991 0.483117
O O16 0.000000 0.000000 0.500000
#
# Coordination Sequence:
#
# PCOD9100140 Si02
#       8
#     2   2   2   2   2   2   1   2
#     4  10  20  39  62  92 120 173 204 250 322 376
#     4  12  21  39  64 100 132 166 200 262 330 370
#     4   9  15  35  52  82 131 167 197 232 303 387
#     4  10  20  37  62  97 130 165 204 248 322 394
#     4  10  23  40  67  89 129 165 215 265 308 376
#     4  11  24  40  70  89 128 172 216 259 305 385
#     4  10  26  48  62  92 116 174 232 260 308 368
#     4  11  22  31  57  98 144 159 194 254 319 395
#
# _framework density 23.897044000000001
#
# number of rings (size 3 to 8) (size 9 to 14) (size 15 to 20)
#    0.000    1.600    5.333    1.600    3.733    2.133 
#    0.000    0.000    0.000    1.600    0.000    0.000 
#    0.000    0.000    0.000    0.000    0.000    0.000 
#
# Total GULP energy -83564.398312 kJ/mol
# GULP energy per Si atom -5570.959887 kJ/mol
# Density = 2.384265 g / cm^3
# Si number density = 23.897044 Si / 1000 Ang^3
#
#
#
# Elastic Constant Matrix: (Units=GPa)
#
#
# Indices 1 2 3 4 5 6 
#
# 1 91.1502 37.5039 32.9682 -13.5507 11.4586 16.8075
# 2 37.5039 181.1597 37.4550 -6.8713 4.1702 2.6143
# 3 32.9682 37.4550 75.3328 -5.6723 8.0863 1.3539
# 4 -13.5507 -6.8713 -5.6723 36.7261 -2.0145 -5.9811
# 5 11.4586 4.1702 8.0863 -2.0145 42.8971 3.6781
# 6 16.8075 2.6143 1.3539 -5.9811 3.6781 25.2722
#
#
#
# Elastic Compliance Matrix: (Units=1/GPa)
#
#
# Indices 1 2 3 4 5 6 
#
# 1 0.016184 -0.001912 -0.005498 0.003146 -0.002163 -0.009212
# 2 -0.001912 0.006398 -0.002368 0.000265 0.000283 0.000758
# 3 -0.005498 -0.002368 0.017034 0.000614 -0.001774 0.003392
# 4 0.003146 0.000265 0.000614 0.029312 -0.000016 0.004787
# 5 -0.002163 0.000283 -0.001774 -0.000016 0.024371 -0.002046
# 6 -0.009212 0.000758 0.003392 0.004787 -0.002046 0.046866
#
#
# Mechanical properties :
#
#
# Convention : Reuss Voigt Hill
#
# Bulk Modulus (GPa) = 49.84969 62.61077 56.23023
# Shear Modulus (GPa) = 30.04669 36.96013 33.50341
#
# Velocity S-wave (km/s) = 3.54974 3.93700 3.74838
# Velocity P-wave (km/s) = 6.14055 6.85009 6.50500
#
# Compressibility (1/GPa) = 0.02006030
#
# Stress axis : x y z
#
# Youngs Moduli (GPa) = 61.78900 156.29777 58.70730
#
# Poissons Ratio (x) = 0.29881 0.32275
# Poissons Ratio (y) = 0.11813 0.13904
# Poissons Ratio (z) = 0.33969 0.37018
#
# Static dielectric constant tensor:
#      x y z
#    x 1.994110 0.032810 0.114900 
#    y 0.032810 2.062100 0.209260 
#    z 0.114900 0.209260 2.270210 
# 
# From -- ./inp_files/292029.got.cif
#   From: 2010.05.17/outbox.cif.g08.bks.cpg/sg2_147_cif.got.tgz:292029.got - 2010.06.03 11:33:40.
