data_PCOD9100812
_publ_section_title
;
Structure prediction by ZEFSAII (Michael W. Deem and Ramdas Pophale) SiO2 
 PCOD9100812
Probable space group: P -1
;
_chemical_formula_sum "Si O2"
_cell_formula_units_Z 12
_cell_length_a 16.267672
_cell_length_b 9.515296
_cell_length_c 7.877038
_cell_angle_alpha 124.403659
_cell_angle_beta 112.604408
_cell_angle_gamma 33.051745
_cell_volume 537.785115
_symmetry_space_group_name_H-M "P -1"
_symmetry_group_IT_number 2
_symmetry_cell_setting 'triclinic'
loop_
_space_group_symop_operation_xyz
x,y,z
-x,-y,-z
loop_
_atom_site_type_symbol
_atom_site_label
_atom_site_fract_x
_atom_site_fract_y
_atom_site_fract_z
Si Si1 0.456859 0.136375 0.316137
Si Si2 0.277003 0.797132 0.158167
Si Si3 0.227964 0.175661 0.112711
Si Si4 0.542253 0.295914 0.255044
Si Si5 0.732954 0.514490 0.281035
Si Si6 0.994872 0.673776 0.493884
O O1 0.347461 0.145351 0.206397
O O2 0.476719 0.222412 0.228110
O O3 0.374018 0.367117 0.561636
O O4 0.622819 0.812697 0.289980
O O5 0.448772 0.494495 0.149324
O O6 0.259498 0.989547 0.158698
O O7 0.225480 0.713907 0.952372
O O8 0.171850 0.987140 0.372092
O O9 0.060241 0.513344 0.253200
O O10 0.280585 0.007074 0.864024
O O11 0.500000 0.500000 0.500000
O O12 0.880785 0.385357 0.375923
O O13 0.000000 0.500000 0.500000
#
# Coordination Sequence:
#
# PCOD9100812 Si02
#       6
#     2   2   2   2   2   2
#     4  10  22  37  61  92 118 154 194 249 296 344
#     4  11  22  39  63  90 118 157 199 242 290 352
#     4  10  21  41  61  87 121 157 197 240 295 351
#     4  12  25  36  60  92 122 150 202 248 293 341
#     4  10  20  37  66  86 119 154 202 238 293 352
#     4   9  21  38  63  87 117 157 199 238 292 356
#
# _framework density 22.313745999999998
#
# number of rings (size 3 to 8) (size 9 to 14) (size 15 to 20)
#    0.000    1.667    1.667    2.500    9.333    0.000 
#    0.000    4.167    3.667    0.000    0.000    0.000 
#    0.000    0.000    0.000    0.000    0.000    0.000 
#
# Total GULP energy -67041.337043 kJ/mol
# GULP energy per Si atom -5586.778087 kJ/mol
# Density = 2.226296 g / cm^3
# Si number density = 22.313746 Si / 1000 Ang^3
#
#
#
# Elastic Constant Matrix: (Units=GPa)
#
#
# Indices 1 2 3 4 5 6 
#
# 1 90.8763 21.9712 44.9926 13.5150 -5.4029 2.1283
# 2 21.9712 39.8147 12.3895 13.7804 -3.0992 -9.1153
# 3 44.9926 12.3895 177.7169 31.1898 -25.6539 -9.6168
# 4 13.5150 13.7804 31.1898 29.3362 -11.5225 -8.8994
# 5 -5.4029 -3.0992 -25.6539 -11.5225 34.0606 7.6322
# 6 2.1283 -9.1153 -9.6168 -8.8994 7.6322 27.0750
#
#
#
# Elastic Compliance Matrix: (Units=1/GPa)
#
#
# Indices 1 2 3 4 5 6 
#
# 1 0.014878 -0.007994 -0.003288 -0.001273 -0.000058 -0.005431
# 2 -0.007994 0.035552 0.001954 -0.013414 -0.003298 0.009812
# 3 -0.003288 0.001954 0.007956 -0.006330 0.003346 0.000719
# 4 -0.001273 -0.013414 -0.006330 0.054264 0.010315 0.008264
# 5 -0.000058 -0.003298 0.003346 0.010315 0.036593 -0.006842
# 6 -0.005431 0.009812 0.000719 0.008264 -0.006842 0.045565
#
#
# Mechanical properties :
#
#
# Convention : Reuss Voigt Hill
#
# Bulk Modulus (GPa) = 25.16954 51.90161 38.53557
# Shear Modulus (GPa) = 22.05498 33.36466 27.70982
#
# Velocity S-wave (km/s) = 3.14730 3.87104 3.52778
# Velocity P-wave (km/s) = 4.95092 6.57954 5.82246
#
# Compressibility (1/GPa) = 0.03973056
#
# Stress axis : x y z
#
# Youngs Moduli (GPa) = 67.21467 28.12773 125.69306
#
# Poissons Ratio (x) = 0.22485 0.41328
# Poissons Ratio (y) = 0.53732 -0.24567
# Poissons Ratio (z) = 0.22100 -0.05498
#
# Static dielectric constant tensor:
#      x y z
#    x 1.788010 0.001400 -0.024570 
#    y 0.001400 1.762780 0.009420 
#    z -0.024570 0.009420 1.922000 
# 
# From -- ./inp_files/145416.got.cif
#   From: 2010.05.17/outbox.cif.g08.bks.cpg/sg2_73_cif.got.tgz:145416.got - 2010.06.03 11:33:40.
