data_PCOD9100944
_publ_section_title
;
Structure prediction by ZEFSAII (Michael W. Deem and Ramdas Pophale) SiO2 
 PCOD9100944
Probable space group: P -1
;
_chemical_formula_sum "Si O2"
_cell_formula_units_Z 16
_cell_length_a 11.855153
_cell_length_b 16.313047
_cell_length_c 20.033019
_cell_angle_alpha 159.238491
_cell_angle_beta 146.753981
_cell_angle_gamma 46.169972
_cell_volume 668.326478
_symmetry_space_group_name_H-M "P -1"
_symmetry_group_IT_number 2
_symmetry_cell_setting 'triclinic'
loop_
_space_group_symop_operation_xyz
x,y,z
-x,-y,-z
loop_
_atom_site_type_symbol
_atom_site_label
_atom_site_fract_x
_atom_site_fract_y
_atom_site_fract_z
Si Si1 0.524185 0.303462 0.933630
Si Si2 0.115384 0.696793 0.144295
Si Si3 0.332775 0.365894 0.148751
Si Si4 0.872877 0.591933 0.205463
Si Si5 0.617999 0.330865 0.462354
Si Si6 0.554682 0.876171 0.567442
Si Si7 0.173623 0.326277 0.519226
Si Si8 0.312562 0.788086 0.832350
O O1 0.678334 0.416829 0.029406
O O2 0.649039 0.520001 0.216921
O O3 0.249416 0.222749 0.732513
O O4 0.566787 0.050344 0.769427
O O5 0.372080 0.900480 0.446198
O O6 0.130008 0.547303 0.971941
O O7 0.000000 0.500000 0.000000
O O8 0.938505 0.815446 0.134788
O O9 0.355999 0.555786 0.364734
O O10 0.433126 0.570945 0.293637
O O11 0.496194 0.232404 0.135216
O O12 0.125526 0.659163 0.413388
O O13 0.500000 0.500000 0.500000
O O14 0.436320 0.039649 0.131408
O O15 0.783421 0.908522 0.668007
O O16 0.221731 0.539005 0.646815
O O17 0.904624 0.222898 0.323254
#
# Coordination Sequence:
#
# PCOD9100944 Si02
#       8
#     2   2   2   2   2   2   2   2
#     4  11  23  41  64  92 132 166 209 266 321 376
#     4   9  18  39  62  90 126 158 204 262 312 377
#     4   9  21  40  60  94 123 156 218 260 316 376
#     4  10  24  43  58  96 131 163 216 259 315 390
#     4  11  25  43  62  90 129 168 210 261 318 379
#     4  10  20  37  67  92 121 169 204 266 322 368
#     4  10  22  42  64  96 127 162 219 261 316 376
#     4  10  23  41  67  92 123 169 215 265 309 379
#
# _framework density 23.940393
#
# number of rings (size 3 to 8) (size 9 to 14) (size 15 to 20)
#    0.000    2.000    1.250    0.750    5.250    1.000 
#    0.000    6.250    0.000    0.000    0.000    0.000 
#    0.000    0.000    0.000    0.000    0.000    0.000 
#
# Total GULP energy -89142.805317 kJ/mol
# GULP energy per Si atom -5571.425332 kJ/mol
# Density = 2.388590 g / cm^3
# Si number density = 23.940393 Si / 1000 Ang^3
#
#
#
# Elastic Constant Matrix: (Units=GPa)
#
#
# Indices 1 2 3 4 5 6 
#
# 1 86.1103 56.8770 4.9620 -10.8745 -3.5981 -29.8812
# 2 56.8770 144.4937 53.1241 -23.8522 13.0696 -64.2505
# 3 4.9620 53.1241 65.2401 -21.2211 -4.9364 -28.9074
# 4 -10.8745 -23.8522 -21.2211 26.1216 -10.5108 5.3356
# 5 -3.5981 13.0696 -4.9364 -10.5108 26.7089 -0.9007
# 6 -29.8812 -64.2505 -28.9074 5.3356 -0.9007 55.8627
#
#
#
# Elastic Compliance Matrix: (Units=1/GPa)
#
#
# Indices 1 2 3 4 5 6 
#
# 1 0.025619 -0.012050 0.021812 0.024982 0.023518 0.009125
# 2 -0.012050 0.024186 -0.016453 -0.006475 -0.018603 0.013176
# 3 0.021812 -0.016453 0.054489 0.051826 0.042018 0.016668
# 4 0.024982 -0.006475 0.051826 0.103150 0.057509 0.023809
# 5 0.023518 -0.018603 0.042018 0.057509 0.080404 0.008730
# 6 0.009125 0.013176 0.016668 0.023809 0.008730 0.044429
#
#
# Mechanical properties :
#
#
# Convention : Reuss Voigt Hill
#
# Bulk Modulus (GPa) = 10.99956 58.41893 34.70925
# Shear Modulus (GPa) = 13.29921 33.79736 23.54828
#
# Velocity S-wave (km/s) = 2.35949 3.76137 3.13968
# Velocity P-wave (km/s) = 3.46806 6.58170 5.26052
#
# Compressibility (1/GPa) = 0.09091270
#
# Stress axis : x y z
#
# Youngs Moduli (GPa) = 39.03347 41.34694 18.35226
#
# Poissons Ratio (x) = 0.49821 -0.40030
# Poissons Ratio (y) = 0.47034 0.30195
# Poissons Ratio (z) = -0.85140 0.68029
#
# Static dielectric constant tensor:
#      x y z
#    x 2.028330 0.047880 0.059950 
#    y 0.047880 2.121490 0.048900 
#    z 0.059950 0.048900 1.931260 
# 
# From -- ./inp_files/433242.got.cif
#   From: 2010.05.17/outbox.cif.g08.bks.cpg/sg2_217_cif.got.tgz:433242.got - 2010.06.03 11:33:40.
