data_PCOD9100760
_publ_section_title
;
Structure prediction by ZEFSAII (Michael W. Deem and Ramdas Pophale) SiO2 
 PCOD9100760
Probable space group: P -1
;
_chemical_formula_sum "Si O2"
_cell_formula_units_Z 16
_cell_length_a 12.893701
_cell_length_b 12.914398
_cell_length_c 13.878878
_cell_angle_alpha 30.632521
_cell_angle_beta 136.466819
_cell_angle_gamma 145.955832
_cell_volume 658.641064
_symmetry_space_group_name_H-M "P -1"
_symmetry_group_IT_number 2
_symmetry_cell_setting 'triclinic'
loop_
_space_group_symop_operation_xyz
x,y,z
-x,-y,-z
loop_
_atom_site_type_symbol
_atom_site_label
_atom_site_fract_x
_atom_site_fract_y
_atom_site_fract_z
Si Si1 0.849133 0.384675 0.907241
Si Si2 0.802541 0.918847 0.249186
Si Si3 0.441665 0.637325 0.950250
Si Si4 0.406017 0.579049 0.183531
Si Si5 0.595354 0.298542 0.329514
Si Si6 0.987275 0.303723 0.404292
Si Si7 0.666110 0.898591 0.394962
Si Si8 0.702981 0.227279 0.663226
O O1 0.652336 0.279916 0.902928
O O2 0.896760 0.596177 0.696543
O O3 0.000000 0.500000 0.000000
O O4 0.859098 0.174480 0.035204
O O5 0.620788 0.706980 0.240306
O O6 0.957766 0.872426 0.376940
O O7 0.742023 0.929255 0.311696
O O8 0.325256 0.604402 0.802956
O O9 0.624979 0.932907 0.833426
O O10 0.352191 0.597233 0.025937
O O11 0.483946 0.426462 0.154310
O O12 0.310368 0.303597 0.379211
O O13 0.693819 0.343601 0.462349
O O14 0.500000 0.000000 0.500000
O O15 0.089936 0.558071 0.331916
O O16 0.781714 0.131927 0.360113
O O17 0.451897 0.800290 0.344353
#
# Coordination Sequence:
#
# PCOD9100760 Si02
#       8
#     2   2   2   2   2   2   2   2
#     4  12  24  38  55  86 128 169 211 258 303 357
#     4  12  22  40  58  84 128 169 216 261 301 362
#     4  10  20  37  65  96 121 158 207 254 316 376
#     4  12  22  38  63  91 121 171 216 252 313 374
#     4   9  19  38  67  98 122 152 200 261 318 375
#     4  12  24  40  60  89 127 171 212 258 307 363
#     4  12  22  38  60  87 126 168 208 257 307 359
#     4  11  22  40  63  91 122 161 209 255 310 373
#
# _framework density 24.292442000000001
#
# number of rings (size 3 to 8) (size 9 to 14) (size 15 to 20)
#    0.000    0.750    5.000    4.125    0.000    0.000 
#    0.000    0.000    0.000    7.500    0.000    0.000 
#    0.000    0.000    0.000    0.000    0.000    0.000 
#
# Total GULP energy -89163.705004 kJ/mol
# GULP energy per Si atom -5572.731563 kJ/mol
# Density = 2.423715 g / cm^3
# Si number density = 24.292442 Si / 1000 Ang^3
#
#
#
# Elastic Constant Matrix: (Units=GPa)
#
#
# Indices 1 2 3 4 5 6 
#
# 1 21.8104 11.1424 22.4102 3.4579 2.7851 -13.7178
# 2 11.1424 100.9461 8.8508 -2.3357 7.0823 -3.9881
# 3 22.4102 8.8508 139.6697 -9.7946 6.9999 -12.6609
# 4 3.4579 -2.3357 -9.7946 34.1572 -17.4899 1.8187
# 5 2.7851 7.0823 6.9999 -17.4899 43.5704 5.0914
# 6 -13.7178 -3.9881 -12.6609 1.8187 5.0914 22.3391
#
#
#
# Elastic Compliance Matrix: (Units=1/GPa)
#
#
# Indices 1 2 3 4 5 6 
#
# 1 0.116268 -0.007863 -0.012714 -0.032881 -0.025643 0.071309
# 2 -0.007863 0.010687 0.000470 0.001633 -0.000338 -0.002710
# 3 -0.012714 0.000470 0.009134 0.004959 0.001648 -0.003326
# 4 -0.032881 0.001633 0.004959 0.047373 0.023119 -0.026215
# 5 -0.025643 -0.000338 0.001648 0.023119 0.036593 -0.025095
# 6 0.071309 -0.002710 -0.003326 -0.026215 -0.025095 0.094038
#
#
# Mechanical properties :
#
#
# Convention : Reuss Voigt Hill
#
# Bulk Modulus (GPa) = 10.43026 38.58146 24.50586
# Shear Modulus (GPa) = 12.94449 34.68153 23.81301
#
# Velocity S-wave (km/s) = 2.31088 3.78255 3.13431
# Velocity P-wave (km/s) = 3.37982 5.91553 4.81750
#
# Compressibility (1/GPa) = 0.09587489
#
# Stress axis : x y z
#
# Youngs Moduli (GPa) = 8.60084 93.56782 109.48639
#
# Poissons Ratio (x) = 0.73577 1.39198
# Poissons Ratio (y) = 0.06763 -0.05148
# Poissons Ratio (z) = 0.10935 -0.04400
#
# Static dielectric constant tensor:
#      x y z
#    x 2.031510 -0.031000 0.048780 
#    y -0.031000 2.131200 -0.044030 
#    z 0.048780 -0.044030 1.980930 
# 
# From -- ./inp_files/305978.got.cif
#   From: 2010.05.17/outbox.cif.g08.bks.cpg/sg2_153_cif.got.tgz:305978.got - 2010.06.03 11:33:40.
