data_PCOD9100148
_publ_section_title
;
Structure prediction by ZEFSAII (Michael W. Deem and Ramdas Pophale) SiO2 
 PCOD9100148
Probable space group: P -1
;
_chemical_formula_sum "Si O2"
_cell_formula_units_Z 14
_cell_length_a 11.332446
_cell_length_b 9.669245
_cell_length_c 11.084698
_cell_angle_alpha 128.448020
_cell_angle_beta 43.701224
_cell_angle_gamma 98.844174
_cell_volume 550.331994
_symmetry_space_group_name_H-M "P -1"
_symmetry_group_IT_number 2
_symmetry_cell_setting 'triclinic'
loop_
_space_group_symop_operation_xyz
x,y,z
-x,-y,-z
loop_
_atom_site_type_symbol
_atom_site_label
_atom_site_fract_x
_atom_site_fract_y
_atom_site_fract_z
Si Si1 0.431807 0.628048 0.497054
Si Si2 0.258457 0.474267 0.109859
Si Si3 0.606542 0.067564 0.678034
Si Si4 0.808480 0.499140 0.542898
Si Si5 0.864607 0.868547 0.615537
Si Si6 0.211847 0.042297 0.010380
Si Si7 0.798907 0.671121 0.169659
O O1 0.500000 0.500000 0.500000
O O2 0.373671 0.510806 0.382605
O O3 0.616562 0.643465 0.325118
O O4 0.244468 0.858495 0.799486
O O5 0.211330 0.465475 0.280345
O O6 0.108296 0.723688 0.330430
O O7 0.185855 0.374272 0.007736
O O8 0.503271 0.307766 0.839508
O O9 0.740324 0.998551 0.661841
O O10 0.731864 0.902764 0.388717
O O11 0.417149 0.043261 0.838378
O O12 0.811960 0.690163 0.583209
O O13 0.006991 0.264739 0.255025
O O14 0.808311 0.993683 0.851230
O O15 0.000000 0.500000 0.000000
#
# Coordination Sequence:
#
# PCOD9100148 Si02
#       7
#     2   2   2   2   2   2   2
#     4  11  26  41  65  98 132 174 215 271 333 383
#     4  11  22  38  65  96 128 173 220 264 322 390
#     4  11  20  35  65  94 128 169 220 266 315 376
#     4  11  21  40  64  98 136 168 212 278 324 385
#     4  11  20  37  67 100 133 166 222 271 312 387
#     4  10  20  37  62  98 129 171 217 264 323 384
#     4  11  24  44  63  92 134 177 218 268 323 393
#
# _framework density 25.439188999999999
#
# number of rings (size 3 to 8) (size 9 to 14) (size 15 to 20)
#    0.000    1.143    4.286    3.857    2.000    0.571 
#    0.000    1.429    0.000    2.571    0.000    0.000 
#    0.000    0.000    0.000    0.000    0.000    0.000 
#
# Total GULP energy -78353.607627 kJ/mol
# GULP energy per Si atom -5596.686259 kJ/mol
# Density = 2.538129 g / cm^3
# Si number density = 25.439189 Si / 1000 Ang^3
#
#
#
# Elastic Constant Matrix: (Units=GPa)
#
#
# Indices 1 2 3 4 5 6 
#
# 1 160.2368 61.5024 50.0846 3.3118 -1.0050 -25.9822
# 2 61.5024 71.9491 24.6064 -0.1182 8.3679 -13.3911
# 3 50.0846 24.6064 147.4556 5.8282 8.3999 -10.3058
# 4 3.3118 -0.1182 5.8282 26.0618 -19.0518 5.0291
# 5 -1.0050 8.3679 8.3999 -19.0518 44.3177 6.6870
# 6 -25.9822 -13.3911 -10.3058 5.0291 6.6870 43.2930
#
#
#
# Elastic Compliance Matrix: (Units=1/GPa)
#
#
# Indices 1 2 3 4 5 6 
#
# 1 0.010401 -0.007751 -0.002078 -0.000480 0.001406 0.003189
# 2 -0.007751 0.022077 -0.000223 -0.004572 -0.006827 0.003710
# 3 -0.002078 -0.000223 0.008043 -0.004631 -0.003780 0.001721
# 4 -0.000480 -0.004572 -0.004631 0.066235 0.032547 -0.015526
# 5 0.001406 -0.006827 -0.003780 0.032547 0.040433 -0.012194
# 6 0.003189 0.003710 0.001721 -0.015526 -0.012194 0.030256
#
#
# Mechanical properties :
#
#
# Convention : Reuss Voigt Hill
#
# Bulk Modulus (GPa) = 48.97342 72.44760 60.71051
# Shear Modulus (GPa) = 24.46731 38.96436 31.71584
#
# Velocity S-wave (km/s) = 3.10465 3.91790 3.53474
# Velocity P-wave (km/s) = 5.66963 7.00051 6.36992
#
# Compressibility (1/GPa) = 0.02041924
#
# Stress axis : x y z
#
# Youngs Moduli (GPa) = 96.14513 45.29515 124.32933
#
# Poissons Ratio (x) = 0.35108 0.25830
# Poissons Ratio (y) = 0.74523 0.02766
# Poissons Ratio (z) = 0.19975 0.01008
#
# Static dielectric constant tensor:
#      x y z
#    x 1.953330 0.037970 -0.002660 
#    y 0.037970 2.102450 -0.134720 
#    z -0.002660 -0.134720 2.314810 
# 
# From -- ./inp_files/426644.got.cif
#   From: 2010.05.17/outbox.cif.g08.bks.cpg/sg2_214_cif.got.tgz:426644.got - 2010.06.03 11:33:40.
