data_PCOD9100504
_publ_section_title
;
Structure prediction by ZEFSAII (Michael W. Deem and Ramdas Pophale) SiO2 
 PCOD9100504
Probable space group: P -1
;
_chemical_formula_sum "Si O2"
_cell_formula_units_Z 16
_cell_length_a 9.931958
_cell_length_b 12.532503
_cell_length_c 10.897428
_cell_angle_alpha 145.919928
_cell_angle_beta 114.211971
_cell_angle_gamma 85.594565
_cell_volume 594.486288
_symmetry_space_group_name_H-M "P -1"
_symmetry_group_IT_number 2
_symmetry_cell_setting 'triclinic'
loop_
_space_group_symop_operation_xyz
x,y,z
-x,-y,-z
loop_
_atom_site_type_symbol
_atom_site_label
_atom_site_fract_x
_atom_site_fract_y
_atom_site_fract_z
Si Si1 0.339613 0.573284 0.934878
Si Si2 0.019452 0.731247 0.187376
Si Si3 0.317713 0.315881 0.430260
Si Si4 0.777570 0.140230 0.383005
Si Si5 0.316429 0.304224 0.071593
Si Si6 0.702974 0.807559 0.321295
Si Si7 0.607022 0.057305 0.867155
Si Si8 0.150018 0.550966 0.507568
O O1 0.306111 0.421103 0.655554
O O2 0.234018 0.363721 0.786565
O O3 0.513945 0.706899 0.211668
O O4 0.331285 0.779421 0.072414
O O5 0.092219 0.857726 0.464876
O O6 0.847092 0.678892 0.006207
O O7 0.170915 0.935548 0.360170
O O8 0.000000 0.500000 0.000000
O O9 0.189564 0.352362 0.330949
O O10 0.297381 0.080304 0.221530
O O11 0.515255 0.475193 0.613935
O O12 0.873661 0.358373 0.543490
O O13 0.722813 0.912361 0.072699
O O14 0.600685 0.101858 0.343729
O O15 0.360227 0.249281 0.898520
O O16 0.675290 0.233017 0.171861
O O17 0.000000 0.500000 0.500000
#
# Coordination Sequence:
#
# PCOD9100504 Si02
#       8
#     2   2   2   2   2   2   2   2
#     4   9  18  37  61  87 132 173 212 265 323 379
#     4  11  22  37  60 100 136 169 222 268 318 394
#     4  10  22  41  65 100 129 166 224 267 327 392
#     4  11  21  44  69  92 130 182 217 266 333 388
#     4  10  20  37  64  91 131 173 215 264 324 395
#     4   9  17  35  56  86 127 179 215 255 318 386
#     4  11  21  41  70  95 129 169 224 269 326 399
#     4  11  26  46  68  92 130 170 222 282 334 387
#
# _framework density 26.913995
#
# number of rings (size 3 to 8) (size 9 to 14) (size 15 to 20)
#    0.000    1.750    5.000    2.625    0.000    5.000 
#    6.750    1.875    0.000    0.000    0.000    0.000 
#    0.000    0.000    0.000    0.000    0.000    0.000 
#
# Total GULP energy -89188.777854 kJ/mol
# GULP energy per Si atom -5574.298616 kJ/mol
# Density = 2.685274 g / cm^3
# Si number density = 26.913995 Si / 1000 Ang^3
#
#
#
# Elastic Constant Matrix: (Units=GPa)
#
#
# Indices 1 2 3 4 5 6 
#
# 1 79.9338 41.3003 25.7356 16.9495 0.0339 -22.3352
# 2 41.3003 175.9389 17.7376 42.2599 -8.5574 -24.8719
# 3 25.7356 17.7376 79.1211 42.1954 -0.8325 -6.8675
# 4 16.9495 42.2599 42.1954 64.8817 -16.5574 -14.4196
# 5 0.0339 -8.5574 -0.8325 -16.5574 36.6640 10.5344
# 6 -22.3352 -24.8719 -6.8675 -14.4196 10.5344 40.2003
#
#
#
# Elastic Compliance Matrix: (Units=1/GPa)
#
#
# Indices 1 2 3 4 5 6 
#
# 1 0.017776 -0.003081 -0.005621 0.002321 -0.002237 0.008428
# 2 -0.003081 0.007731 0.002490 -0.005780 -0.001249 0.001751
# 3 -0.005621 0.002490 0.022659 -0.016887 -0.005885 -0.002226
# 4 0.002321 -0.005780 -0.016887 0.033510 0.012361 0.003609
# 5 -0.002237 -0.001249 -0.005885 0.012361 0.034636 -0.007663
# 6 0.008428 0.001751 -0.002226 0.003609 -0.007663 0.033564
#
#
# Mechanical properties :
#
#
# Convention : Reuss Voigt Hill
#
# Bulk Modulus (GPa) = 27.97747 56.06010 42.01879
# Shear Modulus (GPa) = 28.70044 45.03055 36.86550
#
# Velocity S-wave (km/s) = 3.26908 4.09483 3.70503
# Velocity P-wave (km/s) = 4.96658 6.57506 5.82659
#
# Compressibility (1/GPa) = 0.03574305
#
# Stress axis : x y z
#
# Youngs Moduli (GPa) = 56.25638 129.34943 44.13173
#
# Poissons Ratio (x) = 0.39850 0.24806
# Poissons Ratio (y) = 0.17331 -0.10989
# Poissons Ratio (z) = 0.31621 -0.32210
#
# Static dielectric constant tensor:
#      x y z
#    x 2.378850 0.106360 0.045580 
#    y 0.106360 2.266600 0.022340 
#    z 0.045580 0.022340 2.199030 
# 
# From -- ./inp_files/521130.got.cif
#   From: 2010.05.17/outbox.cif.g08.bks.cpg/sg2_261_cif.got.tgz:521130.got - 2010.06.03 11:33:40.
