data_PCOD9100691
_publ_section_title
;
Structure prediction by ZEFSAII (Michael W. Deem and Ramdas Pophale) SiO2 
 PCOD9100691
Probable space group: P -1
;
_chemical_formula_sum "Si O2"
_cell_formula_units_Z 10
_cell_length_a 7.835950
_cell_length_b 5.953923
_cell_length_c 13.253455
_cell_angle_alpha 71.735471
_cell_angle_beta 132.709593
_cell_angle_gamma 115.467315
_cell_volume 409.983736
_symmetry_space_group_name_H-M "P -1"
_symmetry_group_IT_number 2
_symmetry_cell_setting 'triclinic'
loop_
_space_group_symop_operation_xyz
x,y,z
-x,-y,-z
loop_
_atom_site_type_symbol
_atom_site_label
_atom_site_fract_x
_atom_site_fract_y
_atom_site_fract_z
Si Si1 0.910079 0.798270 0.130409
Si Si2 0.814523 0.654861 0.891010
Si Si3 0.361756 0.697809 0.393199
Si Si4 0.206357 0.840547 0.532830
Si Si5 0.718011 0.631060 0.286316
O O1 0.732685 0.725350 0.164683
O O2 0.106475 0.645790 0.239108
O O3 0.778534 0.747443 0.977136
O O4 0.068821 0.090330 0.159173
O O5 0.559332 0.473821 0.773824
O O6 0.000000 0.500000 0.000000
O O7 0.500000 0.500000 0.500000
O O8 0.283027 0.771651 0.461266
O O9 0.567030 0.919490 0.389205
O O10 0.200063 0.617849 0.637049
O O11 0.927587 0.836767 0.403659
#
# Coordination Sequence:
#
# PCOD9100691 Si02
#       5
#     2   2   2   2   2
#     4  10  23  41  60  91 124 160 204 249 299 362
#     4  11  24  41  64  86 123 167 203 248 298 360
#     4  10  20  37  65  91 121 159 201 249 305 359
#     4   9  20  38  61  90 126 157 194 254 304 358
#     4  10  20  41  64  88 127 159 197 255 306 353
#
# _framework density 24.391210999999998
#
# number of rings (size 3 to 8) (size 9 to 14) (size 15 to 20)
#    0.000    2.000    2.000    0.600    2.800    0.800 
#    0.000   19.000    0.000    0.000    0.000    0.000 
#    0.000    0.000    0.000    0.000    0.000    0.000 
#
# Total GULP energy -55902.120164 kJ/mol
# GULP energy per Si atom -5590.212016 kJ/mol
# Density = 2.433570 g / cm^3
# Si number density = 24.391211 Si / 1000 Ang^3
#
#
#
# Elastic Constant Matrix: (Units=GPa)
#
#
# Indices 1 2 3 4 5 6 
#
# 1 76.5138 23.7340 2.6577 1.1455 0.7110 25.2663
# 2 23.7340 83.9462 21.5009 10.1036 -6.1816 36.7721
# 3 2.6577 21.5009 68.4563 2.1360 6.3817 7.2458
# 4 1.1455 10.1036 2.1360 45.3006 10.2126 -1.8978
# 5 0.7110 -6.1816 6.3817 10.2126 56.1151 -4.1506
# 6 25.2663 36.7721 7.2458 -1.8978 -4.1506 40.1040
#
#
#
# Elastic Compliance Matrix: (Units=1/GPa)
#
#
# Indices 1 2 3 4 5 6 
#
# 1 0.016603 -0.000287 0.000662 -0.000604 -0.000980 -0.010447
# 2 -0.000287 0.023078 -0.005178 -0.006370 0.002811 -0.020055
# 3 0.000662 -0.005178 0.016289 0.000988 -0.002524 0.001173
# 4 -0.000604 -0.006370 0.000988 0.024834 -0.004829 0.006718
# 5 -0.000980 0.002811 -0.002524 -0.004829 0.019328 0.000268
# 6 -0.010447 -0.020055 0.001173 0.006718 0.000268 0.050040
#
#
# Mechanical properties :
#
#
# Convention : Reuss Voigt Hill
#
# Bulk Modulus (GPa) = 21.56852 36.07793 28.82323
# Shear Modulus (GPa) = 28.53323 40.37218 34.45271
#
# Velocity S-wave (km/s) = 3.42397 4.07282 3.76241
# Velocity P-wave (km/s) = 4.94908 6.07788 5.54229
#
# Compressibility (1/GPa) = 0.04636387
#
# Stress axis : x y z
#
# Youngs Moduli (GPa) = 60.22833 43.33046 61.39215
#
# Poissons Ratio (x) = 0.01244 -0.04061
# Poissons Ratio (y) = 0.01729 0.31788
# Poissons Ratio (z) = -0.03984 0.22436
#
# Static dielectric constant tensor:
#      x y z
#    x 1.956350 -0.051740 -0.004280 
#    y -0.051740 1.990520 0.045530 
#    z -0.004280 0.045530 1.930680 
# 
# From -- ./inp_files/20021.got.cif
#   From: 2010.05.17/outbox.cif.g08.bks.cpg/sg2_11_cif.got.tgz:20021.got - 2010.06.03 11:33:40.
