data_PCOD9100146
_publ_section_title
;
Structure prediction by ZEFSAII (Michael W. Deem and Ramdas Pophale) SiO2 
 PCOD9100146
Probable space group: P -1
;
_chemical_formula_sum "Si O2"
_cell_formula_units_Z 14
_cell_length_a 5.470846
_cell_length_b 12.192690
_cell_length_c 24.281249
_cell_angle_alpha 28.524022
_cell_angle_beta 51.809702
_cell_angle_gamma 49.439215
_cell_volume 582.648912
_symmetry_space_group_name_H-M "P -1"
_symmetry_group_IT_number 2
_symmetry_cell_setting 'triclinic'
loop_
_space_group_symop_operation_xyz
x,y,z
-x,-y,-z
loop_
_atom_site_type_symbol
_atom_site_label
_atom_site_fract_x
_atom_site_fract_y
_atom_site_fract_z
Si Si1 0.729986 0.449936 0.437547
Si Si2 0.649265 0.235725 0.021683
Si Si3 0.729618 0.139969 0.876280
Si Si4 0.519840 0.571554 0.786885
Si Si5 0.505895 0.008350 0.659217
Si Si6 0.826444 0.279960 0.685157
Si Si7 0.214297 0.326979 0.133493
O O1 0.500000 0.500000 0.500000
O O2 0.742328 0.176062 0.545732
O O3 0.507669 0.604120 0.351954
O O4 0.033142 0.531429 0.382241
O O5 0.628895 0.370599 0.907879
O O6 0.777472 0.404980 0.971812
O O7 0.309342 0.253467 0.090254
O O8 0.910040 0.981839 0.097585
O O9 0.610382 0.417810 0.787500
O O10 0.751076 0.118969 0.816589
O O11 0.500000 0.000000 0.000000
O O12 0.138669 0.675138 0.800640
O O13 0.622097 0.804771 0.686071
O O14 0.122129 0.160815 0.653000
O O15 0.553920 0.862607 0.774476
#
# Coordination Sequence:
#
# PCOD9100146 Si02
#       7
#     2   2   2   2   2   2   2
#     4  10  23  45  73 107 133 176 238 301 348 404
#     4  10  21  40  59  92 134 181 230 280 333 411
#     4  12  25  45  64 100 143 191 227 280 348 427
#     4  11  24  37  66  97 136 184 229 283 352 413
#     4  10  22  40  69  98 132 174 232 299 342 407
#     4  11  25  45  73 104 138 183 237 285 353 417
#     4  10  20  37  62  98 128 170 236 279 346 395
#
# _framework density 24.028192000000001
#
# number of rings (size 3 to 8) (size 9 to 14) (size 15 to 20)
#    0.000    1.429    2.857    2.571    6.000    3.429 
#    0.000    1.429    0.000    0.000    0.000    0.000 
#    0.000    0.000    0.000    0.000    0.000    0.000 
#
# Total GULP energy -78183.231733 kJ/mol
# GULP energy per Si atom -5584.516552 kJ/mol
# Density = 2.397350 g / cm^3
# Si number density = 24.028192 Si / 1000 Ang^3
#
#
#
# Elastic Constant Matrix: (Units=GPa)
#
#
# Indices 1 2 3 4 5 6 
#
# 1 90.8847 21.9918 46.9394 -11.7466 -20.8621 15.3595
# 2 21.9918 99.2924 21.5953 -13.9146 -11.7342 10.9687
# 3 46.9394 21.5953 119.7970 -3.0695 -31.0231 13.8310
# 4 -11.7466 -13.9146 -3.0695 42.3202 4.4154 -1.2134
# 5 -20.8621 -11.7342 -31.0231 4.4154 43.0942 -8.8935
# 6 15.3595 10.9687 13.8310 -1.2134 -8.8935 30.4920
#
#
#
# Elastic Compliance Matrix: (Units=1/GPa)
#
#
# Indices 1 2 3 4 5 6 
#
# 1 0.015389 -0.001184 -0.004551 0.003153 0.002626 -0.004370
# 2 -0.001184 0.011393 -0.000950 0.003171 0.000971 -0.002662
# 3 -0.004551 -0.000950 0.011962 -0.001372 0.006068 -0.001077
# 4 0.003153 0.003171 -0.001372 0.025564 -0.001534 -0.001537
# 5 0.002626 0.000971 0.006068 -0.001534 0.030156 0.004310
# 6 -0.004370 -0.002662 -0.001077 -0.001537 0.004310 0.037639
#
#
# Mechanical properties :
#
#
# Convention : Reuss Voigt Hill
#
# Bulk Modulus (GPa) = 39.40809 54.55859 46.98334
# Shear Modulus (GPa) = 32.48236 37.81111 35.14674
#
# Velocity S-wave (km/s) = 3.68073 3.97118 3.82871
# Velocity P-wave (km/s) = 5.87368 6.61683 6.25630
#
# Compressibility (1/GPa) = 0.02537550
#
# Stress axis : x y z
#
# Youngs Moduli (GPa) = 64.98296 87.77152 83.59503
#
# Poissons Ratio (x) = 0.10389 0.38042
# Poissons Ratio (y) = 0.07692 0.07941
# Poissons Ratio (z) = 0.29573 0.08338
#
# Static dielectric constant tensor:
#      x y z
#    x 2.008160 0.017890 -0.084530 
#    y 0.017890 1.924860 -0.011820 
#    z -0.084530 -0.011820 2.054760 
# 
# From -- ./inp_files/68093.got.cif
#   From: 2010.05.17/outbox.cif.g08.bks.cpg/sg2_35_cif.got.tgz:68093.got - 2010.06.03 11:33:40.
