data_PCOD9100930
_publ_section_title
;
Structure prediction by ZEFSAII (Michael W. Deem and Ramdas Pophale) SiO2 
 PCOD9100930
Probable space group: P -1
;
_chemical_formula_sum "Si O2"
_cell_formula_units_Z 16
_cell_length_a 11.134101
_cell_length_b 14.261283
_cell_length_c 9.064243
_cell_angle_alpha 34.620383
_cell_angle_beta 69.565621
_cell_angle_gamma 69.317226
_cell_volume 760.362236
_symmetry_space_group_name_H-M "P -1"
_symmetry_group_IT_number 2
_symmetry_cell_setting 'triclinic'
loop_
_space_group_symop_operation_xyz
x,y,z
-x,-y,-z
loop_
_atom_site_type_symbol
_atom_site_label
_atom_site_fract_x
_atom_site_fract_y
_atom_site_fract_z
Si Si1 0.097239 0.061019 0.047471
Si Si2 0.186284 0.575415 0.058325
Si Si3 0.183653 0.889875 0.816723
Si Si4 0.547460 0.109653 0.707321
Si Si5 0.797226 0.912896 0.715061
Si Si6 0.718976 0.813006 0.439801
Si Si7 0.766645 0.295946 0.459825
Si Si8 0.084694 0.431478 0.910684
O O1 0.136219 0.123051 0.110162
O O2 0.944150 0.098165 0.044004
O O3 0.144681 0.865297 0.306180
O O4 0.181150 0.144773 0.784482
O O5 0.242846 0.380931 0.283346
O O6 0.031336 0.582782 0.134706
O O7 0.235715 0.698727 0.001880
O O8 0.210229 0.656544 0.782978
O O9 0.139227 0.964662 0.578589
O O10 0.271274 0.028277 0.659393
O O11 0.425224 0.174632 0.578074
O O12 0.622518 0.247847 0.576544
O O13 0.654411 0.998997 0.704249
O O14 0.500000 0.000000 0.000000
O O15 0.826947 0.733825 0.861732
O O16 0.813582 0.445338 0.337601
O O17 0.000000 0.500000 0.000000
#
# Coordination Sequence:
#
# PCOD9100930 Si02
#       8
#     2   2   2   2   2   2   2   2
#     4  11  21  42  68  93 137 179 217 277 342 404
#     4  11  22  41  66 105 136 165 220 290 343 394
#     4  12  22  41  69 103 133 175 230 280 346 401
#     4  11  23  47  67  89 135 187 233 268 324 412
#     4  11  21  42  73  96 128 183 233 268 330 408
#     4  12  27  43  63 101 144 178 218 283 346 392
#     4  10  20  41  70  93 123 182 229 267 330 396
#     4  10  20  37  67 106 130 157 223 292 331 390
#
# _framework density 21.042603
#
# number of rings (size 3 to 8) (size 9 to 14) (size 15 to 20)
#    0.000    1.000    6.250    4.500    0.000    1.500 
#    4.500    0.625    0.000    0.000    0.000    0.000 
#    0.000    0.000    0.000    0.000    0.000    0.000 
#
# Total GULP energy -89113.527481 kJ/mol
# GULP energy per Si atom -5569.595468 kJ/mol
# Density = 2.099471 g / cm^3
# Si number density = 21.042603 Si / 1000 Ang^3
#
#
#
# Elastic Constant Matrix: (Units=GPa)
#
#
# Indices 1 2 3 4 5 6 
#
# 1 95.2605 9.1098 28.9134 -14.3010 -11.9400 3.1531
# 2 9.1098 54.3486 32.2443 -15.9205 -0.2247 3.6401
# 3 28.9134 32.2443 108.6140 -19.8109 -9.5468 1.8648
# 4 -14.3010 -15.9205 -19.8109 39.4982 -2.0200 -1.9935
# 5 -11.9400 -0.2247 -9.5468 -2.0200 35.5652 -2.7441
# 6 3.1531 3.6401 1.8648 -1.9935 -2.7441 28.4944
#
#
#
# Elastic Compliance Matrix: (Units=1/GPa)
#
#
# Indices 1 2 3 4 5 6 
#
# 1 0.012189 0.000488 -0.002415 0.003550 0.003598 -0.000658
# 2 0.000488 0.024041 -0.006119 0.006621 -0.001133 -0.002371
# 3 -0.002415 -0.006119 0.012456 0.003082 0.002724 0.000712
# 4 0.003550 0.006621 0.003082 0.031073 0.003911 0.001110
# 5 0.003598 -0.001133 0.002724 0.003911 0.030486 0.002778
# 6 -0.000658 -0.002371 0.000712 0.001110 0.002778 0.035769
#
#
# Mechanical properties :
#
#
# Convention : Reuss Voigt Hill
#
# Bulk Modulus (GPa) = 30.67819 44.30646 37.49232
# Shear Modulus (GPa) = 28.90674 33.24194 31.07434
#
# Velocity S-wave (km/s) = 3.71040 3.97891 3.84700
# Velocity P-wave (km/s) = 5.74167 6.49695 6.13095
#
# Compressibility (1/GPa) = 0.03259645
#
# Stress axis : x y z
#
# Youngs Moduli (GPa) = 82.03812 41.59480 80.28573
#
# Poissons Ratio (x) = -0.02031 0.19387
# Poissons Ratio (y) = -0.04006 0.49123
# Poissons Ratio (z) = 0.19811 0.25450
#
# Static dielectric constant tensor:
#      x y z
#    x 1.764610 0.178420 0.028120 
#    y 0.178420 1.604500 -0.237250 
#    z 0.028120 -0.237250 1.674850 
# 
# From -- ./inp_files/271329.got.cif
#   From: 2010.05.17/outbox.cif.g08.bks.cpg/sg2_136_cif.got.tgz:271329.got - 2010.06.03 11:33:40.
