data_PCOD9100929
_publ_section_title
;
Structure prediction by ZEFSAII (Michael W. Deem and Ramdas Pophale) SiO2 
 PCOD9100929
Probable space group: P -1
;
_chemical_formula_sum "Si O2"
_cell_formula_units_Z 16
_cell_length_a 11.555516
_cell_length_b 5.329283
_cell_length_c 10.850958
_cell_angle_alpha 91.817439
_cell_angle_beta 73.259294
_cell_angle_gamma 73.665231
_cell_volume 609.441843
_symmetry_space_group_name_H-M "P -1"
_symmetry_group_IT_number 2
_symmetry_cell_setting 'triclinic'
loop_
_space_group_symop_operation_xyz
x,y,z
-x,-y,-z
loop_
_atom_site_type_symbol
_atom_site_label
_atom_site_fract_x
_atom_site_fract_y
_atom_site_fract_z
Si Si1 0.699585 0.729657 0.595736
Si Si2 0.219888 0.512509 0.888240
Si Si3 0.064168 0.605145 0.595617
Si Si4 0.602695 0.240513 0.012167
Si Si5 0.936485 0.415814 0.833174
Si Si6 0.251468 0.809728 0.266604
Si Si7 0.583925 0.007121 0.269812
Si Si8 0.838824 0.068542 0.280142
O O1 0.793517 0.605906 0.451399
O O2 0.701146 0.470357 0.675288
O O3 0.759261 0.947127 0.636648
O O4 0.552023 0.890782 0.621659
O O5 0.334985 0.294532 0.784624
O O6 0.140974 0.710079 0.814495
O O7 0.286897 0.684392 0.950553
O O8 0.134800 0.444685 0.021238
O O9 0.103560 0.871250 0.606750
O O10 0.000000 0.500000 0.500000
O O11 0.960234 0.615776 0.730908
O O12 0.660792 0.115368 0.864479
O O13 0.500000 0.500000 0.000000
O O14 0.555284 0.100006 0.136166
O O15 0.860089 0.248284 0.779415
O O16 0.076261 0.208222 0.805002
O O17 0.689331 0.105639 0.312516
#
# Coordination Sequence:
#
# PCOD9100929 Si02
#       8
#     2   2   2   2   2   2   2   2
#     4  12  27  46  74 110 155 196 252 304 374 448
#     4  10  24  44  71 108 146 195 247 308 385 446
#     4  12  27  47  77 106 146 198 253 313 372 448
#     4  10  20  37  67 105 145 193 242 298 374 441
#     4  11  25  46  75 107 150 192 254 315 375 442
#     4  11  25  43  73 112 148 197 244 317 370 437
#     4  11  25  44  72 106 156 194 243 312 377 457
#     4  11  26  47  71 107 145 198 254 311 380 447
#
# _framework density 26.253533000000001
#
# number of rings (size 3 to 8) (size 9 to 14) (size 15 to 20)
#    0.000    1.000    2.500    2.625    7.000    6.500 
#    0.000    2.500    0.000    0.000    0.000    0.000 
#    0.000    0.000    0.000    0.000    0.000    0.000 
#
# Total GULP energy -89255.438700 kJ/mol
# GULP energy per Si atom -5578.464919 kJ/mol
# Density = 2.619378 g / cm^3
# Si number density = 26.253533 Si / 1000 Ang^3
#
#
#
# Elastic Constant Matrix: (Units=GPa)
#
#
# Indices 1 2 3 4 5 6 
#
# 1 144.5351 29.0772 50.0318 -1.1110 -6.5846 9.6525
# 2 29.0772 87.2166 9.3042 11.0568 11.5130 -1.3390
# 3 50.0318 9.3042 78.2036 17.3123 -12.1193 8.9505
# 4 -1.1110 11.0568 17.3123 46.2033 -8.2932 4.3478
# 5 -6.5846 11.5130 -12.1193 -8.2932 43.7587 11.5161
# 6 9.6525 -1.3390 8.9505 4.3478 11.5161 50.2164
#
#
#
# Elastic Compliance Matrix: (Units=1/GPa)
#
#
# Indices 1 2 3 4 5 6 
#
# 1 0.010059 -0.003433 -0.006433 0.003954 0.001815 -0.001637
# 2 -0.003433 0.013977 0.000418 -0.004861 -0.005707 0.002688
# 3 -0.006433 0.000418 0.019142 -0.006549 0.003621 -0.002428
# 4 0.003954 -0.004861 -0.006549 0.026761 0.006033 -0.003423
# 5 0.001815 -0.005707 0.003621 0.006033 0.028961 -0.008310
# 6 -0.001637 0.002688 -0.002428 -0.003423 -0.008310 0.022935
#
#
# Mechanical properties :
#
#
# Convention : Reuss Voigt Hill
#
# Bulk Modulus (GPa) = 41.18689 54.08685 47.63687
# Shear Modulus (GPa) = 33.59658 42.80515 38.20087
#
# Velocity S-wave (km/s) = 3.58117 4.04227 3.81868
# Velocity P-wave (km/s) = 5.72904 6.51406 6.13412
#
# Compressibility (1/GPa) = 0.02427957
#
# Stress axis : x y z
#
# Youngs Moduli (GPa) = 99.41543 71.54825 52.24095
#
# Poissons Ratio (x) = 0.24564 0.33609
# Poissons Ratio (y) = 0.34131 -0.02182
# Poissons Ratio (z) = 0.63958 -0.02988
#
# Static dielectric constant tensor:
#      x y z
#    x 2.088480 -0.000680 -0.037020 
#    y -0.000680 2.087700 -0.038730 
#    z -0.037020 -0.038730 2.125420 
# 
# From -- ./inp_files/410472.got.cif
#   From: 2010.05.17/outbox.cif.g08.bks.cpg/sg2_206_cif.got.tgz:410472.got - 2010.06.03 11:33:40.
