data_PCOD9100971
_publ_section_title
;
Structure prediction by ZEFSAII (Michael W. Deem and Ramdas Pophale) SiO2 
 PCOD9100971
Probable space group: P -1
;
_chemical_formula_sum "Si O2"
_cell_formula_units_Z 16
_cell_length_a 8.012214
_cell_length_b 18.533882
_cell_length_c 11.310309
_cell_angle_alpha 48.489000
_cell_angle_beta 119.191030
_cell_angle_gamma 79.933552
_cell_volume 711.223524
_symmetry_space_group_name_H-M "P -1"
_symmetry_group_IT_number 2
_symmetry_cell_setting 'triclinic'
loop_
_space_group_symop_operation_xyz
x,y,z
-x,-y,-z
loop_
_atom_site_type_symbol
_atom_site_label
_atom_site_fract_x
_atom_site_fract_y
_atom_site_fract_z
Si Si1 0.278172 0.340469 0.834766
Si Si2 0.068694 0.938319 0.739370
Si Si3 0.191758 0.863227 0.131879
Si Si4 0.906033 0.867708 0.572057
Si Si5 0.735839 0.731422 0.586236
Si Si6 0.729173 0.399037 0.848282
Si Si7 0.859784 0.578908 0.026675
Si Si8 0.908031 0.307618 0.748734
O O1 0.000000 0.500000 0.500000
O O2 0.264985 0.371735 0.936498
O O3 0.194362 0.259841 0.878942
O O4 0.605834 0.219633 0.025050
O O5 0.835351 0.959800 0.565313
O O6 0.079909 0.919140 0.901135
O O7 0.021545 0.070192 0.554646
O O8 0.518268 0.776554 0.361144
O O9 0.133760 0.775649 0.240481
O O10 0.000000 0.000000 0.000000
O O11 0.711127 0.856633 0.460017
O O12 0.162952 0.698586 0.893981
O O13 0.044425 0.563289 0.832376
O O14 0.674290 0.703719 0.722955
O O15 0.849872 0.462224 0.824771
O O16 0.877433 0.303233 0.883511
O O17 0.383974 0.522076 0.574943
#
# Coordination Sequence:
#
# PCOD9100971 Si02
#       8
#     2   2   2   2   2   2   2   2
#     4  11  23  39  67 100 130 168 218 268 318 377
#     4  11  25  45  65  92 131 171 220 262 320 386
#     4  12  26  44  66  93 129 172 216 263 321 391
#     4  10  22  41  68  91 128 176 205 265 326 374
#     4  10  21  40  67  95 133 165 212 266 319 376
#     4   9  16  36  69  92 123 164 212 265 306 371
#     4   9  19  38  63  99 127 165 212 264 319 375
#     4  10  20  37  67  97 122 166 220 257 313 381
#
# _framework density 22.496445999999999
#
# number of rings (size 3 to 8) (size 9 to 14) (size 15 to 20)
#    0.000    1.750    2.500    1.500    3.500    2.500 
#    2.250    3.125    0.000    0.000    0.000    0.000 
#    0.000    0.000    0.000    0.000    0.000    0.000 
#
# Total GULP energy -89175.626451 kJ/mol
# GULP energy per Si atom -5573.476653 kJ/mol
# Density = 2.244524 g / cm^3
# Si number density = 22.496446 Si / 1000 Ang^3
#
#
#
# Elastic Constant Matrix: (Units=GPa)
#
#
# Indices 1 2 3 4 5 6 
#
# 1 39.5647 37.7296 8.0104 -19.6041 -1.7195 15.1530
# 2 37.7296 132.0613 3.6022 -8.6271 -12.7401 32.2138
# 3 8.0104 3.6022 44.8029 -4.6159 -19.0886 7.6938
# 4 -19.6041 -8.6271 -4.6159 34.2857 5.7880 -5.9148
# 5 -1.7195 -12.7401 -19.0886 5.7880 31.0604 -1.0322
# 6 15.1530 32.2138 7.6938 -5.9148 -1.0322 47.3030
#
#
#
# Elastic Compliance Matrix: (Units=1/GPa)
#
#
# Indices 1 2 3 4 5 6 
#
# 1 0.056843 -0.014864 -0.012322 0.029341 -0.016082 -0.002764
# 2 -0.014864 0.013619 0.005955 -0.006936 0.009511 -0.006141
# 3 -0.012322 0.005955 0.034673 -0.005957 0.023981 -0.005969
# 4 0.029341 -0.006936 -0.005957 0.045958 -0.013388 0.001748
# 5 -0.016082 0.009511 0.023981 -0.013388 0.052247 -0.005760
# 6 -0.002764 -0.006141 -0.005969 0.001748 -0.005760 0.027272
#
#
# Mechanical properties :
#
#
# Convention : Reuss Voigt Hill
#
# Bulk Modulus (GPa) = 15.95619 35.01260 25.48439
# Shear Modulus (GPa) = 17.00884 33.66892 25.33888
#
# Velocity S-wave (km/s) = 2.75265 3.87283 3.35976
# Velocity P-wave (km/s) = 4.14861 5.96622 5.13842
#
# Compressibility (1/GPa) = 0.06267159
#
# Stress axis : x y z
#
# Youngs Moduli (GPa) = 17.59245 73.42674 28.84101
#
# Poissons Ratio (x) = 1.09142 0.35539
# Poissons Ratio (y) = 0.26150 -0.17175
# Poissons Ratio (z) = 0.21678 -0.43726
#
# Static dielectric constant tensor:
#      x y z
#    x 2.024280 0.148560 0.097960 
#    y 0.148560 1.912480 0.067520 
#    z 0.097960 0.067520 1.979770 
# 
# From -- ./inp_files/403030.got.cif
#   From: 2010.05.17/outbox.cif.g08.bks.cpg/sg2_202_cif.got.tgz:403030.got - 2010.06.03 11:33:40.
