data_PCOD9100889
_publ_section_title
;
Structure prediction by ZEFSAII (Michael W. Deem and Ramdas Pophale) SiO2 
 PCOD9100889
Probable space group: P -1
;
_chemical_formula_sum "Si O2"
_cell_formula_units_Z 16
_cell_length_a 11.715270
_cell_length_b 12.101150
_cell_length_c 11.962008
_cell_angle_alpha 74.451904
_cell_angle_beta 106.574996
_cell_angle_gamma 42.132171
_cell_volume 726.220705
_symmetry_space_group_name_H-M "P -1"
_symmetry_group_IT_number 2
_symmetry_cell_setting 'triclinic'
loop_
_space_group_symop_operation_xyz
x,y,z
-x,-y,-z
loop_
_atom_site_type_symbol
_atom_site_label
_atom_site_fract_x
_atom_site_fract_y
_atom_site_fract_z
Si Si1 0.349284 0.606177 0.138689
Si Si2 0.650708 0.281267 0.529551
Si Si3 0.157067 0.830290 0.702573
Si Si4 0.631218 0.046546 0.685289
Si Si5 0.193352 0.251665 0.555893
Si Si6 0.197077 0.998912 0.030995
Si Si7 0.412571 0.960424 0.918894
Si Si8 0.915144 0.377998 0.233416
O O1 0.526045 0.410509 0.340949
O O2 0.538869 0.402665 0.147264
O O3 0.311737 0.775808 0.093260
O O4 0.069974 0.793412 0.033931
O O5 0.500000 0.500000 0.500000
O O6 0.595708 0.198939 0.573481
O O7 0.958140 0.042051 0.684623
O O8 0.142744 0.705848 0.741649
O O9 0.000000 0.000000 0.500000
O O10 0.405937 0.148050 0.582487
O O11 0.639271 0.072145 0.811710
O O12 0.890552 0.776506 0.775142
O O13 0.000000 0.500000 0.500000
O O14 0.049321 0.305017 0.405055
O O15 0.319776 0.068021 0.739128
O O16 0.196630 0.078120 0.899586
O O17 0.659553 0.668022 0.064615
O O18 0.500000 0.000000 0.000000
#
# Coordination Sequence:
#
# PCOD9100889 Si02
#       8
#     2   2   2   2   2   2   2   2
#     4  10  21  39  65  95 135 178 223 282 343 413
#     4  10  20  37  66  96 131 177 227 279 346 414
#     4   9  20  41  66  95 135 177 220 288 342 406
#     4  11  24  44  67  98 138 182 227 289 347 413
#     4  12  26  44  73 100 133 187 233 286 350 413
#     4  11  22  42  65  98 139 176 228 282 343 416
#     4  12  24  46  71  98 137 187 230 288 342 404
#     4  11  24  47  68 101 142 174 238 290 343 421
#
# _framework density 22.031870000000001
#
# number of rings (size 3 to 8) (size 9 to 14) (size 15 to 20)
#    0.000    1.250    5.000    0.375    1.750    0.500 
#    6.750    2.500    0.000    0.000    0.000    0.000 
#    0.000    0.000    0.000    0.000    0.000    0.000 
#
# Total GULP energy -89368.907140 kJ/mol
# GULP energy per Si atom -5585.556696 kJ/mol
# Density = 2.198172 g / cm^3
# Si number density = 22.031870 Si / 1000 Ang^3
#
#
#
# Elastic Constant Matrix: (Units=GPa)
#
#
# Indices 1 2 3 4 5 6 
#
# 1 91.0542 38.7110 27.8414 -17.5336 -7.5338 -20.6673
# 2 38.7110 109.6998 38.4893 -33.0376 1.5425 -5.7907
# 3 27.8414 38.4893 95.2281 -7.5690 -14.5348 -0.2685
# 4 -17.5336 -33.0376 -7.5690 44.9207 -3.8115 6.4157
# 5 -7.5338 1.5425 -14.5348 -3.8115 36.1124 -3.6225
# 6 -20.6673 -5.7907 -0.2685 6.4157 -3.6225 30.4532
#
#
#
# Elastic Compliance Matrix: (Units=1/GPa)
#
#
# Indices 1 2 3 4 5 6 
#
# 1 0.016448 -0.003827 -0.002483 0.002023 0.003857 0.010446
# 2 -0.003827 0.014526 -0.004466 0.008504 -0.002516 -0.001965
# 3 -0.002483 -0.004466 0.013668 -0.001314 0.004879 -0.001557
# 4 0.002023 0.008504 -0.001314 0.029713 0.002365 -0.003000
# 5 0.003857 -0.002516 0.004879 0.002365 0.031360 0.005414
# 6 0.010446 -0.001965 -0.001557 -0.003000 0.005414 0.040815
#
#
# Mechanical properties :
#
#
# Convention : Reuss Voigt Hill
#
# Bulk Modulus (GPa) = 43.30813 56.22948 49.76881
# Shear Modulus (GPa) = 28.44486 35.02664 31.73575
#
# Velocity S-wave (km/s) = 3.59706 3.99158 3.79944
# Velocity P-wave (km/s) = 6.07877 6.84258 6.47195
#
# Compressibility (1/GPa) = 0.02309035
#
# Stress axis : x y z
#
# Youngs Moduli (GPa) = 60.79684 68.84272 73.16366
#
# Poissons Ratio (x) = 0.26344 0.18169
# Poissons Ratio (y) = 0.23265 0.32674
# Poissons Ratio (z) = 0.15098 0.30744
#
# Static dielectric constant tensor:
#      x y z
#    x 2.522040 -0.738780 0.424140 
#    y -0.738780 2.515410 -0.338810 
#    z 0.424140 -0.338810 2.065230 
# 
# From -- ./inp_files/428194.got.cif
#   From: 2010.05.17/outbox.cif.g08.bks.cpg/sg2_215_cif.got.tgz:428194.got - 2010.06.03 11:33:40.
