data_PCOD9100330
_publ_section_title
;
Structure prediction by ZEFSAII (Michael W. Deem and Ramdas Pophale) SiO2 
 PCOD9100330
Probable space group: P -1
;
_chemical_formula_sum "Si O2"
_cell_formula_units_Z 16
_cell_length_a 10.959015
_cell_length_b 15.393597
_cell_length_c 14.089738
_cell_angle_alpha 26.487489
_cell_angle_beta 134.716483
_cell_angle_gamma 118.488743
_cell_volume 660.033036
_symmetry_space_group_name_H-M "P -1"
_symmetry_group_IT_number 2
_symmetry_cell_setting 'triclinic'
loop_
_space_group_symop_operation_xyz
x,y,z
-x,-y,-z
loop_
_atom_site_type_symbol
_atom_site_label
_atom_site_fract_x
_atom_site_fract_y
_atom_site_fract_z
Si Si1 0.435455 0.697661 0.488123
Si Si2 0.539731 0.734647 0.135086
Si Si3 0.320481 0.924910 0.575636
Si Si4 0.253390 0.798798 0.083845
Si Si5 0.226052 0.210607 0.415915
Si Si6 0.939447 0.275786 0.360851
Si Si7 0.058444 0.525031 0.319816
Si Si8 0.719699 0.928585 0.806498
O O1 0.428298 0.469277 0.714655
O O2 0.660311 0.648081 0.661711
O O3 0.324467 0.878361 0.331808
O O4 0.337878 0.798990 0.233936
O O5 0.755460 0.688695 0.325988
O O6 0.428884 0.713740 0.187891
O O7 0.394265 0.974669 0.780938
O O8 0.256738 0.740504 0.744937
O O9 0.281970 0.983337 0.386735
O O10 0.192832 0.137648 0.365512
O O11 0.542435 0.870672 0.769090
O O12 0.156581 0.639555 0.197112
O O13 0.091646 0.038238 0.723292
O O14 0.042515 0.295786 0.301822
O O15 0.924663 0.458710 0.248152
O O16 0.925728 0.707143 0.146133
#
# Coordination Sequence:
#
# PCOD9100330 Si02
#       8
#     2   2   2   2   2   2   2   2
#     4  10  20  39  61  88 121 161 188 242 302 346
#     4  10  21  37  63  97 121 147 194 246 308 357
#     4  10  22  45  59  81 120 165 202 250 281 342
#     4  10  20  37  63  93 126 148 188 251 302 362
#     4  10  21  40  63  92 120 150 198 250 295 358
#     4  11  21  38  65  90 119 157 193 247 310 338
#     4  11  21  38  60  92 119 156 196 242 295 360
#     4  10  23  43  62  80 123 163 207 239 282 354
#
# _framework density 24.241209999999999
#
# number of rings (size 3 to 8) (size 9 to 14) (size 15 to 20)
#    0.000    1.750    1.250    4.125    0.000    4.500 
#   11.250    3.750    0.000    0.000    0.000    0.000 
#    0.000    0.000    0.000    0.000    0.000    0.000 
#
# Total GULP energy -89612.309616 kJ/mol
# GULP energy per Si atom -5600.769351 kJ/mol
# Density = 2.418604 g / cm^3
# Si number density = 24.241210 Si / 1000 Ang^3
#
#
#
# Elastic Constant Matrix: (Units=GPa)
#
#
# Indices 1 2 3 4 5 6 
#
# 1 79.6516 22.3170 -3.6744 3.9211 13.1602 -3.8035
# 2 22.3170 110.6635 -6.6698 5.9121 5.4272 2.3494
# 3 -3.6744 -6.6698 83.0954 4.2022 9.7124 -10.3118
# 4 3.9211 5.9121 4.2022 26.9178 -3.1991 -5.1410
# 5 13.1602 5.4272 9.7124 -3.1991 33.2057 0.2061
# 6 -3.8035 2.3494 -10.3118 -5.1410 0.2061 42.9954
#
#
#
# Elastic Compliance Matrix: (Units=1/GPa)
#
#
# Indices 1 2 3 4 5 6 
#
# 1 0.014479 -0.002454 0.001444 -0.002215 -0.005983 0.001525
# 2 -0.002454 0.009767 0.000810 -0.002197 -0.001068 -0.000814
# 3 0.001444 0.000810 0.013222 -0.002456 -0.004827 0.002984
# 4 -0.002215 -0.002197 -0.002456 0.039800 0.005765 0.004066
# 5 -0.005983 -0.001068 -0.004827 0.005765 0.034635 -0.001105
# 6 0.001525 -0.000814 0.002984 0.004066 -0.001105 0.024645
#
#
# Mechanical properties :
#
#
# Convention : Reuss Voigt Hill
#
# Bulk Modulus (GPa) = 26.97644 33.03955 30.00800
# Shear Modulus (GPa) = 33.48884 38.05296 35.77090
#
# Velocity S-wave (km/s) = 3.72086 3.96632 3.84555
# Velocity P-wave (km/s) = 5.44172 5.88513 5.66776
#
# Compressibility (1/GPa) = 0.03706938
#
# Stress axis : x y z
#
# Youngs Moduli (GPa) = 69.06528 102.38537 75.63169
#
# Poissons Ratio (x) = 0.25120 -0.10920
# Poissons Ratio (y) = 0.16945 -0.06129
# Poissons Ratio (z) = -0.09972 -0.08297
#
# Static dielectric constant tensor:
#      x y z
#    x 1.918260 -0.001630 -0.036840 
#    y -0.001630 1.916840 0.031300 
#    z -0.036840 0.031300 1.979050 
# 
# From -- ./inp_files/521510.got.cif
#   From: 2010.05.17/outbox.cif.g08.bks.cpg/sg2_261_cif.got.tgz:521510.got - 2010.06.03 11:33:40.
