data_PCOD9100645
_publ_section_title
;
Structure prediction by ZEFSAII (Michael W. Deem and Ramdas Pophale) SiO2 
 PCOD9100645
Probable space group: P -1
;
_chemical_formula_sum "Si O2"
_cell_formula_units_Z 16
_cell_length_a 17.898154
_cell_length_b 8.135216
_cell_length_c 8.082206
_cell_angle_alpha 84.127069
_cell_angle_beta 46.099011
_cell_angle_gamma 114.621986
_cell_volume 618.252387
_symmetry_space_group_name_H-M "P -1"
_symmetry_group_IT_number 2
_symmetry_cell_setting 'triclinic'
loop_
_space_group_symop_operation_xyz
x,y,z
-x,-y,-z
loop_
_atom_site_type_symbol
_atom_site_label
_atom_site_fract_x
_atom_site_fract_y
_atom_site_fract_z
Si Si1 0.740120 0.038600 0.718711
Si Si2 0.679614 0.776369 0.261193
Si Si3 0.249579 0.566411 0.278828
Si Si4 0.892164 0.160202 0.132159
Si Si5 0.394036 0.634113 0.713749
Si Si6 0.006218 0.704268 0.499730
Si Si7 0.557564 0.432849 0.787243
Si Si8 0.151894 0.498537 0.896908
O O1 0.764658 0.261865 0.653567
O O2 0.799522 0.031158 0.455123
O O3 0.832400 0.075962 0.730397
O O4 0.577094 0.826977 0.014396
O O5 0.562963 0.795386 0.417935
O O6 0.670482 0.623019 0.153249
O O7 0.611296 0.594426 0.534660
O O8 0.825894 0.992283 0.096523
O O9 0.097504 0.336186 0.474107
O O10 0.321914 0.538756 0.310391
O O11 0.349306 0.672108 0.950156
O O12 0.870251 0.329774 0.104843
O O13 0.055662 0.314652 0.918626
O O14 0.313822 0.635555 0.682822
O O15 0.000000 0.500000 0.500000
O O16 0.927990 0.646813 0.799593
O O17 0.500000 0.500000 0.000000
#
# Coordination Sequence:
#
# PCOD9100645 Si02
#       8
#     2   2   2   2   2   2   2   2
#     4  10  20  37  65  87 116 151 197 246 288 339
#     4  11  24  41  58  82 127 158 192 236 295 349
#     4  10  20  39  63  87 114 151 202 245 284 344
#     4  10  20  39  61  92 114 152 192 246 292 345
#     4  10  22  43  55  86 120 157 191 244 286 354
#     4   8  17  37  58  87 115 144 187 249 289 336
#     4  12  22  39  59  87 118 159 198 236 289 348
#     4   9  20  37  64  86 115 147 202 241 289 343
#
# _framework density 25.879398999999999
#
# number of rings (size 3 to 8) (size 9 to 14) (size 15 to 20)
#    0.000    2.000    2.500    0.375    1.750    1.000 
#   13.500    1.875    0.000    0.000    0.000    0.000 
#    0.000    0.000    0.000    0.000    0.000    0.000 
#
# Total GULP energy -89560.410320 kJ/mol
# GULP energy per Si atom -5597.525645 kJ/mol
# Density = 2.582050 g / cm^3
# Si number density = 25.879399 Si / 1000 Ang^3
#
#
#
# Elastic Constant Matrix: (Units=GPa)
#
#
# Indices 1 2 3 4 5 6 
#
# 1 181.6860 12.9508 31.5831 -25.0067 -26.0096 44.9677
# 2 12.9508 76.3138 14.8539 -12.1225 -3.7916 32.6019
# 3 31.5831 14.8539 83.9952 -12.2692 -21.1205 19.6904
# 4 -25.0067 -12.1225 -12.2692 44.6644 21.1777 -4.0771
# 5 -26.0096 -3.7916 -21.1205 21.1777 34.2658 -8.2177
# 6 44.9677 32.6019 19.6904 -4.0771 -8.2177 38.0444
#
#
#
# Elastic Compliance Matrix: (Units=1/GPa)
#
#
# Indices 1 2 3 4 5 6 
#
# 1 0.009963 0.006127 0.000024 0.005230 0.001129 -0.016234
# 2 0.006127 0.026266 0.000085 0.010817 -0.006268 -0.029989
# 3 0.000024 0.000085 0.015375 -0.000148 0.008077 -0.006330
# 4 0.005230 0.010817 -0.000148 0.037014 -0.021658 -0.016087
# 5 0.001129 -0.006268 0.008077 -0.021658 0.049695 0.008269
# 6 -0.016234 -0.029989 -0.006330 -0.016087 0.008269 0.074511
#
#
# Mechanical properties :
#
#
# Convention : Reuss Voigt Hill
#
# Bulk Modulus (GPa) = 15.60655 51.19675 33.40165
# Shear Modulus (GPa) = 22.55218 42.23537 32.39378
#
# Velocity S-wave (km/s) = 2.95521 4.04419 3.54180
# Velocity P-wave (km/s) = 4.20570 6.45237 5.44615
#
# Compressibility (1/GPa) = 0.06407566
#
# Stress axis : x y z
#
# Youngs Moduli (GPa) = 100.37611 38.07220 65.04181
#
# Poissons Ratio (x) = -0.23326 -0.00156
# Poissons Ratio (y) = -0.61498 -0.00556
# Poissons Ratio (z) = -0.00241 -0.00325
#
# Static dielectric constant tensor:
#      x y z
#    x 2.058630 0.041760 -0.024350 
#    y 0.041760 2.089820 -0.019870 
#    z -0.024350 -0.019870 2.131070 
# 
# From -- ./inp_files/327530.got.cif
#   From: 2010.05.17/outbox.cif.g08.bks.cpg/sg2_164_cif.got.tgz:327530.got - 2010.06.03 11:33:40.
