data_PCOD9100262
_publ_section_title
;
Structure prediction by ZEFSAII (Michael W. Deem and Ramdas Pophale) SiO2 
 PCOD9100262
Probable space group: P -1
;
_chemical_formula_sum "Si O2"
_cell_formula_units_Z 16
_cell_length_a 15.640206
_cell_length_b 5.585671
_cell_length_c 23.343436
_cell_angle_alpha 62.833967
_cell_angle_beta 30.186489
_cell_angle_gamma 84.702768
_cell_volume 672.400310
_symmetry_space_group_name_H-M "P -1"
_symmetry_group_IT_number 2
_symmetry_cell_setting 'triclinic'
loop_
_space_group_symop_operation_xyz
x,y,z
-x,-y,-z
loop_
_atom_site_type_symbol
_atom_site_label
_atom_site_fract_x
_atom_site_fract_y
_atom_site_fract_z
Si Si1 0.852722 0.845474 0.306892
Si Si2 0.278311 0.779474 0.611662
Si Si3 0.786522 0.064093 0.026924
Si Si4 0.669535 0.200448 0.723948
Si Si5 0.260399 0.316997 0.210516
Si Si6 0.252040 0.098061 0.120616
Si Si7 0.084760 0.395364 0.012541
Si Si8 0.983710 0.366189 0.428044
O O1 0.706144 0.418196 0.427609
O O2 0.759556 0.940156 0.400795
O O3 0.114085 0.051254 0.151073
O O4 0.882357 0.055964 0.208724
O O5 0.500000 0.000000 0.500000
O O6 0.037168 0.413929 0.818295
O O7 0.767886 0.244616 0.072291
O O8 0.575587 0.921592 0.124098
O O9 0.794005 0.748503 0.065376
O O10 0.849279 0.532196 0.626510
O O11 0.765558 0.255428 0.598071
O O12 0.678982 0.913466 0.776912
O O13 0.263073 0.333576 0.138763
O O14 0.010416 0.139275 0.396420
O O15 0.485619 0.712463 0.060778
O O16 0.097118 0.707955 0.283415
O O17 0.000000 0.500000 0.000000
#
# Coordination Sequence:
#
# PCOD9100262 Si02
#       8
#     2   2   2   2   2   2   2   2
#     4  10  22  38  65  94 126 169 213 267 325 415
#     4  10  21  39  63  92 123 161 212 274 339 392
#     4  10  22  39  67  97 124 169 219 267 323 416
#     4  10  22  39  61  95 126 178 221 261 328 380
#     4  10  20  37  63  90 136 173 219 271 318 387
#     4  10  22  37  58  98 127 173 221 262 330 383
#     4  10  21  41  65  95 126 161 216 276 337 393
#     4  10  22  38  60  91 138 172 216 273 314 386
#
# _framework density 23.795349000000002
#
# number of rings (size 3 to 8) (size 9 to 14) (size 15 to 20)
#    0.000    2.000    0.000    3.000    7.000    0.000 
#    0.000    7.500    0.000    0.000    0.000    0.000 
#    0.000    0.000    0.000    0.000    0.000    0.000 
#
# Total GULP energy -89164.251781 kJ/mol
# GULP energy per Si atom -5572.765736 kJ/mol
# Density = 2.374119 g / cm^3
# Si number density = 23.795349 Si / 1000 Ang^3
#
#
#
# Elastic Constant Matrix: (Units=GPa)
#
#
# Indices 1 2 3 4 5 6 
#
# 1 65.8954 17.6337 22.2995 -0.6502 -15.7133 4.2920
# 2 17.6337 161.8550 8.8631 12.5118 -7.3452 10.4359
# 3 22.2995 8.8631 69.7264 18.5102 -7.8795 -2.6886
# 4 -0.6502 12.5118 18.5102 27.4875 -1.7091 -2.7942
# 5 -15.7133 -7.3452 -7.8795 -1.7091 47.1242 -3.7872
# 6 4.2920 10.4359 -2.6886 -2.7942 -3.7872 23.4054
#
#
#
# Elastic Compliance Matrix: (Units=1/GPa)
#
#
# Indices 1 2 3 4 5 6 
#
# 1 0.019498 -0.001855 -0.007159 0.006239 0.005081 -0.002004
# 2 -0.001855 0.006853 0.000661 -0.003910 0.000171 -0.003079
# 3 -0.007159 0.000661 0.020417 -0.013987 0.000769 0.001818
# 4 0.006239 -0.003910 -0.013987 0.048311 0.001283 0.004968
# 5 0.005081 0.000171 0.000769 0.001283 0.023359 0.003013
# 6 -0.002004 -0.003079 0.001818 0.004968 0.003013 0.045755
#
#
# Mechanical properties :
#
#
# Convention : Reuss Voigt Hill
#
# Bulk Modulus (GPa) = 33.26474 43.89659 38.58066
# Shear Modulus (GPa) = 26.18890 36.18211 31.18550
#
# Velocity S-wave (km/s) = 3.32111 3.90366 3.62411
# Velocity P-wave (km/s) = 5.35875 6.22942 5.81042
#
# Compressibility (1/GPa) = 0.03006186
#
# Stress axis : x y z
#
# Youngs Moduli (GPa) = 51.28647 145.92575 48.97768
#
# Poissons Ratio (x) = 0.27065 0.35065
# Poissons Ratio (y) = 0.09512 -0.03236
# Poissons Ratio (z) = 0.36718 -0.09643
#
# Static dielectric constant tensor:
#      x y z
#    x 1.892530 0.057240 0.030260 
#    y 0.057240 2.133600 0.006680 
#    z 0.030260 0.006680 1.994180 
# 
# From -- ./inp_files/122958.got.cif
#   From: 2010.05.17/outbox.cif.g08.bks.cpg/sg2_62_cif.got.tgz:122958.got - 2010.06.03 11:33:40.
