data_PCOD9100473
_publ_section_title
;
Structure prediction by ZEFSAII (Michael W. Deem and Ramdas Pophale) SiO2 
 PCOD9100473
Probable space group: P -1
;
_chemical_formula_sum "Si O2"
_cell_formula_units_Z 12
_cell_length_a 11.410838
_cell_length_b 17.253083
_cell_length_c 9.316871
_cell_angle_alpha 149.933269
_cell_angle_beta 39.653064
_cell_angle_gamma 140.847768
_cell_volume 551.194147
_symmetry_space_group_name_H-M "P -1"
_symmetry_group_IT_number 2
_symmetry_cell_setting 'triclinic'
loop_
_space_group_symop_operation_xyz
x,y,z
-x,-y,-z
loop_
_atom_site_type_symbol
_atom_site_label
_atom_site_fract_x
_atom_site_fract_y
_atom_site_fract_z
Si Si1 0.647420 0.122214 0.768483
Si Si2 0.158925 0.249371 0.125706
Si Si3 0.288164 0.018387 0.251718
Si Si4 0.744486 0.005843 0.203392
Si Si5 0.110932 0.269247 0.878941
Si Si6 0.089357 0.544752 0.830288
O O1 0.416550 0.035820 0.834699
O O2 0.737781 0.008736 0.593852
O O3 0.717870 0.128199 0.547741
O O4 0.722267 0.293108 0.056006
O O5 0.143336 0.399354 0.474610
O O6 0.292807 0.165220 0.949718
O O7 0.194126 0.312262 0.029828
O O8 0.954370 0.096115 0.083267
O O9 0.250558 0.188531 0.533267
O O10 0.103464 0.872575 0.130624
O O11 0.500000 0.000000 0.000000
O O12 0.061153 0.406718 0.054074
O O13 0.000000 0.500000 0.000000
#
# Coordination Sequence:
#
# PCOD9100473 Si02
#       6
#     2   2   2   2   2   2
#     4  10  20  39  58  90 120 159 201 258 295 363
#     4  11  21  39  63  93 122 163 202 251 312 363
#     4  10  20  37  64  90 122 157 209 252 306 362
#     4  10  21  35  66  87 120 157 209 248 300 365
#     4  10  22  38  62  91 124 160 205 256 303 366
#     4  11  23  39  61  88 128 164 202 250 315 362
#
# _framework density 21.770913
#
# number of rings (size 3 to 8) (size 9 to 14) (size 15 to 20)
#    0.000    1.667    3.333    1.500    0.000    2.000 
#    0.000    1.667    0.000    7.000    0.000    0.000 
#    0.000    0.000    0.000    0.000    0.000    0.000 
#
# Total GULP energy -66913.739617 kJ/mol
# GULP energy per Si atom -5576.144968 kJ/mol
# Density = 2.172136 g / cm^3
# Si number density = 21.770913 Si / 1000 Ang^3
#
#
#
# Elastic Constant Matrix: (Units=GPa)
#
#
# Indices 1 2 3 4 5 6 
#
# 1 113.1962 7.0873 33.4687 14.8091 9.8088 -12.4947
# 2 7.0873 27.8268 9.6776 -0.7344 -3.2384 -8.0584
# 3 33.4687 9.6776 111.4594 11.9797 -3.8917 -8.6463
# 4 14.8091 -0.7344 11.9797 32.5609 1.4424 -7.2686
# 5 9.8088 -3.2384 -3.8917 1.4424 27.1452 -10.2187
# 6 -12.4947 -8.0584 -8.6463 -7.2686 -10.2187 31.3726
#
#
#
# Elastic Compliance Matrix: (Units=1/GPa)
#
#
# Indices 1 2 3 4 5 6 
#
# 1 0.010669 -0.002084 -0.002716 -0.003534 -0.003986 0.000848
# 2 -0.002084 0.042738 -0.002192 0.005431 0.010617 0.014260
# 3 -0.002716 -0.002192 0.010470 -0.002431 0.002970 0.001645
# 4 -0.003534 0.005431 -0.002431 0.035079 0.002867 0.008379
# 5 -0.003986 0.010617 0.002970 0.002867 0.046509 0.017771
# 6 0.000848 0.014260 0.001645 0.008379 0.017771 0.044059
#
#
# Mechanical properties :
#
#
# Convention : Reuss Voigt Hill
#
# Bulk Modulus (GPa) = 20.04289 39.21662 29.62976
# Shear Modulus (GPa) = 22.71273 31.69898 27.20586
#
# Velocity S-wave (km/s) = 3.23346 3.81993 3.53886
# Velocity P-wave (km/s) = 4.81317 6.12440 5.50794
#
# Compressibility (1/GPa) = 0.04989301
#
# Stress axis : x y z
#
# Youngs Moduli (GPa) = 93.72725 23.39824 95.50774
#
# Poissons Ratio (x) = 0.04877 0.25943
# Poissons Ratio (y) = 0.19536 0.20933
# Poissons Ratio (z) = 0.25459 0.05128
#
# Static dielectric constant tensor:
#      x y z
#    x 1.806870 -0.029380 0.005840 
#    y -0.029380 1.849870 -0.038600 
#    z 0.005840 -0.038600 1.828490 
# 
# From -- ./inp_files/150517.got.cif
#   From: 2010.05.17/outbox.cif.g08.bks.cpg/sg2_76_cif.got.tgz:150517.got - 2010.06.03 11:33:40.
