data_PCOD9100072
_publ_section_title
;
Structure prediction by ZEFSAII (Michael W. Deem and Ramdas Pophale) SiO2 
 PCOD9100072
Probable space group: P -1
;
_chemical_formula_sum "Si O2"
_cell_formula_units_Z 16
_cell_length_a 5.471757
_cell_length_b 9.240808
_cell_length_c 18.882698
_cell_angle_alpha 124.739371
_cell_angle_beta 86.358755
_cell_angle_gamma 120.358060
_cell_volume 642.183482
_symmetry_space_group_name_H-M "P -1"
_symmetry_group_IT_number 2
_symmetry_cell_setting 'triclinic'
loop_
_space_group_symop_operation_xyz
x,y,z
-x,-y,-z
loop_
_atom_site_type_symbol
_atom_site_label
_atom_site_fract_x
_atom_site_fract_y
_atom_site_fract_z
Si Si1 0.191780 0.648008 0.107223
Si Si2 0.754139 0.692310 0.422007
Si Si3 0.773239 0.797540 0.692066
Si Si4 0.422571 0.502877 0.869485
Si Si5 0.882894 0.249502 0.429078
Si Si6 0.759605 0.851494 0.864100
Si Si7 0.425522 0.067157 0.936187
Si Si8 0.265417 0.010678 0.402566
O O1 0.364894 0.564950 0.123868
O O2 0.462617 0.866031 0.128258
O O3 0.935891 0.647729 0.155381
O O4 0.000000 0.500000 0.000000
O O5 0.526315 0.439007 0.357668
O O6 0.605588 0.814130 0.485529
O O7 0.954938 0.754687 0.505497
O O8 0.968328 0.803719 0.381856
O O9 0.824059 0.907659 0.796257
O O10 0.766435 0.904221 0.649093
O O11 0.026122 0.763657 0.656007
O O12 0.518781 0.601748 0.816827
O O13 0.514869 0.716631 0.971227
O O14 0.559860 0.025058 0.382186
O O15 0.000000 0.500000 0.500000
O O16 0.626671 0.982222 0.932078
O O17 0.070439 0.903512 0.902461
#
# Coordination Sequence:
#
# PCOD9100072 Si02
#       8
#     2   2   2   2   2   2   2   2
#     4  10  20  39  69  98 125 158 216 283 326 372
#     4  10  20  37  62  93 115 159 209 264 308 383
#     4  11  24  40  56  89 132 166 204 268 328 386
#     4  11  21  41  68  99 125 169 224 273 321 389
#     4  11  18  36  67  87 119 162 207 265 319 376
#     4  12  26  40  63  93 135 175 215 265 335 394
#     4  11  22  42  66  93 126 173 222 270 319 393
#     4  10  20  38  64  89 118 156 215 256 318 380
#
# _framework density 24.914999000000002
#
# number of rings (size 3 to 8) (size 9 to 14) (size 15 to 20)
#    0.000    1.250    2.500    6.375    1.750    0.000 
#    4.500    0.000    0.000    0.000    0.000    0.000 
#    0.000    0.000    0.000    0.000    0.000    0.000 
#
# Total GULP energy -89102.182204 kJ/mol
# GULP energy per Si atom -5568.886388 kJ/mol
# Density = 2.485829 g / cm^3
# Si number density = 24.914999 Si / 1000 Ang^3
#
#
#
# Elastic Constant Matrix: (Units=GPa)
#
#
# Indices 1 2 3 4 5 6 
#
# 1 136.1907 58.2612 30.7537 -11.5144 -10.7427 14.9773
# 2 58.2612 149.2612 17.8337 -28.2781 -3.3344 20.9532
# 3 30.7537 17.8337 68.7735 -17.9238 -7.0571 5.5977
# 4 -11.5144 -28.2781 -17.9238 36.0298 6.6743 -3.9941
# 5 -10.7427 -3.3344 -7.0571 6.6743 17.5744 -2.3013
# 6 14.9773 20.9532 5.5977 -3.9941 -2.3013 50.8252
#
#
#
# Elastic Compliance Matrix: (Units=1/GPa)
#
#
# Indices 1 2 3 4 5 6 
#
# 1 0.010017 -0.003704 -0.003595 -0.002494 0.004792 -0.001008
# 2 -0.003704 0.009687 0.000900 0.007159 -0.003122 -0.002580
# 3 -0.003595 0.000900 0.018322 0.008211 0.002135 -0.000588
# 4 -0.002494 0.007159 0.008211 0.038756 -0.011666 -0.000603
# 5 0.004792 -0.003122 0.002135 -0.011666 0.064742 0.001654
# 6 -0.001008 -0.002580 -0.000588 -0.000603 0.001654 0.021128
#
#
# Mechanical properties :
#
#
# Convention : Reuss Voigt Hill
#
# Bulk Modulus (GPa) = 39.64054 63.10250 51.37152
# Shear Modulus (GPa) = 27.19473 37.37766 32.28619
#
# Velocity S-wave (km/s) = 3.30737 3.87745 3.60370
# Velocity P-wave (km/s) = 5.52538 6.74005 6.16271
#
# Compressibility (1/GPa) = 0.02522670
#
# Stress axis : x y z
#
# Youngs Moduli (GPa) = 99.82896 103.23360 54.58016
#
# Poissons Ratio (x) = 0.38242 0.19622
# Poissons Ratio (y) = 0.36981 -0.04912
# Poissons Ratio (z) = 0.35889 -0.09291
#
# Static dielectric constant tensor:
#      x y z
#    x 2.378130 -0.100930 -0.261730 
#    y -0.100930 1.959950 0.015870 
#    z -0.261730 0.015870 2.131720 
# 
# From -- ./inp_files/582506.got.cif
#   From: 2010.05.17/outbox.cif.g08.bks.cpg/sg2_292_cif.got.tgz:582506.got - 2010.06.03 11:33:40.
