data_PCOD9100650
_publ_section_title
;
Structure prediction by ZEFSAII (Michael W. Deem and Ramdas Pophale) SiO2 
 PCOD9100650
Probable space group: P -1
;
_chemical_formula_sum "Si O2"
_cell_formula_units_Z 16
_cell_length_a 12.127080
_cell_length_b 12.433757
_cell_length_c 11.748890
_cell_angle_alpha 94.024489
_cell_angle_beta 36.614852
_cell_angle_gamma 66.107374
_cell_volume 665.525475
_symmetry_space_group_name_H-M "P -1"
_symmetry_group_IT_number 2
_symmetry_cell_setting 'triclinic'
loop_
_space_group_symop_operation_xyz
x,y,z
-x,-y,-z
loop_
_atom_site_type_symbol
_atom_site_label
_atom_site_fract_x
_atom_site_fract_y
_atom_site_fract_z
Si Si1 0.914452 0.338780 0.679680
Si Si2 0.671427 0.179840 0.470316
Si Si3 0.421333 0.017424 0.913332
Si Si4 0.385156 0.677586 0.246076
Si Si5 0.323684 0.667085 0.727609
Si Si6 0.673418 0.100876 0.837892
Si Si7 0.706219 0.856165 0.223732
Si Si8 0.751578 0.218838 0.970481
O O1 0.759641 0.362656 0.694844
O O2 0.261624 0.185406 0.364261
O O3 0.718793 0.522229 0.908728
O O4 0.878540 0.260462 0.797160
O O5 0.617121 0.298827 0.616699
O O6 0.701965 0.217858 0.324063
O O7 0.402615 0.217235 0.704319
O O8 0.967777 0.978532 0.236626
O O9 0.223893 0.040917 0.168348
O O10 0.313192 0.077468 0.878781
O O11 0.475113 0.113163 0.924191
O O12 0.224082 0.855393 0.338067
O O13 0.500000 0.500000 0.500000
O O14 0.427095 0.660287 0.764313
O O15 0.021674 0.740952 0.002102
O O16 0.573577 0.230330 0.027446
O O17 0.500000 0.000000 0.500000
#
# Coordination Sequence:
#
# PCOD9100650 Si02
#       8
#     2   2   2   2   2   2   2   2
#     4  10  20  37  65  87 136 167 211 270 330 390
#     4  12  23  42  73  94 132 176 225 270 328 399
#     4  11  21  40  62  97 126 170 219 279 316 386
#     4  10  21  39  58  98 129 175 209 264 336 394
#     4  12  28  47  67 100 137 173 221 278 338 396
#     4  10  22  37  64  91 131 164 222 267 326 389
#     4  12  25  44  72 100 133 174 227 279 326 392
#     4  11  21  43  66  96 123 175 220 266 325 397
#
# _framework density 24.041153999999999
#
# number of rings (size 3 to 8) (size 9 to 14) (size 15 to 20)
#    0.000    1.000    3.750    2.625    1.750    4.000 
#    2.250    0.000    0.000    0.000    0.000    0.000 
#    0.000    0.000    0.000    0.000    0.000    0.000 
#
# Total GULP energy -89317.658112 kJ/mol
# GULP energy per Si atom -5582.353632 kJ/mol
# Density = 2.398644 g / cm^3
# Si number density = 24.041154 Si / 1000 Ang^3
#
#
#
# Elastic Constant Matrix: (Units=GPa)
#
#
# Indices 1 2 3 4 5 6 
#
# 1 117.1631 15.2043 13.5591 -14.7411 45.8868 4.7288
# 2 15.2043 102.9476 16.3602 -21.0438 7.3942 11.2189
# 3 13.5591 16.3602 91.9416 -1.2927 23.1245 13.5252
# 4 -14.7411 -21.0438 -1.2927 39.4272 -3.8829 -0.6341
# 5 45.8868 7.3942 23.1245 -3.8829 47.1288 -6.2975
# 6 4.7288 11.2189 13.5252 -0.6341 -6.2975 27.5615
#
#
#
# Elastic Compliance Matrix: (Units=1/GPa)
#
#
# Indices 1 2 3 4 5 6 
#
# 1 0.016159 0.000195 0.003517 0.004320 -0.018290 -0.008657
# 2 0.000195 0.011687 -0.000926 0.006041 -0.001684 -0.004582
# 3 0.003517 -0.000926 0.015087 -0.000041 -0.012073 -0.010390
# 4 0.004320 0.006041 -0.000041 0.029844 -0.003103 -0.003203
# 5 -0.018290 -0.001684 -0.012073 -0.003103 0.047709 0.020577
# 6 -0.008657 -0.004582 -0.010390 -0.003203 0.020577 0.049359
#
#
# Mechanical properties :
#
#
# Convention : Reuss Voigt Hill
#
# Bulk Modulus (GPa) = 20.61654 44.69994 32.65824
# Shear Modulus (GPa) = 27.70965 40.61875 34.16420
#
# Velocity S-wave (km/s) = 3.39867 4.11487 3.77380
# Velocity P-wave (km/s) = 4.89851 6.41948 5.70986
#
# Compressibility (1/GPa) = 0.04850476
#
# Stress axis : x y z
#
# Youngs Moduli (GPa) = 61.88402 85.56423 66.28258
#
# Poissons Ratio (x) = -0.01667 -0.23310
# Poissons Ratio (y) = -0.01206 0.06137
# Poissons Ratio (z) = -0.21763 0.07923
#
# Static dielectric constant tensor:
#      x y z
#    x 1.942230 0.002390 -0.100030 
#    y 0.002390 1.940860 0.029200 
#    z -0.100030 0.029200 2.102240 
# 
# From -- ./inp_files/351728.got.cif
#   From: 2010.05.17/outbox.cif.g08.bks.cpg/sg2_176_cif.got.tgz:351728.got - 2010.06.03 11:33:40.
