data_PCOD9100922
_publ_section_title
;
Structure prediction by ZEFSAII (Michael W. Deem and Ramdas Pophale) SiO2 
 PCOD9100922
Probable space group: P -1
;
_chemical_formula_sum "Si O2"
_cell_formula_units_Z 12
_cell_length_a 9.875132
_cell_length_b 6.888645
_cell_length_c 11.354703
_cell_angle_alpha 140.265541
_cell_angle_beta 63.111857
_cell_angle_gamma 106.415003
_cell_volume 437.485413
_symmetry_space_group_name_H-M "P -1"
_symmetry_group_IT_number 2
_symmetry_cell_setting 'triclinic'
loop_
_space_group_symop_operation_xyz
x,y,z
-x,-y,-z
loop_
_atom_site_type_symbol
_atom_site_label
_atom_site_fract_x
_atom_site_fract_y
_atom_site_fract_z
Si Si1 0.851426 0.947377 0.757216
Si Si2 0.510732 0.248014 0.980902
Si Si3 0.954688 0.308339 0.086476
Si Si4 0.624500 0.234287 0.564824
Si Si5 0.654022 0.279816 0.312431
Si Si6 0.893261 0.360920 0.643660
O O1 0.679644 0.076953 0.852521
O O2 0.857192 0.657091 0.709575
O O3 0.951716 0.819002 0.548364
O O4 0.935939 0.198904 0.911198
O O5 0.462894 0.438869 0.207444
O O6 0.247063 0.827988 0.414927
O O7 0.500000 0.500000 0.000000
O O8 0.394693 0.013191 0.873740
O O9 0.784248 0.418325 0.252489
O O10 0.078033 0.520119 0.182336
O O11 0.000000 0.000000 0.000000
O O12 0.707240 0.213233 0.395374
O O13 0.500000 0.000000 0.500000
O O14 0.500000 0.500000 0.500000
#
# Coordination Sequence:
#
# PCOD9100922 Si02
#       6
#     2   2   2   2   2   2
#     4  10  21  41  70 102 131 173 230 287 338 402
#     4  12  25  44  66  99 143 185 226 277 347 409
#     4  10  20  37  67 102 127 164 227 286 335 389
#     4  12  25  44  66  97 143 185 223 283 347 413
#     4  12  24  41  71 101 129 176 236 284 333 403
#     4  10  21  41  70  99 133 174 229 284 345 404
#
# _framework density 27.429486000000001
#
# number of rings (size 3 to 8) (size 9 to 14) (size 15 to 20)
#    0.000    1.000    1.667    8.000    0.000    2.000 
#    0.000    1.667    3.667    0.000    0.000    0.000 
#    0.000    0.000    0.000    0.000    0.000    0.000 
#
# Total GULP energy -67372.687372 kJ/mol
# GULP energy per Si atom -5614.390614 kJ/mol
# Density = 2.736706 g / cm^3
# Si number density = 27.429486 Si / 1000 Ang^3
#
#
#
# Elastic Constant Matrix: (Units=GPa)
#
#
# Indices 1 2 3 4 5 6 
#
# 1 215.0599 39.3460 86.5977 17.0224 25.7516 15.3886
# 2 39.3460 69.9256 26.8009 20.0320 17.4403 -14.2216
# 3 86.5977 26.8009 171.8726 1.1464 15.0241 8.3984
# 4 17.0224 20.0320 1.1464 40.1244 3.9757 12.9826
# 5 25.7516 17.4403 15.0241 3.9757 84.2061 5.7988
# 6 15.3886 -14.2216 8.3984 12.9826 5.7988 55.4613
#
#
#
# Elastic Compliance Matrix: (Units=1/GPa)
#
#
# Indices 1 2 3 4 5 6 
#
# 1 0.006494 -0.002567 -0.002708 -0.000735 -0.000813 -0.001793
# 2 -0.002567 0.023846 -0.002531 -0.013880 -0.003794 0.010856
# 3 -0.002708 -0.002531 0.007644 0.002745 -0.000024 -0.001695
# 4 -0.000735 -0.013880 0.002745 0.035910 0.001766 -0.012362
# 5 -0.000813 -0.003794 -0.000024 0.001766 0.013004 -0.002517
# 6 -0.001793 0.010856 -0.001695 -0.012362 -0.002517 0.024725
#
#
# Mechanical properties :
#
#
# Convention : Reuss Voigt Hill
#
# Bulk Modulus (GPa) = 44.70018 84.70525 64.70272
# Shear Modulus (GPa) = 37.12100 56.23260 46.67680
#
# Velocity S-wave (km/s) = 3.68275 4.53269 4.12964
# Velocity P-wave (km/s) = 5.86645 7.63818 6.81018
#
# Compressibility (1/GPa) = 0.02237127
#
# Stress axis : x y z
#
# Youngs Moduli (GPa) = 153.99279 41.93497 130.82132
#
# Poissons Ratio (x) = 0.10766 0.35426
# Poissons Ratio (y) = 0.39536 0.33112
# Poissons Ratio (z) = 0.41701 0.10614
#
# Static dielectric constant tensor:
#      x y z
#    x 2.155430 -0.027100 -0.043310 
#    y -0.027100 2.233320 0.023280 
#    z -0.043310 0.023280 2.111680 
# 
# From -- ./inp_files/512550.got.cif
#   From: 2010.05.17/outbox.cif.g08.bks.cpg/sg2_257_cif.got.tgz:512550.got - 2010.06.03 11:33:40.
