data_PCOD9100964
_publ_section_title
;
Structure prediction by ZEFSAII (Michael W. Deem and Ramdas Pophale) SiO2 
 PCOD9100964
Probable space group: P -1
;
_chemical_formula_sum "Si O2"
_cell_formula_units_Z 16
_cell_length_a 18.661752
_cell_length_b 24.156474
_cell_length_c 15.239727
_cell_angle_alpha 159.185112
_cell_angle_beta 32.990406
_cell_angle_gamma 159.555110
_cell_volume 813.794526
_symmetry_space_group_name_H-M "P -1"
_symmetry_group_IT_number 2
_symmetry_cell_setting 'triclinic'
loop_
_space_group_symop_operation_xyz
x,y,z
-x,-y,-z
loop_
_atom_site_type_symbol
_atom_site_label
_atom_site_fract_x
_atom_site_fract_y
_atom_site_fract_z
Si Si1 0.081562 0.493238 0.493718
Si Si2 0.755360 0.230987 0.593022
Si Si3 0.277254 0.169631 0.516610
Si Si4 0.806065 0.150088 0.603645
Si Si5 0.247029 0.553866 0.827563
Si Si6 0.583191 0.974924 0.959920
Si Si7 0.545928 0.380965 0.728258
Si Si8 0.802363 0.615916 0.194941
O O1 0.210728 0.454808 0.283400
O O2 0.000000 0.500000 0.500000
O O3 0.882324 0.297539 0.475068
O O4 0.255955 0.767006 0.768030
O O5 0.806596 0.159043 0.511904
O O6 0.500000 0.000000 0.500000
O O7 0.826854 0.470588 0.907522
O O8 0.307541 0.072475 0.265090
O O9 0.445293 0.297136 0.610287
O O10 0.301087 0.362107 0.735224
O O11 0.035072 0.909148 0.412035
O O12 0.023795 0.281867 0.614016
O O13 0.595206 0.874389 0.450610
O O14 0.800642 0.323364 0.897845
O O15 0.404173 0.741006 0.863584
O O16 0.316658 0.518089 0.787743
O O17 0.500000 0.000000 0.000000
O O18 0.500000 0.500000 0.000000
#
# Coordination Sequence:
#
# PCOD9100964 Si02
#       8
#     2   2   2   2   2   2   2   2
#     4  12  26  43  66 105 135 178 231 275 339 407
#     4  11  24  41  68  94 133 178 227 275 335 407
#     4  11  23  42  68  94 136 174 228 279 344 399
#     4  10  20  39  64  94 125 171 217 274 332 394
#     4  10  20  37  67  96 126 160 226 281 328 391
#     4  12  22  41  70  98 128 170 229 283 328 408
#     4  12  26  44  68  99 139 183 222 278 346 410
#     4  10  23  40  64  99 129 178 220 280 338 399
#
# _framework density 19.660982000000001
#
# number of rings (size 3 to 8) (size 9 to 14) (size 15 to 20)
#    0.000    1.000    5.000    1.500    7.000    0.500 
#    0.000    1.875    0.000    0.000    0.000    0.000 
#    0.000    0.000    0.000    0.000    0.000    0.000 
#
# Total GULP energy -89324.900438 kJ/mol
# GULP energy per Si atom -5582.806277 kJ/mol
# Density = 1.961623 g / cm^3
# Si number density = 19.660982 Si / 1000 Ang^3
#
#
#
# Elastic Constant Matrix: (Units=GPa)
#
#
# Indices 1 2 3 4 5 6 
#
# 1 156.9569 57.4162 23.0063 -4.5816 -1.5573 -18.2616
# 2 57.4162 120.0586 16.5277 -7.2646 -1.5847 -23.7956
# 3 23.0063 16.5277 53.5460 -11.2311 0.9577 3.9692
# 4 -4.5816 -7.2646 -11.2311 27.7363 -0.9351 0.8349
# 5 -1.5573 -1.5847 0.9577 -0.9351 27.6962 0.7535
# 6 -18.2616 -23.7956 3.9692 0.8349 0.7535 37.1101
#
#
#
# Elastic Compliance Matrix: (Units=1/GPa)
#
#
# Indices 1 2 3 4 5 6 
#
# 1 0.008181 -0.003083 -0.002888 -0.000687 0.000296 0.002367
# 2 -0.003083 0.011409 -0.002366 0.001355 0.000443 0.006012
# 3 -0.002888 -0.002366 0.022807 0.008283 -0.000656 -0.005551
# 4 -0.000687 0.001355 0.008283 0.039726 0.001128 -0.001272
# 5 0.000296 0.000443 -0.000656 0.001128 0.036216 -0.000261
# 6 0.002367 0.006012 -0.005551 -0.001272 -0.000261 0.032594
#
#
# Mechanical properties :
#
#
# Convention : Reuss Voigt Hill
#
# Bulk Modulus (GPa) = 38.87719 58.27354 48.57537
# Shear Modulus (GPa) = 28.37982 34.08261 31.23121
#
# Velocity S-wave (km/s) = 3.80341 4.16807 3.98991
# Velocity P-wave (km/s) = 6.25337 7.27099 6.78129
#
# Compressibility (1/GPa) = 0.02572202
#
# Stress axis : x y z
#
# Youngs Moduli (GPa) = 122.23988 87.65087 43.84550
#
# Poissons Ratio (x) = 0.27025 0.12663
# Poissons Ratio (y) = 0.37689 0.10375
# Poissons Ratio (z) = 0.35303 0.20740
#
# Static dielectric constant tensor:
#      x y z
#    x 1.711150 0.004400 0.001310 
#    y 0.004400 1.718140 0.013500 
#    z 0.001310 0.013500 1.714640 
# 
# From -- ./inp_files/226684.got.cif
#   From: 2010.05.17/outbox.cif.g08.bks.cpg/sg2_114_cif.got.tgz:226684.got - 2010.06.03 11:33:40.
