data_PCOD9100675
_publ_section_title
;
Structure prediction by ZEFSAII (Michael W. Deem and Ramdas Pophale) SiO2 
 PCOD9100675
Probable space group: P -1
;
_chemical_formula_sum "Si O2"
_cell_formula_units_Z 16
_cell_length_a 11.072466
_cell_length_b 7.278160
_cell_length_c 16.127727
_cell_angle_alpha 98.826751
_cell_angle_beta 55.296595
_cell_angle_gamma 61.891493
_cell_volume 766.731928
_symmetry_space_group_name_H-M "P -1"
_symmetry_group_IT_number 2
_symmetry_cell_setting 'triclinic'
loop_
_space_group_symop_operation_xyz
x,y,z
-x,-y,-z
loop_
_atom_site_type_symbol
_atom_site_label
_atom_site_fract_x
_atom_site_fract_y
_atom_site_fract_z
Si Si1 0.666845 0.395148 0.497965
Si Si2 0.071480 0.586827 0.361854
Si Si3 0.334153 0.886040 0.374084
Si Si4 0.559553 0.068157 0.329327
Si Si5 0.058226 0.125196 0.732977
Si Si6 0.477819 0.802085 0.829436
Si Si7 0.709023 0.959431 0.775461
Si Si8 0.303984 0.761666 0.051449
O O1 0.500000 0.500000 0.500000
O O2 0.633898 0.640894 0.545673
O O3 0.865994 0.126032 0.363598
O O4 0.623682 0.319022 0.594165
O O5 0.292546 0.474198 0.289400
O O6 0.105634 0.337326 0.343602
O O7 0.890019 0.842046 0.497955
O O8 0.033972 0.659785 0.285067
O O9 0.488364 0.918409 0.340029
O O10 0.339334 0.864493 0.270973
O O11 0.747452 0.947642 0.306846
O O12 0.614382 0.093509 0.217913
O O13 0.884525 0.214135 0.869886
O O14 0.525983 0.969200 0.855519
O O15 0.356349 0.790483 0.942410
O O16 0.744476 0.027820 0.852382
O O17 0.500000 0.500000 0.000000
#
# Coordination Sequence:
#
# PCOD9100675 Si02
#       8
#     2   2   2   2   2   2   2   2
#     4   9  21  36  56  90 123 154 193 232 299 368
#     4   9  19  37  59  90 113 149 203 234 301 356
#     4  10  20  37  65  90 121 156 189 249 307 348
#     4  10  22  40  60  88 129 150 198 245 300 361
#     4  10  22  38  56  90 116 160 196 241 299 358
#     4   9  21  37  59  84 113 156 199 248 289 336
#     4   9  21  36  60  88 115 149 201 246 296 350
#     4  12  22  37  60  83 117 158 204 248 290 338
#
# _framework density 20.867788999999998
#
# number of rings (size 3 to 8) (size 9 to 14) (size 15 to 20)
#    0.750    1.500    1.250    0.750    3.500    5.000 
#    2.250    2.500    0.000    2.250    0.000    0.000 
#    0.000    0.000    0.000    0.000    0.000    0.000 
#
# Total GULP energy -89242.306591 kJ/mol
# GULP energy per Si atom -5577.644162 kJ/mol
# Density = 2.082029 g / cm^3
# Si number density = 20.867789 Si / 1000 Ang^3
#
#
#
# Elastic Constant Matrix: (Units=GPa)
#
#
# Indices 1 2 3 4 5 6 
#
# 1 50.0765 13.9655 15.8766 -2.3869 2.7631 -6.7682
# 2 13.9655 80.9957 7.0165 -11.9560 -3.4377 -12.6700
# 3 15.8766 7.0165 60.9838 -22.4764 -17.2713 -5.7320
# 4 -2.3869 -11.9560 -22.4764 27.8685 0.5702 9.3957
# 5 2.7631 -3.4377 -17.2713 0.5702 26.8266 -1.0173
# 6 -6.7682 -12.6700 -5.7320 9.3957 -1.0173 21.4792
#
#
#
# Elastic Compliance Matrix: (Units=1/GPa)
#
#
# Indices 1 2 3 4 5 6 
#
# 1 0.026668 -0.004717 -0.013881 -0.013083 -0.011742 0.007083
# 2 -0.004717 0.014971 0.004255 0.007510 0.005190 0.005441
# 3 -0.013881 0.004255 0.038461 0.032705 0.025864 -0.004682
# 4 -0.013083 0.007510 0.032705 0.071022 0.021059 -0.021035
# 5 -0.011742 0.005190 0.025864 0.021059 0.055343 -0.000327
# 6 0.007083 0.005441 -0.004682 -0.021035 -0.000327 0.059935
#
#
# Mechanical properties :
#
#
# Convention : Reuss Voigt Hill
#
# Bulk Modulus (GPa) = 19.45080 29.53035 24.49058
# Shear Modulus (GPa) = 16.01416 25.58135 20.79776
#
# Velocity S-wave (km/s) = 2.77322 3.50505 3.16039
# Velocity P-wave (km/s) = 4.42669 5.52833 5.00789
#
# Compressibility (1/GPa) = 0.05141176
#
# Stress axis : x y z
#
# Youngs Moduli (GPa) = 37.49863 66.79565 26.00041
#
# Poissons Ratio (x) = 0.31509 0.36092
# Poissons Ratio (y) = 0.17689 -0.11062
# Poissons Ratio (z) = 0.52054 -0.28420
#
# Static dielectric constant tensor:
#      x y z
#    x 1.766390 0.041350 0.025810 
#    y 0.041350 1.749650 0.023730 
#    z 0.025810 0.023730 1.768840 
# 
# From -- ./inp_files/513231.got.cif
#   From: 2010.05.17/outbox.cif.g08.bks.cpg/sg2_257_cif.got.tgz:513231.got - 2010.06.03 11:33:40.
