data_PCOD9100726
_publ_section_title
;
Structure prediction by ZEFSAII (Michael W. Deem and Ramdas Pophale) SiO2 
 PCOD9100726
Probable space group: P -1
;
_chemical_formula_sum "Si O2"
_cell_formula_units_Z 14
_cell_length_a 17.746838
_cell_length_b 11.775943
_cell_length_c 14.905352
_cell_angle_alpha 29.542181
_cell_angle_beta 153.713969
_cell_angle_gamma 149.912116
_cell_volume 626.226440
_symmetry_space_group_name_H-M "P -1"
_symmetry_group_IT_number 2
_symmetry_cell_setting 'triclinic'
loop_
_space_group_symop_operation_xyz
x,y,z
-x,-y,-z
loop_
_atom_site_type_symbol
_atom_site_label
_atom_site_fract_x
_atom_site_fract_y
_atom_site_fract_z
Si Si1 0.145674 0.033649 0.710640
Si Si2 0.691486 0.948603 0.748703
Si Si3 0.504740 0.463442 0.311604
Si Si4 0.477945 0.055803 0.684317
Si Si5 0.250433 0.195657 0.891666
Si Si6 0.824720 0.328952 0.486345
Si Si7 0.397865 0.774390 0.114160
O O1 0.320545 0.293876 0.697940
O O2 0.095539 0.063547 0.740363
O O3 0.000000 0.000000 0.500000
O O4 0.213556 0.805714 0.928343
O O5 0.629145 0.688605 0.806183
O O6 0.500000 0.000000 0.500000
O O7 0.839227 0.184372 0.691132
O O8 0.762296 0.909739 0.948502
O O9 0.579486 0.278272 0.570485
O O10 0.386294 0.536052 0.210160
O O11 0.477750 0.169877 0.702485
O O12 0.285697 0.895648 0.543962
O O13 0.581603 0.866382 0.926402
O O14 0.278366 0.484985 0.728071
O O15 0.000000 0.500000 0.500000
O O16 0.500000 0.000000 0.000000
#
# Coordination Sequence:
#
# PCOD9100726 Si02
#       7
#     2   2   2   2   2   2   2
#     4  10  23  41  63  92 129 172 217 270 324 382
#     4  11  22  41  72 100 125 172 226 261 318 405
#     4  10  20  37  65  93 125 163 217 273 312 390
#     4  10  21  39  66  92 122 173 226 253 319 401
#     4  11  23  41  71  92 129 177 219 260 326 397
#     4  11  25  40  64 101 137 167 209 281 330 374
#     4   9  20  36  61  88 120 170 214 259 321 379
#
# _framework density 22.356131000000001
#
# number of rings (size 3 to 8) (size 9 to 14) (size 15 to 20)
#    0.000    1.714    2.857    1.714    6.000    2.857 
#    0.000    5.714    3.143    0.000    0.000    0.000 
#    0.000    0.000    0.000    0.000    0.000    0.000 
#
# Total GULP energy -78083.278734 kJ/mol
# GULP energy per Si atom -5577.377052 kJ/mol
# Density = 2.230525 g / cm^3
# Si number density = 22.356131 Si / 1000 Ang^3
#
#
#
# Elastic Constant Matrix: (Units=GPa)
#
#
# Indices 1 2 3 4 5 6 
#
# 1 128.3662 61.2278 48.2920 0.8907 -38.0298 -38.1212
# 2 61.2278 75.8933 48.0122 -10.6647 -17.3924 -16.9536
# 3 48.2920 48.0122 94.7380 -8.6505 -39.4099 -19.7245
# 4 0.8907 -10.6647 -8.6505 28.9477 -12.7770 -8.5467
# 5 -38.0298 -17.3924 -39.4099 -12.7770 54.9043 -3.2123
# 6 -38.1212 -16.9536 -19.7245 -8.5467 -3.2123 51.6036
#
#
#
# Elastic Compliance Matrix: (Units=1/GPa)
#
#
# Indices 1 2 3 4 5 6 
#
# 1 0.023388 -0.013351 0.010410 0.014156 0.023948 0.020705
# 2 -0.013351 0.028825 -0.012573 0.001643 -0.009081 -0.005492
# 3 0.010410 -0.012573 0.033416 0.027231 0.034897 0.023015
# 4 0.014156 0.001643 0.027231 0.075705 0.049657 0.037036
# 5 0.023948 -0.009081 0.034897 0.049657 0.070910 0.040685
# 6 0.020705 -0.005492 0.023015 0.037036 0.040685 0.050333
#
#
# Mechanical properties :
#
#
# Convention : Reuss Voigt Hill
#
# Bulk Modulus (GPa) = 18.31507 68.22905 43.27206
# Shear Modulus (GPa) = 15.06908 36.52217 25.79562
#
# Velocity S-wave (km/s) = 2.59906 4.04623 3.40052
# Velocity P-wave (km/s) = 4.14934 7.23980 5.90050
#
# Compressibility (1/GPa) = 0.05459985
#
# Stress axis : x y z
#
# Youngs Moduli (GPa) = 42.75736 34.69197 29.92607
#
# Poissons Ratio (x) = 0.46319 -0.31154
# Poissons Ratio (y) = 0.57087 0.37627
# Poissons Ratio (z) = -0.44512 0.43619
#
# Static dielectric constant tensor:
#      x y z
#    x 1.937820 -0.011680 0.023990 
#    y -0.011680 1.824600 -0.004100 
#    z 0.023990 -0.004100 1.927000 
# 
# From -- ./inp_files/538167.got.cif
#   From: 2010.05.17/outbox.cif.g08.bks.cpg/sg2_270_cif.got.tgz:538167.got - 2010.06.03 11:33:40.
