data_PCOD9100705
_publ_section_title
;
Structure prediction by ZEFSAII (Michael W. Deem and Ramdas Pophale) SiO2 
 PCOD9100705
Probable space group: P -1
;
_chemical_formula_sum "Si O2"
_cell_formula_units_Z 16
_cell_length_a 14.786264
_cell_length_b 14.125135
_cell_length_c 8.208756
_cell_angle_alpha 36.243689
_cell_angle_beta 101.770632
_cell_angle_gamma 126.573241
_cell_volume 661.689409
_symmetry_space_group_name_H-M "P -1"
_symmetry_group_IT_number 2
_symmetry_cell_setting 'triclinic'
loop_
_space_group_symop_operation_xyz
x,y,z
-x,-y,-z
loop_
_atom_site_type_symbol
_atom_site_label
_atom_site_fract_x
_atom_site_fract_y
_atom_site_fract_z
Si Si1 0.026883 0.319327 0.011155
Si Si2 0.278918 0.798316 0.610786
Si Si3 0.739907 0.522178 0.716257
Si Si4 0.743158 0.054815 0.303558
Si Si5 0.967426 0.994800 0.739042
Si Si6 0.336441 0.459467 0.681164
Si Si7 0.420011 0.412223 0.262810
Si Si8 0.525829 0.104979 0.687243
O O1 0.902784 0.287605 0.999417
O O2 0.037304 0.201834 0.034458
O O3 0.994164 0.152964 0.379220
O O4 0.159157 0.598243 0.717040
O O5 0.274531 0.957194 0.489936
O O6 0.418510 0.941605 0.365487
O O7 0.254787 0.640965 0.967223
O O8 0.677961 0.456039 0.605456
O O9 0.636410 0.492826 0.830473
O O10 0.896701 0.795369 0.393535
O O11 0.717920 0.860321 0.461812
O O12 0.615900 0.993780 0.276414
O O13 0.809041 0.820742 0.975604
O O14 0.476094 0.533071 0.643289
O O15 0.358537 0.607401 0.637622
O O16 0.500000 0.500000 0.000000
O O17 0.500000 0.000000 0.000000
#
# Coordination Sequence:
#
# PCOD9100705 Si02
#       8
#     2   2   2   2   2   2   2   2
#     4  10  20  38  65  92 121 158 206 251 305 366
#     4  11  23  41  66  89 120 166 205 251 309 372
#     4  11  22  40  64  92 123 160 205 252 310 367
#     4  11  22  39  63  91 123 159 205 253 304 367
#     4  10  20  37  65  92 122 160 201 253 308 364
#     4  11  22  38  62  93 125 159 204 257 304 362
#     4  11  23  38  62  92 125 161 206 255 303 359
#     4  11  24  41  61  87 125 165 205 253 309 367
#
# _framework density 24.180530000000001
#
# number of rings (size 3 to 8) (size 9 to 14) (size 15 to 20)
#    0.000    1.250    2.500    4.500    1.750    1.000 
#    0.000    3.125    2.750    0.000    0.000    0.000 
#    0.000    0.000    0.000    0.000    0.000    0.000 
#
# Total GULP energy -89312.737427 kJ/mol
# GULP energy per Si atom -5582.046089 kJ/mol
# Density = 2.412549 g / cm^3
# Si number density = 24.180530 Si / 1000 Ang^3
#
#
#
# Elastic Constant Matrix: (Units=GPa)
#
#
# Indices 1 2 3 4 5 6 
#
# 1 95.7107 43.7524 14.2879 -12.9585 -15.8889 8.0087
# 2 43.7524 132.8197 25.6337 -25.4671 2.6080 6.7726
# 3 14.2879 25.6337 49.6469 -10.8439 -4.9176 9.3578
# 4 -12.9585 -25.4671 -10.8439 31.7586 3.5257 -10.0505
# 5 -15.8889 2.6080 -4.9176 3.5257 14.0627 -7.6955
# 6 8.0087 6.7726 9.3578 -10.0505 -7.6955 29.7540
#
#
#
# Elastic Compliance Matrix: (Units=1/GPa)
#
#
# Indices 1 2 3 4 5 6 
#
# 1 0.016462 -0.005870 0.000002 0.000471 0.020925 0.002476
# 2 -0.005870 0.011832 -0.004006 0.006865 -0.012347 -0.000728
# 3 0.000002 -0.004006 0.024270 0.003098 0.006232 -0.004064
# 4 0.000471 0.006865 0.003098 0.042024 -0.004524 0.010361
# 5 0.020925 -0.012347 0.006232 -0.004524 0.112879 0.022885
# 6 0.002476 -0.000728 -0.004064 0.010361 0.022885 0.043805
#
#
# Mechanical properties :
#
#
# Convention : Reuss Voigt Hill
#
# Bulk Modulus (GPa) = 30.47324 49.50283 39.98803
# Shear Modulus (GPa) = 17.73319 28.08194 22.90757
#
# Velocity S-wave (km/s) = 2.71101 3.41155 3.08125
# Velocity P-wave (km/s) = 4.73595 6.00290 5.40666
#
# Compressibility (1/GPa) = 0.03281567
#
# Stress axis : x y z
#
# Youngs Moduli (GPa) = 60.74761 84.51930 41.20358
#
# Poissons Ratio (x) = 0.49612 -0.00009
# Poissons Ratio (y) = 0.35658 0.16506
# Poissons Ratio (z) = -0.00013 0.33857
#
# Static dielectric constant tensor:
#      x y z
#    x 1.936880 0.006560 0.011770 
#    y 0.006560 1.986240 -0.149730 
#    z 0.011770 -0.149730 2.261110 
# 
# From -- ./inp_files/184293.got.cif
#   From: 2010.05.17/outbox.cif.g08.bks.cpg/sg2_93_cif.got.tgz:184293.got - 2010.06.03 11:33:40.
