data_PCOD9100160
_publ_section_title
;
Structure prediction by ZEFSAII (Michael W. Deem and Ramdas Pophale) SiO2 
 PCOD9100160
Probable space group: P -1
;
_chemical_formula_sum "Si O2"
_cell_formula_units_Z 16
_cell_length_a 12.149986
_cell_length_b 8.757389
_cell_length_c 10.997328
_cell_angle_alpha 139.503260
_cell_angle_beta 95.049787
_cell_angle_gamma 85.424713
_cell_volume 756.795668
_symmetry_space_group_name_H-M "P -1"
_symmetry_group_IT_number 2
_symmetry_cell_setting 'triclinic'
loop_
_space_group_symop_operation_xyz
x,y,z
-x,-y,-z
loop_
_atom_site_type_symbol
_atom_site_label
_atom_site_fract_x
_atom_site_fract_y
_atom_site_fract_z
Si Si1 0.125624 0.126698 0.497897
Si Si2 0.700296 0.475496 0.284341
Si Si3 0.368582 0.017467 0.031640
Si Si4 0.626395 0.502519 0.555837
Si Si5 0.970210 0.766270 0.197360
Si Si6 0.537396 0.707195 0.221479
Si Si7 0.313453 0.740920 0.330179
Si Si8 0.723602 0.768069 0.092396
O O1 0.215514 0.931667 0.434809
O O2 0.055668 0.973939 0.301946
O O3 0.196271 0.356229 0.614900
O O4 0.041552 0.221229 0.650207
O O5 0.688013 0.217601 0.068760
O O6 0.689408 0.424279 0.394616
O O7 0.596785 0.607356 0.288049
O O8 0.312905 0.100147 0.951883
O O9 0.500000 0.000000 0.000000
O O10 0.350866 0.226248 0.250661
O O11 0.500000 0.500000 0.500000
O O12 0.654748 0.357503 0.592446
O O13 0.847457 0.824647 0.174078
O O14 0.000000 0.500000 0.000000
O O15 0.423986 0.832097 0.329146
O O16 0.633183 0.825260 0.223067
O O17 0.500000 0.500000 0.000000
O O18 0.279427 0.510489 0.109401
#
# Coordination Sequence:
#
# PCOD9100160 Si02
#       8
#     2   2   2   2   2   2   2   2
#     4  11  26  41  69 102 122 172 230 279 331 382
#     4  12  24  41  61  97 137 175 211 268 329 393
#     4  11  23  40  64  93 139 180 213 257 328 406
#     4  11  22  39  62  94 136 178 214 250 324 405
#     4  11  23  46  71  94 127 169 229 286 330 375
#     4  10  20  37  63 100 137 166 217 268 331 399
#     4  10  21  41  64 102 136 169 219 270 330 405
#     4  10  21  41  70  97 129 183 217 272 335 382
#
# _framework density 21.141770000000001
#
# number of rings (size 3 to 8) (size 9 to 14) (size 15 to 20)
#    0.000    1.250    5.000    1.500    1.750    4.500 
#    2.250    0.625    0.000    2.250    0.000    0.000 
#    0.000    0.000    0.000    0.000    0.000    0.000 
#
# Total GULP energy -89299.374278 kJ/mol
# GULP energy per Si atom -5581.210892 kJ/mol
# Density = 2.109365 g / cm^3
# Si number density = 21.141770 Si / 1000 Ang^3
#
#
#
# Elastic Constant Matrix: (Units=GPa)
#
#
# Indices 1 2 3 4 5 6 
#
# 1 110.6753 22.5796 45.2985 10.2654 29.9924 -1.2912
# 2 22.5796 29.0220 31.1014 7.1814 14.5233 1.8387
# 3 45.2985 31.1014 140.2725 24.5900 19.2051 8.5364
# 4 10.2654 7.1814 24.5900 42.8764 4.4588 8.0605
# 5 29.9924 14.5233 19.2051 4.4588 50.3245 -1.1015
# 6 -1.2912 1.8387 8.5364 8.0605 -1.1015 21.8450
#
#
#
# Elastic Compliance Matrix: (Units=1/GPa)
#
#
# Indices 1 2 3 4 5 6 
#
# 1 0.012370 -0.004594 -0.002275 -0.000741 -0.005068 0.002025
# 2 -0.004594 0.052066 -0.008484 -0.001601 -0.008935 -0.001199
# 3 -0.002275 -0.008484 0.010509 -0.003660 0.000071 -0.002173
# 4 -0.000741 -0.001601 -0.003660 0.027528 -0.000328 -0.008653
# 5 -0.005068 -0.008935 0.000071 -0.000328 0.025512 0.001832
# 6 0.002025 -0.001199 -0.002173 -0.008653 0.001832 0.050132
#
#
# Mechanical properties :
#
#
# Convention : Reuss Voigt Hill
#
# Bulk Modulus (GPa) = 22.60519 53.10319 37.85419
# Shear Modulus (GPa) = 22.36446 35.07521 28.71984
#
# Velocity S-wave (km/s) = 3.25596 4.07756 3.68970
# Velocity P-wave (km/s) = 4.98502 6.88047 6.00797
#
# Compressibility (1/GPa) = 0.04423763
#
# Stress axis : x y z
#
# Youngs Moduli (GPa) = 80.84214 19.20656 95.15657
#
# Poissons Ratio (x) = 0.08824 0.21653
# Poissons Ratio (y) = 0.37141 0.80727
# Poissons Ratio (z) = 0.18395 0.16294
#
# Static dielectric constant tensor:
#      x y z
#    x 1.794340 0.044520 0.035460 
#    y 0.044520 1.746800 0.018420 
#    z 0.035460 0.018420 1.862650 
# 
# From -- ./inp_files/418646.got.cif
#   From: 2010.05.17/outbox.cif.g08.bks.cpg/sg2_210_cif.got.tgz:418646.got - 2010.06.03 11:33:40.
