data_PCOD9100250
_publ_section_title
;
Structure prediction by ZEFSAII (Michael W. Deem and Ramdas Pophale) SiO2 
 PCOD9100250
Probable space group: P -1
;
_chemical_formula_sum "Si O2"
_cell_formula_units_Z 16
_cell_length_a 18.815809
_cell_length_b 6.884542
_cell_length_c 18.242546
_cell_angle_alpha 47.864915
_cell_angle_beta 157.824217
_cell_angle_gamma 133.227783
_cell_volume 644.115746
_symmetry_space_group_name_H-M "P -1"
_symmetry_group_IT_number 2
_symmetry_cell_setting 'triclinic'
loop_
_space_group_symop_operation_xyz
x,y,z
-x,-y,-z
loop_
_atom_site_type_symbol
_atom_site_label
_atom_site_fract_x
_atom_site_fract_y
_atom_site_fract_z
Si Si1 0.972940 0.178365 0.749222
Si Si2 0.299878 0.601748 0.791026
Si Si3 0.313866 0.358540 0.136402
Si Si4 0.423541 0.813754 0.348232
Si Si5 0.942078 0.262881 0.344992
Si Si6 0.780372 0.681558 0.786245
Si Si7 0.524419 0.910596 0.254502
Si Si8 0.126724 0.029620 0.794556
O O1 0.907160 0.445266 0.590810
O O2 0.983045 0.001624 0.731882
O O3 0.184456 0.315931 0.950398
O O4 0.881465 0.966858 0.777208
O O5 0.238497 0.695665 0.788120
O O6 0.145539 0.322477 0.701689
O O7 0.316085 0.856604 0.689533
O O8 0.500000 0.500000 0.000000
O O9 0.180174 0.357181 0.081382
O O10 0.480878 0.629026 0.239185
O O11 0.391793 0.088770 0.280153
O O12 0.553709 0.692020 0.559336
O O13 0.226562 0.592233 0.196987
O O14 0.535155 0.877124 0.360536
O O15 0.904731 0.183440 0.245059
O O16 0.000000 0.000000 0.500000
O O17 0.327163 0.011840 0.028469
#
# Coordination Sequence:
#
# PCOD9100250 Si02
#       8
#     2   2   2   2   2   2   2   2
#     4  11  23  41  65  92 128 175 212 261 326 394
#     4   9  22  39  64  94 123 170 219 264 317 382
#     4  11  21  39  65  91 127 164 217 264 317 385
#     4  10  22  41  61  91 127 160 209 272 319 380
#     4  11  25  42  63  96 135 169 216 270 328 388
#     4  10  24  40  61  93 128 163 214 263 325 385
#     4  10  20  37  63  90 120 165 214 263 315 379
#     4  10  21  41  60  88 130 163 216 267 315 386
#
# _framework density 24.840256
#
# number of rings (size 3 to 8) (size 9 to 14) (size 15 to 20)
#    0.000    1.750    2.500    0.750    0.000    9.500 
#    0.000    0.000    0.000    0.000    0.000    0.000 
#    0.000    0.000    0.000    0.000    0.000    0.000 
#
# Total GULP energy -89314.481733 kJ/mol
# GULP energy per Si atom -5582.155108 kJ/mol
# Density = 2.478372 g / cm^3
# Si number density = 24.840256 Si / 1000 Ang^3
#
#
#
# Elastic Constant Matrix: (Units=GPa)
#
#
# Indices 1 2 3 4 5 6 
#
# 1 127.5538 59.0884 16.1528 3.3282 -14.7077 -7.5569
# 2 59.0884 150.3130 7.7589 -23.8752 6.0913 -2.6860
# 3 16.1528 7.7589 47.8348 -7.3318 -9.8228 -7.0902
# 4 3.3282 -23.8752 -7.3318 35.8941 -0.3753 -7.1185
# 5 -14.7077 6.0913 -9.8228 -0.3753 30.0405 -5.6043
# 6 -7.5569 -2.6860 -7.0902 -7.1185 -5.6043 60.1997
#
#
#
# Elastic Compliance Matrix: (Units=1/GPa)
#
#
# Indices 1 2 3 4 5 6 
#
# 1 0.011538 -0.005424 -0.002388 -0.004922 0.006076 0.000909
# 2 -0.005424 0.010110 0.000450 0.007328 -0.004415 0.000279
# 3 -0.002388 0.000450 0.024829 0.006492 0.007710 0.004130
# 4 -0.004922 0.007328 0.006492 0.035428 -0.000468 0.004619
# 5 0.006076 -0.004415 0.007710 -0.000468 0.040644 0.005202
# 6 0.000909 0.000279 0.004130 0.004619 0.005202 0.018255
#
#
# Mechanical properties :
#
#
# Convention : Reuss Voigt Hill
#
# Bulk Modulus (GPa) = 31.49453 54.63354 43.06404
# Shear Modulus (GPa) = 30.10016 41.40695 35.75356
#
# Velocity S-wave (km/s) = 3.48480 4.08723 3.79798
# Velocity P-wave (km/s) = 5.37569 6.65700 6.05036
#
# Compressibility (1/GPa) = 0.03175154
#
# Stress axis : x y z
#
# Youngs Moduli (GPa) = 86.67254 98.91556 40.27511
#
# Poissons Ratio (x) = 0.53651 0.09619
# Poissons Ratio (y) = 0.47011 -0.01811
# Poissons Ratio (z) = 0.20700 -0.04448
#
# Static dielectric constant tensor:
#      x y z
#    x 1.959580 -0.002190 0.022580 
#    y -0.002190 2.040600 -0.015580 
#    z 0.022580 -0.015580 2.060860 
# 
# From -- ./inp_files/574888.got.cif
#   From: 2010.05.17/outbox.cif.g08.bks.cpg/sg2_288_cif.got.tgz:574888.got - 2010.06.03 11:33:40.
