data_PCOD9100074
_publ_section_title
;
Structure prediction by ZEFSAII (Michael W. Deem and Ramdas Pophale) SiO2 
 PCOD9100074
Probable space group: P -1
;
_chemical_formula_sum "Si O2"
_cell_formula_units_Z 14
_cell_length_a 6.956056
_cell_length_b 9.930946
_cell_length_c 11.947287
_cell_angle_alpha 127.924980
_cell_angle_beta 121.899064
_cell_angle_gamma 73.478248
_cell_volume 551.701924
_symmetry_space_group_name_H-M "P -1"
_symmetry_group_IT_number 2
_symmetry_cell_setting 'triclinic'
loop_
_space_group_symop_operation_xyz
x,y,z
-x,-y,-z
loop_
_atom_site_type_symbol
_atom_site_label
_atom_site_fract_x
_atom_site_fract_y
_atom_site_fract_z
Si Si1 0.572141 0.771558 0.605730
Si Si2 0.494346 0.431827 0.286380
Si Si3 0.213510 0.234474 0.821632
Si Si4 0.986784 0.018092 0.209617
Si Si5 0.927543 0.221933 0.521327
Si Si6 0.994711 0.454280 0.162045
Si Si7 0.310557 0.812250 0.958355
O O1 0.607889 0.613831 0.452051
O O2 0.545651 0.687372 0.677403
O O3 0.772594 0.916530 0.733543
O O4 0.321728 0.829307 0.533564
O O5 0.631938 0.334849 0.187975
O O6 0.237973 0.457351 0.180096
O O7 0.119163 0.168394 0.639039
O O8 0.455043 0.166193 0.891703
O O9 0.041274 0.160711 0.826155
O O10 0.189254 0.436878 0.902406
O O11 0.948362 0.150505 0.367893
O O12 0.787551 0.037029 0.067233
O O13 0.949305 0.428875 0.649239
O O14 0.889400 0.270531 0.068878
#
# Coordination Sequence:
#
# PCOD9100074 Si02
#       7
#     2   2   2   2   2   2   2
#     4  10  20  37  62  93 116 146 205 253 284 342
#     4  10  20  37  62  93 116 146 205 253 284 342
#     4  10  25  42  55  91 128 153 197 240 295 365
#     4  12  22  39  66  86 118 164 194 240 299 348
#     4   9  21  41  60  87 121 151 197 249 289 348
#     4   9  21  41  60  87 121 151 197 249 289 348
#     4  12  22  39  66  86 118 164 194 240 299 348
#
# _framework density 25.376023
#
# number of rings (size 3 to 8) (size 9 to 14) (size 15 to 20)
#    0.857    0.857    2.857    2.143    0.000    2.286 
#    0.000    2.143    0.000    0.000    0.000    0.000 
#    0.000    0.000    0.000    0.000    0.000    0.000 
#
# Total GULP energy -78343.324452 kJ/mol
# GULP energy per Si atom -5595.951747 kJ/mol
# Density = 2.531827 g / cm^3
# Si number density = 25.376023 Si / 1000 Ang^3
#
#
#
# Elastic Constant Matrix: (Units=GPa)
#
#
# Indices 1 2 3 4 5 6 
#
# 1 72.8666 3.6480 11.5512 -5.8224 12.9964 -7.2804
# 2 3.6480 83.2534 24.3728 -13.1631 15.9432 -1.2146
# 3 11.5512 24.3728 116.5858 -19.4192 9.0209 -7.3039
# 4 -5.8224 -13.1631 -19.4192 46.3024 -9.0448 10.5414
# 5 12.9964 15.9432 9.0209 -9.0448 46.6267 4.8892
# 6 -7.2804 -1.2146 -7.3039 10.5414 4.8892 28.7496
#
#
#
# Elastic Compliance Matrix: (Units=1/GPa)
#
#
# Indices 1 2 3 4 5 6 
#
# 1 0.015130 0.000560 -0.001019 -0.000323 -0.004748 0.004522
# 2 0.000560 0.013767 -0.002248 0.002262 -0.003990 0.000002
# 3 -0.001019 -0.002248 0.009744 0.003002 -0.000364 0.001084
# 4 -0.000323 0.002262 0.003002 0.026664 0.004940 -0.009840
# 5 -0.004748 -0.003990 -0.000364 0.004940 0.025970 -0.007691
# 6 0.004522 0.000002 0.001084 -0.009840 -0.007691 0.041120
#
#
# Mechanical properties :
#
#
# Convention : Reuss Voigt Hill
#
# Bulk Modulus (GPa) = 30.09662 39.09440 34.59551
# Shear Modulus (GPa) = 33.58299 39.87799 36.73049
#
# Velocity S-wave (km/s) = 3.64182 3.96849 3.80866
# Velocity P-wave (km/s) = 5.43782 6.03640 5.74491
#
# Compressibility (1/GPa) = 0.03322633
#
# Stress axis : x y z
#
# Youngs Moduli (GPa) = 66.09317 72.63876 102.62379
#
# Poissons Ratio (x) = -0.04065 0.10459
# Poissons Ratio (y) = -0.03699 0.23069
# Poissons Ratio (z) = 0.06736 0.16329
#
# Static dielectric constant tensor:
#      x y z
#    x 1.970020 -0.039640 -0.023820 
#    y -0.039640 1.969700 0.019980 
#    z -0.023820 0.019980 2.042410 
# 
# From -- ./inp_files/71627.got.cif
#   From: 2010.05.17/outbox.cif.g08.bks.cpg/sg2_36_cif.got.tgz:71627.got - 2010.06.03 11:33:40.
