data_PCOD9100492
_publ_section_title
;
Structure prediction by ZEFSAII (Michael W. Deem and Ramdas Pophale) SiO2 
 PCOD9100492
Probable space group: P -1
;
_chemical_formula_sum "Si O2"
_cell_formula_units_Z 14
_cell_length_a 8.710168
_cell_length_b 15.785161
_cell_length_c 11.785388
_cell_angle_alpha 36.457024
_cell_angle_beta 37.217929
_cell_angle_gamma 45.663575
_cell_volume 574.656845
_symmetry_space_group_name_H-M "P -1"
_symmetry_group_IT_number 2
_symmetry_cell_setting 'triclinic'
loop_
_space_group_symop_operation_xyz
x,y,z
-x,-y,-z
loop_
_atom_site_type_symbol
_atom_site_label
_atom_site_fract_x
_atom_site_fract_y
_atom_site_fract_z
Si Si1 0.938857 0.551808 0.854932
Si Si2 0.638891 0.404557 0.872561
Si Si3 0.510414 0.838612 0.621571
Si Si4 0.026369 0.823042 0.407556
Si Si5 0.802145 0.560733 0.396758
Si Si6 0.941619 0.094608 0.321534
Si Si7 0.426982 0.173608 0.876887
O O1 0.946280 0.723696 0.662851
O O2 0.154836 0.496641 0.694664
O O3 0.659072 0.519340 0.013676
O O4 0.000000 0.500000 0.000000
O O5 0.679744 0.454351 0.665853
O O6 0.906945 0.433576 0.737956
O O7 0.606054 0.250543 0.114404
O O8 0.347088 0.829876 0.613616
O O9 0.817579 0.792463 0.470696
O O10 0.500000 0.000000 0.500000
O O11 0.326725 0.789351 0.241942
O O12 0.983259 0.985127 0.307113
O O13 0.631163 0.720402 0.311441
O O14 0.000000 0.000000 0.500000
O O15 0.157016 0.194705 0.078253
O O16 0.500000 0.000000 0.000000
#
# Coordination Sequence:
#
# PCOD9100492 Si02
#       7
#     2   2   2   2   2   2   2
#     4  11  24  40  63  98 141 180 221 278 343 416
#     4  10  22  42  69  99 131 182 232 285 334 417
#     4   9  18  39  64  88 129 168 214 278 342 391
#     4   9  21  38  58  87 129 164 217 274 328 393
#     4  11  23  42  69  99 136 183 231 278 350 401
#     4  10  20  37  64  91 120 176 221 272 334 403
#     4  10  21  40  63  92 133 170 226 282 330 405
#
# _framework density 24.362366000000002
#
# number of rings (size 3 to 8) (size 9 to 14) (size 15 to 20)
#    0.000    2.000    1.429    1.286    2.000    2.286 
#    5.143    6.429    0.000    0.000    0.000    0.000 
#    0.000    0.000    0.000    0.000    0.000    0.000 
#
# Total GULP energy -77998.065606 kJ/mol
# GULP energy per Si atom -5571.290400 kJ/mol
# Density = 2.430692 g / cm^3
# Si number density = 24.362366 Si / 1000 Ang^3
#
#
#
# Elastic Constant Matrix: (Units=GPa)
#
#
# Indices 1 2 3 4 5 6 
#
# 1 128.5189 43.5235 75.5070 12.7114 -14.5820 -58.9692
# 2 43.5235 61.7954 34.4973 -7.1245 2.4909 -6.6718
# 3 75.5070 34.4973 157.9038 -2.0083 -2.5254 -13.2736
# 4 12.7114 -7.1245 -2.0083 36.6153 -15.3275 -10.7101
# 5 -14.5820 2.4909 -2.5254 -15.3275 54.5781 8.9091
# 6 -58.9692 -6.6718 -13.2736 -10.7101 8.9091 44.0200
#
#
#
# Elastic Compliance Matrix: (Units=1/GPa)
#
#
# Indices 1 2 3 4 5 6 
#
# 1 0.055524 -0.023961 -0.015929 -0.004620 0.003426 0.064127
# 2 -0.023961 0.029502 0.002973 0.006192 -0.001814 -0.024857
# 3 -0.015929 0.002973 0.011899 0.001576 -0.000659 -0.016783
# 4 -0.004620 0.006192 0.001576 0.034035 0.007800 0.001927
# 5 0.003426 -0.001814 -0.000659 0.007800 0.021199 0.001723
# 6 0.064127 -0.024857 -0.016783 0.001927 0.001723 0.099914
#
#
# Mechanical properties :
#
#
# Convention : Reuss Voigt Hill
#
# Bulk Modulus (GPa) = 43.30811 72.80820 58.05816
# Shear Modulus (GPa) = 14.98781 40.02202 27.50492
#
# Velocity S-wave (km/s) = 2.48302 4.05752 3.36369
# Velocity P-wave (km/s) = 5.10252 7.20428 6.24249
#
# Compressibility (1/GPa) = 0.02309036
#
# Stress axis : x y z
#
# Youngs Moduli (GPa) = 18.01038 33.89562 84.03874
#
# Poissons Ratio (x) = 0.81217 1.33866
# Poissons Ratio (y) = 0.43154 -0.24981
# Poissons Ratio (z) = 0.28689 -0.10076
#
# Static dielectric constant tensor:
#      x y z
#    x 2.007700 -0.088760 -0.020540 
#    y -0.088760 2.139560 -0.018410 
#    z -0.020540 -0.018410 1.905730 
# 
# From -- ./inp_files/404443.got.cif
#   From: 2010.05.17/outbox.cif.g08.bks.cpg/sg2_203_cif.got.tgz:404443.got - 2010.06.03 11:33:40.
