data_PCOD9100865
_publ_section_title
;
Structure prediction by ZEFSAII (Michael W. Deem and Ramdas Pophale) SiO2 
 PCOD9100865
Probable space group: P -1
;
_chemical_formula_sum "Si O2"
_cell_formula_units_Z 16
_cell_length_a 8.206173
_cell_length_b 11.614497
_cell_length_c 17.923610
_cell_angle_alpha 137.309742
_cell_angle_beta 110.456166
_cell_angle_gamma 40.647626
_cell_volume 665.430708
_symmetry_space_group_name_H-M "P -1"
_symmetry_group_IT_number 2
_symmetry_cell_setting 'triclinic'
loop_
_space_group_symop_operation_xyz
x,y,z
-x,-y,-z
loop_
_atom_site_type_symbol
_atom_site_label
_atom_site_fract_x
_atom_site_fract_y
_atom_site_fract_z
Si Si1 0.816910 0.134595 0.672330
Si Si2 0.626826 0.800024 0.117049
Si Si3 0.790706 0.303165 0.909774
Si Si4 0.610527 0.118284 0.150631
Si Si5 0.389041 0.201274 0.644946
Si Si6 0.328543 0.507471 0.423948
Si Si7 0.057421 0.581822 0.214867
Si Si8 0.257435 0.218794 0.362355
O O1 0.851519 0.141214 0.769963
O O2 0.493799 0.312645 0.696916
O O3 0.922969 0.227755 0.695948
O O4 0.016436 0.829821 0.528378
O O5 0.848635 0.680643 0.162385
O O6 0.621964 0.941939 0.119458
O O7 0.312387 0.038687 0.219354
O O8 0.735824 0.535649 0.981215
O O9 0.500000 0.500000 0.000000
O O10 0.060122 0.092332 0.907772
O O11 0.471328 0.371093 0.301866
O O12 0.387118 0.273156 0.122140
O O13 0.075627 0.397210 0.719348
O O14 0.500000 0.000000 0.500000
O O15 0.571159 0.996746 0.646329
O O16 0.500000 0.500000 0.500000
O O17 0.357539 0.306845 0.375314
O O18 0.000000 0.500000 0.500000
#
# Coordination Sequence:
#
# PCOD9100865 Si02
#       8
#     2   2   2   2   2   2   2   2
#     4  12  24  46  70 101 150 182 229 300 345 418
#     4  10  23  46  69  98 140 184 232 289 347 409
#     4  12  25  46  72 102 139 186 239 292 351 413
#     4  11  24  44  73 100 132 190 232 283 355 423
#     4  11  24  42  64 106 148 179 226 297 350 415
#     4  11  20  37  68 101 132 176 233 278 350 415
#     4  11  25  46  70 105 140 187 236 284 359 410
#     4  10  20  37  66  94 131 177 222 278 343 411
#
# _framework density 24.044578000000001
#
# number of rings (size 3 to 8) (size 9 to 14) (size 15 to 20)
#    0.000    1.000    3.750    4.125    1.750    3.500 
#    2.250    0.625    0.000    0.000    0.000    0.000 
#    0.000    0.000    0.000    0.000    0.000    0.000 
#
# Total GULP energy -89234.681627 kJ/mol
# GULP energy per Si atom -5577.167602 kJ/mol
# Density = 2.398985 g / cm^3
# Si number density = 24.044578 Si / 1000 Ang^3
#
#
#
# Elastic Constant Matrix: (Units=GPa)
#
#
# Indices 1 2 3 4 5 6 
#
# 1 105.8751 17.7083 21.1151 1.2951 -16.5683 -11.9772
# 2 17.7083 77.4167 15.1780 6.9954 -1.1410 -9.9044
# 3 21.1151 15.1780 117.8892 4.8416 -13.2424 -7.9499
# 4 1.2951 6.9954 4.8416 38.2034 -2.8366 -6.7969
# 5 -16.5683 -1.1410 -13.2424 -2.8366 48.0099 6.4756
# 6 -11.9772 -9.9044 -7.9499 -6.7969 6.4756 30.0000
#
#
#
# Elastic Compliance Matrix: (Units=1/GPa)
#
#
# Indices 1 2 3 4 5 6 
#
# 1 0.010789 -0.001896 -0.001190 0.000874 0.003009 0.002915
# 2 -0.001896 0.014198 -0.001322 -0.001851 -0.001254 0.003431
# 3 -0.001190 -0.001322 0.009171 -0.000563 0.001923 0.000976
# 4 0.000874 -0.001851 -0.000563 0.027632 0.000974 0.005639
# 5 0.003009 -0.001254 0.001923 0.000974 0.022887 -0.003423
# 6 0.002915 0.003431 0.000976 0.005639 -0.003423 0.037905
#
#
# Mechanical properties :
#
#
# Convention : Reuss Voigt Hill
#
# Bulk Modulus (GPa) = 39.45990 45.46487 42.46239
# Shear Modulus (GPa) = 35.75386 39.72131 37.73758
#
# Velocity S-wave (km/s) = 3.86032 4.06887 3.96597
# Velocity P-wave (km/s) = 6.02630 6.40499 6.21853
#
# Compressibility (1/GPa) = 0.02534218
#
# Stress axis : x y z
#
# Youngs Moduli (GPa) = 92.68321 70.43365 109.04262
#
# Poissons Ratio (x) = 0.13358 0.12973
# Poissons Ratio (y) = 0.17577 0.14412
# Poissons Ratio (z) = 0.11027 0.09309
#
# Static dielectric constant tensor:
#      x y z
#    x 2.058090 -0.039090 -0.069090 
#    y -0.039090 1.909380 0.003080 
#    z -0.069090 0.003080 2.030940 
# 
# From -- ./inp_files/589634.got.cif
#   From: 2010.05.17/outbox.cif.g08.bks.cpg/sg2_295_cif.got.tgz:589634.got - 2010.06.03 11:33:40.
