data_PCOD9100923
_publ_section_title
;
Structure prediction by ZEFSAII (Michael W. Deem and Ramdas Pophale) SiO2 
 PCOD9100923
Probable space group: P -1
;
_chemical_formula_sum "Si O2"
_cell_formula_units_Z 14
_cell_length_a 8.104747
_cell_length_b 13.594783
_cell_length_c 8.993626
_cell_angle_alpha 94.441070
_cell_angle_beta 105.358023
_cell_angle_gamma 40.923430
_cell_volume 614.014363
_symmetry_space_group_name_H-M "P -1"
_symmetry_group_IT_number 2
_symmetry_cell_setting 'triclinic'
loop_
_space_group_symop_operation_xyz
x,y,z
-x,-y,-z
loop_
_atom_site_type_symbol
_atom_site_label
_atom_site_fract_x
_atom_site_fract_y
_atom_site_fract_z
Si Si1 0.973583 0.605782 0.332670
Si Si2 0.054439 0.378346 0.131083
Si Si3 0.353191 0.596325 0.321708
Si Si4 0.525245 0.705379 0.934007
Si Si5 0.098313 0.667448 0.651240
Si Si6 0.364624 0.809097 0.227901
Si Si7 0.961474 0.092604 0.367756
O O1 0.341790 0.795173 0.045998
O O2 0.662377 0.721898 0.291588
O O3 0.087755 0.459669 0.257727
O O4 0.086400 0.649712 0.270552
O O5 0.762394 0.523877 0.008325
O O6 0.055453 0.285641 0.228717
O O7 0.288561 0.281849 0.057052
O O8 0.500000 0.500000 0.500000
O O9 0.332956 0.780607 0.756854
O O10 0.322835 0.725815 0.300937
O O11 0.589887 0.463644 0.249613
O O12 0.068582 0.589705 0.520673
O O13 0.999790 0.810516 0.567813
O O14 0.164445 0.973522 0.272762
O O15 0.000000 0.000000 0.500000
#
# Coordination Sequence:
#
# PCOD9100923 Si02
#       7
#     2   2   2   2   2   2   2
#     4  10  21  38  70 101 140 171 224 289 336 407
#     4  10  21  42  72 105 132 178 232 292 344 393
#     4  10  20  37  67 102 129 175 231 274 338 398
#     4  10  23  46  70  96 140 182 231 284 346 404
#     4  11  22  40  69 106 133 181 232 287 345 395
#     4  11  24  47  67  98 141 187 223 281 350 402
#     4  12  27  45  68 100 143 186 228 281 344 420
#
# _framework density 22.80077
#
# number of rings (size 3 to 8) (size 9 to 14) (size 15 to 20)
#    0.000    1.429    2.857    3.429    4.000    1.143 
#   10.286    0.714    0.000    0.000    0.000    0.000 
#    0.000    0.000    0.000    0.000    0.000    0.000 
#
# Total GULP energy -78084.243189 kJ/mol
# GULP energy per Si atom -5577.445942 kJ/mol
# Density = 2.274887 g / cm^3
# Si number density = 22.800770 Si / 1000 Ang^3
#
#
#
# Elastic Constant Matrix: (Units=GPa)
#
#
# Indices 1 2 3 4 5 6 
#
# 1 142.1091 24.8556 42.9131 -7.1997 -9.0413 3.0584
# 2 24.8556 88.7918 14.1361 -3.8884 -1.6134 3.0236
# 3 42.9131 14.1361 109.9797 6.0152 -7.3962 12.8069
# 4 -7.1997 -3.8884 6.0152 18.6627 -2.3901 -6.6502
# 5 -9.0413 -1.6134 -7.3962 -2.3901 41.2674 3.7254
# 6 3.0584 3.0236 12.8069 -6.6502 3.7254 32.6093
#
#
#
# Elastic Compliance Matrix: (Units=1/GPa)
#
#
# Indices 1 2 3 4 5 6 
#
# 1 0.008699 -0.001688 -0.003536 0.004876 0.001347 0.001570
# 2 -0.001688 0.011989 -0.000978 0.002118 0.000060 -0.000144
# 3 -0.003536 -0.000978 0.011770 -0.007263 0.001403 -0.005842
# 4 0.004876 0.002118 -0.007263 0.063862 0.002197 0.014972
# 5 0.001347 0.000060 0.001403 0.002197 0.025189 -0.003113
# 6 0.001570 -0.000144 -0.005842 0.014972 -0.003113 0.036235
#
#
# Mechanical properties :
#
#
# Convention : Reuss Voigt Hill
#
# Bulk Modulus (GPa) = 49.86261 56.07668 52.96965
# Shear Modulus (GPa) = 28.27533 35.77292 32.02413
#
# Velocity S-wave (km/s) = 3.52533 3.96528 3.75176
# Velocity P-wave (km/s) = 6.20378 6.75368 6.48456
#
# Compressibility (1/GPa) = 0.02005511
#
# Stress axis : x y z
#
# Youngs Moduli (GPa) = 114.95887 83.40914 84.96244
#
# Poissons Ratio (x) = 0.14076 0.30044
# Poissons Ratio (y) = 0.19400 0.08306
# Poissons Ratio (z) = 0.40652 0.08154
#
# Static dielectric constant tensor:
#      x y z
#    x 1.948400 0.025970 -0.000090 
#    y 0.025970 1.859510 0.081100 
#    z -0.000090 0.081100 1.921940 
# 
# From -- ./inp_files/390031.got.cif
#   From: 2010.05.17/outbox.cif.g08.bks.cpg/sg2_196_cif.got.tgz:390031.got - 2010.06.03 11:33:40.
