data_PCOD9100360
_publ_section_title
;
Structure prediction by ZEFSAII (Michael W. Deem and Ramdas Pophale) SiO2 
 PCOD9100360
Probable space group: P -1
;
_chemical_formula_sum "Si O2"
_cell_formula_units_Z 14
_cell_length_a 13.144391
_cell_length_b 9.815870
_cell_length_c 9.470707
_cell_angle_alpha 50.340853
_cell_angle_beta 46.544076
_cell_angle_gamma 36.270874
_cell_volume 514.697871
_symmetry_space_group_name_H-M "P -1"
_symmetry_group_IT_number 2
_symmetry_cell_setting 'triclinic'
loop_
_space_group_symop_operation_xyz
x,y,z
-x,-y,-z
loop_
_atom_site_type_symbol
_atom_site_label
_atom_site_fract_x
_atom_site_fract_y
_atom_site_fract_z
Si Si1 0.228535 0.260332 0.546188
Si Si2 0.799784 0.434531 0.205827
Si Si3 0.565290 0.039665 0.193461
Si Si4 0.585132 0.166114 0.790545
Si Si5 0.936677 0.658119 0.743152
Si Si6 0.679025 0.304299 0.862605
Si Si7 0.930900 0.975815 0.229639
O O1 0.363782 0.242662 0.317958
O O2 0.032047 0.503243 0.615915
O O3 0.198390 0.084322 0.640360
O O4 0.343840 0.171774 0.644302
O O5 0.580549 0.655749 0.275040
O O6 0.918839 0.359440 0.282399
O O7 0.871910 0.535169 0.969723
O O8 0.834275 0.215346 0.248590
O O9 0.537207 0.070959 0.031064
O O10 0.715634 0.072911 0.033763
O O11 0.623175 0.314865 0.746627
O O12 0.768613 0.933757 0.700499
O O13 0.874243 0.236616 0.739173
O O14 0.500000 0.500000 0.000000
O O15 0.000000 0.000000 0.000000
#
# Coordination Sequence:
#
# PCOD9100360 Si02
#       7
#     2   2   2   2   2   2   2
#     4  11  22  37  66  96 134 163 206 270 325 377
#     4  11  21  36  63  93 125 161 217 264 308 370
#     4   9  21  39  59  99 128 168 208 262 326 376
#     4  10  21  39  64  94 121 167 215 264 306 380
#     4  11  21  38  61  98 128 164 211 261 322 382
#     4  10  20  37  63  95 125 158 222 264 304 370
#     4  12  19  37  62  98 120 167 221 262 305 373
#
# _framework density 27.200423000000001
#
# number of rings (size 3 to 8) (size 9 to 14) (size 15 to 20)
#    0.857    0.571    4.286    3.000    0.000    0.000 
#    0.000    2.857    0.000   13.714    0.000    3.000 
#    0.000    0.000    0.000    0.000    0.000    0.000 
#
# Total GULP energy -78358.180963 kJ/mol
# GULP energy per Si atom -5597.012926 kJ/mol
# Density = 2.713851 g / cm^3
# Si number density = 27.200423 Si / 1000 Ang^3
#
#
#
# Elastic Constant Matrix: (Units=GPa)
#
#
# Indices 1 2 3 4 5 6 
#
# 1 193.9192 75.5628 39.6500 10.0219 -6.5306 -3.5847
# 2 75.5628 184.8635 18.3103 33.2570 -5.6682 -0.6066
# 3 39.6500 18.3103 90.6967 -1.3162 -4.9461 1.4031
# 4 10.0219 33.2570 -1.3162 38.9610 2.2044 -6.5388
# 5 -6.5306 -5.6682 -4.9461 2.2044 45.3452 4.7801
# 6 -3.5847 -0.6066 1.4031 -6.5388 4.7801 45.2607
#
#
#
# Elastic Compliance Matrix: (Units=1/GPa)
#
#
# Indices 1 2 3 4 5 6 
#
# 1 0.006632 -0.002551 -0.002371 0.000476 0.000291 0.000603
# 2 -0.002551 0.007618 -0.000443 -0.006094 0.000945 -0.001066
# 3 -0.002371 -0.000443 0.012228 0.001267 0.000927 -0.000488
# 4 0.000476 -0.006094 0.001267 0.031738 -0.002601 0.004777
# 5 0.000291 0.000945 0.000927 -0.002601 0.022733 -0.002770
# 6 0.000603 -0.001066 -0.000488 0.004777 -0.002770 0.023125
#
#
# Mechanical properties :
#
#
# Convention : Reuss Voigt Hill
#
# Bulk Modulus (GPa) = 63.49930 81.83617 72.66773
# Shear Modulus (GPa) = 41.64872 48.31047 44.97959
#
# Velocity S-wave (km/s) = 3.91727 4.21894 4.07090
# Velocity P-wave (km/s) = 6.62236 7.34059 6.99071
#
# Compressibility (1/GPa) = 0.01574821
#
# Stress axis : x y z
#
# Youngs Moduli (GPa) = 150.78956 131.27505 81.77840
#
# Poissons Ratio (x) = 0.33483 0.19388
# Poissons Ratio (y) = 0.38461 0.03625
# Poissons Ratio (z) = 0.35750 0.05818
#
# Static dielectric constant tensor:
#      x y z
#    x 2.180310 0.041320 -0.014200 
#    y 0.041320 2.191270 -0.069510 
#    z -0.014200 -0.069510 2.120360 
# 
# From -- ./inp_files/261909.got.cif
#   From: 2010.05.17/outbox.cif.g08.bks.cpg/sg2_131_cif.got.tgz:261909.got - 2010.06.03 11:33:40.
