data_PCOD9100896
_publ_section_title
;
Structure prediction by ZEFSAII (Michael W. Deem and Ramdas Pophale) SiO2 
 PCOD9100896
Probable space group: P -1
;
_chemical_formula_sum "Si O2"
_cell_formula_units_Z 16
_cell_length_a 16.503065
_cell_length_b 20.832311
_cell_length_c 27.908544
_cell_angle_alpha 162.198386
_cell_angle_beta 164.285117
_cell_angle_gamma 26.166949
_cell_volume 773.262603
_symmetry_space_group_name_H-M "P -1"
_symmetry_group_IT_number 2
_symmetry_cell_setting 'triclinic'
loop_
_space_group_symop_operation_xyz
x,y,z
-x,-y,-z
loop_
_atom_site_type_symbol
_atom_site_label
_atom_site_fract_x
_atom_site_fract_y
_atom_site_fract_z
Si Si1 0.680178 0.505892 0.541879
Si Si2 0.649779 0.046717 0.171177
Si Si3 0.039910 0.846466 0.739237
Si Si4 0.003778 0.695040 0.949881
Si Si5 0.916790 0.383512 0.298932
Si Si6 0.948632 0.062709 0.598544
Si Si7 0.765332 0.690452 0.156954
Si Si8 0.310186 0.181974 0.313452
O O1 0.954655 0.626191 0.817742
O O2 0.350326 0.392864 0.296656
O O3 0.608043 0.688736 0.597046
O O4 0.773856 0.304643 0.426934
O O5 0.903867 0.943925 0.269549
O O6 0.369618 0.957756 0.984637
O O7 0.500000 0.000000 0.000000
O O8 0.068295 0.749613 0.738764
O O9 0.918601 0.632524 0.487041
O O10 0.881218 0.049118 0.795462
O O11 0.199018 0.549889 0.984221
O O12 0.205238 0.350422 0.409247
O O13 0.582556 0.287317 0.018585
O O14 0.606140 0.096174 0.435156
O O15 0.123330 0.237684 0.782795
O O16 0.950732 0.845079 0.414075
O O17 0.000000 0.000000 0.000000
#
# Coordination Sequence:
#
# PCOD9100896 Si02
#       8
#     2   2   2   2   2   2   2   2
#     4  10  21  37  62  97 130 168 220 270 334 389
#     4  11  22  43  68  97 134 177 218 277 334 398
#     4  10  23  42  65  92 130 183 221 262 347 403
#     4  10  20  37  66  97 126 172 225 282 315 395
#     4  11  23  42  65  96 137 178 214 277 341 401
#     4  11  23  40  68 106 131 173 232 273 327 406
#     4  11  21  40  69 101 132 172 232 277 323 400
#     4  12  23  40  64 101 138 172 213 281 341 396
#
# _framework density 20.691547
#
# number of rings (size 3 to 8) (size 9 to 14) (size 15 to 20)
#    0.000    1.250    5.000    1.500    0.000    0.500 
#    0.000   13.750    0.000    0.000    0.000    0.000 
#    0.000    0.000    0.000    0.000    0.000    0.000 
#
# Total GULP energy -89155.223428 kJ/mol
# GULP energy per Si atom -5572.201464 kJ/mol
# Density = 2.064445 g / cm^3
# Si number density = 20.691547 Si / 1000 Ang^3
#
#
#
# Elastic Constant Matrix: (Units=GPa)
#
#
# Indices 1 2 3 4 5 6 
#
# 1 34.3908 37.7729 27.0718 0.1738 -13.6432 -1.0426
# 2 37.7729 145.8853 48.3100 1.5865 -14.5042 3.4772
# 3 27.0718 48.3100 57.6469 12.8671 -8.6343 6.1866
# 4 0.1738 1.5865 12.8671 41.7961 -1.7296 1.5042
# 5 -13.6432 -14.5042 -8.6343 -1.7296 24.7512 -0.1011
# 6 -1.0426 3.4772 6.1866 1.5042 -0.1011 23.4382
#
#
#
# Elastic Compliance Matrix: (Units=1/GPa)
#
#
# Indices 1 2 3 4 5 6 
#
# 1 0.065656 -0.006852 -0.024333 0.008126 0.024295 0.009943
# 2 -0.006852 0.010624 -0.005897 0.001476 0.000494 -0.000417
# 3 -0.024333 -0.005897 0.036348 -0.010742 -0.004976 -0.009134
# 4 0.008126 0.001476 -0.010742 0.027243 0.003505 0.001245
# 5 0.024295 0.000494 -0.004976 0.003505 0.052602 0.002323
# 6 0.009943 -0.000417 -0.009134 0.001245 0.002323 0.045511
#
#
# Mechanical properties :
#
#
# Convention : Reuss Voigt Hill
#
# Bulk Modulus (GPa) = 25.99684 51.58141 38.78912
# Shear Modulus (GPa) = 15.38606 26.31499 20.85052
#
# Velocity S-wave (km/s) = 2.72985 3.57006 3.17785
# Velocity P-wave (km/s) = 4.74630 6.47894 5.67908
#
# Compressibility (1/GPa) = 0.03846621
#
# Stress axis : x y z
#
# Youngs Moduli (GPa) = 15.23084 94.12267 27.51155
#
# Poissons Ratio (x) = 0.64491 0.66944
# Poissons Ratio (y) = 0.10436 0.16223
# Poissons Ratio (z) = 0.37061 0.55501
#
# Static dielectric constant tensor:
#      x y z
#    x 1.798100 -0.003930 -0.048350 
#    y -0.003930 1.823470 -0.023900 
#    z -0.048350 -0.023900 1.793590 
# 
# From -- ./inp_files/612216.got.cif
#   From: 2010.05.17/outbox.cif.g08.bks.cpg/sg2_307_cif.got.tgz:612216.got - 2010.06.03 11:33:40.
