data_PCOD9100254
_publ_section_title
;
Structure prediction by ZEFSAII (Michael W. Deem and Ramdas Pophale) SiO2 
 PCOD9100254
Probable space group: P -1
;
_chemical_formula_sum "Si O2"
_cell_formula_units_Z 14
_cell_length_a 15.533513
_cell_length_b 14.539976
_cell_length_c 11.461379
_cell_angle_alpha 50.618666
_cell_angle_beta 24.516266
_cell_angle_gamma 35.195945
_cell_volume 551.038340
_symmetry_space_group_name_H-M "P -1"
_symmetry_group_IT_number 2
_symmetry_cell_setting 'triclinic'
loop_
_space_group_symop_operation_xyz
x,y,z
-x,-y,-z
loop_
_atom_site_type_symbol
_atom_site_label
_atom_site_fract_x
_atom_site_fract_y
_atom_site_fract_z
Si Si1 0.097702 0.101106 0.670098
Si Si2 0.388051 0.747504 0.653468
Si Si3 0.365539 0.843016 0.968082
Si Si4 0.023176 0.507365 0.105038
Si Si5 0.743522 0.470837 0.802650
Si Si6 0.452361 0.692289 0.211132
Si Si7 0.946637 0.229152 0.156257
O O1 0.897988 0.162415 0.983492
O O2 0.906930 0.119330 0.786570
O O3 0.065208 0.257314 0.567161
O O4 0.388020 0.888450 0.504229
O O5 0.695734 0.588567 0.475325
O O6 0.322291 0.706562 0.648988
O O7 0.326203 0.843205 0.154385
O O8 0.686976 0.634832 0.707191
O O9 0.266414 0.017449 0.913846
O O10 0.000000 0.500000 0.000000
O O11 0.310450 0.345824 0.960531
O O12 0.018447 0.650091 0.014373
O O13 0.500000 0.500000 0.000000
O O14 0.628516 0.528743 0.033227
O O15 0.192299 0.735732 0.572122
#
# Coordination Sequence:
#
# PCOD9100254 Si02
#       7
#     2   2   2   2   2   2   2
#     4   9  17  38  63  90 117 161 202 250 300 357
#     4  10  22  38  63  90 123 158 206 248 300 360
#     4   8  19  35  64  86 117 159 204 248 301 359
#     4  12  25  38  59  94 126 159 204 248 300 365
#     4   8  16  32  61  88 111 152 202 238 298 354
#     4  10  20  37  63  90 123 159 202 248 303 361
#     4  11  21  40  63  88 121 164 201 250 306 350
#
# _framework density 25.406580000000002
#
# number of rings (size 3 to 8) (size 9 to 14) (size 15 to 20)
#    0.857    1.429    1.429    1.714    2.000    0.000 
#    0.000   12.857   12.571    0.000    0.000    0.000 
#    0.000    0.000    0.000    0.000    0.000    0.000 
#
# Total GULP energy -78082.047283 kJ/mol
# GULP energy per Si atom -5577.289092 kJ/mol
# Density = 2.534875 g / cm^3
# Si number density = 25.406580 Si / 1000 Ang^3
#
#
#
# Elastic Constant Matrix: (Units=GPa)
#
#
# Indices 1 2 3 4 5 6 
#
# 1 152.3800 17.5514 8.0006 -4.2859 5.6343 -7.5369
# 2 17.5514 110.1665 4.6623 3.4116 -12.0659 7.5176
# 3 8.0006 4.6623 17.8707 3.4982 6.9468 6.5423
# 4 -4.2859 3.4116 3.4982 29.3314 -2.8649 -5.0981
# 5 5.6343 -12.0659 6.9468 -2.8649 24.9102 -4.6267
# 6 -7.5369 7.5176 6.5423 -5.0981 -4.6267 42.4350
#
#
#
# Elastic Compliance Matrix: (Units=1/GPa)
#
#
# Indices 1 2 3 4 5 6 
#
# 1 0.007094 -0.001233 -0.003894 0.001993 -0.000466 0.002267
# 2 -0.001233 0.010191 -0.004158 -0.000397 0.006189 -0.000756
# 3 -0.003894 -0.004158 0.078878 -0.015185 -0.028034 -0.016996
# 4 0.001993 -0.000397 -0.015185 0.038650 0.009608 0.008456
# 5 -0.000466 0.006189 -0.028034 0.009608 0.054063 0.010192
# 6 0.002267 -0.000756 -0.016996 0.008456 0.010192 0.028850
#
#
# Mechanical properties :
#
#
# Convention : Reuss Voigt Hill
#
# Bulk Modulus (GPa) = 12.88762 37.87176 25.37969
# Shear Modulus (GPa) = 19.07235 36.01551 27.54393
#
# Velocity S-wave (km/s) = 2.74284 3.76914 3.29618
# Velocity P-wave (km/s) = 3.88773 5.82070 4.94949
#
# Compressibility (1/GPa) = 0.07759383
#
# Stress axis : x y z
#
# Youngs Moduli (GPa) = 140.95608 98.12322 12.67787
#
# Poissons Ratio (x) = 0.12098 0.04936
# Poissons Ratio (y) = 0.17379 0.05272
# Poissons Ratio (z) = 0.54884 0.40801
#
# Static dielectric constant tensor:
#      x y z
#    x 1.982280 0.016530 0.019190 
#    y 0.016530 2.097210 0.094070 
#    z 0.019190 0.094070 2.113270 
# 
# From -- ./inp_files/455581.got.cif
#   From: 2010.05.17/outbox.cif.g08.bks.cpg/sg2_228_cif.got.tgz:455581.got - 2010.06.03 11:33:40.
