data_PCOD9100499
_publ_section_title
;
Structure prediction by ZEFSAII (Michael W. Deem and Ramdas Pophale) SiO2 
 PCOD9100499
Probable space group: P -1
;
_chemical_formula_sum "Si O2"
_cell_formula_units_Z 14
_cell_length_a 27.783296
_cell_length_b 27.784376
_cell_length_c 15.532669
_cell_angle_alpha 19.840041
_cell_angle_beta 19.583771
_cell_angle_gamma 10.097079
_cell_volume 686.906417
_symmetry_space_group_name_H-M "P -1"
_symmetry_group_IT_number 2
_symmetry_cell_setting 'triclinic'
loop_
_space_group_symop_operation_xyz
x,y,z
-x,-y,-z
loop_
_atom_site_type_symbol
_atom_site_label
_atom_site_fract_x
_atom_site_fract_y
_atom_site_fract_z
Si Si1 0.301534 0.174820 0.230729
Si Si2 0.310824 0.837041 0.577654
Si Si3 0.348155 0.332516 0.242712
Si Si4 0.242517 0.258489 0.384175
Si Si5 0.245693 0.904396 0.767212
Si Si6 0.871355 0.698916 0.962650
Si Si7 0.687022 0.272600 0.868203
O O1 0.346818 0.184727 0.235433
O O2 0.149754 0.148980 0.532387
O O3 0.117449 0.455730 0.025505
O O4 0.583627 0.904274 0.154230
O O5 0.396376 0.774905 0.638536
O O6 0.577261 0.526098 0.613647
O O7 0.217717 0.070520 0.309580
O O8 0.029816 0.981444 0.787444
O O9 0.254662 0.385845 0.211497
O O10 0.069784 0.544774 0.413083
O O11 0.555107 0.029786 0.429752
O O12 0.529518 0.315491 0.989333
O O13 0.402118 0.716079 0.906648
O O14 0.000000 0.000000 0.000000
O O15 0.000000 0.500000 0.000000
#
# Coordination Sequence:
#
# PCOD9100499 Si02
#       7
#     2   2   2   2   2   2   2
#     4  12  24  40  66  86 127 160 205 253 300 354
#     4  11  24  40  58  86 123 164 208 243 295 364
#     4  10  20  37  64  91 128 152 196 245 317 375
#     4  10  21  38  60  96 122 158 194 252 307 369
#     4  10  23  37  59  92 125 157 191 248 307 370
#     4  12  26  43  61  84 119 173 215 248 284 349
#     4  11  22  38  63  89 124 158 192 253 315 365
#
# _framework density 20.381231
#
# number of rings (size 3 to 8) (size 9 to 14) (size 15 to 20)
#    0.000    1.143    2.857    3.429    4.000    0.000 
#    0.000    0.000    0.000    5.143    0.000    0.000 
#    0.000    0.000    0.000    0.000    0.000    0.000 
#
# Total GULP energy -78030.928962 kJ/mol
# GULP energy per Si atom -5573.637783 kJ/mol
# Density = 2.033484 g / cm^3
# Si number density = 20.381231 Si / 1000 Ang^3
#
#
#
# Elastic Constant Matrix: (Units=GPa)
#
#
# Indices 1 2 3 4 5 6 
#
# 1 89.0725 -4.4786 40.2772 10.4459 -1.6657 4.7640
# 2 -4.4786 92.6856 7.5297 5.5476 7.6619 3.7219
# 3 40.2772 7.5297 63.8184 -8.4778 5.9031 12.0323
# 4 10.4459 5.5476 -8.4778 37.8026 -3.8099 -0.2374
# 5 -1.6657 7.6619 5.9031 -3.8099 28.9433 -4.2867
# 6 4.7640 3.7219 12.0323 -0.2374 -4.2867 21.6767
#
#
#
# Elastic Compliance Matrix: (Units=1/GPa)
#
#
# Indices 1 2 3 4 5 6 
#
# 1 0.018475 0.002136 -0.013987 -0.008246 0.002829 0.003806
# 2 0.002136 0.011614 -0.002532 -0.003186 -0.003107 -0.001707
# 3 -0.013987 -0.002532 0.029423 0.010052 -0.006897 -0.014077
# 4 -0.008246 -0.003186 0.010052 0.031652 0.002122 -0.002454
# 5 0.002829 -0.003107 -0.006897 0.002122 0.038919 0.011460
# 6 0.003806 -0.001707 -0.014077 -0.002454 0.011460 0.055643
#
#
# Mechanical properties :
#
#
# Convention : Reuss Voigt Hill
#
# Bulk Modulus (GPa) = 32.52439 36.91480 34.71959
# Shear Modulus (GPa) = 22.24774 31.16772 26.70773
#
# Velocity S-wave (km/s) = 3.30749 3.91479 3.62388
# Velocity P-wave (km/s) = 5.52980 6.21173 5.88065
#
# Compressibility (1/GPa) = 0.03074616
#
# Stress axis : x y z
#
# Youngs Moduli (GPa) = 54.12628 86.10098 33.98692
#
# Poissons Ratio (x) = -0.18391 0.47537
# Poissons Ratio (y) = -0.11561 0.08607
# Poissons Ratio (z) = 0.75706 0.21804
#
# Static dielectric constant tensor:
#      x y z
#    x 1.779150 0.019930 -0.016280 
#    y 0.019930 1.717070 0.043840 
#    z -0.016280 0.043840 1.798140 
# 
# From -- ./inp_files/534245.got.cif
#   From: 2010.05.17/outbox.cif.g08.bks.cpg/sg2_268_cif.got.tgz:534245.got - 2010.06.03 11:33:40.
