data_PCOD9100343
_publ_section_title
;
Structure prediction by ZEFSAII (Michael W. Deem and Ramdas Pophale) SiO2 
 PCOD9100343
Probable space group: P -1
;
_chemical_formula_sum "Si O2"
_cell_formula_units_Z 16
_cell_length_a 9.065941
_cell_length_b 21.133953
_cell_length_c 23.593444
_cell_angle_alpha 19.606864
_cell_angle_beta 41.245407
_cell_angle_gamma 30.172703
_cell_volume 708.141097
_symmetry_space_group_name_H-M "P -1"
_symmetry_group_IT_number 2
_symmetry_cell_setting 'triclinic'
loop_
_space_group_symop_operation_xyz
x,y,z
-x,-y,-z
loop_
_atom_site_type_symbol
_atom_site_label
_atom_site_fract_x
_atom_site_fract_y
_atom_site_fract_z
Si Si1 0.609160 0.386016 0.000091
Si Si2 0.647372 0.038091 0.875107
Si Si3 0.975784 0.105017 0.324791
Si Si4 0.221004 0.563650 0.740572
Si Si5 0.220236 0.899093 0.967262
Si Si6 0.802751 0.696984 0.836968
Si Si7 0.475841 0.154233 0.700246
Si Si8 0.348543 0.662072 0.301603
O O1 0.521718 0.219117 0.150266
O O2 0.977392 0.211658 0.032959
O O3 0.500000 0.500000 0.000000
O O4 0.376040 0.630419 0.816306
O O5 0.489379 0.097969 0.809741
O O6 0.558215 0.305179 0.693565
O O7 0.500000 0.000000 0.000000
O O8 0.163685 0.106758 0.318903
O O9 0.011479 0.869281 0.531103
O O10 0.185940 0.014204 0.284459
O O11 0.406596 0.423735 0.746454
O O12 0.989855 0.552512 0.846032
O O13 0.489703 0.412091 0.840371
O O14 0.338974 0.044114 0.806279
O O15 0.974244 0.032000 0.875903
O O16 0.000000 0.000000 0.000000
O O17 0.000000 0.500000 0.000000
O O18 0.313379 0.456424 0.483382
#
# Coordination Sequence:
#
# PCOD9100343 Si02
#       8
#     2   2   2   2   2   2   2   2
#     4  11  24  44  69  97 131 178 227 268 337 398
#     4  12  26  43  68  96 136 180 223 275 335 405
#     4  10  22  42  68  98 131 173 219 281 330 393
#     4  10  21  40  67  97 136 165 219 279 338 386
#     4  10  20  37  63  94 123 170 215 266 333 390
#     4  10  22  39  69  93 130 173 217 274 329 395
#     4  11  22  44  65  92 136 174 220 281 336 389
#     4  10  24  40  67  96 129 176 227 274 333 399
#
# _framework density 22.594367999999999
#
# number of rings (size 3 to 8) (size 9 to 14) (size 15 to 20)
#    0.000    1.500    1.250    4.125    7.000    0.000 
#    0.000    3.125    0.000    0.000    0.000    0.000 
#    0.000    0.000    0.000    0.000    0.000    0.000 
#
# Total GULP energy -89158.941251 kJ/mol
# GULP energy per Si atom -5572.433828 kJ/mol
# Density = 2.254294 g / cm^3
# Si number density = 22.594368 Si / 1000 Ang^3
#
#
#
# Elastic Constant Matrix: (Units=GPa)
#
#
# Indices 1 2 3 4 5 6 
#
# 1 80.6594 21.1957 7.5141 -1.2905 0.6544 16.2811
# 2 21.1957 123.7816 22.2812 22.6834 19.2273 9.3285
# 3 7.5141 22.2812 83.1681 4.6482 11.8223 3.5904
# 4 -1.2905 22.6834 4.6482 32.3245 0.3585 3.0943
# 5 0.6544 19.2273 11.8223 0.3585 21.3264 -2.5791
# 6 16.2811 9.3285 3.5904 3.0943 -2.5791 37.8201
#
#
#
# Elastic Compliance Matrix: (Units=1/GPa)
#
#
# Indices 1 2 3 4 5 6 
#
# 1 0.014347 -0.002742 -0.000739 0.003117 0.001716 -0.005568
# 2 -0.002742 0.011908 -0.000972 -0.008051 -0.010184 -0.001701
# 3 -0.000739 -0.000972 0.013403 -0.001098 -0.006643 -0.001078
# 4 0.003117 -0.008051 -0.001098 0.036964 0.006932 -0.001803
# 5 0.001716 -0.010184 -0.006643 0.006932 0.060305 0.005949
# 6 -0.005568 -0.001701 -0.001078 -0.001803 0.005949 0.029913
#
#
# Mechanical properties :
#
#
# Convention : Reuss Voigt Hill
#
# Bulk Modulus (GPa) = 32.51709 43.28790 37.90250
# Shear Modulus (GPa) = 26.88218 34.06874 30.47546
#
# Velocity S-wave (km/s) = 3.45305 3.88731 3.67660
# Velocity P-wave (km/s) = 5.50645 6.27284 5.90210
#
# Compressibility (1/GPa) = 0.03075305
#
# Stress axis : x y z
#
# Youngs Moduli (GPa) = 69.70114 83.97365 74.60908
#
# Poissons Ratio (x) = 0.23023 0.05517
# Poissons Ratio (y) = 0.19110 0.07249
# Poissons Ratio (z) = 0.05154 0.08159
#
# Static dielectric constant tensor:
#      x y z
#    x 1.890600 0.005930 -0.058450 
#    y 0.005930 1.873700 -0.022680 
#    z -0.058450 -0.022680 1.900670 
# 
# From -- ./inp_files/608634.got.cif
#   From: 2010.05.17/outbox.cif.g08.bks.cpg/sg2_305_cif.got.tgz:608634.got - 2010.06.03 11:33:40.
