data_PCOD9100244
_publ_section_title
;
Structure prediction by ZEFSAII (Michael W. Deem and Ramdas Pophale) SiO2 
 PCOD9100244
Probable space group: P -1
;
_chemical_formula_sum "Si O2"
_cell_formula_units_Z 12
_cell_length_a 5.413595
_cell_length_b 8.600165
_cell_length_c 13.179759
_cell_angle_alpha 79.065867
_cell_angle_beta 62.272730
_cell_angle_gamma 55.867084
_cell_volume 447.455302
_symmetry_space_group_name_H-M "P -1"
_symmetry_group_IT_number 2
_symmetry_cell_setting 'triclinic'
loop_
_space_group_symop_operation_xyz
x,y,z
-x,-y,-z
loop_
_atom_site_type_symbol
_atom_site_label
_atom_site_fract_x
_atom_site_fract_y
_atom_site_fract_z
Si Si1 0.195607 0.796011 0.040264
Si Si2 0.783213 0.657803 0.798063
Si Si3 0.749995 0.636280 0.118287
Si Si4 0.084476 0.050270 0.318078
Si Si5 0.856497 0.275933 0.546112
Si Si6 0.402264 0.323257 0.388038
O O1 0.490624 0.667458 0.917897
O O2 0.399020 0.764463 0.110525
O O3 0.923223 0.743354 0.111090
O O4 0.000000 0.000000 0.000000
O O5 0.793583 0.590691 0.690697
O O6 0.144375 0.523300 0.796758
O O7 0.715105 0.867117 0.777649
O O8 0.000000 0.500000 0.000000
O O9 0.918836 0.172255 0.438826
O O10 0.748115 0.141585 0.307275
O O11 0.238125 0.835997 0.345368
O O12 0.629294 0.500355 0.571115
O O13 0.217763 0.245790 0.499118
#
# Coordination Sequence:
#
# PCOD9100244 Si02
#       6
#     2   2   2   2   2   2
#     4  11  24  45  70  96 133 176 222 277 339 401
#     4  10  23  39  60  96 125 173 221 272 327 394
#     4  10  22  43  70  90 131 177 217 271 343 401
#     4  10  20  37  63  90 131 165 222 268 321 396
#     4   9  20  39  59  91 125 176 212 265 333 388
#     4  10  20  37  63  89 130 170 217 267 327 396
#
# _framework density 26.818322999999999
#
# number of rings (size 3 to 8) (size 9 to 14) (size 15 to 20)
#    0.000    2.000    0.000    3.500    7.000    0.000 
#    6.000    0.000    0.000    0.000    0.000    0.000 
#    0.000    0.000    0.000    0.000    0.000    0.000 
#
# Total GULP energy -67036.799236 kJ/mol
# GULP energy per Si atom -5586.399936 kJ/mol
# Density = 2.675728 g / cm^3
# Si number density = 26.818323 Si / 1000 Ang^3
#
#
#
# Elastic Constant Matrix: (Units=GPa)
#
#
# Indices 1 2 3 4 5 6 
#
# 1 139.1097 40.9287 29.5352 -18.5466 11.6236 -4.4125
# 2 40.9287 140.2164 0.5865 -28.3310 3.6639 -17.2183
# 3 29.5352 0.5865 82.9103 -16.1616 -0.6948 4.5642
# 4 -18.5466 -28.3310 -16.1616 41.7528 1.8419 -13.6111
# 5 11.6236 3.6639 -0.6948 1.8419 55.0430 -11.8217
# 6 -4.4125 -17.2183 4.5642 -13.6111 -11.8217 34.6451
#
#
#
# Elastic Compliance Matrix: (Units=1/GPa)
#
#
# Indices 1 2 3 4 5 6 
#
# 1 0.008788 -0.002129 -0.002847 0.001589 -0.001700 0.000480
# 2 -0.002129 0.010958 0.002191 0.010352 0.001429 0.009441
# 3 -0.002847 0.002191 0.014186 0.006184 0.000759 0.001546
# 4 0.001589 0.010352 0.006184 0.040950 0.002279 0.021398
# 5 -0.001700 0.001429 0.000759 0.002279 0.020116 0.008153
# 6 0.000480 0.009441 0.001546 0.021398 0.008153 0.044603
#
#
# Mechanical properties :
#
#
# Convention : Reuss Voigt Hill
#
# Bulk Modulus (GPa) = 35.25603 56.03747 45.64675
# Shear Modulus (GPa) = 32.33639 45.70058 39.01848
#
# Velocity S-wave (km/s) = 3.47617 4.13253 3.81848
# Velocity P-wave (km/s) = 5.41170 6.61143 6.04142
#
# Compressibility (1/GPa) = 0.02836395
#
# Stress axis : x y z
#
# Youngs Moduli (GPa) = 113.78546 91.25912 70.48962
#
# Poissons Ratio (x) = 0.19428 0.20066
# Poissons Ratio (y) = 0.24224 -0.15445
# Poissons Ratio (z) = 0.32390 -0.19996
#
# Static dielectric constant tensor:
#      x y z
#    x 2.269890 -0.052770 0.052660 
#    y -0.052770 2.104910 0.000370 
#    z 0.052660 0.000370 2.172830 
# 
# From -- ./inp_files/29556.got.cif
#   From: 2010.05.17/outbox.cif.g08.bks.cpg/sg2_15_cif.got.tgz:29556.got - 2010.06.03 11:33:40.
