data_PCOD9100085
_publ_section_title
;
Structure prediction by ZEFSAII (Michael W. Deem and Ramdas Pophale) SiO2 
 PCOD9100085
Probable space group: P -1
;
_chemical_formula_sum "Si O2"
_cell_formula_units_Z 16
_cell_length_a 6.862492
_cell_length_b 14.131559
_cell_length_c 23.448756
_cell_angle_alpha 17.772832
_cell_angle_beta 102.464631
_cell_angle_gamma 102.782004
_cell_volume 676.823757
_symmetry_space_group_name_H-M "P -1"
_symmetry_group_IT_number 2
_symmetry_cell_setting 'triclinic'
loop_
_space_group_symop_operation_xyz
x,y,z
-x,-y,-z
loop_
_atom_site_type_symbol
_atom_site_label
_atom_site_fract_x
_atom_site_fract_y
_atom_site_fract_z
Si Si1 0.727971 0.235181 0.815688
Si Si2 0.530158 0.690488 0.617863
Si Si3 0.819694 0.189998 0.632759
Si Si4 0.916096 0.542554 0.033738
Si Si5 0.081882 0.294612 0.297716
Si Si6 0.133953 0.431757 0.779493
Si Si7 0.231025 0.450154 0.470634
Si Si8 0.424733 0.928372 0.705825
O O1 0.556573 0.397595 0.745694
O O2 0.701446 0.267698 0.728477
O O3 0.933526 0.438546 0.725858
O O4 0.766883 0.894346 0.033974
O O5 0.686580 0.655376 0.698982
O O6 0.304915 0.689032 0.626522
O O7 0.597434 0.971617 0.419027
O O8 0.720197 0.432609 0.529662
O O9 0.992567 0.375352 0.502633
O O10 0.655609 0.008013 0.688327
O O11 0.922398 0.912426 0.832768
O O12 0.687836 0.403414 0.103513
O O13 0.036585 0.336723 0.204410
O O14 0.000000 0.500000 0.000000
O O15 0.950867 0.554567 0.169982
O O16 0.000000 0.000000 0.500000
O O17 0.316427 0.152628 0.615379
#
# Coordination Sequence:
#
# PCOD9100085 Si02
#       8
#     2   2   2   2   2   2   2   2
#     4   9  19  36  60  91 132 158 204 262 315 373
#     4  10  21  39  67  94 122 167 212 256 320 383
#     4  11  23  40  65  93 127 171 218 260 322 379
#     4  12  25  46  66  93 134 172 215 268 326 377
#     4  11  24  44  62  90 129 165 213 265 312 374
#     4  10  20  37  62  93 125 164 208 257 316 376
#     4  10  21  40  62  92 129 169 211 265 317 380
#     4  11  22  42  66  96 129 169 216 265 318 388
#
# _framework density 23.639831999999998
#
# number of rings (size 3 to 8) (size 9 to 14) (size 15 to 20)
#    0.000    1.500    2.500    2.625    0.000    1.500 
#    6.750    2.500    0.000    0.000    0.000    0.000 
#    0.000    0.000    0.000    0.000    0.000    0.000 
#
# Total GULP energy -89363.667662 kJ/mol
# GULP energy per Si atom -5585.229229 kJ/mol
# Density = 2.358603 g / cm^3
# Si number density = 23.639832 Si / 1000 Ang^3
#
#
#
# Elastic Constant Matrix: (Units=GPa)
#
#
# Indices 1 2 3 4 5 6 
#
# 1 88.4850 25.1518 10.6033 11.5308 -21.3487 -3.2452
# 2 25.1518 86.7346 20.5045 24.1466 -11.7550 -4.6306
# 3 10.6033 20.5045 63.6595 9.6396 -8.6833 -5.4231
# 4 11.5308 24.1466 9.6396 36.4921 -1.8279 6.8892
# 5 -21.3487 -11.7550 -8.6833 -1.8279 27.7148 -5.3888
# 6 -3.2452 -4.6306 -5.4231 6.8892 -5.3888 31.3765
#
#
#
# Elastic Compliance Matrix: (Units=1/GPa)
#
#
# Indices 1 2 3 4 5 6 
#
# 1 0.015235 -0.001554 0.000585 -0.004178 0.011840 0.004398
# 2 -0.001554 0.016433 -0.002284 -0.010471 0.005356 0.005089
# 3 0.000585 -0.002284 0.018165 -0.004078 0.005830 0.004760
# 4 -0.004178 -0.010471 -0.004078 0.038683 -0.008855 -0.012697
# 5 0.011840 0.005356 0.005830 -0.008855 0.051398 0.013794
# 6 0.004398 0.005089 0.004760 -0.012697 0.013794 0.039056
#
#
# Mechanical properties :
#
#
# Convention : Reuss Voigt Hill
#
# Bulk Modulus (GPa) = 23.08039 39.04426 31.06233
# Shear Modulus (GPa) = 25.01010 31.29131 28.15071
#
# Velocity S-wave (km/s) = 3.25617 3.64217 3.45456
# Velocity P-wave (km/s) = 4.89095 5.85144 5.39262
#
# Compressibility (1/GPa) = 0.04332682
#
# Stress axis : x y z
#
# Youngs Moduli (GPa) = 65.63760 60.85367 55.05058
#
# Poissons Ratio (x) = 0.09456 -0.03221
# Poissons Ratio (y) = 0.10199 0.12576
# Poissons Ratio (z) = -0.03840 0.13902
#
# Static dielectric constant tensor:
#      x y z
#    x 1.883070 0.012140 0.040830 
#    y 0.012140 1.954080 -0.021390 
#    z 0.040830 -0.021390 1.905430 
# 
# From -- ./inp_files/81226.got.cif
#   From: 2010.05.17/outbox.cif.g08.bks.cpg/sg2_41_cif.got.tgz:81226.got - 2010.06.03 11:33:40.
