data_PCOD9100292
_publ_section_title
;
Structure prediction by ZEFSAII (Michael W. Deem and Ramdas Pophale) SiO2 
 PCOD9100292
Probable space group: P -1
;
_chemical_formula_sum "Si O2"
_cell_formula_units_Z 14
_cell_length_a 8.696455
_cell_length_b 11.798587
_cell_length_c 16.949566
_cell_angle_alpha 44.285905
_cell_angle_beta 139.445774
_cell_angle_gamma 105.514050
_cell_volume 626.268277
_symmetry_space_group_name_H-M "P -1"
_symmetry_group_IT_number 2
_symmetry_cell_setting 'triclinic'
loop_
_space_group_symop_operation_xyz
x,y,z
-x,-y,-z
loop_
_atom_site_type_symbol
_atom_site_label
_atom_site_fract_x
_atom_site_fract_y
_atom_site_fract_z
Si Si1 0.169907 0.090435 0.353741
Si Si2 0.972758 0.754451 0.075820
Si Si3 0.847846 0.262314 0.433595
Si Si4 0.578752 0.238081 0.664724
Si Si5 0.270005 0.285501 0.677493
Si Si6 0.976859 0.611756 0.715654
Si Si7 0.696547 0.298141 0.928229
O O1 0.029283 0.286817 0.257095
O O2 0.500000 0.000000 0.500000
O O3 0.196445 0.910447 0.500749
O O4 0.955440 0.161363 0.159818
O O5 0.175628 0.725263 0.244579
O O6 0.836500 0.632940 0.091746
O O7 0.161762 0.681404 0.105067
O O8 0.741034 0.997042 0.855083
O O9 0.558076 0.477544 0.247211
O O10 0.124796 0.181202 0.641838
O O11 0.931281 0.309681 0.359256
O O12 0.375622 0.331214 0.616617
O O13 0.358763 0.317670 0.466027
O O14 0.539839 0.196347 0.887960
O O15 0.000000 0.500000 0.500000
#
# Coordination Sequence:
#
# PCOD9100292 Si02
#       7
#     2   2   2   2   2   2   2
#     4  12  26  41  61  89 124 170 210 247 301 368
#     4  10  20  37  63  92 119 159 205 249 307 359
#     4  10  23  42  63  90 122 161 209 256 308 360
#     4   9  19  36  61  91 122 156 201 252 301 362
#     4   8  17  38  64  90 119 153 197 254 309 354
#     4  11  23  39  61  88 124 161 202 255 302 361
#     4  10  22  41  63  90 123 159 203 255 306 365
#
# _framework density 22.354635999999999
#
# number of rings (size 3 to 8) (size 9 to 14) (size 15 to 20)
#    0.000    2.000    0.000    2.571    0.000    6.857 
#    0.000   20.000    0.000    0.000    0.000    0.000 
#    0.000    0.000    0.000    0.000    0.000    0.000 
#
# Total GULP energy -78193.200041 kJ/mol
# GULP energy per Si atom -5585.228574 kJ/mol
# Density = 2.230376 g / cm^3
# Si number density = 22.354636 Si / 1000 Ang^3
#
#
#
# Elastic Constant Matrix: (Units=GPa)
#
#
# Indices 1 2 3 4 5 6 
#
# 1 82.0567 55.1823 41.8900 -4.7176 -8.1292 2.0666
# 2 55.1823 100.8925 21.0190 -10.0396 -13.8807 14.5056
# 3 41.8900 21.0190 67.6773 11.4375 -6.6162 5.3776
# 4 -4.7176 -10.0396 11.4375 38.7197 3.5078 -12.6769
# 5 -8.1292 -13.8807 -6.6162 3.5078 20.8670 -5.3944
# 6 2.0666 14.5056 5.3776 -12.6769 -5.3944 32.4308
#
#
#
# Elastic Compliance Matrix: (Units=1/GPa)
#
#
# Indices 1 2 3 4 5 6 
#
# 1 0.030065 -0.013784 -0.016713 0.008465 -0.001576 0.010068
# 2 -0.013784 0.018414 0.004239 -0.001183 0.006498 -0.007442
# 3 -0.016713 0.004239 0.027102 -0.012443 0.004556 -0.009431
# 4 0.008465 -0.001183 -0.012443 0.035576 -0.003437 0.015388
# 5 -0.001576 0.006498 0.004556 -0.003437 0.054739 0.004200
# 6 0.010068 -0.007442 -0.009431 0.015388 0.004200 0.041799
#
#
# Mechanical properties :
#
#
# Convention : Reuss Voigt Hill
#
# Bulk Modulus (GPa) = 43.35464 54.08989 48.72227
# Shear Modulus (GPa) = 18.66368 27.23917 22.95142
#
# Velocity S-wave (km/s) = 2.89258 3.49449 3.20769
# Velocity P-wave (km/s) = 5.53102 6.36638 5.96334
#
# Compressibility (1/GPa) = 0.02306558
#
# Stress axis : x y z
#
# Youngs Moduli (GPa) = 33.26079 54.30736 36.89776
#
# Poissons Ratio (x) = 0.74858 0.61668
# Poissons Ratio (y) = 0.45847 -0.15643
# Poissons Ratio (z) = 0.55589 -0.23024
#
# Static dielectric constant tensor:
#      x y z
#    x 1.805430 0.042190 -0.004510 
#    y 0.042190 1.863000 0.010210 
#    z -0.004510 0.010210 1.866550 
# 
# From -- ./inp_files/68909.got.cif
#   From: 2010.05.17/outbox.cif.g08.bks.cpg/sg2_35_cif.got.tgz:68909.got - 2010.06.03 11:33:40.
