data_PCOD9100083
_publ_section_title
;
Structure prediction by ZEFSAII (Michael W. Deem and Ramdas Pophale) SiO2 
 PCOD9100083
Probable space group: P -1
;
_chemical_formula_sum "Si O2"
_cell_formula_units_Z 14
_cell_length_a 11.773331
_cell_length_b 10.010043
_cell_length_c 8.811966
_cell_angle_alpha 114.207899
_cell_angle_beta 132.766490
_cell_angle_gamma 62.934793
_cell_volume 670.736558
_symmetry_space_group_name_H-M "P -1"
_symmetry_group_IT_number 2
_symmetry_cell_setting 'triclinic'
loop_
_space_group_symop_operation_xyz
x,y,z
-x,-y,-z
loop_
_atom_site_type_symbol
_atom_site_label
_atom_site_fract_x
_atom_site_fract_y
_atom_site_fract_z
Si Si1 0.622710 0.771107 0.386802
Si Si2 0.468097 0.054716 0.171648
Si Si3 0.866579 0.559105 0.280144
Si Si4 0.827758 0.737112 0.861739
Si Si5 0.590248 0.450371 0.903969
Si Si6 0.572866 0.348383 0.396926
Si Si7 0.091181 0.617877 0.246075
O O1 0.731875 0.681620 0.306847
O O2 0.746414 0.775820 0.639667
O O3 0.492122 0.681649 0.284051
O O4 0.526280 0.925037 0.290217
O O5 0.282416 0.140314 0.070260
O O6 0.551926 0.187784 0.351220
O O7 0.500000 0.000000 0.000000
O O8 0.000000 0.500000 0.500000
O O9 0.956003 0.616465 0.248951
O O10 0.778953 0.430256 0.087749
O O11 0.830409 0.559698 0.806752
O O12 0.010276 0.717749 0.074814
O O13 0.532894 0.601775 0.823666
O O14 0.500000 0.500000 0.000000
O O15 0.500000 0.500000 0.500000
O O16 0.759449 0.331131 0.529870
#
# Coordination Sequence:
#
# PCOD9100083 Si02
#       7
#     2   2   2   2   2   2   2
#     4  11  22  42  65  98 131 175 217 273 331 395
#     4  12  25  43  66  97 138 175 215 272 342 392
#     4  11  21  37  64  98 132 171 218 275 329 385
#     4  11  22  41  65  94 128 173 215 275 328 381
#     4  10  20  37  62  93 124 167 223 261 312 393
#     4  12  23  42  67  98 124 176 230 265 316 399
#     4  11  22  40  66  98 129 164 230 276 320 378
#
# _framework density 20.872575999999999
#
# number of rings (size 3 to 8) (size 9 to 14) (size 15 to 20)
#    0.000    0.857    4.286    4.714    2.000    0.000 
#    0.000    5.000    0.000    0.000    0.000    0.000 
#    0.000    0.000    0.000    0.000    0.000    0.000 
#
# Total GULP energy -77987.726707 kJ/mol
# GULP energy per Si atom -5570.551908 kJ/mol
# Density = 2.082507 g / cm^3
# Si number density = 20.872576 Si / 1000 Ang^3
#
#
#
# Elastic Constant Matrix: (Units=GPa)
#
#
# Indices 1 2 3 4 5 6 
#
# 1 100.6872 35.7100 41.2346 2.2097 1.3174 -8.1435
# 2 35.7100 117.6255 32.9823 -21.7005 1.8097 -6.0447
# 3 41.2346 32.9823 130.4376 -23.5327 -1.9717 0.3831
# 4 2.2097 -21.7005 -23.5327 37.2330 -1.5797 -1.5067
# 5 1.3174 1.8097 -1.9717 -1.5797 40.1540 10.2070
# 6 -8.1435 -6.0447 0.3831 -1.5067 10.2070 34.2815
#
#
#
# Elastic Compliance Matrix: (Units=1/GPa)
#
#
# Indices 1 2 3 4 5 6 
#
# 1 0.013399 -0.003732 -0.004343 -0.005664 -0.001405 0.002743
# 2 -0.003732 0.011031 -0.000468 0.006393 -0.000528 0.001502
# 3 -0.004343 -0.000468 0.010359 0.006533 0.001265 -0.001319
# 4 -0.005664 0.006393 0.006533 0.035142 0.001387 0.000840
# 5 -0.001405 -0.000528 0.001265 0.001387 0.027250 -0.008493
# 6 0.002743 0.001502 -0.001319 0.000840 -0.008493 0.032667
#
#
# Mechanical properties :
#
#
# Convention : Reuss Voigt Hill
#
# Bulk Modulus (GPa) = 56.49306 63.17824 59.83565
# Shear Modulus (GPa) = 32.71505 38.25525 35.48515
#
# Velocity S-wave (km/s) = 3.96330 4.28577 4.12768
# Velocity P-wave (km/s) = 6.93311 7.40437 7.17261
#
# Compressibility (1/GPa) = 0.01770129
#
# Stress axis : x y z
#
# Youngs Moduli (GPa) = 74.63491 90.65624 96.53036
#
# Poissons Ratio (x) = 0.33835 0.41923
# Poissons Ratio (y) = 0.27856 0.04521
# Poissons Ratio (z) = 0.32414 0.04246
#
# Static dielectric constant tensor:
#      x y z
#    x 1.803430 0.002890 -0.004340 
#    y 0.002890 1.751310 0.039140 
#    z -0.004340 0.039140 1.833820 
# 
# From -- ./inp_files/183377.got.cif
#   From: 2010.05.17/outbox.cif.g08.bks.cpg/sg2_92_cif.got.tgz:183377.got - 2010.06.03 11:33:40.
