data_PCOD9100725
_publ_section_title
;
Structure prediction by ZEFSAII (Michael W. Deem and Ramdas Pophale) SiO2 
 PCOD9100725
Probable space group: P -1
;
_chemical_formula_sum "Si O2"
_cell_formula_units_Z 16
_cell_length_a 7.645354
_cell_length_b 5.661001
_cell_length_c 23.391306
_cell_angle_alpha 85.261363
_cell_angle_beta 50.021195
_cell_angle_gamma 115.815987
_cell_volume 594.201571
_symmetry_space_group_name_H-M "P -1"
_symmetry_group_IT_number 2
_symmetry_cell_setting 'triclinic'
loop_
_space_group_symop_operation_xyz
x,y,z
-x,-y,-z
loop_
_atom_site_type_symbol
_atom_site_label
_atom_site_fract_x
_atom_site_fract_y
_atom_site_fract_z
Si Si1 0.235189 0.861463 0.012119
Si Si2 0.977211 0.417073 0.362666
Si Si3 0.461921 0.343452 0.418785
Si Si4 0.295869 0.225123 0.272201
Si Si5 0.139856 0.284722 0.073162
Si Si6 0.305719 0.888237 0.180998
Si Si7 0.786130 0.772548 0.237423
Si Si8 0.135498 0.800236 0.414394
O O1 0.402283 0.998084 0.914249
O O2 0.072186 0.498532 0.057687
O O3 0.500000 0.000000 0.000000
O O4 0.071820 0.998281 0.057837
O O5 0.686755 0.382816 0.416420
O O6 0.981314 0.144235 0.351530
O O7 0.181218 0.634541 0.260926
O O8 0.065119 0.493053 0.410330
O O9 0.627751 0.635226 0.334679
O O10 0.172996 0.279543 0.504312
O O11 0.363202 0.047545 0.408098
O O12 0.546856 0.545333 0.244317
O O13 0.346646 0.168346 0.199081
O O14 0.274832 0.984035 0.322072
O O15 0.500000 0.500000 0.000000
O O16 0.953750 0.120143 0.174043
O O17 0.052497 0.760679 0.189124
#
# Coordination Sequence:
#
# PCOD9100725 Si02
#       8
#     2   2   2   2   2   2   2   2
#     4  10  20  37  65  93 124 168 215 270 324 389
#     4  10  21  36  60  88 122 159 205 257 313 377
#     4   9  19  37  64  86 120 166 204 253 318 381
#     4  10  23  38  58  91 125 158 211 262 310 384
#     4  10  20  38  64  94 125 168 214 272 325 387
#     4  10  21  39  61  85 122 166 203 258 320 383
#     4  10  20  41  61  87 122 164 209 260 324 379
#     4   9  19  40  58  86 127 158 203 260 309 377
#
# _framework density 26.926891000000001
#
# number of rings (size 3 to 8) (size 9 to 14) (size 15 to 20)
#    0.000    2.250    2.500    0.375    1.750    1.500 
#    6.750    6.875    0.000    0.000    0.000    0.000 
#    0.000    0.000    0.000    0.000    0.000    0.000 
#
# Total GULP energy -89376.697073 kJ/mol
# GULP energy per Si atom -5586.043567 kJ/mol
# Density = 2.686560 g / cm^3
# Si number density = 26.926891 Si / 1000 Ang^3
#
#
#
# Elastic Constant Matrix: (Units=GPa)
#
#
# Indices 1 2 3 4 5 6 
#
# 1 101.3903 30.7495 12.8988 -0.4622 -6.3087 8.6225
# 2 30.7495 91.6844 25.3143 22.6315 -3.6508 -7.1594
# 3 12.8988 25.3143 84.9296 -18.1091 -6.9956 9.1785
# 4 -0.4622 22.6315 -18.1091 49.6299 -10.4943 6.5471
# 5 -6.3087 -3.6508 -6.9956 -10.4943 15.7996 0.7336
# 6 8.6225 -7.1594 9.1785 6.5471 0.7336 34.3838
#
#
#
# Elastic Compliance Matrix: (Units=1/GPa)
#
#
# Indices 1 2 3 4 5 6 
#
# 1 0.013093 -0.007689 0.003845 0.008398 0.011091 -0.007746
# 2 -0.007689 0.022722 -0.013170 -0.021029 -0.018296 0.014570
# 3 0.003845 -0.013170 0.023198 0.021420 0.023663 -0.014482
# 4 0.008398 -0.021029 0.021420 0.049457 0.041873 -0.022513
# 5 0.011091 -0.018296 0.023663 0.041873 0.102856 -0.023075
# 6 -0.007746 0.014570 -0.014482 -0.022513 -0.023075 0.042705
#
#
# Mechanical properties :
#
#
# Convention : Reuss Voigt Hill
#
# Bulk Modulus (GPa) = 40.02639 46.21439 43.12039
# Shear Modulus (GPa) = 16.86984 33.89876 25.38430
#
# Velocity S-wave (km/s) = 2.50572 3.55197 3.07369
# Velocity P-wave (km/s) = 4.82376 5.83285 5.35214
#
# Compressibility (1/GPa) = 0.02498352
#
# Stress axis : x y z
#
# Youngs Moduli (GPa) = 76.37764 44.00976 43.10773
#
# Poissons Ratio (x) = 0.33839 -0.16574
# Poissons Ratio (y) = 0.58726 0.56775
# Poissons Ratio (z) = -0.29365 0.57963
#
# Static dielectric constant tensor:
#      x y z
#    x 2.079440 -0.010920 -0.000330 
#    y -0.010920 2.493340 -0.146050 
#    z -0.000330 -0.146050 2.147680 
# 
# From -- ./inp_files/356064.got.cif
#   From: 2010.05.17/outbox.cif.g08.bks.cpg/sg2_179_cif.got.tgz:356064.got - 2010.06.03 11:33:40.
