data_PCOD9100245
_publ_section_title
;
Structure prediction by ZEFSAII (Michael W. Deem and Ramdas Pophale) SiO2 
 PCOD9100245
Probable space group: P -1
;
_chemical_formula_sum "Si O2"
_cell_formula_units_Z 14
_cell_length_a 13.915460
_cell_length_b 25.502221
_cell_length_c 14.092752
_cell_angle_alpha 159.055465
_cell_angle_beta 158.738291
_cell_angle_gamma 20.560112
_cell_volume 558.121376
_symmetry_space_group_name_H-M "P -1"
_symmetry_group_IT_number 2
_symmetry_cell_setting 'triclinic'
loop_
_space_group_symop_operation_xyz
x,y,z
-x,-y,-z
loop_
_atom_site_type_symbol
_atom_site_label
_atom_site_fract_x
_atom_site_fract_y
_atom_site_fract_z
Si Si1 0.664209 0.974153 0.746685
Si Si2 0.000449 0.182389 0.395937
Si Si3 0.218639 0.287990 0.433082
Si Si4 0.801921 0.399657 0.747568
Si Si5 0.182768 0.462430 0.349448
Si Si6 0.856822 0.231526 0.851138
Si Si7 0.245736 0.829990 0.552221
O O1 0.897222 0.836489 0.651390
O O2 0.706753 0.886871 0.739963
O O3 0.323151 0.048814 0.518133
O O4 0.754478 0.120180 0.075994
O O5 0.871675 0.357588 0.631126
O O6 0.537108 0.278750 0.687409
O O7 0.016867 0.428670 0.562591
O O8 0.023211 0.311661 0.198492
O O9 0.445679 0.501136 0.621058
O O10 0.911871 0.214297 0.582767
O O11 0.976489 0.472194 0.088888
O O12 0.398034 0.266528 0.252789
O O13 0.778293 0.264441 0.723420
O O14 0.091417 0.028061 0.728382
#
# Coordination Sequence:
#
# PCOD9100245 Si02
#       7
#     2   2   2   2   2   2   2
#     4  10  21  36  60  90 121 142 197 244 288 355
#     4  10  20  37  63  90 111 155 191 241 299 338
#     4  12  24  41  57  92 120 159 186 254 287 351
#     4  10  20  38  60  82 115 160 192 242 281 357
#     4  10  24  38  60  82 128 153 202 227 302 345
#     4  11  25  37  65  85 119 153 206 238 301 326
#     4   9  24  40  60  89 115 156 202 247 277 364
#
# _framework density 25.084150000000001
#
# number of rings (size 3 to 8) (size 9 to 14) (size 15 to 20)
#    0.857    0.857    0.000    4.286    6.000    2.286 
#    0.000    1.429    0.000    0.000    0.000    0.000 
#    0.000    0.000    0.000    0.000    0.000    0.000 
#
# Total GULP energy -78388.858343 kJ/mol
# GULP energy per Si atom -5599.204167 kJ/mol
# Density = 2.502706 g / cm^3
# Si number density = 25.084150 Si / 1000 Ang^3
#
#
#
# Elastic Constant Matrix: (Units=GPa)
#
#
# Indices 1 2 3 4 5 6 
#
# 1 116.5784 23.0011 22.5467 -2.3342 -23.2864 -6.3379
# 2 23.0011 92.5489 29.9263 -8.2014 -8.2786 -28.2748
# 3 22.5467 29.9263 133.0978 -18.0781 -29.0602 -8.1619
# 4 -2.3342 -8.2014 -18.0781 36.1503 -6.7488 -5.0940
# 5 -23.2864 -8.2786 -29.0602 -6.7488 40.0039 9.0945
# 6 -6.3379 -28.2748 -8.1619 -5.0940 9.0945 28.3675
#
#
#
# Elastic Compliance Matrix: (Units=1/GPa)
#
#
# Indices 1 2 3 4 5 6 
#
# 1 0.010193 -0.002576 0.000227 0.001060 0.006204 -0.002023
# 2 -0.002576 0.018063 -0.002499 0.004733 -0.002988 0.018517
# 3 0.000227 -0.002499 0.010730 0.006295 0.008701 -0.001012
# 4 0.001060 0.004733 0.006295 0.035190 0.009850 0.009928
# 5 0.006204 -0.002988 0.008701 0.009850 0.038144 -0.009548
# 6 -0.002023 0.018517 -0.001012 0.009928 -0.009548 0.057809
#
#
# Mechanical properties :
#
#
# Convention : Reuss Voigt Hill
#
# Bulk Modulus (GPa) = 34.14192 54.79704 44.46948
# Shear Modulus (GPa) = 26.37317 38.68772 32.53044
#
# Velocity S-wave (km/s) = 3.24603 3.93150 3.60509
# Velocity P-wave (km/s) = 5.26208 6.51932 5.92415
#
# Compressibility (1/GPa) = 0.02928951
#
# Stress axis : x y z
#
# Youngs Moduli (GPa) = 98.10957 55.36283 93.20099
#
# Poissons Ratio (x) = 0.14260 -0.02116
# Poissons Ratio (y) = 0.25271 0.23290
# Poissons Ratio (z) = -0.02227 0.13834
#
# Static dielectric constant tensor:
#      x y z
#    x 1.971950 0.041330 0.027630 
#    y 0.041330 1.977980 0.049570 
#    z 0.027630 0.049570 1.952620 
# 
# From -- ./inp_files/535836.got.cif
#   From: 2010.05.17/outbox.cif.g08.bks.cpg/sg2_268_cif.got.tgz:535836.got - 2010.06.03 11:33:40.
