data_PCOD9100823
_publ_section_title
;
Structure prediction by ZEFSAII (Michael W. Deem and Ramdas Pophale) SiO2 
 PCOD9100823
Probable space group: P -1
;
_chemical_formula_sum "Si O2"
_cell_formula_units_Z 12
_cell_length_a 14.074989
_cell_length_b 7.496131
_cell_length_c 10.105283
_cell_angle_alpha 104.665825
_cell_angle_beta 135.312201
_cell_angle_gamma 45.868914
_cell_volume 472.359509
_symmetry_space_group_name_H-M "P -1"
_symmetry_group_IT_number 2
_symmetry_cell_setting 'triclinic'
loop_
_space_group_symop_operation_xyz
x,y,z
-x,-y,-z
loop_
_atom_site_type_symbol
_atom_site_label
_atom_site_fract_x
_atom_site_fract_y
_atom_site_fract_z
Si Si1 0.535949 0.638745 0.466230
Si Si2 0.757801 0.760259 0.846249
Si Si3 0.735031 0.278333 0.138768
Si Si4 0.232016 0.265783 0.635824
Si Si5 0.121662 0.680492 0.447918
Si Si6 0.618883 0.703019 0.949265
O O1 0.500000 0.500000 0.500000
O O2 0.643166 0.698060 0.660956
O O3 0.712773 0.390977 0.491816
O O4 0.350311 0.939190 0.259239
O O5 0.719891 0.747861 0.961303
O O6 0.000000 0.500000 0.000000
O O7 0.854939 0.269561 0.369938
O O8 0.726347 0.393794 0.012060
O O9 0.500000 0.500000 0.000000
O O10 0.887185 0.945977 0.218322
O O11 0.210603 0.381350 0.494225
O O12 0.355248 0.257427 0.865615
O O13 0.000000 0.500000 0.500000
O O14 0.376981 0.938345 0.715957
#
# Coordination Sequence:
#
# PCOD9100823 Si02
#       6
#     2   2   2   2   2   2
#     4  11  27  48  70  98 138 184 227 281 336 402
#     4  11  27  47  70 101 135 182 232 280 333 403
#     4  10  22  38  64  94 130 169 213 281 333 395
#     4  10  20  37  66  88 125 172 209 278 340 387
#     4  10  22  41  59  97 128 170 224 266 337 401
#     4  10  22  39  60  98 126 165 229 271 329 401
#
# _framework density 25.404378999999999
#
# number of rings (size 3 to 8) (size 9 to 14) (size 15 to 20)
#    0.000    1.667    1.667    1.000    7.000    2.000 
#    0.000    0.000    0.000    0.000    0.000    0.000 
#    0.000    0.000    0.000    0.000    0.000    0.000 
#
# Total GULP energy -66965.825716 kJ/mol
# GULP energy per Si atom -5580.485476 kJ/mol
# Density = 2.534656 g / cm^3
# Si number density = 25.404379 Si / 1000 Ang^3
#
#
#
# Elastic Constant Matrix: (Units=GPa)
#
#
# Indices 1 2 3 4 5 6 
#
# 1 204.9516 54.2768 84.0061 -42.4441 -20.2075 16.3169
# 2 54.2768 85.7963 66.1953 -28.9136 -10.4584 23.7874
# 3 84.0061 66.1953 178.0153 -74.7238 -8.7464 26.6457
# 4 -42.4441 -28.9136 -74.7238 58.3050 5.9649 0.4193
# 5 -20.2075 -10.4584 -8.7464 5.9649 45.3037 -11.1762
# 6 16.3169 23.7874 26.6457 0.4193 -11.1762 42.9200
#
#
#
# Elastic Compliance Matrix: (Units=1/GPa)
#
#
# Indices 1 2 3 4 5 6 
#
# 1 0.006617 -0.002294 -0.001634 0.001380 0.001993 0.000276
# 2 -0.002294 0.019010 -0.003441 0.003358 0.000421 -0.007451
# 3 -0.001634 -0.003441 0.016869 0.019092 -0.002977 -0.008906
# 4 0.001380 0.003358 0.019092 0.044891 -0.004761 -0.015917
# 5 0.001993 0.000421 -0.002977 -0.004761 0.024936 0.007397
# 6 0.000276 -0.007451 -0.008906 -0.015917 0.007397 0.034935
#
#
# Mechanical properties :
#
#
# Convention : Reuss Voigt Hill
#
# Bulk Modulus (GPa) = 36.02498 97.52439 66.77469
# Shear Modulus (GPa) = 29.19743 46.92473 38.06108
#
# Velocity S-wave (km/s) = 3.39382 4.30247 3.87487
# Velocity P-wave (km/s) = 5.43772 7.94693 6.80891
#
# Compressibility (1/GPa) = 0.02775852
#
# Stress axis : x y z
#
# Youngs Moduli (GPa) = 151.13695 52.60297 59.28018
#
# Poissons Ratio (x) = 0.12067 0.09684
# Poissons Ratio (y) = 0.34670 0.20399
# Poissons Ratio (z) = 0.24690 0.18101
#
# Static dielectric constant tensor:
#      x y z
#    x 2.220570 -0.050210 -0.273200 
#    y -0.050210 2.380820 0.160770 
#    z -0.273200 0.160770 2.329560 
# 
# From -- ./inp_files/444638.got.cif
#   From: 2010.05.17/outbox.cif.g08.bks.cpg/sg2_223_cif.got.tgz:444638.got - 2010.06.03 11:33:40.
