data_PCOD9100279
_publ_section_title
;
Structure prediction by ZEFSAII (Michael W. Deem and Ramdas Pophale) SiO2 
 PCOD9100279
Probable space group: P -1
;
_chemical_formula_sum "Si O2"
_cell_formula_units_Z 14
_cell_length_a 14.135403
_cell_length_b 9.610195
_cell_length_c 7.562924
_cell_angle_alpha 66.586946
_cell_angle_beta 106.307535
_cell_angle_gamma 147.424049
_cell_volume 504.566428
_symmetry_space_group_name_H-M "P -1"
_symmetry_group_IT_number 2
_symmetry_cell_setting 'triclinic'
loop_
_space_group_symop_operation_xyz
x,y,z
-x,-y,-z
loop_
_atom_site_type_symbol
_atom_site_label
_atom_site_fract_x
_atom_site_fract_y
_atom_site_fract_z
Si Si1 0.807398 0.629290 0.592860
Si Si2 0.195245 0.162330 0.040351
Si Si3 0.760086 0.472167 0.044189
Si Si4 0.700343 0.798983 0.518852
Si Si5 0.899443 0.253875 0.939236
Si Si6 0.160638 0.611663 0.449875
Si Si7 0.594269 0.988291 0.328192
O O1 0.822086 0.826861 0.476146
O O2 0.903154 0.636453 0.510949
O O3 0.602676 0.321597 0.608438
O O4 0.828056 0.613109 0.816797
O O5 0.258772 0.174656 0.260836
O O6 0.212638 0.047846 0.964720
O O7 0.308012 0.462907 0.928348
O O8 0.000000 0.000000 0.000000
O O9 0.626469 0.162950 0.119070
O O10 0.933367 0.610540 0.143766
O O11 0.500000 0.500000 0.500000
O O12 0.715372 0.991838 0.367144
O O13 0.789570 0.231781 0.778809
O O14 0.000000 0.500000 0.000000
O O15 0.329489 0.837132 0.545874
O O16 0.000000 0.500000 0.500000
#
# Coordination Sequence:
#
# PCOD9100279 Si02
#       7
#     2   2   2   2   2   2   2
#     4  10  22  40  62  92 127 169 211 251 320 392
#     4   9  19  35  60  90 124 172 206 259 320 376
#     4  10  20  37  63  91 125 162 207 255 318 386
#     4   9  19  37  62  91 129 169 207 259 321 381
#     4  11  20  37  62  87 122 168 210 257 321 376
#     4  12  23  38  63  89 125 163 216 267 311 370
#     4  11  21  38  65  93 126 166 206 262 321 375
#
# _framework density 27.746594999999999
#
# number of rings (size 3 to 8) (size 9 to 14) (size 15 to 20)
#    0.000    1.714    4.286    0.857    0.000    0.000 
#    0.000    2.143    0.000    0.857    0.000    0.000 
#    0.000    0.000    0.000    0.000    0.000    0.000 
#
# Total GULP energy -78106.960032 kJ/mol
# GULP energy per Si atom -5579.068574 kJ/mol
# Density = 2.768344 g / cm^3
# Si number density = 27.746595 Si / 1000 Ang^3
#
#
#
# Elastic Constant Matrix: (Units=GPa)
#
#
# Indices 1 2 3 4 5 6 
#
# 1 152.0085 58.1517 24.3363 -8.2865 10.1346 -59.3044
# 2 58.1517 130.0072 61.3249 -1.5880 15.0159 -43.9056
# 3 24.3363 61.3249 128.1089 17.3580 26.2378 -16.4336
# 4 -8.2865 -1.5880 17.3580 54.7694 -8.5648 21.7673
# 5 10.1346 15.0159 26.2378 -8.5648 29.5120 -2.1682
# 6 -59.3044 -43.9056 -16.4336 21.7673 -2.1682 78.5173
#
#
#
# Elastic Compliance Matrix: (Units=1/GPa)
#
#
# Indices 1 2 3 4 5 6 
#
# 1 0.010180 -0.002272 0.001083 -0.002257 -0.003430 0.007176
# 2 -0.002272 0.012549 -0.004701 -0.000432 -0.001227 0.004403
# 3 0.001083 -0.004701 0.013645 -0.007260 -0.012018 0.002726
# 4 -0.002257 -0.000432 -0.007260 0.026609 0.014404 -0.010445
# 5 -0.003430 -0.001227 -0.012018 0.014404 0.049934 -0.008407
# 6 0.007176 0.004403 0.002726 -0.010445 -0.008407 0.023852
#
#
# Mechanical properties :
#
#
# Convention : Reuss Voigt Hill
#
# Bulk Modulus (GPa) = 40.66087 77.52780 59.09433
# Shear Modulus (GPa) = 31.89852 50.31385 41.10619
#
# Velocity S-wave (km/s) = 3.39431 4.26295 3.85318
# Velocity P-wave (km/s) = 5.48160 7.22719 6.41406
#
# Compressibility (1/GPa) = 0.02459367
#
# Stress axis : x y z
#
# Youngs Moduli (GPa) = 98.23511 79.68744 73.28644
#
# Poissons Ratio (x) = 0.18105 -0.07935
# Poissons Ratio (y) = 0.22319 0.34450
# Poissons Ratio (z) = -0.10636 0.37459
#
# Static dielectric constant tensor:
#      x y z
#    x 2.205070 0.004870 -0.054890 
#    y 0.004870 2.410910 -0.074400 
#    z -0.054890 -0.074400 2.254430 
# 
# From -- ./inp_files/199082.got.cif
#   From: 2010.05.17/outbox.cif.g08.bks.cpg/sg2_100_cif.got.tgz:199082.got - 2010.06.03 11:33:40.
