data_PCOD9100248
_publ_section_title
;
Structure prediction by ZEFSAII (Michael W. Deem and Ramdas Pophale) SiO2 
 PCOD9100248
Probable space group: P -1
;
_chemical_formula_sum "Si O2"
_cell_formula_units_Z 16
_cell_length_a 22.480710
_cell_length_b 7.549539
_cell_length_c 5.433037
_cell_angle_alpha 97.206198
_cell_angle_beta 119.474991
_cell_angle_gamma 52.107363
_cell_volume 612.168605
_symmetry_space_group_name_H-M "P -1"
_symmetry_group_IT_number 2
_symmetry_cell_setting 'triclinic'
loop_
_space_group_symop_operation_xyz
x,y,z
-x,-y,-z
loop_
_atom_site_type_symbol
_atom_site_label
_atom_site_fract_x
_atom_site_fract_y
_atom_site_fract_z
Si Si1 0.815520 0.295686 0.194917
Si Si2 0.581672 0.900619 0.328290
Si Si3 0.903082 0.495084 0.319675
Si Si4 0.938069 0.959346 0.737896
Si Si5 0.066008 0.212162 0.857953
Si Si6 0.511849 0.686804 0.393622
Si Si7 0.341894 0.940073 0.782067
Si Si8 0.319644 0.783055 0.201673
O O1 0.849932 0.216115 0.528219
O O2 0.897073 0.041551 0.203842
O O3 0.823952 0.485727 0.165496
O O4 0.732756 0.311829 0.972736
O O5 0.585711 0.704953 0.439088
O O6 0.657640 0.860580 0.302217
O O7 0.550123 0.097419 0.503729
O O8 0.500000 0.000000 0.000000
O O9 0.890109 0.703416 0.194095
O O10 0.987369 0.264858 0.312618
O O11 0.958728 0.412829 0.674160
O O12 0.902930 0.855475 0.812807
O O13 0.000000 0.000000 0.000000
O O14 0.423775 0.558398 0.379235
O O15 0.446522 0.743885 0.043015
O O16 0.308174 0.880508 0.470892
O O17 0.298996 0.948313 0.954822
#
# Coordination Sequence:
#
# PCOD9100248 Si02
#       8
#     2   2   2   2   2   2   2   2
#     4  11  24  41  55  93 129 165 206 269 328 384
#     4   9  20  38  69  96 127 158 224 270 319 374
#     4  10  20  37  63  90 119 160 212 262 310 384
#     4  11  18  36  67  89 119 164 206 265 318 381
#     4  10  20  38  64  88 120 161 214 255 316 389
#     4  10  21  42  66  98 125 171 218 273 318 388
#     4  11  23  43  65  94 121 174 221 267 314 393
#     4  12  27  39  65  92 133 170 216 266 334 389
#
# _framework density 26.136592
#
# number of rings (size 3 to 8) (size 9 to 14) (size 15 to 20)
#    0.000    1.500    3.750    1.875    5.250    0.000 
#    2.250    0.000    0.000    1.500    0.000    0.000 
#    0.000    0.000    0.000    0.000    0.000    0.000 
#
# Total GULP energy -89107.032101 kJ/mol
# GULP energy per Si atom -5569.189506 kJ/mol
# Density = 2.607710 g / cm^3
# Si number density = 26.136592 Si / 1000 Ang^3
#
#
#
# Elastic Constant Matrix: (Units=GPa)
#
#
# Indices 1 2 3 4 5 6 
#
# 1 96.6365 30.0885 33.6247 -8.1927 18.5916 41.5364
# 2 30.0885 79.3434 27.4971 -4.8052 -0.0154 36.1823
# 3 33.6247 27.4971 110.2281 -4.8504 11.3229 32.7820
# 4 -8.1927 -4.8052 -4.8504 33.2698 20.1003 -0.8608
# 5 18.5916 -0.0154 11.3229 20.1003 36.8798 6.3218
# 6 41.5364 36.1823 32.7820 -0.8608 6.3218 42.8173
#
#
#
# Elastic Compliance Matrix: (Units=1/GPa)
#
#
# Indices 1 2 3 4 5 6 
#
# 1 0.023869 0.001906 0.001631 0.016358 -0.017488 -0.023103
# 2 0.001906 0.021022 0.000032 0.002286 0.001180 -0.019767
# 3 0.001631 0.000032 0.012435 0.005530 -0.005915 -0.010145
# 4 0.016358 0.002286 0.005530 0.058565 -0.039281 -0.015058
# 5 -0.017488 0.001180 -0.005915 -0.039281 0.057227 0.011256
# 6 -0.023103 -0.019767 -0.010145 -0.015058 0.011256 0.068274
#
#
# Mechanical properties :
#
#
# Convention : Reuss Voigt Hill
#
# Bulk Modulus (GPa) = 15.51253 52.06983 33.79118
# Shear Modulus (GPa) = 19.55111 35.59322 27.57217
#
# Velocity S-wave (km/s) = 2.73799 3.69428 3.25149
# Velocity P-wave (km/s) = 3.99293 6.17757 5.20125
#
# Compressibility (1/GPa) = 0.06446402
#
# Stress axis : x y z
#
# Youngs Moduli (GPa) = 41.89604 47.56881 80.42032
#
# Poissons Ratio (x) = -0.09068 -0.13113
# Poissons Ratio (y) = -0.07987 -0.00261
# Poissons Ratio (z) = -0.06831 -0.00154
#
# Static dielectric constant tensor:
#      x y z
#    x 2.212280 0.065020 -0.292230 
#    y 0.065020 2.066320 0.205800 
#    z -0.292230 0.205800 3.739070 
# 
# From -- ./inp_files/55941.got.cif
#   From: 2010.05.17/outbox.cif.g08.bks.cpg/sg2_28_cif.got.tgz:55941.got - 2010.06.03 11:33:40.
