data_PCOD9100156
_publ_section_title
;
Structure prediction by ZEFSAII (Michael W. Deem and Ramdas Pophale) SiO2 
 PCOD9100156
Probable space group: P -1
;
_chemical_formula_sum "Si O2"
_cell_formula_units_Z 14
_cell_length_a 16.700992
_cell_length_b 14.962871
_cell_length_c 5.328957
_cell_angle_alpha 62.941474
_cell_angle_beta 86.557611
_cell_angle_gamma 38.222130
_cell_volume 617.735338
_symmetry_space_group_name_H-M "P -1"
_symmetry_group_IT_number 2
_symmetry_cell_setting 'triclinic'
loop_
_space_group_symop_operation_xyz
x,y,z
-x,-y,-z
loop_
_atom_site_type_symbol
_atom_site_label
_atom_site_fract_x
_atom_site_fract_y
_atom_site_fract_z
Si Si1 0.348353 0.726842 0.679423
Si Si2 0.889353 0.298781 0.767131
Si Si3 0.633982 0.436379 0.490159
Si Si4 0.955418 0.938277 0.478243
Si Si5 0.684568 0.687343 0.442266
Si Si6 0.590311 0.974470 0.319365
Si Si7 0.506249 0.245542 0.256626
O O1 0.265159 0.746063 0.468110
O O2 0.410048 0.770456 0.540758
O O3 0.500000 0.500000 0.000000
O O4 0.229765 0.867973 0.746629
O O5 0.747477 0.370920 0.742703
O O6 0.969435 0.177016 0.649929
O O7 0.814385 0.489132 0.521831
O O8 0.993289 0.186231 0.138814
O O9 0.500000 0.500000 0.500000
O O10 0.563445 0.603899 0.128402
O O11 0.000000 0.000000 0.500000
O O12 0.714972 0.767024 0.438488
O O13 0.629776 0.672857 0.696631
O O14 0.533265 0.861297 0.076814
O O15 0.500000 0.000000 0.500000
O O16 0.624703 0.040065 0.375803
#
# Coordination Sequence:
#
# PCOD9100156 Si02
#       7
#     2   2   2   2   2   2   2
#     4  10  24  40  63  91 131 175 224 268 325 391
#     4  12  25  42  67  90 144 175 225 273 338 393
#     4  11  22  35  63  97 133 180 220 271 325 393
#     4  12  27  44  62  95 134 184 225 270 327 405
#     4  10  20  37  63 100 125 170 213 285 337 394
#     4   9  19  35  63  98 128 157 222 281 338 389
#     4  10  20  38  61  95 132 168 225 276 328 383
#
# _framework density 22.663426000000001
#
# number of rings (size 3 to 8) (size 9 to 14) (size 15 to 20)
#    0.000    1.429    2.857    2.143    8.000    0.000 
#    0.000    0.000    0.000    1.714    0.000    0.000 
#    0.000    0.000    0.000    0.000    0.000    0.000 
#
# Total GULP energy -78077.179360 kJ/mol
# GULP energy per Si atom -5576.941383 kJ/mol
# Density = 2.261184 g / cm^3
# Si number density = 22.663426 Si / 1000 Ang^3
#
#
#
# Elastic Constant Matrix: (Units=GPa)
#
#
# Indices 1 2 3 4 5 6 
#
# 1 75.8750 39.9343 23.8944 -17.0269 -14.7321 32.9979
# 2 39.9343 161.2682 37.9255 -18.9500 -10.2695 21.5386
# 3 23.8944 37.9255 96.9682 3.0984 -11.7619 1.1996
# 4 -17.0269 -18.9500 3.0984 35.9146 1.4378 -8.2554
# 5 -14.7321 -10.2695 -11.7619 1.4378 30.3487 -7.2062
# 6 32.9979 21.5386 1.1996 -8.2554 -7.2062 56.1963
#
#
#
# Elastic Compliance Matrix: (Units=1/GPa)
#
#
# Indices 1 2 3 4 5 6 
#
# 1 0.023175 -0.002005 -0.004311 0.007564 0.005961 -0.010872
# 2 -0.002005 0.007873 -0.002644 0.003125 0.000210 -0.001298
# 3 -0.004311 -0.002644 0.012850 -0.003960 0.002908 0.003061
# 4 0.007564 0.003125 -0.003960 0.033250 0.001506 -0.000477
# 5 0.005961 0.000210 0.002908 0.001506 0.037294 0.001361
# 6 -0.010872 -0.001298 0.003061 -0.000477 0.001361 0.024716
#
#
# Mechanical properties :
#
#
# Convention : Reuss Voigt Hill
#
# Bulk Modulus (GPa) = 38.49048 59.73552 49.11300
# Shear Modulus (GPa) = 30.16845 39.98238 35.07541
#
# Velocity S-wave (km/s) = 3.65245 4.20477 3.93831
# Velocity P-wave (km/s) = 5.89980 7.07025 6.51137
#
# Compressibility (1/GPa) = 0.02598045
#
# Stress axis : x y z
#
# Youngs Moduli (GPa) = 43.14933 127.01874 77.81993
#
# Poissons Ratio (x) = 0.25462 0.33547
# Poissons Ratio (y) = 0.08650 0.20572
# Poissons Ratio (z) = 0.18601 0.33578
#
# Static dielectric constant tensor:
#      x y z
#    x 1.852150 0.028260 0.021170 
#    y 0.028260 2.101560 0.114830 
#    z 0.021170 0.114830 2.000800 
# 
# From -- ./inp_files/119648.got.cif
#   From: 2010.05.17/outbox.cif.g08.bks.cpg/sg2_60_cif.got.tgz:119648.got - 2010.06.03 11:33:40.
