data_PCOD9100256
_publ_section_title
;
Structure prediction by ZEFSAII (Michael W. Deem and Ramdas Pophale) SiO2 
 PCOD9100256
Probable space group: P -1
;
_chemical_formula_sum "Si O2"
_cell_formula_units_Z 15
_cell_length_a 6.874301
_cell_length_b 13.009862
_cell_length_c 12.826695
_cell_angle_alpha 42.886312
_cell_angle_beta 41.129354
_cell_angle_gamma 48.099043
_cell_volume 495.975116
_symmetry_space_group_name_H-M "P -1"
_symmetry_group_IT_number 2
_symmetry_cell_setting 'triclinic'
loop_
_space_group_symop_operation_xyz
x,y,z
-x,-y,-z
loop_
_atom_site_type_symbol
_atom_site_label
_atom_site_fract_x
_atom_site_fract_y
_atom_site_fract_z
Si Si1 0.981875 0.908844 0.437861
Si Si2 0.500000 0.500000 0.000000
Si Si3 0.028629 0.632121 0.783359
Si Si4 0.848704 0.617156 0.333849
Si Si5 0.584200 0.373439 0.699182
Si Si6 0.186405 0.791424 0.942517
Si Si7 0.357284 0.092481 0.644481
Si Si8 0.679833 0.861356 0.929390
O O1 0.049525 0.752555 0.593297
O O2 0.835632 0.890117 0.398320
O O3 0.712409 0.038977 0.507257
O O4 0.279543 0.975630 0.252571
O O5 0.199685 0.470862 0.080535
O O6 0.568450 0.312102 0.156674
O O7 0.879964 0.735607 0.863318
O O8 0.360038 0.514070 0.749466
O O9 0.859491 0.448981 0.502460
O O10 0.607781 0.632416 0.324947
O O11 0.744842 0.758692 0.351292
O O12 0.163172 0.643478 0.135768
O O13 0.601188 0.211669 0.872791
O O14 0.867676 0.854221 0.967450
O O15 0.292064 0.934778 0.839947
#
# Coordination Sequence:
#
# PCOD9100256 Si02
#       8
#     2   1   2   2   2   2   2   2
#     4  10  22  37  61  96 122 156 208 256 301 364
#     4  12  22  36  62  96 128 146 208 264 304 354
#     4  12  22  38  64  92 125 156 201 266 305 351
#     4  10  20  38  64  86 122 169 206 241 303 372
#     4  10  22  38  63  91 120 166 209 245 296 373
#     4  10  21  40  63  95 122 161 203 256 300 373
#     4  10  20  37  63  90 126 162 200 251 313 361
#     4  10  21  38  62  90 121 162 205 245 307 358
#
# _framework density 30.243448999999998
#
# number of rings (size 3 to 8) (size 9 to 14) (size 15 to 20)
#    0.000    1.600    4.000    2.000    0.000    1.067 
#    0.000    0.667    8.800   11.200    0.000    0.000 
#    0.000    0.000    0.000    0.000    0.000    0.000 
#
# Total GULP energy -83987.984338 kJ/mol
# GULP energy per Si atom -5599.198956 kJ/mol
# Density = 3.017461 g / cm^3
# Si number density = 30.243449 Si / 1000 Ang^3
#
#
#
# Elastic Constant Matrix: (Units=GPa)
#
#
# Indices 1 2 3 4 5 6 
#
# 1 110.0474 15.3676 58.3076 -12.5211 -13.4521 17.4543
# 2 15.3676 149.9418 55.3185 -10.1685 5.0293 35.2163
# 3 58.3076 55.3185 270.3326 -49.8530 -13.5996 0.1906
# 4 -12.5211 -10.1685 -49.8530 63.7796 3.8633 4.9702
# 5 -13.4521 5.0293 -13.5996 3.8633 47.6171 -16.0452
# 6 17.4543 35.2163 0.1906 4.9702 -16.0452 47.4446
#
#
#
# Elastic Compliance Matrix: (Units=1/GPa)
#
#
# Indices 1 2 3 4 5 6 
#
# 1 0.011135 0.000823 -0.002388 0.000754 0.000797 -0.004507
# 2 0.000823 0.009798 -0.002228 0.000982 -0.004630 -0.009235
# 3 -0.002388 -0.002228 0.005311 0.003002 0.001776 0.002797
# 4 0.000754 0.000982 0.003002 0.018715 -0.001756 -0.003573
# 5 0.000797 -0.004630 0.001776 -0.001756 0.026504 0.012284
# 6 -0.004507 -0.009235 0.002797 -0.003573 0.012284 0.034107
#
#
# Mechanical properties :
#
#
# Convention : Reuss Voigt Hill
#
# Bulk Modulus (GPa) = 53.59532 87.58991 70.59261
# Shear Modulus (GPa) = 41.88486 58.52348 50.20417
#
# Velocity S-wave (km/s) = 3.72549 4.40373 4.07873
# Velocity P-wave (km/s) = 6.02208 7.40821 6.75082
#
# Compressibility (1/GPa) = 0.01865835
#
# Stress axis : x y z
#
# Youngs Moduli (GPa) = 89.80448 102.06518 188.28969
#
# Poissons Ratio (x) = -0.08396 0.44960
# Poissons Ratio (y) = -0.07387 0.41943
# Poissons Ratio (z) = 0.21444 0.22736
#
# Static dielectric constant tensor:
#      x y z
#    x 2.340710 -0.092720 0.010640 
#    y -0.092720 1.644010 -0.307160 
#    z 0.010640 -0.307160 2.180130 
# 
# From -- ./inp_files/502579.got.cif
#   From: 2010.05.17/outbox.cif.g08.bks.cpg/sg2_252_cif.got.tgz:502579.got - 2010.06.03 11:33:40.
