data_PCOD9100884
_publ_section_title
;
Structure prediction by ZEFSAII (Michael W. Deem and Ramdas Pophale) SiO2 
 PCOD9100884
Probable space group: P -1
;
_chemical_formula_sum "Si O2"
_cell_formula_units_Z 16
_cell_length_a 17.386888
_cell_length_b 8.096897
_cell_length_c 14.792395
_cell_angle_alpha 126.121783
_cell_angle_beta 155.421992
_cell_angle_gamma 66.035753
_cell_volume 645.226261
_symmetry_space_group_name_H-M "P -1"
_symmetry_group_IT_number 2
_symmetry_cell_setting 'triclinic'
loop_
_space_group_symop_operation_xyz
x,y,z
-x,-y,-z
loop_
_atom_site_type_symbol
_atom_site_label
_atom_site_fract_x
_atom_site_fract_y
_atom_site_fract_z
Si Si1 0.861788 0.459936 0.597086
Si Si2 0.890290 0.774360 0.496642
Si Si3 0.520129 0.904782 0.893652
Si Si4 0.121863 0.215855 0.793797
Si Si5 0.282380 0.717485 0.923451
Si Si6 0.923986 0.218191 0.916797
Si Si7 0.327894 0.228277 0.567491
Si Si8 0.265258 0.442229 0.216485
O O1 0.700544 0.269809 0.424979
O O2 0.007568 0.662992 0.876540
O O3 0.719489 0.552240 0.420652
O O4 0.997129 0.346288 0.657365
O O5 0.774637 0.529089 0.255750
O O6 0.759549 0.848047 0.450415
O O7 0.083847 0.759306 0.749307
O O8 0.973606 0.961917 0.570154
O O9 0.675126 0.783607 0.029996
O O10 0.500000 0.000000 0.000000
O O11 0.615678 0.100017 0.986598
O O12 0.188746 0.324124 0.000070
O O13 0.443856 0.744359 0.182067
O O14 0.123069 0.282920 0.089326
O O15 0.784773 0.337639 0.764185
O O16 0.798736 0.958187 0.698181
O O17 0.500000 0.500000 0.500000
#
# Coordination Sequence:
#
# PCOD9100884 Si02
#       8
#     2   2   2   2   2   2   2   2
#     4  11  25  42  60  95 140 172 212 264 324 384
#     4  10  21  42  64  94 125 164 223 272 321 381
#     4  11  24  43  68  96 126 168 218 273 330 385
#     4  10  22  41  66  93 127 170 214 267 323 387
#     4  10  24  41  67  94 125 169 223 269 323 387
#     4  10  23  38  63  97 130 170 216 262 318 384
#     4  12  23  40  66  93 131 176 215 263 317 386
#     4  10  20  37  66  96 126 165 213 268 321 376
#
# _framework density 24.797502999999999
#
# number of rings (size 3 to 8) (size 9 to 14) (size 15 to 20)
#    0.000    1.500    1.250    3.000    7.000    2.500 
#    0.000    1.250    0.000    6.000    0.000    0.000 
#    0.000    0.000    0.000    0.000    0.000    0.000 
#
# Total GULP energy -89639.254603 kJ/mol
# GULP energy per Si atom -5602.453413 kJ/mol
# Density = 2.474106 g / cm^3
# Si number density = 24.797503 Si / 1000 Ang^3
#
#
#
# Elastic Constant Matrix: (Units=GPa)
#
#
# Indices 1 2 3 4 5 6 
#
# 1 49.8108 12.9591 5.5155 -1.5011 8.2294 -18.6185
# 2 12.9591 142.2335 59.8781 -11.9325 9.9476 -9.6714
# 3 5.5155 59.8781 127.8543 -9.3222 12.6192 -13.8569
# 4 -1.5011 -11.9325 -9.3222 44.5752 -8.8436 0.4818
# 5 8.2294 9.9476 12.6192 -8.8436 31.1470 -1.8830
# 6 -18.6185 -9.6714 -13.8569 0.4818 -1.8830 35.6475
#
#
#
# Elastic Compliance Matrix: (Units=1/GPa)
#
#
# Indices 1 2 3 4 5 6 
#
# 1 0.026543 -0.001843 0.001800 -0.000663 -0.006512 0.013728
# 2 -0.001843 0.009030 -0.004021 0.001443 -0.000365 -0.000114
# 3 0.001800 -0.004021 0.010365 0.000512 -0.003021 0.003712
# 4 -0.000663 0.001443 0.000512 0.024169 0.006384 0.000255
# 5 -0.006512 -0.000365 -0.003021 0.006384 0.036809 -0.002817
# 6 0.013728 -0.000114 0.003712 0.000255 -0.002817 0.036482
#
#
# Mechanical properties :
#
#
# Convention : Reuss Voigt Hill
#
# Bulk Modulus (GPa) = 26.44707 52.95601 39.70154
# Shear Modulus (GPa) = 30.46375 38.37700 34.42037
#
# Velocity S-wave (km/s) = 3.50880 3.93824 3.72971
# Velocity P-wave (km/s) = 5.20614 6.48702 5.88155
#
# Compressibility (1/GPa) = 0.03781138
#
# Stress axis : x y z
#
# Youngs Moduli (GPa) = 37.67406 110.74075 96.48256
#
# Poissons Ratio (x) = 0.20410 -0.17371
# Poissons Ratio (y) = 0.06944 0.38793
# Poissons Ratio (z) = -0.06783 0.44525
#
# Static dielectric constant tensor:
#      x y z
#    x 1.940020 0.054010 -0.012210 
#    y 0.054010 1.988570 -0.002730 
#    z -0.012210 -0.002730 1.960740 
# 
# From -- ./inp_files/577456.got.cif
#   From: 2010.05.17/outbox.cif.g08.bks.cpg/sg2_289_cif.got.tgz:577456.got - 2010.06.03 11:33:40.
