data_PCOD9100707
_publ_section_title
;
Structure prediction by ZEFSAII (Michael W. Deem and Ramdas Pophale) SiO2 
 PCOD9100707
Probable space group: P -1
;
_chemical_formula_sum "Si O2"
_cell_formula_units_Z 14
_cell_length_a 8.405843
_cell_length_b 15.622435
_cell_length_c 10.039477
_cell_angle_alpha 136.446514
_cell_angle_beta 69.349588
_cell_angle_gamma 83.667475
_cell_volume 699.915293
_symmetry_space_group_name_H-M "P -1"
_symmetry_group_IT_number 2
_symmetry_cell_setting 'triclinic'
loop_
_space_group_symop_operation_xyz
x,y,z
-x,-y,-z
loop_
_atom_site_type_symbol
_atom_site_label
_atom_site_fract_x
_atom_site_fract_y
_atom_site_fract_z
Si Si1 0.885739 0.140262 0.794752
Si Si2 0.481693 0.891955 0.484777
Si Si3 0.444310 0.313889 0.005933
Si Si4 0.118991 0.320377 0.287647
Si Si5 0.938127 0.689841 0.167947
Si Si6 0.042625 0.078040 0.957503
Si Si7 0.942562 0.425235 0.722269
O O1 0.649224 0.266365 0.969715
O O2 0.010975 0.215852 0.832109
O O3 0.911134 0.088792 0.880914
O O4 0.000000 0.000000 0.500000
O O5 0.475507 0.779153 0.259052
O O6 0.695789 0.792831 0.388972
O O7 0.500000 0.000000 0.500000
O O8 0.282284 0.975361 0.728167
O O9 0.325022 0.261025 0.073489
O O10 0.269999 0.483011 0.196734
O O11 0.000000 0.500000 0.500000
O O12 0.121067 0.313368 0.439974
O O13 0.009778 0.237925 0.181671
O O14 0.062394 0.649077 0.223274
O O15 0.978678 0.549002 0.911103
O O16 0.000000 0.000000 0.000000
#
# Coordination Sequence:
#
# PCOD9100707 Si02
#       7
#     2   2   2   2   2   2   2
#     4  12  23  38  62  95 128 165 213 268 326 379
#     4  11  18  40  64  89 123 178 215 258 323 395
#     4  10  20  37  65  92 122 172 218 259 324 389
#     4  10  21  42  65  86 132 178 215 259 332 392
#     4  10  21  39  67  90 123 169 226 260 317 394
#     4  12  26  41  63 101 136 165 219 282 325 374
#     4   9  21  40  63  93 121 170 220 269 311 396
#
# _framework density 20.002420999999998
#
# number of rings (size 3 to 8) (size 9 to 14) (size 15 to 20)
#    0.000    1.429    4.286    1.714    2.000    1.714 
#    0.000   15.000    0.000    0.000    0.000    0.000 
#    0.000    0.000    0.000    0.000    0.000    0.000 
#
# Total GULP energy -78021.836495 kJ/mol
# GULP energy per Si atom -5572.988321 kJ/mol
# Density = 1.995689 g / cm^3
# Si number density = 20.002421 Si / 1000 Ang^3
#
#
#
# Elastic Constant Matrix: (Units=GPa)
#
#
# Indices 1 2 3 4 5 6 
#
# 1 81.2893 30.3783 22.4919 -6.8821 -12.8689 -20.4386
# 2 30.3783 94.6740 34.0094 -24.4809 -0.0004 -13.4475
# 3 22.4919 34.0094 89.4734 -14.8565 3.6453 -1.0619
# 4 -6.8821 -24.4809 -14.8565 27.3168 1.3160 5.2236
# 5 -12.8689 -0.0004 3.6453 1.3160 25.0722 0.6875
# 6 -20.4386 -13.4475 -1.0619 5.2236 0.6875 38.7147
#
#
#
# Elastic Compliance Matrix: (Units=1/GPa)
#
#
# Indices 1 2 3 4 5 6 
#
# 1 0.018327 -0.004144 -0.003883 -0.003292 0.009914 0.008397
# 2 -0.004144 0.016271 -0.003098 0.011611 -0.002337 0.001854
# 3 -0.003883 -0.003098 0.014267 0.004842 -0.004231 -0.003313
# 4 -0.003292 0.011611 0.004842 0.049859 -0.004895 -0.004212
# 5 0.009914 -0.002337 -0.004231 -0.004895 0.045731 0.004154
# 6 0.008397 0.001854 -0.003313 -0.004212 0.004154 0.031311
#
#
# Mechanical properties :
#
#
# Convention : Reuss Voigt Hill
#
# Bulk Modulus (GPa) = 37.57196 48.79956 43.18576
# Shear Modulus (GPa) = 24.16785 30.12453 27.14619
#
# Velocity S-wave (km/s) = 3.47975 3.88499 3.68794
# Velocity P-wave (km/s) = 5.91349 6.67637 6.30648
#
# Compressibility (1/GPa) = 0.02661559
#
# Stress axis : x y z
#
# Youngs Moduli (GPa) = 54.56470 61.45987 70.09169
#
# Poissons Ratio (x) = 0.25471 0.27214
# Poissons Ratio (y) = 0.22613 0.21712
# Poissons Ratio (z) = 0.21185 0.19039
#
# Static dielectric constant tensor:
#      x y z
#    x 1.721750 -0.020990 -0.011820 
#    y -0.020990 1.773650 0.026610 
#    z -0.011820 0.026610 1.763060 
# 
# From -- ./inp_files/208879.got.cif
#   From: 2010.05.17/outbox.cif.g08.bks.cpg/sg2_105_cif.got.tgz:208879.got - 2010.06.03 11:33:40.
