data_PCOD9100786
_publ_section_title
;
Structure prediction by ZEFSAII (Michael W. Deem and Ramdas Pophale) SiO2 
 PCOD9100786
Probable space group: P -1
;
_chemical_formula_sum "Si O2"
_cell_formula_units_Z 16
_cell_length_a 13.878050
_cell_length_b 10.968426
_cell_length_c 15.948523
_cell_angle_alpha 121.312197
_cell_angle_beta 142.686667
_cell_angle_gamma 33.027905
_cell_volume 718.195978
_symmetry_space_group_name_H-M "P -1"
_symmetry_group_IT_number 2
_symmetry_cell_setting 'triclinic'
loop_
_space_group_symop_operation_xyz
x,y,z
-x,-y,-z
loop_
_atom_site_type_symbol
_atom_site_label
_atom_site_fract_x
_atom_site_fract_y
_atom_site_fract_z
Si Si1 0.232535 0.230445 0.023771
Si Si2 0.731960 0.118095 0.321332
Si Si3 0.151148 0.250427 0.476356
Si Si4 0.369667 0.808321 0.541830
Si Si5 0.626022 0.565390 0.121749
Si Si6 0.335768 0.011675 0.184288
Si Si7 0.704201 0.563096 0.984594
Si Si8 0.080717 0.714537 0.299892
O O1 0.321350 0.265831 0.020059
O O2 0.087529 0.202997 0.869322
O O3 0.000000 0.500000 0.000000
O O4 0.400773 0.053205 0.158071
O O5 0.549114 0.243518 0.322632
O O6 0.548660 0.331329 0.200464
O O7 0.000000 0.000000 0.500000
O O8 0.874423 0.873961 0.292503
O O9 0.472152 0.070408 0.636322
O O10 0.000000 0.500000 0.500000
O O11 0.947562 0.349117 0.296564
O O12 0.182589 0.081453 0.490479
O O13 0.209610 0.778170 0.402338
O O14 0.662793 0.581952 0.615719
O O15 0.437126 0.782745 0.139744
O O16 0.632986 0.625661 0.054644
O O17 0.500000 0.500000 0.000000
O O18 0.009948 0.272284 0.074316
#
# Coordination Sequence:
#
# PCOD9100786 Si02
#       8
#     2   2   2   2   2   2   2   2
#     4  10  20  37  65  99 129 164 214 278 342 399
#     4  10  22  37  60  99 129 163 212 273 344 397
#     4  10  23  44  67  94 132 185 226 275 328 395
#     4  10  20  39  64  93 138 169 215 276 341 400
#     4  11  27  44  65  95 131 183 230 272 321 394
#     4  10  22  43  70  95 131 173 223 276 340 392
#     4  11  23  41  68  95 135 173 219 273 333 406
#     4  10  21  35  62 100 130 172 208 271 351 405
#
# _framework density 22.278041999999999
#
# number of rings (size 3 to 8) (size 9 to 14) (size 15 to 20)
#    0.000    1.750    0.000    4.500    5.250    5.000 
#    0.000    2.500    0.000    0.000    0.000    0.000 
#    0.000    0.000    0.000    0.000    0.000    0.000 
#
# Total GULP energy -89087.175385 kJ/mol
# GULP energy per Si atom -5567.948462 kJ/mol
# Density = 2.222734 g / cm^3
# Si number density = 22.278042 Si / 1000 Ang^3
#
#
#
# Elastic Constant Matrix: (Units=GPa)
#
#
# Indices 1 2 3 4 5 6 
#
# 1 47.4123 24.4282 27.8494 -0.4757 0.6602 -10.8627
# 2 24.4282 116.7445 49.1501 -2.9252 8.9901 -10.0528
# 3 27.8494 49.1501 179.1774 -4.7459 1.5380 -11.3720
# 4 -0.4757 -2.9252 -4.7459 39.6325 -1.3730 1.5416
# 5 0.6602 8.9901 1.5380 -1.3730 33.5554 -1.7941
# 6 -10.8627 -10.0528 -11.3720 1.5416 -1.7941 33.5060
#
#
#
# Elastic Compliance Matrix: (Units=1/GPa)
#
#
# Indices 1 2 3 4 5 6 
#
# 1 0.026091 -0.003895 -0.002597 -0.000504 0.000975 0.006484
# 2 -0.003895 0.010606 -0.002208 0.000342 -0.002595 0.001015
# 3 -0.002597 -0.002208 0.006650 0.000587 0.000402 0.000747
# 4 -0.000504 0.000342 0.000587 0.025390 0.000878 -0.000983
# 5 0.000975 -0.002595 0.000402 0.000878 0.030563 0.001270
# 6 0.006484 0.001015 0.000747 -0.000983 0.001270 0.032619
#
#
# Mechanical properties :
#
#
# Convention : Reuss Voigt Hill
#
# Bulk Modulus (GPa) = 38.54148 60.68773 49.61461
# Shear Modulus (GPa) = 31.65180 37.46589 34.55884
#
# Velocity S-wave (km/s) = 3.77339 4.10535 3.94287
# Velocity P-wave (km/s) = 6.02681 7.05493 6.56104
#
# Compressibility (1/GPa) = 0.02594607
#
# Stress axis : x y z
#
# Youngs Moduli (GPa) = 38.32744 94.28329 150.37734
#
# Poissons Ratio (x) = 0.36728 0.39052
# Poissons Ratio (y) = 0.14930 0.33206
# Poissons Ratio (z) = 0.09953 0.20819
#
# Static dielectric constant tensor:
#      x y z
#    x 1.913130 0.009930 0.090460 
#    y 0.009930 1.859420 0.008310 
#    z 0.090460 0.008310 1.977530 
# 
# From -- ./inp_files/532625.got.cif
#   From: 2010.05.17/outbox.cif.g08.bks.cpg/sg2_267_cif.got.tgz:532625.got - 2010.06.03 11:33:40.
