data_PCOD9100984
_publ_section_title
;
Structure prediction by ZEFSAII (Michael W. Deem and Ramdas Pophale) SiO2 
 PCOD9100984
Probable space group: P -1
;
_chemical_formula_sum "Si O2"
_cell_formula_units_Z 14
_cell_length_a 17.420808
_cell_length_b 13.357524
_cell_length_c 11.989199
_cell_angle_alpha 121.725468
_cell_angle_beta 41.279498
_cell_angle_gamma 156.064884
_cell_volume 596.471117
_symmetry_space_group_name_H-M "P -1"
_symmetry_group_IT_number 2
_symmetry_cell_setting 'triclinic'
loop_
_space_group_symop_operation_xyz
x,y,z
-x,-y,-z
loop_
_atom_site_type_symbol
_atom_site_label
_atom_site_fract_x
_atom_site_fract_y
_atom_site_fract_z
Si Si1 0.332540 0.347242 0.211960
Si Si2 0.288511 0.930322 0.948022
Si Si3 0.789377 0.336167 0.304459
Si Si4 0.718795 0.304455 0.887816
Si Si5 0.452509 0.254030 0.636534
Si Si6 0.251934 0.402894 0.921425
Si Si7 0.150267 0.263788 0.704080
O O1 0.367522 0.507571 0.323221
O O2 0.500000 0.500000 0.000000
O O3 0.510304 0.429164 0.152839
O O4 0.992404 0.982497 0.346122
O O5 0.046715 0.644656 0.130405
O O6 0.139514 0.916817 0.076315
O O7 0.302676 0.860098 0.785360
O O8 0.606783 0.229264 0.841894
O O9 0.533171 0.192972 0.519145
O O10 0.951422 0.441815 0.301020
O O11 0.695337 0.407527 0.037552
O O12 0.500000 0.000000 0.000000
O O13 0.595090 0.435854 0.472876
O O14 0.092381 0.937215 0.856280
O O15 0.263241 0.353698 0.759034
#
# Coordination Sequence:
#
# PCOD9100984 Si02
#       7
#     2   2   2   2   2   2   2
#     4  12  26  50  73 100 143 186 238 290 347 418
#     4   9  17  37  64  97 130 182 222 275 345 405
#     4   9  19  37  63  95 140 170 224 285 336 409
#     4  10  20  37  68 100 135 184 230 274 351 416
#     4  11  26  45  69 109 140 184 238 285 347 419
#     4  12  25  47  72 102 142 186 231 295 352 404
#     4  11  23  46  74  98 142 186 232 291 346 412
#
# _framework density 23.47138
#
# number of rings (size 3 to 8) (size 9 to 14) (size 15 to 20)
#    0.000    1.429    4.286    0.857    2.000    1.143 
#    5.143    0.714    0.000    0.000    0.000    0.000 
#    0.000    0.000    0.000    0.000    0.000    0.000 
#
# Total GULP energy -78386.615599 kJ/mol
# GULP energy per Si atom -5599.043971 kJ/mol
# Density = 2.341796 g / cm^3
# Si number density = 23.471380 Si / 1000 Ang^3
#
#
#
# Elastic Constant Matrix: (Units=GPa)
#
#
# Indices 1 2 3 4 5 6 
#
# 1 113.6078 39.5721 46.4540 -12.0989 3.5279 18.1979
# 2 39.5721 127.1929 33.3617 -0.8887 -2.0984 3.5232
# 3 46.4540 33.3617 86.3174 2.9119 2.6265 2.5850
# 4 -12.0989 -0.8887 2.9119 31.9592 -9.6875 -3.5290
# 5 3.5279 -2.0984 2.6265 -9.6875 34.6280 -6.5623
# 6 18.1979 3.5232 2.5850 -3.5290 -6.5623 50.8527
#
#
#
# Elastic Compliance Matrix: (Units=1/GPa)
#
#
# Indices 1 2 3 4 5 6 
#
# 1 0.013410 -0.002369 -0.006339 0.005029 -0.000382 -0.004013
# 2 -0.002369 0.009214 -0.002330 -0.000061 0.001046 0.000459
# 3 -0.006339 -0.002330 0.016063 -0.004328 -0.001718 0.001091
# 4 0.005029 -0.000061 -0.004328 0.037071 0.010632 0.002369
# 5 -0.000382 0.001046 -0.001718 0.010632 0.033063 0.005156
# 6 -0.004013 0.000459 0.001091 0.002369 0.005156 0.021843
#
#
# Mechanical properties :
#
#
# Convention : Reuss Voigt Hill
#
# Bulk Modulus (GPa) = 60.20205 62.87707 61.53956
# Shear Modulus (GPa) = 31.59032 37.33668 34.46350
#
# Velocity S-wave (km/s) = 3.67264 3.99273 3.83602
# Velocity P-wave (km/s) = 6.60978 6.93562 6.77466
#
# Compressibility (1/GPa) = 0.01661073
#
# Stress axis : x y z
#
# Youngs Moduli (GPa) = 74.57288 108.52524 62.25633
#
# Poissons Ratio (x) = 0.25714 0.39463
# Poissons Ratio (y) = 0.17669 0.14504
# Poissons Ratio (z) = 0.47271 0.25284
#
# Static dielectric constant tensor:
#      x y z
#    x 1.877630 -0.021310 -0.004830 
#    y -0.021310 1.872440 -0.008180 
#    z -0.004830 -0.008180 1.872370 
# 
# From -- ./inp_files/535128.got.cif
#   From: 2010.05.17/outbox.cif.g08.bks.cpg/sg2_268_cif.got.tgz:535128.got - 2010.06.03 11:33:40.
