data_PCOD9100061
_publ_section_title
;
Structure prediction by ZEFSAII (Michael W. Deem and Ramdas Pophale) SiO2 
 PCOD9100061
Probable space group: P -1
;
_chemical_formula_sum "Si O2"
_cell_formula_units_Z 14
_cell_length_a 11.145957
_cell_length_b 11.505614
_cell_length_c 8.466740
_cell_angle_alpha 88.219377
_cell_angle_beta 108.578261
_cell_angle_gamma 138.538731
_cell_volume 643.056355
_symmetry_space_group_name_H-M "P -1"
_symmetry_group_IT_number 2
_symmetry_cell_setting 'triclinic'
loop_
_space_group_symop_operation_xyz
x,y,z
-x,-y,-z
loop_
_atom_site_type_symbol
_atom_site_label
_atom_site_fract_x
_atom_site_fract_y
_atom_site_fract_z
Si Si1 0.493695 0.409168 0.353555
Si Si2 0.168119 0.464416 0.687571
Si Si3 0.804858 0.425825 0.849140
Si Si4 0.775800 0.984981 0.850840
Si Si5 0.262656 0.817674 0.385080
Si Si6 0.457432 0.832970 0.964442
Si Si7 0.210337 0.348514 0.032699
O O1 0.500000 0.500000 0.500000
O O2 0.710390 0.510080 0.400816
O O3 0.340246 0.189001 0.303743
O O4 0.406053 0.419531 0.167280
O O5 0.275134 0.663738 0.774406
O O6 0.926361 0.295008 0.573268
O O7 0.215681 0.419544 0.865542
O O8 0.769023 0.337206 0.674911
O O9 0.832096 0.581869 0.858004
O O10 0.615487 0.264253 0.891912
O O11 0.000000 0.500000 0.000000
O O12 0.649813 0.906423 0.963978
O O13 0.772709 0.112981 0.771253
O O14 0.011527 0.127359 0.957292
O O15 0.500000 0.000000 0.500000
O O16 0.500000 0.000000 0.000000
#
# Coordination Sequence:
#
# PCOD9100061 Si02
#       7
#     2   2   2   2   2   2   2
#     4  11  24  41  59  87 123 156 203 254 296 337
#     4   9  21  40  62  85 118 165 200 238 294 363
#     4  11  18  36  62  88 116 154 197 246 291 365
#     4  10  21  38  59  88 118 156 197 245 293 357
#     4  11  22  38  60  88 125 154 194 243 307 357
#     4  10  16  31  59  89 114 144 192 244 287 347
#     4  10  20  39  66  84 117 161 202 238 294 362
#
# _framework density 21.771032999999999
#
# number of rings (size 3 to 8) (size 9 to 14) (size 15 to 20)
#    0.000    1.714    5.714    0.857    2.000    0.000 
#    2.571    5.714    0.000    0.000    0.000    0.000 
#    0.000    0.000    0.000    0.000    0.000    0.000 
#
# Total GULP energy -78077.712769 kJ/mol
# GULP energy per Si atom -5576.979484 kJ/mol
# Density = 2.172148 g / cm^3
# Si number density = 21.771033 Si / 1000 Ang^3
#
#
#
# Elastic Constant Matrix: (Units=GPa)
#
#
# Indices 1 2 3 4 5 6 
#
# 1 118.6446 52.5201 48.7355 24.1733 -21.8399 10.6038
# 2 52.5201 100.3310 28.0732 26.8643 -7.7233 3.1882
# 3 48.7355 28.0732 55.6717 15.0822 2.3375 8.8325
# 4 24.1733 26.8643 15.0822 34.4409 -6.0049 8.1893
# 5 -21.8399 -7.7233 2.3375 -6.0049 38.9144 2.5238
# 6 10.6038 3.1882 8.8325 8.1893 2.5238 44.2074
#
#
#
# Elastic Compliance Matrix: (Units=1/GPa)
#
#
# Indices 1 2 3 4 5 6 
#
# 1 0.018269 -0.004659 -0.013492 -0.001114 0.010078 -0.001719
# 2 -0.004659 0.014911 -0.001440 -0.008361 -0.000985 0.001935
# 3 -0.013492 -0.001440 0.032585 -0.005121 -0.010500 -0.001622
# 4 -0.001114 -0.008361 -0.005121 0.040813 0.004706 -0.005936
# 5 0.010078 -0.000985 -0.010500 0.004706 0.032709 -0.002988
# 6 -0.001719 0.001935 -0.001622 -0.005936 -0.002988 0.024488
#
#
# Mechanical properties :
#
#
# Convention : Reuss Voigt Hill
#
# Bulk Modulus (GPa) = 37.62024 59.25611 48.43818
# Shear Modulus (GPa) = 23.60505 33.20046 28.40276
#
# Velocity S-wave (km/s) = 3.29635 3.90934 3.61586
# Velocity P-wave (km/s) = 5.63963 6.90320 6.30316
#
# Compressibility (1/GPa) = 0.02658144
#
# Stress axis : x y z
#
# Youngs Moduli (GPa) = 54.73759 67.06647 30.68860
#
# Poissons Ratio (x) = 0.31249 0.41405
# Poissons Ratio (y) = 0.25505 0.04421
# Poissons Ratio (z) = 0.73851 0.09661
#
# Static dielectric constant tensor:
#      x y z
#    x 1.813840 0.010310 0.034210 
#    y 0.010310 1.833270 0.013350 
#    z 0.034210 0.013350 1.876500 
# 
# From -- ./inp_files/241324.got.cif
#   From: 2010.05.17/outbox.cif.g08.bks.cpg/sg2_121_cif.got.tgz:241324.got - 2010.06.03 11:33:40.
