data_PCOD9100066
_publ_section_title
;
Structure prediction by ZEFSAII (Michael W. Deem and Ramdas Pophale) SiO2 
 PCOD9100066
Probable space group: P -1
;
_chemical_formula_sum "Si O2"
_cell_formula_units_Z 14
_cell_length_a 13.997511
_cell_length_b 21.232977
_cell_length_c 6.206187
_cell_angle_alpha 107.249491
_cell_angle_beta 65.927365
_cell_angle_gamma 159.369549
_cell_volume 572.187516
_symmetry_space_group_name_H-M "P -1"
_symmetry_group_IT_number 2
_symmetry_cell_setting 'triclinic'
loop_
_space_group_symop_operation_xyz
x,y,z
-x,-y,-z
loop_
_atom_site_type_symbol
_atom_site_label
_atom_site_fract_x
_atom_site_fract_y
_atom_site_fract_z
Si Si1 0.461383 0.054565 0.034090
Si Si2 0.029427 0.657586 0.469847
Si Si3 0.962884 0.743958 0.851544
Si Si4 0.458666 0.779868 0.562615
Si Si5 0.601810 0.610497 0.706171
Si Si6 0.475529 0.307046 0.356057
Si Si7 0.188073 0.571298 0.200389
O O1 0.740344 0.232491 0.805056
O O2 0.450275 0.097883 0.289863
O O3 0.173253 0.895929 0.995036
O O4 0.500000 0.000000 0.000000
O O5 0.131164 0.785645 0.611552
O O6 0.723638 0.489341 0.456328
O O7 0.950616 0.564240 0.646140
O O8 0.842733 0.723022 0.761156
O O9 0.684127 0.548859 0.038235
O O10 0.633155 0.818399 0.526707
O O11 0.419344 0.749368 0.311654
O O12 0.110938 0.568426 0.739086
O O13 0.500000 0.500000 0.500000
O O14 0.700455 0.736693 0.632074
O O15 0.636860 0.363715 0.073610
#
# Coordination Sequence:
#
# PCOD9100066 Si02
#       7
#     2   2   2   2   2   2   2
#     4  12  25  42  61  95 139 165 200 261 323 385
#     4  11  21  38  65  96 126 163 203 257 323 376
#     4  11  24  40  63  96 126 168 209 257 320 369
#     4  10  23  35  60  93 127 168 205 252 315 375
#     4  11  23  43  68  90 121 164 225 264 299 368
#     4  11  20  39  64  92 125 160 213 265 305 361
#     4  10  20  37  62  92 128 163 207 255 309 375
#
# _framework density 24.467503000000001
#
# number of rings (size 3 to 8) (size 9 to 14) (size 15 to 20)
#    0.000    1.143    4.286    2.571    4.000    0.000 
#    0.000    0.714    0.000    1.714    0.000    0.000 
#    0.000    0.000    0.000    0.000    0.000    0.000 
#
# Total GULP energy -78282.723760 kJ/mol
# GULP energy per Si atom -5591.623126 kJ/mol
# Density = 2.441181 g / cm^3
# Si number density = 24.467503 Si / 1000 Ang^3
#
#
#
# Elastic Constant Matrix: (Units=GPa)
#
#
# Indices 1 2 3 4 5 6 
#
# 1 174.8492 38.7255 27.5115 29.8016 19.9765 -4.1891
# 2 38.7255 93.1027 22.2957 27.2040 9.3933 1.9369
# 3 27.5115 22.2957 92.6438 31.8338 -5.7389 -4.6556
# 4 29.8016 27.2040 31.8338 50.8721 -6.2461 0.9735
# 5 19.9765 9.3933 -5.7389 -6.2461 40.7522 6.8780
# 6 -4.1891 1.9369 -4.6556 0.9735 6.8780 23.7705
#
#
#
# Elastic Compliance Matrix: (Units=1/GPa)
#
#
# Indices 1 2 3 4 5 6 
#
# 1 0.007340 -0.001419 -0.000707 -0.003689 -0.004390 0.002692
# 2 -0.001419 0.013784 -0.000935 -0.006385 -0.003547 -0.000269
# 3 -0.000707 -0.000935 0.014129 -0.007873 0.000875 0.002788
# 4 -0.003689 -0.006385 -0.007873 0.031221 0.007837 -0.005218
# 5 -0.004390 -0.003547 0.000875 0.007837 0.030425 -0.009438
# 6 0.002692 -0.000269 0.002788 -0.005218 -0.009438 0.046056
#
#
# Mechanical properties :
#
#
# Convention : Reuss Voigt Hill
#
# Bulk Modulus (GPa) = 34.32893 59.74011 47.03452
# Shear Modulus (GPa) = 31.48880 41.21648 36.35264
#
# Velocity S-wave (km/s) = 3.59132 4.10877 3.85873
# Velocity P-wave (km/s) = 5.59085 6.85408 6.25444
#
# Compressibility (1/GPa) = 0.02912995
#
# Stress axis : x y z
#
# Youngs Moduli (GPa) = 136.24890 72.54807 70.77859
#
# Poissons Ratio (x) = 0.10292 0.05006
# Poissons Ratio (y) = 0.19329 0.06619
# Poissons Ratio (z) = 0.09636 0.06784
#
# Static dielectric constant tensor:
#      x y z
#    x 2.028010 -0.023380 0.008580 
#    y -0.023380 1.973340 0.004320 
#    z 0.008580 0.004320 1.919040 
# 
# From -- ./inp_files/96586.got.cif
#   From: 2010.05.17/outbox.cif.g08.bks.cpg/sg2_49_cif.got.tgz:96586.got - 2010.06.03 11:33:40.
