data_PCOD9100237
_publ_section_title
;
Structure prediction by ZEFSAII (Michael W. Deem and Ramdas Pophale) SiO2 
 PCOD9100237
Probable space group: P -1
;
_chemical_formula_sum "Si O2"
_cell_formula_units_Z 16
_cell_length_a 11.047845
_cell_length_b 12.298224
_cell_length_c 9.156743
_cell_angle_alpha 99.773778
_cell_angle_beta 68.671286
_cell_angle_gamma 142.867570
_cell_volume 683.410707
_symmetry_space_group_name_H-M "P -1"
_symmetry_group_IT_number 2
_symmetry_cell_setting 'triclinic'
loop_
_space_group_symop_operation_xyz
x,y,z
-x,-y,-z
loop_
_atom_site_type_symbol
_atom_site_label
_atom_site_fract_x
_atom_site_fract_y
_atom_site_fract_z
Si Si1 0.794512 0.507169 0.097298
Si Si2 0.558717 0.662600 0.545429
Si Si3 0.102426 0.144453 0.332481
Si Si4 0.657699 0.910086 0.338665
Si Si5 0.333635 0.494521 0.147383
Si Si6 0.266368 0.781734 0.069803
Si Si7 0.788483 0.901281 0.995514
Si Si8 0.766222 0.334301 0.633613
O O1 0.619804 0.412951 0.279584
O O2 0.044258 0.682974 0.081066
O O3 0.769571 0.571220 0.984508
O O4 0.734856 0.342873 0.028012
O O5 0.500000 0.500000 0.500000
O O6 0.799752 0.821994 0.546357
O O7 0.566023 0.734438 0.408508
O O8 0.269839 0.351112 0.245214
O O9 0.145026 0.063311 0.194911
O O10 0.879844 0.060356 0.369950
O O11 0.720034 0.952958 0.148002
O O12 0.438311 0.833231 0.419848
O O13 0.588847 0.682502 0.053810
O O14 0.266379 0.565021 0.265007
O O15 0.232566 0.746498 0.249260
O O16 0.500000 0.000000 0.000000
O O17 0.000000 0.000000 0.000000
O O18 0.000000 0.500000 0.500000
#
# Coordination Sequence:
#
# PCOD9100237 Si02
#       8
#     2   2   2   2   2   2   2   2
#     4  10  23  43  67  95 136 171 221 283 329 402
#     4  12  24  41  62  94 138 180 211 262 336 396
#     4  11  22  38  61  92 131 164 214 260 319 398
#     4  10  23  39  60  94 128 164 214 265 324 399
#     4  10  20  37  63  89 123 169 210 259 326 390
#     4  10  23  45  71  99 126 172 234 289 340 389
#     4   9  18  35  59  86 119 162 204 252 305 383
#     4  10  21  42  66  89 126 166 214 273 338 399
#
# _framework density 23.411984
#
# number of rings (size 3 to 8) (size 9 to 14) (size 15 to 20)
#    0.000    1.750    1.250    3.000    3.500    0.000 
#    6.750    0.625    0.000    0.000    0.000    0.000 
#    0.000    0.000    0.000    0.000    0.000    0.000 
#
# Total GULP energy -89169.564252 kJ/mol
# GULP energy per Si atom -5573.097766 kJ/mol
# Density = 2.335870 g / cm^3
# Si number density = 23.411984 Si / 1000 Ang^3
#
#
#
# Elastic Constant Matrix: (Units=GPa)
#
#
# Indices 1 2 3 4 5 6 
#
# 1 79.3637 46.2495 28.0406 1.4962 10.3570 38.3307
# 2 46.2495 132.8852 34.0828 -14.1585 -3.1664 54.1943
# 3 28.0406 34.0828 79.7415 -8.8585 -0.5176 23.7823
# 4 1.4962 -14.1585 -8.8585 35.5109 14.1964 -4.4268
# 5 10.3570 -3.1664 -0.5176 14.1964 39.8944 -2.1678
# 6 38.3307 54.1943 23.7823 -4.4268 -2.1678 48.5674
#
#
#
# Elastic Compliance Matrix: (Units=1/GPa)
#
#
# Indices 1 2 3 4 5 6 
#
# 1 0.022729 -0.001036 -0.003084 -0.001571 -0.006317 -0.015698
# 2 -0.001036 0.014481 -0.001056 0.004081 -0.000835 -0.014489
# 3 -0.003084 -0.001056 0.015551 0.003309 -0.000461 -0.003722
# 4 -0.001571 0.004081 0.003309 0.035135 -0.011851 -0.002261
# 5 -0.006317 -0.000835 -0.000461 -0.011851 0.031202 0.006456
# 6 -0.015698 -0.014489 -0.003722 -0.002261 0.006456 0.051052
#
#
# Mechanical properties :
#
#
# Convention : Reuss Voigt Hill
#
# Bulk Modulus (GPa) = 23.57927 56.52626 40.05277
# Shear Modulus (GPa) = 25.68905 37.03571 31.36238
#
# Velocity S-wave (km/s) = 3.31609 3.98164 3.66401
# Velocity P-wave (km/s) = 4.97546 6.73309 5.91987
#
# Compressibility (1/GPa) = 0.04241013
#
# Stress axis : x y z
#
# Youngs Moduli (GPa) = 43.99696 69.05788 64.30558
#
# Poissons Ratio (x) = 0.07152 0.19830
# Poissons Ratio (y) = 0.04556 0.06789
# Poissons Ratio (z) = 0.13567 0.07291
#
# Static dielectric constant tensor:
#      x y z
#    x 1.868060 0.015750 -0.071330 
#    y 0.015750 2.094110 -0.301710 
#    z -0.071330 -0.301710 2.724500 
# 
# From -- ./inp_files/273361.got.cif
#   From: 2010.05.17/outbox.cif.g08.bks.cpg/sg2_137_cif.got.tgz:273361.got - 2010.06.03 11:33:40.
