data_PCOD9100693
_publ_section_title
;
Structure prediction by ZEFSAII (Michael W. Deem and Ramdas Pophale) SiO2 
 PCOD9100693
Probable space group: P -1
;
_chemical_formula_sum "Si O2"
_cell_formula_units_Z 16
_cell_length_a 8.501073
_cell_length_b 14.978650
_cell_length_c 7.920284
_cell_angle_alpha 89.744938
_cell_angle_beta 61.321464
_cell_angle_gamma 56.857294
_cell_volume 693.692658
_symmetry_space_group_name_H-M "P -1"
_symmetry_group_IT_number 2
_symmetry_cell_setting 'triclinic'
loop_
_space_group_symop_operation_xyz
x,y,z
-x,-y,-z
loop_
_atom_site_type_symbol
_atom_site_label
_atom_site_fract_x
_atom_site_fract_y
_atom_site_fract_z
Si Si1 0.491812 0.575251 0.149555
Si Si2 0.004272 0.244053 0.670505
Si Si3 0.191403 0.374855 0.978802
Si Si4 0.837288 0.347058 0.138593
Si Si5 0.698253 0.053006 0.987770
Si Si6 0.197150 0.837099 0.827568
Si Si7 0.415487 0.198335 0.574224
Si Si8 0.632157 0.986273 0.672873
O O1 0.636795 0.615439 0.008581
O O2 0.635945 0.481508 0.222155
O O3 0.227211 0.676580 0.317083
O O4 0.500000 0.500000 0.000000
O O5 0.203069 0.257720 0.554084
O O6 0.141108 0.114000 0.542574
O O7 0.928068 0.285189 0.905309
O O8 0.346002 0.290724 0.748453
O O9 0.000000 0.500000 0.000000
O O10 0.050568 0.332102 0.116400
O O11 0.751508 0.279797 0.250541
O O12 0.686701 0.038253 0.795235
O O13 0.929306 0.936150 0.940663
O O14 0.721656 0.148698 0.033091
O O15 0.489236 0.062313 0.178610
O O16 0.344101 0.853426 0.629233
O O17 0.451209 0.091787 0.645585
#
# Coordination Sequence:
#
# PCOD9100693 Si02
#       8
#     2   2   2   2   2   2   2   2
#     4   9  19  37  63  95 121 156 208 260 311 375
#     4  10  20  37  65  91 124 164 213 262 308 374
#     4   9  19  39  64  89 118 163 208 253 306 371
#     4   9  20  39  64  88 126 167 209 255 317 368
#     4  10  24  40  60  88 133 164 211 260 321 366
#     4  11  23  41  61  93 129 168 206 260 314 377
#     4  11  23  38  66  93 127 168 215 251 315 375
#     4  11  23  41  62  92 126 170 212 264 311 378
#
# _framework density 23.064969999999999
#
# number of rings (size 3 to 8) (size 9 to 14) (size 15 to 20)
#    0.000    2.000    1.250    2.625    5.250    2.500 
#    0.000    3.125    5.500    0.000    0.000    0.000 
#    0.000    0.000    0.000    0.000    0.000    0.000 
#
# Total GULP energy -89240.509376 kJ/mol
# GULP energy per Si atom -5577.531836 kJ/mol
# Density = 2.301247 g / cm^3
# Si number density = 23.064970 Si / 1000 Ang^3
#
#
#
# Elastic Constant Matrix: (Units=GPa)
#
#
# Indices 1 2 3 4 5 6 
#
# 1 158.0876 41.8932 16.8085 5.2676 -5.7689 17.5667
# 2 41.8932 84.3661 17.8810 22.6054 -6.2001 0.2255
# 3 16.8085 17.8810 56.4727 22.5722 -3.2590 -11.5984
# 4 5.2676 22.6054 22.5722 31.7790 -0.2294 -11.3100
# 5 -5.7689 -6.2001 -3.2590 -0.2294 19.9500 10.7061
# 6 17.5667 0.2255 -11.5984 -11.3100 10.7061 36.6265
#
#
#
# Elastic Compliance Matrix: (Units=1/GPa)
#
#
# Indices 1 2 3 4 5 6 
#
# 1 0.008276 -0.003531 -0.002712 0.001102 0.003869 -0.005597
# 2 -0.003531 0.017769 0.000461 -0.013967 0.006882 -0.004595
# 3 -0.002712 0.000461 0.026030 -0.016963 0.001313 0.003919
# 4 0.001102 -0.013967 -0.016963 0.059172 -0.015179 0.016895
# 5 0.003869 0.006882 0.001313 -0.015179 0.067289 -0.025838
# 6 -0.005597 -0.004595 0.003919 0.016895 -0.025838 0.044026
#
#
# Mechanical properties :
#
#
# Convention : Reuss Voigt Hill
#
# Bulk Modulus (GPa) = 24.68463 50.23242 37.45853
# Shear Modulus (GPa) = 20.19154 32.49403 26.34279
#
# Velocity S-wave (km/s) = 2.96196 3.75748 3.38318
# Velocity P-wave (km/s) = 4.73530 6.37580 5.61577
#
# Compressibility (1/GPa) = 0.04051103
#
# Stress axis : x y z
#
# Youngs Moduli (GPa) = 120.83084 56.27720 38.41788
#
# Poissons Ratio (x) = 0.19870 0.10419
# Poissons Ratio (y) = 0.42662 -0.01771
# Poissons Ratio (z) = 0.32770 -0.02594
#
# Static dielectric constant tensor:
#      x y z
#    x 1.925350 -0.000620 0.027350 
#    y -0.000620 1.883870 -0.033840 
#    z 0.027350 -0.033840 1.885720 
# 
# From -- ./inp_files/201881.got.cif
#   From: 2010.05.17/outbox.cif.g08.bks.cpg/sg2_101_cif.got.tgz:201881.got - 2010.06.03 11:33:40.
