data_PCOD9100639
_publ_section_title
;
Structure prediction by ZEFSAII (Michael W. Deem and Ramdas Pophale) SiO2 
 PCOD9100639
Probable space group: P -1
;
_chemical_formula_sum "Si O2"
_cell_formula_units_Z 16
_cell_length_a 17.588729
_cell_length_b 9.083967
_cell_length_c 11.836293
_cell_angle_alpha 113.658205
_cell_angle_beta 43.607322
_cell_angle_gamma 78.428974
_cell_volume 751.434643
_symmetry_space_group_name_H-M "P -1"
_symmetry_group_IT_number 2
_symmetry_cell_setting 'triclinic'
loop_
_space_group_symop_operation_xyz
x,y,z
-x,-y,-z
loop_
_atom_site_type_symbol
_atom_site_label
_atom_site_fract_x
_atom_site_fract_y
_atom_site_fract_z
Si Si1 0.031510 0.215520 0.464942
Si Si2 0.400517 0.610218 0.259437
Si Si3 0.150262 0.081921 0.538625
Si Si4 0.385604 0.086067 0.385908
Si Si5 0.965029 0.662536 0.736556
Si Si6 0.641291 0.702797 0.718300
Si Si7 0.344710 0.408699 0.953135
Si Si8 0.786200 0.677316 0.116092
O O1 0.151443 0.037016 0.389628
O O2 0.979340 0.460734 0.618809
O O3 0.091450 0.157614 0.251851
O O4 0.850036 0.324856 0.713995
O O5 0.403802 0.426908 0.242210
O O6 0.512346 0.611755 0.212656
O O7 0.207967 0.887378 0.510898
O O8 0.500000 0.500000 0.000000
O O9 0.285389 0.071957 0.412150
O O10 0.963241 0.374686 0.853828
O O11 0.364592 0.276339 0.404772
O O12 0.301427 0.179371 0.628201
O O13 0.581956 0.799495 0.096957
O O14 0.161740 0.486431 0.508044
O O15 0.837303 0.776791 0.016751
O O16 0.500000 0.000000 0.000000
O O17 0.328581 0.319461 0.830962
#
# Coordination Sequence:
#
# PCOD9100639 Si02
#       8
#     2   2   2   2   2   2   2   2
#     4   9  16  34  60  82 119 152 184 245 294 335
#     4  11  23  38  57  85 121 157 192 239 304 352
#     4   9  19  36  59  86 118 154 194 239 292 346
#     4  11  19  36  63  92 115 154 204 241 284 347
#     4   9  18  32  56  88 116 144 194 238 291 334
#     4  12  23  37  61  90 117 148 200 250 292 347
#     4   9  20  38  59  87 122 154 192 243 294 349
#     4  10  20  37  65  85 120 157 198 242 291 343
#
# _framework density 21.292601999999999
#
# number of rings (size 3 to 8) (size 9 to 14) (size 15 to 20)
#    0.000    2.250    2.500    3.750    0.000    0.000 
#    0.000    6.875    0.000    0.000    0.000    0.000 
#    0.000    0.000    0.000    0.000    0.000    0.000 
#
# Total GULP energy -89182.639868 kJ/mol
# GULP energy per Si atom -5573.914992 kJ/mol
# Density = 2.124414 g / cm^3
# Si number density = 21.292602 Si / 1000 Ang^3
#
#
#
# Elastic Constant Matrix: (Units=GPa)
#
#
# Indices 1 2 3 4 5 6 
#
# 1 110.6442 70.7666 55.8220 -8.6968 -25.9880 -13.1016
# 2 70.7666 153.3890 46.8801 -21.2751 -8.3802 -2.4128
# 3 55.8220 46.8801 66.3180 -12.3944 -7.7517 -12.8915
# 4 -8.6968 -21.2751 -12.3944 35.0701 -11.7292 -0.4568
# 5 -25.9880 -8.3802 -7.7517 -11.7292 30.6655 -1.0930
# 6 -13.1016 -2.4128 -12.8915 -0.4568 -1.0930 29.2017
#
#
#
# Elastic Compliance Matrix: (Units=1/GPa)
#
#
# Indices 1 2 3 4 5 6 
#
# 1 0.023900 -0.005695 -0.012231 0.004022 0.017343 0.005565
# 2 -0.005695 0.010274 -0.002560 0.003386 -0.001472 -0.002838
# 3 -0.012231 -0.002560 0.029504 0.005526 -0.001230 0.007367
# 4 0.004022 0.003386 0.005526 0.040805 0.021551 0.005969
# 5 0.017343 -0.001472 -0.001230 0.021551 0.055176 0.009519
# 6 0.005565 -0.002838 0.007367 0.005969 0.009519 0.040209
#
#
# Mechanical properties :
#
#
# Convention : Reuss Voigt Hill
#
# Bulk Modulus (GPa) = 44.03973 75.25429 59.64701
# Shear Modulus (GPa) = 20.12826 29.44629 24.78727
#
# Velocity S-wave (km/s) = 3.07794 3.72282 3.41563
# Velocity P-wave (km/s) = 5.77578 7.34158 6.60524
#
# Compressibility (1/GPa) = 0.02270677
#
# Stress axis : x y z
#
# Youngs Moduli (GPa) = 41.84143 97.33461 33.89370
#
# Poissons Ratio (x) = 0.55436 0.41454
# Poissons Ratio (y) = 0.23830 0.08675
# Poissons Ratio (z) = 0.51174 0.24913
#
# Static dielectric constant tensor:
#      x y z
#    x 1.829360 -0.054770 -0.010320 
#    y -0.054770 1.891910 0.023190 
#    z -0.010320 0.023190 1.870770 
# 
# From -- ./inp_files/461347.got.cif
#   From: 2010.05.17/outbox.cif.g08.bks.cpg/sg2_231_cif.got.tgz:461347.got - 2010.06.03 11:33:40.
