data_PCOD9100993
_publ_section_title
;
Structure prediction by ZEFSAII (Michael W. Deem and Ramdas Pophale) SiO2 
 PCOD9100993
Probable space group: P -1
;
_chemical_formula_sum "Si O2"
_cell_formula_units_Z 14
_cell_length_a 23.470823
_cell_length_b 10.405039
_cell_length_c 8.438024
_cell_angle_alpha 134.868283
_cell_angle_beta 43.236649
_cell_angle_gamma 156.444057
_cell_volume 558.775480
_symmetry_space_group_name_H-M "P -1"
_symmetry_group_IT_number 2
_symmetry_cell_setting 'triclinic'
loop_
_space_group_symop_operation_xyz
x,y,z
-x,-y,-z
loop_
_atom_site_type_symbol
_atom_site_label
_atom_site_fract_x
_atom_site_fract_y
_atom_site_fract_z
Si Si1 0.706293 0.603750 0.596760
Si Si2 0.664719 0.316670 0.758055
Si Si3 0.374809 0.406012 0.747414
Si Si4 0.938443 0.283376 0.286531
Si Si5 0.957346 0.680132 0.419080
Si Si6 0.403473 0.166122 0.718838
Si Si7 0.184979 0.554127 0.835347
O O1 0.661863 0.427050 0.697510
O O2 0.573844 0.487706 0.705446
O O3 0.723486 0.459690 0.323137
O O4 0.869864 0.981736 0.604276
O O5 0.839264 0.587274 0.676972
O O6 0.606905 0.014692 0.551074
O O7 0.598300 0.334322 0.038703
O O8 0.500000 0.500000 0.500000
O O9 0.350745 0.259190 0.835911
O O10 0.219448 0.098649 0.702685
O O11 0.922058 0.407438 0.291278
O O12 0.000000 0.500000 0.500000
O O13 0.071405 0.395434 0.062719
O O14 0.917409 0.656897 0.298717
O O15 0.301437 0.915103 0.852825
#
# Coordination Sequence:
#
# PCOD9100993 Si02
#       7
#     2   2   2   2   2   2   2
#     4  10  20  37  68 104 125 164 223 275 325 378
#     4  10  21  44  68  93 132 170 223 268 323 394
#     4  12  27  45  65  95 134 180 217 266 336 396
#     4  12  26  43  64 100 135 170 226 274 324 389
#     4  10  20  41  69  94 130 174 220 270 324 386
#     4  10  23  43  67 102 130 170 222 272 327 382
#     4  10  20  43  70  92 133 172 219 274 320 391
#
# _framework density 25.054784999999999
#
# number of rings (size 3 to 8) (size 9 to 14) (size 15 to 20)
#    0.000    1.714    2.857    5.571    4.000    3.429 
#    2.571    1.429    0.000    0.000    0.000    0.000 
#    0.000    0.000    0.000    0.000    0.000    0.000 
#
# Total GULP energy -78284.598564 kJ/mol
# GULP energy per Si atom -5591.757040 kJ/mol
# Density = 2.499776 g / cm^3
# Si number density = 25.054785 Si / 1000 Ang^3
#
#
#
# Elastic Constant Matrix: (Units=GPa)
#
#
# Indices 1 2 3 4 5 6 
#
# 1 44.2468 22.2948 -5.9413 13.2814 -7.8393 15.4851
# 2 22.2948 112.5571 34.4326 7.2214 -6.8091 21.5919
# 3 -5.9413 34.4326 148.9796 -6.7221 -20.4188 9.8943
# 4 13.2814 7.2214 -6.7221 38.3576 -4.1754 -10.5520
# 5 -7.8393 -6.8091 -20.4188 -4.1754 22.8975 3.0046
# 6 15.4851 21.5919 9.8943 -10.5520 3.0046 42.2319
#
#
#
# Elastic Compliance Matrix: (Units=1/GPa)
#
#
# Indices 1 2 3 4 5 6 
#
# 1 0.039355 -0.003830 0.005300 -0.015308 0.016728 -0.018729
# 2 -0.003830 0.011460 -0.002638 -0.002535 -0.000132 -0.004461
# 3 0.005300 -0.002638 0.009093 0.000393 0.009646 -0.003313
# 4 -0.015308 -0.002535 0.000393 0.036178 -0.001138 0.015938
# 5 0.016728 -0.000132 0.009646 -0.001138 0.059439 -0.012839
# 6 -0.018729 -0.004461 -0.003313 0.015938 -0.012839 0.038499
#
#
# Mechanical properties :
#
#
# Convention : Reuss Voigt Hill
#
# Bulk Modulus (GPa) = 17.36881 45.26176 31.31528
# Shear Modulus (GPa) = 23.19644 37.69721 30.44683
#
# Velocity S-wave (km/s) = 3.04604 3.88311 3.48977
# Velocity P-wave (km/s) = 4.39529 6.18135 5.36319
#
# Compressibility (1/GPa) = 0.05757448
#
# Stress axis : x y z
#
# Youngs Moduli (GPa) = 25.40944 87.25735 109.97301
#
# Poissons Ratio (x) = 0.33419 -0.58291
# Poissons Ratio (y) = 0.09732 0.29008
# Poissons Ratio (z) = -0.13468 0.23016
#
# Static dielectric constant tensor:
#      x y z
#    x 1.978340 -0.025890 0.036450 
#    y -0.025890 2.009340 -0.009020 
#    z 0.036450 -0.009020 2.077110 
# 
# From -- ./inp_files/357091.got.cif
#   From: 2010.05.17/outbox.cif.g08.bks.cpg/sg2_179_cif.got.tgz:357091.got - 2010.06.03 11:33:40.
