data_PCOD9100075
_publ_section_title
;
Structure prediction by ZEFSAII (Michael W. Deem and Ramdas Pophale) SiO2 
 PCOD9100075
Probable space group: P -1
;
_chemical_formula_sum "Si O2"
_cell_formula_units_Z 14
_cell_length_a 14.695693
_cell_length_b 15.558362
_cell_length_c 15.710407
_cell_angle_alpha 141.048021
_cell_angle_beta 36.790443
_cell_angle_gamma 160.991463
_cell_volume 696.793283
_symmetry_space_group_name_H-M "P -1"
_symmetry_group_IT_number 2
_symmetry_cell_setting 'triclinic'
loop_
_space_group_symop_operation_xyz
x,y,z
-x,-y,-z
loop_
_atom_site_type_symbol
_atom_site_label
_atom_site_fract_x
_atom_site_fract_y
_atom_site_fract_z
Si Si1 0.542382 0.742757 0.408720
Si Si2 0.345867 0.813391 0.734974
Si Si3 0.202090 0.744582 0.976093
Si Si4 0.865353 0.722921 0.121368
Si Si5 0.414196 0.174973 0.947472
Si Si6 0.181699 0.546942 0.281882
Si Si7 0.912222 0.231008 0.405877
O O1 0.531825 0.840160 0.569941
O O2 0.208739 0.445061 0.405157
O O3 0.735133 0.757257 0.287590
O O4 0.684641 0.938075 0.374725
O O5 0.258805 0.713803 0.819656
O O6 0.059456 0.616461 0.738055
O O7 0.497174 0.079531 0.829279
O O8 0.054824 0.774683 0.082269
O O9 0.000000 0.500000 0.000000
O O10 0.500000 0.000000 0.000000
O O11 0.602719 0.425290 0.054647
O O12 0.078324 0.926505 0.039111
O O13 0.521666 0.278329 0.849806
O O14 0.225652 0.728295 0.433212
O O15 0.028949 0.332724 0.300864
#
# Coordination Sequence:
#
# PCOD9100075 Si02
#       7
#     2   2   2   2   2   2   2
#     4  11  23  42  58  92 124 168 191 244 307 358
#     4  10  22  39  69  86 121 159 207 243 301 356
#     4  11  23  40  65  93 112 149 204 251 296 364
#     4  11  24  40  63  86 129 155 191 251 317 351
#     4  11  19  38  62  85 113 169 202 239 290 352
#     4  10  20  37  62  93 118 163 210 257 273 341
#     4  10  23  34  62  91 127 155 214 246 284 338
#
# _framework density 20.092041999999999
#
# number of rings (size 3 to 8) (size 9 to 14) (size 15 to 20)
#    0.000    1.429    4.286    2.571    2.000    1.714 
#    0.000    5.714    0.000    0.000    0.000    0.000 
#    0.000    0.000    0.000    0.000    0.000    0.000 
#
# Total GULP energy -78236.253290 kJ/mol
# GULP energy per Si atom -5588.303806 kJ/mol
# Density = 2.004631 g / cm^3
# Si number density = 20.092042 Si / 1000 Ang^3
#
#
#
# Elastic Constant Matrix: (Units=GPa)
#
#
# Indices 1 2 3 4 5 6 
#
# 1 60.1646 16.4874 42.6903 -10.5051 10.2376 -9.5565
# 2 16.4874 103.3791 34.0979 0.0598 4.1989 -5.2459
# 3 42.6903 34.0979 139.5753 -15.4597 -9.0550 -11.3417
# 4 -10.5051 0.0598 -15.4597 29.9258 -2.5059 8.9050
# 5 10.2376 4.1989 -9.0550 -2.5059 37.4161 -8.9322
# 6 -9.5565 -5.2459 -11.3417 8.9050 -8.9322 25.1463
#
#
#
# Elastic Compliance Matrix: (Units=1/GPa)
#
#
# Indices 1 2 3 4 5 6 
#
# 1 0.024128 -0.001133 -0.007037 0.003675 -0.007504 0.001792
# 2 -0.001133 0.010800 -0.002547 -0.002128 -0.001442 0.000915
# 3 -0.007037 -0.002547 0.010837 0.002804 0.005667 0.002702
# 4 0.003675 -0.002128 0.002804 0.039687 -0.000280 -0.011936
# 5 -0.007504 -0.001442 0.005667 -0.000280 0.032971 0.011214
# 6 0.001792 0.000915 0.002702 -0.011936 0.011214 0.050068
#
#
# Mechanical properties :
#
#
# Convention : Reuss Voigt Hill
#
# Bulk Modulus (GPa) = 41.10030 54.40781 47.75405
# Shear Modulus (GPa) = 25.24792 32.48720 28.86756
#
# Velocity S-wave (km/s) = 3.54872 4.02545 3.79458
# Velocity P-wave (km/s) = 6.10669 6.98167 6.55879
#
# Compressibility (1/GPa) = 0.02433073
#
# Stress axis : x y z
#
# Youngs Moduli (GPa) = 41.44562 92.59144 92.27829
#
# Poissons Ratio (x) = 0.10495 0.64936
# Poissons Ratio (y) = 0.04698 0.23501
# Poissons Ratio (z) = 0.29165 0.23580
#
# Static dielectric constant tensor:
#      x y z
#    x 1.703520 -0.000260 0.003590 
#    y -0.000260 1.747580 -0.019680 
#    z 0.003590 -0.019680 1.725680 
# 
# From -- ./inp_files/36305.got.cif
#   From: 2010.05.17/outbox.cif.g08.bks.cpg/sg2_19_cif.got.tgz:36305.got - 2010.06.03 11:33:40.
