data_PCOD9100856
_publ_section_title
;
Structure prediction by ZEFSAII (Michael W. Deem and Ramdas Pophale) SiO2 
 PCOD9100856
Probable space group: P -1
;
_chemical_formula_sum "Si O2"
_cell_formula_units_Z 14
_cell_length_a 8.779129
_cell_length_b 11.105277
_cell_length_c 12.195902
_cell_angle_alpha 35.792428
_cell_angle_beta 82.859942
_cell_angle_gamma 68.662751
_cell_volume 615.063235
_symmetry_space_group_name_H-M "P -1"
_symmetry_group_IT_number 2
_symmetry_cell_setting 'triclinic'
loop_
_space_group_symop_operation_xyz
x,y,z
-x,-y,-z
loop_
_atom_site_type_symbol
_atom_site_label
_atom_site_fract_x
_atom_site_fract_y
_atom_site_fract_z
Si Si1 0.851008 0.443768 0.007328
Si Si2 0.976259 0.732719 0.222153
Si Si3 0.429814 0.866091 0.350627
Si Si4 0.069437 0.980155 0.201296
Si Si5 0.427349 0.358056 0.939507
Si Si6 0.320970 0.446251 0.267548
Si Si7 0.372765 0.268141 0.776284
O O1 0.749400 0.617230 0.789090
O O2 0.715543 0.465572 0.096529
O O3 0.000000 0.500000 0.000000
O O4 0.937412 0.196899 0.122369
O O5 0.161255 0.561299 0.281323
O O6 0.821470 0.667720 0.284126
O O7 0.995950 0.813394 0.282649
O O8 0.900586 0.930813 0.986713
O O9 0.520188 0.757575 0.536196
O O10 0.542974 0.702560 0.363057
O O11 0.241476 0.892917 0.321396
O O12 0.435427 0.111359 0.153350
O O13 0.604732 0.376421 0.909337
O O14 0.368675 0.405220 0.784010
O O15 0.500000 0.000000 0.000000
#
# Coordination Sequence:
#
# PCOD9100856 Si02
#       7
#     2   2   2   2   2   2   2
#     4  11  22  44  69  92 131 180 219 263 327 395
#     4  10  20  38  64  95 132 169 218 268 322 389
#     4  11  23  42  65 102 130 168 219 278 325 376
#     4  10  20  37  66  93 130 175 213 268 326 378
#     4  11  22  43  68  93 135 175 215 266 326 389
#     4  11  26  41  69 100 128 173 221 269 329 388
#     4  10  20  37  68  96 126 174 212 266 337 377
#
# _framework density 22.761887999999999
#
# number of rings (size 3 to 8) (size 9 to 14) (size 15 to 20)
#    0.000    1.429    4.286    2.143   10.000    3.429 
#    0.000    2.143    0.000    0.000    0.000    0.000 
#    0.000    0.000    0.000    0.000    0.000    0.000 
#
# Total GULP energy -78168.894753 kJ/mol
# GULP energy per Si atom -5583.492482 kJ/mol
# Density = 2.271008 g / cm^3
# Si number density = 22.761888 Si / 1000 Ang^3
#
#
#
# Elastic Constant Matrix: (Units=GPa)
#
#
# Indices 1 2 3 4 5 6 
#
# 1 153.3814 59.9889 44.4956 -2.0173 47.7805 2.5590
# 2 59.9889 148.2558 18.8643 21.7818 20.9760 -7.9787
# 3 44.4956 18.8643 110.0202 13.2937 37.2337 13.4466
# 4 -2.0173 21.7818 13.2937 20.8236 6.5923 6.6715
# 5 47.7805 20.9760 37.2337 6.5923 39.3501 1.4760
# 6 2.5590 -7.9787 13.4466 6.6715 1.4760 35.2186
#
#
#
# Elastic Compliance Matrix: (Units=1/GPa)
#
#
# Indices 1 2 3 4 5 6 
#
# 1 0.014015 -0.005642 -0.000598 0.013881 -0.015618 -0.004043
# 2 -0.005642 0.011085 0.000645 -0.015137 0.002664 0.005431
# 3 -0.000598 0.000645 0.014456 -0.004803 -0.012344 -0.003903
# 4 0.013881 -0.015137 -0.004803 0.079002 -0.016845 -0.016864
# 5 -0.015618 0.002664 -0.012344 -0.016845 0.057188 0.007246
# 6 -0.004043 0.005431 -0.003903 -0.016864 0.007246 0.034299
#
#
# Mechanical properties :
#
#
# Convention : Reuss Voigt Hill
#
# Bulk Modulus (GPa) = 35.25482 73.15056 54.20269
# Shear Modulus (GPa) = 21.67399 38.29903 29.98651
#
# Velocity S-wave (km/s) = 3.08913 4.10639 3.63354
# Velocity P-wave (km/s) = 5.31468 7.39529 6.43957
#
# Compressibility (1/GPa) = 0.02836492
#
# Stress axis : x y z
#
# Youngs Moduli (GPa) = 71.35099 90.20904 69.17733
#
# Poissons Ratio (x) = 0.50897 0.04139
# Poissons Ratio (y) = 0.40257 -0.04461
# Poissons Ratio (z) = 0.04269 -0.05817
#
# Static dielectric constant tensor:
#      x y z
#    x 1.882630 0.048150 -0.061030 
#    y 0.048150 1.847350 -0.056030 
#    z -0.061030 -0.056030 1.956950 
# 
# From -- ./inp_files/391538.got.cif
#   From: 2010.05.17/outbox.cif.g08.bks.cpg/sg2_196_cif.got.tgz:391538.got - 2010.06.03 11:33:40.
