data_PCOD9100717
_publ_section_title
;
Structure prediction by ZEFSAII (Michael W. Deem and Ramdas Pophale) SiO2 
 PCOD9100717
Probable space group: P -1
;
_chemical_formula_sum "Si O2"
_cell_formula_units_Z 16
_cell_length_a 7.296360
_cell_length_b 10.404075
_cell_length_c 15.521068
_cell_angle_alpha 55.440288
_cell_angle_beta 80.902029
_cell_angle_gamma 46.679017
_cell_volume 651.314533
_symmetry_space_group_name_H-M "P -1"
_symmetry_group_IT_number 2
_symmetry_cell_setting 'triclinic'
loop_
_space_group_symop_operation_xyz
x,y,z
-x,-y,-z
loop_
_atom_site_type_symbol
_atom_site_label
_atom_site_fract_x
_atom_site_fract_y
_atom_site_fract_z
Si Si1 0.244120 0.037418 0.997225
Si Si2 0.296244 0.022682 0.181384
Si Si3 0.288532 0.336223 0.589387
Si Si4 0.652025 0.660663 0.003211
Si Si5 0.479950 0.082164 0.369439
Si Si6 0.158487 0.698986 0.755799
Si Si7 0.993585 0.750875 0.556847
Si Si8 0.324893 0.460903 0.135753
O O1 0.963500 0.297154 0.903417
O O2 0.337524 0.870554 0.976242
O O3 0.246667 0.958669 0.121511
O O4 0.500000 0.000000 0.000000
O O5 0.245176 0.233799 0.076735
O O6 0.092477 0.090912 0.245215
O O7 0.602386 0.817750 0.273769
O O8 0.238804 0.538687 0.558657
O O9 0.000000 0.500000 0.500000
O O10 0.474212 0.125660 0.586169
O O11 0.673327 0.532114 0.970285
O O12 0.803010 0.504212 0.136808
O O13 0.390575 0.240914 0.236317
O O14 0.222476 0.246052 0.390797
O O15 0.763770 0.973781 0.428854
O O16 0.106325 0.749457 0.638758
O O17 0.436309 0.600225 0.807690
#
# Coordination Sequence:
#
# PCOD9100717 Si02
#       8
#     2   2   2   2   2   2   2   2
#     4  10  25  38  63  93 118 165 210 256 304 370
#     4  11  21  39  64  93 122 162 212 259 305 364
#     4  10  20  37  65  93 116 151 214 268 297 348
#     4  11  23  41  64  89 124 167 211 255 306 369
#     4  10  22  40  66  91 121 162 212 261 306 362
#     4  12  24  40  63  92 133 170 199 256 321 373
#     4  10  22  40  66  93 118 162 215 261 302 364
#     4  12  25  42  60  93 136 164 201 256 320 378
#
# _framework density 24.565705000000001
#
# number of rings (size 3 to 8) (size 9 to 14) (size 15 to 20)
#    0.000    1.250    3.750    1.500    8.750    1.000 
#    2.250    0.000    0.000    1.500    0.000    0.000 
#    0.000    0.000    0.000    0.000    0.000    0.000 
#
# Total GULP energy -89092.563877 kJ/mol
# GULP energy per Si atom -5568.285242 kJ/mol
# Density = 2.450979 g / cm^3
# Si number density = 24.565705 Si / 1000 Ang^3
#
#
#
# Elastic Constant Matrix: (Units=GPa)
#
#
# Indices 1 2 3 4 5 6 
#
# 1 78.2156 38.6149 30.4630 -3.5057 36.7739 -7.9260
# 2 38.6149 144.6985 28.3202 9.3413 21.7067 -10.1700
# 3 30.4630 28.3202 108.2773 -7.0871 44.4115 -10.7721
# 4 -3.5057 9.3413 -7.0871 40.9807 3.0600 12.1263
# 5 36.7739 21.7067 44.4115 3.0600 38.9947 -4.9459
# 6 -7.9260 -10.1700 -10.7721 12.1263 -4.9459 14.1981
#
#
#
# Elastic Compliance Matrix: (Units=1/GPa)
#
#
# Indices 1 2 3 4 5 6 
#
# 1 0.027667 -0.004326 0.007048 0.006758 -0.032150 0.000723
# 2 -0.004326 0.008931 -0.001659 -0.005261 0.002432 0.008065
# 3 0.007048 -0.001659 0.020153 0.005665 -0.028716 0.003195
# 4 0.006758 -0.005261 0.005665 0.038769 -0.017360 -0.034857
# 5 -0.032150 0.002432 -0.028716 -0.017360 0.089702 0.008083
# 6 0.000723 0.008065 0.003195 -0.034857 0.008083 0.111622
#
#
# Mechanical properties :
#
#
# Convention : Reuss Voigt Hill
#
# Bulk Modulus (GPa) = 16.98357 58.44308 37.71333
# Shear Modulus (GPa) = 15.90616 34.42092 25.16354
#
# Velocity S-wave (km/s) = 2.54735 3.74729 3.20400
# Velocity P-wave (km/s) = 3.94722 6.52419 5.39192
#
# Compressibility (1/GPa) = 0.05888042
#
# Stress axis : x y z
#
# Youngs Moduli (GPa) = 36.14366 111.96380 49.61986
#
# Poissons Ratio (x) = 0.48430 -0.34974
# Poissons Ratio (y) = 0.15634 0.08231
# Poissons Ratio (z) = -0.25476 0.18572
#
# Static dielectric constant tensor:
#      x y z
#    x 2.064780 0.034660 -0.004240 
#    y 0.034660 2.101270 -0.004510 
#    z -0.004240 -0.004510 1.979810 
# 
# From -- ./inp_files/500173.got.cif
#   From: 2010.05.17/outbox.cif.g08.bks.cpg/sg2_251_cif.got.tgz:500173.got - 2010.06.03 11:33:40.
