data_PCOD9100327
_publ_section_title
;
Structure prediction by ZEFSAII (Michael W. Deem and Ramdas Pophale) SiO2 
 PCOD9100327
Probable space group: P -1
;
_chemical_formula_sum "Si O2"
_cell_formula_units_Z 16
_cell_length_a 9.115155
_cell_length_b 19.455218
_cell_length_c 9.374060
_cell_angle_alpha 57.439436
_cell_angle_beta 91.743137
_cell_angle_gamma 136.999104
_cell_volume 740.657552
_symmetry_space_group_name_H-M "P -1"
_symmetry_group_IT_number 2
_symmetry_cell_setting 'triclinic'
loop_
_space_group_symop_operation_xyz
x,y,z
-x,-y,-z
loop_
_atom_site_type_symbol
_atom_site_label
_atom_site_fract_x
_atom_site_fract_y
_atom_site_fract_z
Si Si1 0.852612 0.226651 0.846134
Si Si2 0.242429 0.991979 0.040652
Si Si3 0.684332 0.417233 0.571655
Si Si4 0.782173 0.127232 0.272835
Si Si5 0.261031 0.078990 0.488213
Si Si6 0.115690 0.668542 0.834667
Si Si7 0.024397 0.492389 0.260919
Si Si8 0.195103 0.131882 0.705384
O O1 0.865773 0.148537 0.846217
O O2 0.122949 0.411323 0.631089
O O3 0.781441 0.167566 0.072059
O O4 0.573627 0.141599 0.885229
O O5 0.096865 0.958310 0.216522
O O6 0.163341 0.026786 0.890160
O O7 0.700696 0.395602 0.760916
O O8 0.377954 0.274595 0.656464
O O9 0.817162 0.412593 0.473872
O O10 0.968390 0.278058 0.198750
O O11 0.500000 0.000000 0.500000
O O12 0.844791 0.062442 0.322801
O O13 0.556039 0.199424 0.289043
O O14 0.332872 0.174029 0.513663
O O15 0.000000 0.000000 0.500000
O O16 0.033359 0.607334 0.739351
O O17 0.999106 0.557214 0.081720
#
# Coordination Sequence:
#
# PCOD9100327 Si02
#       8
#     2   2   2   2   2   2   2   2
#     4  11  22  42  66  98 124 175 219 275 315 385
#     4  10  24  39  66  90 131 169 219 266 325 384
#     4  11  22  37  68  95 136 168 217 269 333 377
#     4  10  22  38  62  93 126 162 222 271 312 376
#     4  11  24  40  63  90 128 172 214 266 326 390
#     4  10  21  38  65  94 124 162 224 261 312 381
#     4  10  20  37  63  93 124 172 211 264 317 390
#     4  11  23  42  62  99 131 169 213 274 325 394
#
# _framework density 21.602428
#
# number of rings (size 3 to 8) (size 9 to 14) (size 15 to 20)
#    0.000    1.500    3.750    1.500    3.500    2.500 
#    0.000    0.000    0.000    3.750    0.000    0.000 
#    0.000    0.000    0.000    0.000    0.000    0.000 
#
# Total GULP energy -89082.202571 kJ/mol
# GULP energy per Si atom -5567.637661 kJ/mol
# Density = 2.155326 g / cm^3
# Si number density = 21.602428 Si / 1000 Ang^3
#
#
#
# Elastic Constant Matrix: (Units=GPa)
#
#
# Indices 1 2 3 4 5 6 
#
# 1 99.3486 47.9154 19.7622 -6.8334 -1.4795 -18.1687
# 2 47.9154 127.0028 33.1202 -5.5014 14.5903 -14.3364
# 3 19.7622 33.1202 63.6145 -3.6756 7.7863 -14.9440
# 4 -6.8334 -5.5014 -3.6756 36.3699 -6.1686 3.9582
# 5 -1.4795 14.5903 7.7863 -6.1686 21.4026 -2.9385
# 6 -18.1687 -14.3364 -14.9440 3.9582 -2.9385 31.2728
#
#
#
# Elastic Compliance Matrix: (Units=1/GPa)
#
#
# Indices 1 2 3 4 5 6 
#
# 1 0.013936 -0.004958 -0.001051 0.002190 0.006129 0.005620
# 2 -0.004958 0.011469 -0.003588 -0.000768 -0.007064 0.000096
# 3 -0.001051 -0.003588 0.020030 -0.000152 -0.004002 0.006959
# 4 0.002190 -0.000768 -0.000152 0.029517 0.008957 -0.002047
# 5 0.006129 -0.007064 -0.004002 0.008957 0.056353 0.002571
# 6 0.005620 0.000096 0.006959 -0.002047 0.002571 0.039112
#
#
# Mechanical properties :
#
#
# Convention : Reuss Voigt Hill
#
# Bulk Modulus (GPa) = 38.11002 54.61794 46.36398
# Shear Modulus (GPa) = 25.20679 30.42026 27.81353
#
# Velocity S-wave (km/s) = 3.41962 3.75665 3.59209
# Velocity P-wave (km/s) = 5.76816 6.64490 6.22199
#
# Compressibility (1/GPa) = 0.02623982
#
# Stress axis : x y z
#
# Youngs Moduli (GPa) = 71.75842 87.18853 49.92443
#
# Poissons Ratio (x) = 0.43231 0.05248
# Poissons Ratio (y) = 0.35580 0.17914
# Poissons Ratio (z) = 0.07543 0.31285
#
# Static dielectric constant tensor:
#      x y z
#    x 1.818840 0.022490 -0.016600 
#    y 0.022490 1.927550 -0.038440 
#    z -0.016600 -0.038440 1.867850 
# 
# From -- ./inp_files/217085.got.cif
#   From: 2010.05.17/outbox.cif.g08.bks.cpg/sg2_109_cif.got.tgz:217085.got - 2010.06.03 11:33:40.
