data_PCOD9100544
_publ_section_title
;
Structure prediction by ZEFSAII (Michael W. Deem and Ramdas Pophale) SiO2 
 PCOD9100544
Probable space group: P -1
;
_chemical_formula_sum "Si O2"
_cell_formula_units_Z 16
_cell_length_a 10.888305
_cell_length_b 14.370707
_cell_length_c 8.230482
_cell_angle_alpha 102.377520
_cell_angle_beta 43.554007
_cell_angle_gamma 126.985362
_cell_volume 648.806882
_symmetry_space_group_name_H-M "P -1"
_symmetry_group_IT_number 2
_symmetry_cell_setting 'triclinic'
loop_
_space_group_symop_operation_xyz
x,y,z
-x,-y,-z
loop_
_atom_site_type_symbol
_atom_site_label
_atom_site_fract_x
_atom_site_fract_y
_atom_site_fract_z
Si Si1 0.084319 0.774000 0.252167
Si Si2 0.164287 0.470294 0.771625
Si Si3 0.881718 0.553263 0.564329
Si Si4 0.188971 0.153341 0.928788
Si Si5 0.380137 0.807142 0.514899
Si Si6 0.171913 0.376490 0.030792
Si Si7 0.474094 0.001760 0.265723
Si Si8 0.959894 0.891481 0.597931
O O1 0.091231 0.699005 0.359732
O O2 0.895076 0.785209 0.495274
O O3 0.998886 0.681601 0.150407
O O4 0.326995 0.911017 0.027521
O O5 0.243727 0.507811 0.517593
O O6 0.000000 0.500000 0.000000
O O7 0.307384 0.484560 0.799464
O O8 0.747379 0.560362 0.842328
O O9 0.000000 0.500000 0.500000
O O10 0.150644 0.253898 0.977630
O O11 0.207235 0.153841 0.106337
O O12 0.438297 0.213527 0.633079
O O13 0.000000 0.000000 0.000000
O O14 0.104241 0.686727 0.722672
O O15 0.430758 0.899618 0.642735
O O16 0.463100 0.892349 0.305907
O O17 0.210500 0.944951 0.455299
O O18 0.000000 0.000000 0.500000
#
# Coordination Sequence:
#
# PCOD9100544 Si02
#       8
#     2   2   2   2   2   2   2   2
#     4  10  21  36  57  88 122 159 207 254 307 367
#     4  10  21  36  65  94 111 161 217 261 317 369
#     4  10  20  37  64  94 117 156 216 265 316 372
#     4  12  23  37  58  90 126 169 207 244 305 376
#     4  11  21  36  63  88 126 171 209 250 303 374
#     4  12  21  42  63  91 132 162 209 260 313 374
#     4  11  20  38  56  87 130 170 208 249 302 377
#     4  12  24  36  55  91 133 167 202 250 307 379
#
# _framework density 24.660651999999999
#
# number of rings (size 3 to 8) (size 9 to 14) (size 15 to 20)
#    0.750    0.250    6.250    1.875    1.750    1.000 
#    0.000    0.000    0.000    1.500    6.500    0.000 
#    0.000    0.000    0.000    0.000    0.000    0.000 
#
# Total GULP energy -89171.924229 kJ/mol
# GULP energy per Si atom -5573.245264 kJ/mol
# Density = 2.460452 g / cm^3
# Si number density = 24.660652 Si / 1000 Ang^3
#
#
#
# Elastic Constant Matrix: (Units=GPa)
#
#
# Indices 1 2 3 4 5 6 
#
# 1 90.0687 36.7758 35.4951 6.3978 17.6407 -20.3787
# 2 36.7758 111.4251 32.8146 34.2722 15.8748 -18.2804
# 3 35.4951 32.8146 83.4050 25.4498 19.0990 -2.3774
# 4 6.3978 34.2722 25.4498 44.4832 -3.6041 7.8936
# 5 17.6407 15.8748 19.0990 -3.6041 48.0005 -5.9017
# 6 -20.3787 -18.2804 -2.3774 7.8936 -5.9017 58.0507
#
#
#
# Elastic Compliance Matrix: (Units=1/GPa)
#
#
# Indices 1 2 3 4 5 6 
#
# 1 0.015755 -0.003627 -0.005726 0.003037 -0.001645 0.003574
# 2 -0.003627 0.015393 0.000550 -0.012875 -0.004340 0.004906
# 3 -0.005726 0.000550 0.019046 -0.010984 -0.006508 -0.000225
# 4 0.003037 -0.012875 -0.010984 0.040435 0.009569 -0.007963
# 5 -0.001645 -0.004340 -0.006508 0.009569 0.026075 -0.000861
# 6 0.003574 0.004906 -0.000225 -0.007963 -0.000861 0.021012
#
#
# Mechanical properties :
#
#
# Convention : Reuss Voigt Hill
#
# Bulk Modulus (GPa) = 30.68752 55.00777 42.84764
# Shear Modulus (GPa) = 30.08668 42.09442 36.09055
#
# Velocity S-wave (km/s) = 3.49668 4.13600 3.82971
# Velocity P-wave (km/s) = 5.36407 6.72034 6.08014
#
# Compressibility (1/GPa) = 0.03258654
#
# Stress axis : x y z
#
# Youngs Moduli (GPa) = 63.47057 64.96399 52.50515
#
# Poissons Ratio (x) = 0.23564 0.30066
# Poissons Ratio (y) = 0.23022 -0.02886
# Poissons Ratio (z) = 0.36345 -0.03570
#
# Static dielectric constant tensor:
#      x y z
#    x 2.170820 -0.053870 -0.002060 
#    y -0.053870 2.032820 0.072270 
#    z -0.002060 0.072270 2.062380 
# 
# From -- ./inp_files/270382.got.cif
#   From: 2010.05.17/outbox.cif.g08.bks.cpg/sg2_136_cif.got.tgz:270382.got - 2010.06.03 11:33:40.
