data_PCOD9100570
_publ_section_title
;
Structure prediction by ZEFSAII (Michael W. Deem and Ramdas Pophale) SiO2 
 PCOD9100570
Probable space group: P -1
;
_chemical_formula_sum "Si O2"
_cell_formula_units_Z 14
_cell_length_a 6.963005
_cell_length_b 5.386008
_cell_length_c 19.932227
_cell_angle_alpha 84.451943
_cell_angle_beta 122.761376
_cell_angle_gamma 80.410768
_cell_volume 603.887109
_symmetry_space_group_name_H-M "P -1"
_symmetry_group_IT_number 2
_symmetry_cell_setting 'triclinic'
loop_
_space_group_symop_operation_xyz
x,y,z
-x,-y,-z
loop_
_atom_site_type_symbol
_atom_site_label
_atom_site_fract_x
_atom_site_fract_y
_atom_site_fract_z
Si Si1 0.849002 0.986885 0.037666
Si Si2 0.374578 0.357251 0.425121
Si Si3 0.515737 0.662168 0.334956
Si Si4 0.800828 0.864588 0.487790
Si Si5 0.490228 0.505007 0.803869
Si Si6 0.747314 0.944893 0.821566
Si Si7 0.632277 0.628859 0.076641
O O1 0.843170 0.719508 0.079290
O O2 0.580897 0.109510 0.960403
O O3 0.970651 0.132319 0.112895
O O4 0.000000 0.000000 0.000000
O O5 0.500000 0.500000 0.500000
O O6 0.340995 0.538813 0.349079
O O7 0.170402 0.281151 0.431226
O O8 0.563154 0.095809 0.446009
O O9 0.732989 0.687338 0.421582
O O10 0.608359 0.489362 0.290980
O O11 0.364320 0.945154 0.273856
O O12 0.000000 0.000000 0.500000
O O13 0.664338 0.217111 0.838729
O O14 0.332847 0.505041 0.840289
O O15 0.627692 0.726540 0.829888
O O16 0.500000 0.500000 0.000000
#
# Coordination Sequence:
#
# PCOD9100570 Si02
#       7
#     2   2   2   2   2   2   2
#     4  11  22  42  63  93 124 169 215 270 326 384
#     4   9  19  37  60  90 125 161 207 258 315 379
#     4   9  20  38  63  87 130 169 209 264 316 385
#     4  10  20  37  64  95 125 166 213 262 316 382
#     4  10  22  41  63  92 126 172 214 265 323 380
#     4  10  22  39  67  86 127 171 214 257 326 376
#     4  11  25  38  66  96 129 167 221 274 321 383
#
# _framework density 23.183142
#
# number of rings (size 3 to 8) (size 9 to 14) (size 15 to 20)
#    0.857    1.143    1.429    1.714    4.000    3.429 
#    0.000    8.571    0.000    0.000    0.000    0.000 
#    0.000    0.000    0.000    0.000    0.000    0.000 
#
# Total GULP energy -77936.945077 kJ/mol
# GULP energy per Si atom -5566.924648 kJ/mol
# Density = 2.313038 g / cm^3
# Si number density = 23.183142 Si / 1000 Ang^3
#
#
#
# Elastic Constant Matrix: (Units=GPa)
#
#
# Indices 1 2 3 4 5 6 
#
# 1 157.0290 49.5723 61.6867 6.6774 -38.7915 52.9893
# 2 49.5723 110.8910 18.3288 6.9154 -17.6524 38.8390
# 3 61.6867 18.3288 94.6305 4.3650 -32.0558 25.1413
# 4 6.6774 6.9154 4.3650 31.7753 4.3236 -0.6722
# 5 -38.7915 -17.6524 -32.0558 4.3236 45.4115 -11.9812
# 6 52.9893 38.8390 25.1413 -0.6722 -11.9812 49.8145
#
#
#
# Elastic Compliance Matrix: (Units=1/GPa)
#
#
# Indices 1 2 3 4 5 6 
#
# 1 0.012967 -0.000462 -0.003427 -0.003197 0.006068 -0.010287
# 2 -0.000462 0.013217 0.001817 -0.003752 0.003778 -0.009873
# 3 -0.003427 0.001817 0.016661 -0.003243 0.008763 -0.004116
# 4 -0.003197 -0.003752 -0.003243 0.034640 -0.008064 0.006491
# 5 0.006068 0.003778 0.008763 -0.008064 0.034115 -0.005726
# 6 -0.010287 -0.009873 -0.004116 0.006491 -0.005726 0.039502
#
#
# Mechanical properties :
#
#
# Convention : Reuss Voigt Hill
#
# Bulk Modulus (GPa) = 25.83909 69.08068 47.45988
# Shear Modulus (GPa) = 29.73602 40.93110 35.33356
#
# Velocity S-wave (km/s) = 3.58531 4.20641 3.90822
# Velocity P-wave (km/s) = 5.32063 7.31125 6.39388
#
# Compressibility (1/GPa) = 0.03870106
#
# Stress axis : x y z
#
# Youngs Moduli (GPa) = 77.12150 75.65805 60.02052
#
# Poissons Ratio (x) = 0.03494 0.20570
# Poissons Ratio (y) = 0.03562 -0.10906
# Poissons Ratio (z) = 0.26430 -0.13747
#
# Static dielectric constant tensor:
#      x y z
#    x 1.927970 -0.078920 0.009190 
#    y -0.078920 1.982450 -0.049280 
#    z 0.009190 -0.049280 2.016440 
# 
# From -- ./inp_files/128066.got.cif
#   From: 2010.05.17/outbox.cif.g08.bks.cpg/sg2_65_cif.got.tgz:128066.got - 2010.06.03 11:33:40.
