data_PCOD9100442
_publ_section_title
;
Structure prediction by ZEFSAII (Michael W. Deem and Ramdas Pophale) SiO2 
 PCOD9100442
Probable space group: P -1
;
_chemical_formula_sum "Si O2"
_cell_formula_units_Z 16
_cell_length_a 23.129031
_cell_length_b 14.379386
_cell_length_c 17.111495
_cell_angle_alpha 23.862750
_cell_angle_beta 159.650469
_cell_angle_gamma 161.307650
_cell_volume 616.217821
_symmetry_space_group_name_H-M "P -1"
_symmetry_group_IT_number 2
_symmetry_cell_setting 'triclinic'
loop_
_space_group_symop_operation_xyz
x,y,z
-x,-y,-z
loop_
_atom_site_type_symbol
_atom_site_label
_atom_site_fract_x
_atom_site_fract_y
_atom_site_fract_z
Si Si1 0.759599 0.235316 0.670674
Si Si2 0.554647 0.947147 0.986274
Si Si3 0.821585 0.553960 0.191166
Si Si4 0.859846 0.021333 0.193910
Si Si5 0.737895 0.413826 0.665554
Si Si6 0.223938 0.536222 0.017117
Si Si7 0.252535 0.125206 0.282802
Si Si8 0.751001 0.732933 0.122372
O O1 0.775201 0.437596 0.602304
O O2 0.998662 0.452222 0.765119
O O3 0.500000 0.000000 0.500000
O O4 0.792189 0.016295 0.919636
O O5 0.343873 0.785035 0.787994
O O6 0.432239 0.757243 0.055170
O O7 0.701734 0.893595 0.166934
O O8 0.706169 0.291826 0.942987
O O9 0.792257 0.588007 0.218213
O O10 0.765274 0.732163 0.928325
O O11 0.075211 0.768792 0.330349
O O12 0.103946 0.265342 0.341961
O O13 0.846288 0.820507 0.263064
O O14 0.793837 0.210221 0.926292
O O15 0.491417 0.246676 0.496345
O O16 0.199249 0.241254 0.200257
O O17 0.500000 0.500000 0.000000
#
# Coordination Sequence:
#
# PCOD9100442 Si02
#       8
#     2   2   2   2   2   2   2   2
#     4  11  22  38  65  94 123 163 216 258 309 378
#     4  10  20  38  61  86 125 164 198 252 315 364
#     4  10  20  37  64  88 122 157 205 257 310 362
#     4  10  21  40  60  86 124 163 201 253 312 376
#     4  10  22  38  63  88 119 162 207 252 311 373
#     4  10  21  39  64  89 123 162 204 256 313 366
#     4  10  21  39  65  92 116 158 214 260 303 368
#     4  11  21  38  61  91 126 164 203 257 316 367
#
# _framework density 25.964842999999998
#
# number of rings (size 3 to 8) (size 9 to 14) (size 15 to 20)
#    0.000    1.750    3.750    0.750    3.500    0.000 
#    0.000   10.625    0.000    0.000    0.000    0.000 
#    0.000    0.000    0.000    0.000    0.000    0.000 
#
# Total GULP energy -89310.469584 kJ/mol
# GULP energy per Si atom -5581.904349 kJ/mol
# Density = 2.590575 g / cm^3
# Si number density = 25.964843 Si / 1000 Ang^3
#
#
#
# Elastic Constant Matrix: (Units=GPa)
#
#
# Indices 1 2 3 4 5 6 
#
# 1 146.7604 60.9496 39.9602 15.0504 -0.8003 -33.8229
# 2 60.9496 107.7982 39.1330 37.8889 -0.3793 -25.2879
# 3 39.9602 39.1330 118.2694 28.6150 3.9087 -4.2059
# 4 15.0504 37.8889 28.6150 56.4644 2.9754 -0.9604
# 5 -0.8003 -0.3793 3.9087 2.9754 25.8996 11.0191
# 6 -33.8229 -25.2879 -4.2059 -0.9604 11.0191 65.3040
#
#
#
# Elastic Compliance Matrix: (Units=1/GPa)
#
#
# Indices 1 2 3 4 5 6 
#
# 1 0.009911 -0.004631 -0.002051 0.001621 -0.001091 0.003416
# 2 -0.004631 0.016514 -0.001587 -0.008964 -0.000250 0.003804
# 3 -0.002051 -0.001587 0.010568 -0.003714 -0.000870 -0.000904
# 4 0.001621 -0.008964 -0.003714 0.025214 -0.001458 -0.002254
# 5 -0.001091 -0.000250 -0.000870 -0.001458 0.042218 -0.007863
# 6 0.003416 0.003804 -0.000904 -0.002254 -0.007863 0.019791
#
#
# Mechanical properties :
#
#
# Convention : Reuss Voigt Hill
#
# Bulk Modulus (GPa) = 48.88821 72.54596 60.71709
# Shear Modulus (GPa) = 33.88202 45.05263 39.46732
#
# Velocity S-wave (km/s) = 3.61629 4.17002 3.90299
# Velocity P-wave (km/s) = 6.02546 7.15445 6.61409
#
# Compressibility (1/GPa) = 0.02045483
#
# Stress axis : x y z
#
# Youngs Moduli (GPa) = 100.90210 60.55644 94.62169
#
# Poissons Ratio (x) = 0.28046 0.19405
# Poissons Ratio (y) = 0.46732 0.15013
# Poissons Ratio (z) = 0.20693 0.09608
#
# Static dielectric constant tensor:
#      x y z
#    x 2.103600 0.044340 -0.082560 
#    y 0.044340 2.152020 -0.078290 
#    z -0.082560 -0.078290 2.024670 
# 
# From -- ./inp_files/314513.got.cif
#   From: 2010.05.17/outbox.cif.g08.bks.cpg/sg2_158_cif.got.tgz:314513.got - 2010.06.03 11:33:40.
