data_PCOD9100653
_publ_section_title
;
Structure prediction by ZEFSAII (Michael W. Deem and Ramdas Pophale) SiO2 
 PCOD9100653
Probable space group: P -1
;
_chemical_formula_sum "Si O2"
_cell_formula_units_Z 16
_cell_length_a 15.679976
_cell_length_b 8.637137
_cell_length_c 10.084384
_cell_angle_alpha 98.381143
_cell_angle_beta 53.512044
_cell_angle_gamma 64.259348
_cell_volume 820.848463
_symmetry_space_group_name_H-M "P -1"
_symmetry_group_IT_number 2
_symmetry_cell_setting 'triclinic'
loop_
_space_group_symop_operation_xyz
x,y,z
-x,-y,-z
loop_
_atom_site_type_symbol
_atom_site_label
_atom_site_fract_x
_atom_site_fract_y
_atom_site_fract_z
Si Si1 0.194970 0.224982 0.128599
Si Si2 0.459780 0.765883 0.797104
Si Si3 0.047516 0.747213 0.542081
Si Si4 0.423650 0.241522 0.587493
Si Si5 0.593161 0.528498 0.114204
Si Si6 0.652839 0.660699 0.823964
Si Si7 0.112075 0.492623 0.974472
Si Si8 0.069736 0.813180 0.227991
O O1 0.274670 0.262634 0.161199
O O2 0.048109 0.302429 0.327302
O O3 0.166298 0.348462 0.036802
O O4 0.300012 0.979690 0.975287
O O5 0.515694 0.729266 0.592486
O O6 0.473703 0.576634 0.816068
O O7 0.549488 0.790704 0.814597
O O8 0.212687 0.563275 0.383486
O O9 0.023143 0.791579 0.411901
O O10 0.998122 0.951346 0.687799
O O11 0.447439 0.318179 0.708719
O O12 0.255066 0.386180 0.748336
O O13 0.500000 0.000000 0.500000
O O14 0.572430 0.637074 0.007762
O O15 0.761420 0.339592 0.941723
O O16 0.042134 0.719209 0.123312
O O17 0.000000 0.500000 0.000000
#
# Coordination Sequence:
#
# PCOD9100653 Si02
#       8
#     2   2   2   2   2   2   2   2
#     4  12  22  40  63  89 125 162 200 256 318 362
#     4  12  24  38  64  94 122 168 207 248 307 375
#     4  10  20  37  65  88 119 159 201 248 316 360
#     4  11  22  43  63  86 125 165 207 255 307 363
#     4  10  20  43  62  86 128 166 202 252 313 364
#     4  11  23  40  62  96 126 157 208 262 299 369
#     4  11  24  42  64  87 122 164 209 255 309 370
#     4   9  19  40  63  85 123 161 195 255 308 362
#
# _framework density 19.492025999999999
#
# number of rings (size 3 to 8) (size 9 to 14) (size 15 to 20)
#    0.000    1.250    6.250    1.500    1.750    0.000 
#    2.250    0.625    0.000    0.000    0.000    0.000 
#    0.000    0.000    0.000    0.000    0.000    0.000 
#
# Total GULP energy -89367.816943 kJ/mol
# GULP energy per Si atom -5585.488559 kJ/mol
# Density = 1.944766 g / cm^3
# Si number density = 19.492026 Si / 1000 Ang^3
#
#
#
# Elastic Constant Matrix: (Units=GPa)
#
#
# Indices 1 2 3 4 5 6 
#
# 1 75.5782 3.0002 28.1255 4.8465 11.6777 4.5836
# 2 3.0002 45.6944 30.7445 2.9103 4.1637 12.8621
# 3 28.1255 30.7445 103.5167 -2.0278 11.7438 5.3441
# 4 4.8465 2.9103 -2.0278 37.3351 13.6602 -1.1822
# 5 11.6777 4.1637 11.7438 13.6602 23.3808 -0.0835
# 6 4.5836 12.8621 5.3441 -1.1822 -0.0835 27.5594
#
#
#
# Elastic Compliance Matrix: (Units=1/GPa)
#
#
# Indices 1 2 3 4 5 6 
#
# 1 0.015956 0.003568 -0.004539 -0.000493 -0.006050 -0.003478
# 2 0.003568 0.032576 -0.009951 -0.003845 -0.000388 -0.014033
# 3 -0.004539 -0.009951 0.014442 0.004337 -0.005739 0.002767
# 4 -0.000493 -0.003845 0.004337 0.035506 -0.021983 0.002492
# 5 -0.006050 -0.000388 -0.005739 -0.021983 0.061592 0.001544
# 6 -0.003478 -0.014033 0.002767 0.002492 0.001544 0.042988
#
#
# Mechanical properties :
#
#
# Convention : Reuss Voigt Hill
#
# Bulk Modulus (GPa) = 24.31321 38.72552 31.51936
# Shear Modulus (GPa) = 20.95432 28.51633 24.73532
#
# Velocity S-wave (km/s) = 3.28231 3.82903 3.56616
# Velocity P-wave (km/s) = 5.18317 6.28165 5.75866
#
# Compressibility (1/GPa) = 0.04112990
#
# Stress axis : x y z
#
# Youngs Moduli (GPa) = 62.67245 30.69731 69.24206
#
# Poissons Ratio (x) = -0.10952 0.31426
# Poissons Ratio (y) = -0.22360 0.68905
# Poissons Ratio (z) = 0.28445 0.30548
#
# Static dielectric constant tensor:
#      x y z
#    x 1.668200 0.033210 0.006210 
#    y 0.033210 1.694900 0.007230 
#    z 0.006210 0.007230 1.677900 
# 
# From -- ./inp_files/187777.got.cif
#   From: 2010.05.17/outbox.cif.g08.bks.cpg/sg2_94_cif.got.tgz:187777.got - 2010.06.03 11:33:40.
