data_PCOD9100164
_publ_section_title
;
Structure prediction by ZEFSAII (Michael W. Deem and Ramdas Pophale) SiO2 
 PCOD9100164
Probable space group: P -1
;
_chemical_formula_sum "Si O2"
_cell_formula_units_Z 16
_cell_length_a 6.367697
_cell_length_b 7.262822
_cell_length_c 15.657969
_cell_angle_alpha 75.258261
_cell_angle_beta 91.437885
_cell_angle_gamma 77.646138
_cell_volume 681.659878
_symmetry_space_group_name_H-M "P -1"
_symmetry_group_IT_number 2
_symmetry_cell_setting 'triclinic'
loop_
_space_group_symop_operation_xyz
x,y,z
-x,-y,-z
loop_
_atom_site_type_symbol
_atom_site_label
_atom_site_fract_x
_atom_site_fract_y
_atom_site_fract_z
Si Si1 0.979879 0.587886 0.738367
Si Si2 0.070727 0.198706 0.599196
Si Si3 0.627080 0.903414 0.766140
Si Si4 0.930027 0.682261 0.091516
Si Si5 0.155799 0.781681 0.226931
Si Si6 0.342562 0.376415 0.051961
Si Si7 0.589622 0.121061 0.415013
Si Si8 0.234077 0.556074 0.570178
O O1 0.871749 0.788327 0.758383
O O2 0.148438 0.452638 0.820431
O O3 0.800250 0.454893 0.747068
O O4 0.074164 0.601731 0.644975
O O5 0.254860 0.325995 0.585880
O O6 0.995359 0.172203 0.696913
O O7 0.878160 0.331206 0.527451
O O8 0.162201 0.993593 0.579832
O O9 0.556439 0.776501 0.855427
O O10 0.506043 0.898843 0.676785
O O11 0.647721 0.115603 0.772636
O O12 0.019548 0.837815 0.131244
O O13 0.138826 0.535910 0.069250
O O14 0.754167 0.737808 0.010368
O O15 0.500000 0.500000 0.000000
O O16 0.571695 0.343795 0.416683
O O17 0.500000 0.000000 0.500000
#
# Coordination Sequence:
#
# PCOD9100164 Si02
#       8
#     2   2   2   2   2   2   2   2
#     4   8  18  37  61  82 108 159 201 241 294 361
#     4  10  21  38  60  87 113 158 208 246 286 368
#     4  11  22  36  60  88 119 160 190 246 317 347
#     4   8  19  40  62  85 118 159 191 261 305 338
#     4   9  19  39  60  85 116 151 203 248 291 365
#     4  10  21  39  64  91 121 154 210 250 299 380
#     4  12  25  36  54  90 129 155 192 250 301 357
#     4  10  20  37  63  81 112 164 205 237 300 354
#
# _framework density 23.472114999999999
#
# number of rings (size 3 to 8) (size 9 to 14) (size 15 to 20)
#    0.750    1.500    0.000    2.625    1.750    2.000 
#    4.500    0.625    0.000    0.000    0.000    0.000 
#    0.000    0.000    0.000    0.000    0.000    0.000 
#
# Total GULP energy -89240.504648 kJ/mol
# GULP energy per Si atom -5577.531541 kJ/mol
# Density = 2.341869 g / cm^3
# Si number density = 23.472115 Si / 1000 Ang^3
#
#
#
# Elastic Constant Matrix: (Units=GPa)
#
#
# Indices 1 2 3 4 5 6 
#
# 1 32.3828 21.5448 46.9779 -3.0062 -2.5582 26.2850
# 2 21.5448 81.9542 36.8394 -7.1872 -6.5041 36.2542
# 3 46.9779 36.8394 170.8552 12.8942 8.7536 31.3672
# 4 -3.0062 -7.1872 12.8942 30.5380 3.3705 -4.5520
# 5 -2.5582 -6.5041 8.7536 3.3705 28.8580 2.8236
# 6 26.2850 36.2542 31.3672 -4.5520 2.8236 45.6828
#
#
#
# Elastic Compliance Matrix: (Units=1/GPa)
#
#
# Indices 1 2 3 4 5 6 
#
# 1 0.100211 0.007907 -0.022237 0.011541 0.020838 -0.048804
# 2 0.007907 0.021182 -0.004000 0.003767 0.008081 -0.018737
# 3 -0.022237 -0.004000 0.012325 -0.006528 -0.006559 0.007261
# 4 0.011541 0.003767 -0.006528 0.037358 -0.000374 -0.001402
# 5 0.020838 0.008081 -0.006559 -0.000374 0.041972 -0.016531
# 6 -0.048804 -0.018737 0.007261 -0.001402 -0.016531 0.060737
#
#
# Mechanical properties :
#
#
# Convention : Reuss Voigt Hill
#
# Bulk Modulus (GPa) = 10.30312 55.10183 32.70247
# Shear Modulus (GPa) = 14.58583 33.00443 23.79513
#
# Velocity S-wave (km/s) = 2.49552 3.75388 3.18742
# Velocity P-wave (km/s) = 3.56406 6.50502 5.24489
#
# Compressibility (1/GPa) = 0.09705798
#
# Stress axis : x y z
#
# Youngs Moduli (GPa) = 9.97890 47.21037 81.13370
#
# Poissons Ratio (x) = -0.37328 1.80421
# Poissons Ratio (y) = -0.07890 0.32450
# Poissons Ratio (z) = 0.22191 0.18882
#
# Static dielectric constant tensor:
#      x y z
#    x 1.923950 0.032190 0.045430 
#    y 0.032190 1.897710 -0.024400 
#    z 0.045430 -0.024400 1.970690 
# 
# From -- ./inp_files/480353.got.cif
#   From: 2010.05.17/outbox.cif.g08.bks.cpg/sg2_241_cif.got.tgz:480353.got - 2010.06.03 11:33:40.
