data_PCOD9100258
_publ_section_title
;
Structure prediction by ZEFSAII (Michael W. Deem and Ramdas Pophale) SiO2 
 PCOD9100258
Probable space group: P -1
;
_chemical_formula_sum "Si O2"
_cell_formula_units_Z 16
_cell_length_a 6.112673
_cell_length_b 14.647668
_cell_length_c 8.168716
_cell_angle_alpha 56.215781
_cell_angle_beta 87.785781
_cell_angle_gamma 88.434558
_cell_volume 607.423106
_symmetry_space_group_name_H-M "P -1"
_symmetry_group_IT_number 2
_symmetry_cell_setting 'triclinic'
loop_
_space_group_symop_operation_xyz
x,y,z
-x,-y,-z
loop_
_atom_site_type_symbol
_atom_site_label
_atom_site_fract_x
_atom_site_fract_y
_atom_site_fract_z
Si Si1 0.935032 0.103627 0.285132
Si Si2 0.367763 0.852019 0.466403
Si Si3 0.072861 0.745177 0.348420
Si Si4 0.124493 0.410631 0.971723
Si Si5 0.585389 0.050781 0.116107
Si Si6 0.802059 0.443048 0.667391
Si Si7 0.266790 0.242889 0.943103
Si Si8 0.693479 0.649820 0.641925
O O1 0.751548 0.162795 0.342572
O O2 0.833562 0.062217 0.157811
O O3 0.127465 0.187687 0.152287
O O4 0.000000 0.000000 0.500000
O O5 0.190868 0.845232 0.331760
O O6 0.535224 0.753578 0.522713
O O7 0.482636 0.968866 0.335190
O O8 0.243229 0.660658 0.343845
O O9 0.942812 0.684540 0.557461
O O10 0.881002 0.772118 0.198705
O O11 0.286991 0.370935 0.855985
O O12 0.297262 0.375862 0.142717
O O13 0.000000 0.500000 0.000000
O O14 0.908590 0.390333 0.881422
O O15 0.482241 0.171266 0.001277
O O16 0.500000 0.000000 0.000000
O O17 0.653123 0.544029 0.633987
O O18 0.000000 0.500000 0.500000
#
# Coordination Sequence:
#
# PCOD9100258 Si02
#       8
#     2   2   2   2   2   2   2   2
#     4  12  27  43  64  90 127 168 215 265 318 380
#     4  12  25  38  64  93 123 167 215 261 320 380
#     4  10  22  39  64  94 126 169 215 258 322 378
#     4   9  18  35  64  92 119 163 207 252 314 377
#     4  12  27  43  65  93 126 167 219 262 324 380
#     4   8  17  36  61  92 124 167 207 256 319 378
#     4  11  23  42  66  89 131 168 210 268 316 375
#     4  10  20  37  63  90 130 163 210 266 315 373
#
# _framework density 26.340785
#
# number of rings (size 3 to 8) (size 9 to 14) (size 15 to 20)
#    0.000    1.500    1.250    3.375    5.250    1.500 
#    0.000    1.250    0.000   46.500    0.000    0.000 
#    0.000    0.000    0.000    0.000    0.000    0.000 
#
# Total GULP energy -89157.806265 kJ/mol
# GULP energy per Si atom -5572.362892 kJ/mol
# Density = 2.628083 g / cm^3
# Si number density = 26.340785 Si / 1000 Ang^3
#
#
#
# Elastic Constant Matrix: (Units=GPa)
#
#
# Indices 1 2 3 4 5 6 
#
# 1 47.2810 40.2084 18.9840 -5.0279 -4.8745 7.4100
# 2 40.2084 122.4852 18.4239 7.9285 15.5140 -17.5682
# 3 18.9840 18.4239 97.9372 6.6866 16.4161 -2.7498
# 4 -5.0279 7.9285 6.6866 50.6932 1.1446 9.3947
# 5 -4.8745 15.5140 16.4161 1.1446 52.2917 -12.7927
# 6 7.4100 -17.5682 -2.7498 9.3947 -12.7927 44.6608
#
#
#
# Elastic Compliance Matrix: (Units=1/GPa)
#
#
# Indices 1 2 3 4 5 6 
#
# 1 0.041896 -0.016209 -0.007393 0.010048 0.007448 -0.013763
# 2 -0.016209 0.015431 0.001603 -0.005774 -0.004303 0.008840
# 3 -0.007393 0.001603 0.012347 -0.002869 -0.004506 0.001930
# 4 0.010048 -0.005774 -0.002869 0.023622 0.000872 -0.008834
# 5 0.007448 -0.004303 -0.004506 0.000872 0.023293 0.003283
# 6 -0.013763 0.008840 0.001930 -0.008834 0.003283 0.031069
#
#
# Mechanical properties :
#
#
# Convention : Reuss Voigt Hill
#
# Bulk Modulus (GPa) = 38.94648 46.99290 42.96969
# Shear Modulus (GPa) = 24.97294 42.20161 33.58728
#
# Velocity S-wave (km/s) = 3.08242 4.00702 3.57474
# Velocity P-wave (km/s) = 5.24272 6.26796 5.77812
#
# Compressibility (1/GPa) = 0.02567626
#
# Stress axis : x y z
#
# Youngs Moduli (GPa) = 23.86834 64.80487 80.98842
#
# Poissons Ratio (x) = 1.05044 0.59873
# Poissons Ratio (y) = 0.38689 -0.12981
# Poissons Ratio (z) = 0.17645 -0.10387
#
# Static dielectric constant tensor:
#      x y z
#    x 2.096170 -0.016610 -0.041860 
#    y -0.016610 2.061690 -0.041270 
#    z -0.041860 -0.041270 2.105710 
# 
# From -- ./inp_files/46651.got.cif
#   From: 2010.05.17/outbox.cif.g08.bks.cpg/sg2_24_cif.got.tgz:46651.got - 2010.06.03 11:33:40.
