data_PCOD9100034
_publ_section_title
;
Structure prediction by ZEFSAII (Michael W. Deem and Ramdas Pophale) SiO2 
 PCOD9100034
Probable space group: P -1
;
_chemical_formula_sum "Si O2"
_cell_formula_units_Z 14
_cell_length_a 14.055232
_cell_length_b 16.911121
_cell_length_c 8.035270
_cell_angle_alpha 84.425233
_cell_angle_beta 69.999260
_cell_angle_gamma 23.626704
_cell_volume 588.922346
_symmetry_space_group_name_H-M "P -1"
_symmetry_group_IT_number 2
_symmetry_cell_setting 'triclinic'
loop_
_space_group_symop_operation_xyz
x,y,z
-x,-y,-z
loop_
_atom_site_type_symbol
_atom_site_label
_atom_site_fract_x
_atom_site_fract_y
_atom_site_fract_z
Si Si1 0.484976 0.618014 0.807480
Si Si2 0.108653 0.813311 0.480373
Si Si3 0.896312 0.964499 0.202209
Si Si4 0.284611 0.345075 0.914326
Si Si5 0.320089 0.029111 0.505784
Si Si6 0.965881 0.596119 0.373636
Si Si7 0.481103 0.672241 0.174611
O O1 0.742890 0.382587 0.593913
O O2 0.196304 0.770050 0.960314
O O3 0.563660 0.576076 0.963689
O O4 0.375107 0.780859 0.758665
O O5 0.973374 0.931267 0.352449
O O6 0.384681 0.672443 0.354125
O O7 0.831811 0.042394 0.719838
O O8 0.800165 0.944277 0.289236
O O9 0.579241 0.090999 0.698129
O O10 0.279819 0.443455 0.861134
O O11 0.000000 0.500000 0.000000
O O12 0.255843 0.371229 0.124487
O O13 0.648488 0.816239 0.419359
O O14 0.091012 0.271802 0.558963
O O15 0.000000 0.500000 0.500000
#
# Coordination Sequence:
#
# PCOD9100034 Si02
#       7
#     2   2   2   2   2   2   2
#     4  10  23  38  61  96 126 161 205 250 303 362
#     4  10  21  39  62  87 128 164 196 257 305 358
#     4  10  20  39  62  90 130 156 201 253 302 367
#     4  10  22  40  63  90 123 161 203 256 309 360
#     4  10  22  42  61  89 124 158 200 260 305 359
#     4  10  24  41  66  89 114 160 213 251 310 365
#     4  10  20  37  62  91 120 163 212 242 305 376
#
# _framework density 23.772233
#
# number of rings (size 3 to 8) (size 9 to 14) (size 15 to 20)
#    0.000    2.000    1.429    1.714    6.000    0.571 
#    0.000   14.286    0.000    0.000    0.000    0.000 
#    0.000    0.000    0.000    0.000    0.000    0.000 
#
# Total GULP energy -78091.185987 kJ/mol
# GULP energy per Si atom -5577.941856 kJ/mol
# Density = 2.371813 g / cm^3
# Si number density = 23.772233 Si / 1000 Ang^3
#
#
#
# Elastic Constant Matrix: (Units=GPa)
#
#
# Indices 1 2 3 4 5 6 
#
# 1 110.6588 14.1704 10.7076 13.8255 -11.9817 31.3988
# 2 14.1704 127.4778 54.8565 18.5073 7.8368 33.5814
# 3 10.7076 54.8565 98.0685 21.6891 -9.5633 18.5838
# 4 13.8255 18.5073 21.6891 33.6328 6.6890 0.1235
# 5 -11.9817 7.8368 -9.5633 6.6890 35.6354 3.5863
# 6 31.3988 33.5814 18.5838 0.1235 3.5863 39.4577
#
#
#
# Elastic Compliance Matrix: (Units=1/GPa)
#
#
# Indices 1 2 3 4 5 6 
#
# 1 0.015868 0.002246 0.003955 -0.012222 0.009934 -0.017267
# 2 0.002246 0.013215 -0.004676 -0.004859 -0.001418 -0.010688
# 3 0.003955 -0.004676 0.017754 -0.012524 0.010321 -0.008428
# 4 -0.012222 -0.004859 -0.012524 0.048955 -0.017726 0.021217
# 5 0.009934 -0.001418 0.010321 -0.017726 0.039329 -0.015079
# 6 -0.017267 -0.010688 -0.008428 0.021217 -0.015079 0.053454
#
#
# Mechanical properties :
#
#
# Convention : Reuss Voigt Hill
#
# Bulk Modulus (GPa) = 20.04475 55.07493 37.55984
# Shear Modulus (GPa) = 24.73369 38.84322 31.78846
#
# Velocity S-wave (km/s) = 3.22909 4.04663 3.66075
# Velocity P-wave (km/s) = 4.72790 6.71205 5.80537
#
# Compressibility (1/GPa) = 0.04988838
#
# Stress axis : x y z
#
# Youngs Moduli (GPa) = 63.01845 75.67148 56.32524
#
# Poissons Ratio (x) = -0.17000 -0.22274
# Poissons Ratio (y) = -0.14157 0.26335
# Poissons Ratio (z) = -0.24921 0.35381
#
# Static dielectric constant tensor:
#      x y z
#    x 2.102660 0.016020 -0.067790 
#    y 0.016020 1.892180 0.030920 
#    z -0.067790 0.030920 1.944200 
# 
# From -- ./inp_files/313074.got.cif
#   From: 2010.05.17/outbox.cif.g08.bks.cpg/sg2_157_cif.got.tgz:313074.got - 2010.06.03 11:33:40.
