data_PCOD9100758
_publ_section_title
;
Structure prediction by ZEFSAII (Michael W. Deem and Ramdas Pophale) SiO2 
 PCOD9100758
Probable space group: P -1
;
_chemical_formula_sum "Si O2"
_cell_formula_units_Z 14
_cell_length_a 11.796477
_cell_length_b 9.695763
_cell_length_c 4.947049
_cell_angle_alpha 104.890305
_cell_angle_beta 77.565780
_cell_angle_gamma 104.237060
_cell_volume 522.991863
_symmetry_space_group_name_H-M "P -1"
_symmetry_group_IT_number 2
_symmetry_cell_setting 'triclinic'
loop_
_space_group_symop_operation_xyz
x,y,z
-x,-y,-z
loop_
_atom_site_type_symbol
_atom_site_label
_atom_site_fract_x
_atom_site_fract_y
_atom_site_fract_z
Si Si1 0.055642 0.661667 0.343780
Si Si2 0.169128 0.469129 0.894377
Si Si3 0.581743 0.435566 0.220897
Si Si4 0.369188 0.284460 0.029106
Si Si5 0.638274 0.996017 0.461907
Si Si6 0.203047 0.915870 0.047477
Si Si7 0.121160 0.206296 0.158179
O O1 0.152605 0.559835 0.220157
O O2 0.996226 0.753570 0.636555
O O3 0.114073 0.780577 0.151364
O O4 0.939927 0.541557 0.256937
O O5 0.149384 0.300137 0.915767
O O6 0.287406 0.557563 0.740912
O O7 0.500000 0.500000 0.500000
O O8 0.613851 0.555245 0.026662
O O9 0.496692 0.286413 0.101045
O O10 0.351870 0.160741 0.748164
O O11 0.251558 0.264714 0.262357
O O12 0.697372 0.025444 0.741754
O O13 0.500000 0.000000 0.500000
O O14 0.723427 0.106119 0.269328
O O15 0.124764 0.036659 0.076239
#
# Coordination Sequence:
#
# PCOD9100758 Si02
#       7
#     2   2   2   2   2   2   2
#     4  11  24  42  66 102 137 187 233 296 347 420
#     4  10  24  41  66  98 141 179 239 285 362 409
#     4  10  20  37  65  95 132 178 228 287 345 415
#     4   9  22  38  63  98 126 178 232 281 350 412
#     4  11  26  47  71 104 145 185 230 297 354 423
#     4  11  27  44  75 105 137 188 241 284 356 423
#     4  10  22  43  68  93 139 180 235 288 346 417
#
# _framework density 26.769057
#
# number of rings (size 3 to 8) (size 9 to 14) (size 15 to 20)
#    0.000    1.714    0.000    2.143   14.000    1.714 
#    0.000    0.000    0.000    0.000    0.000    0.000 
#    0.000    0.000    0.000    0.000    0.000    0.000 
#
# Total GULP energy -78109.065611 kJ/mol
# GULP energy per Si atom -5579.218972 kJ/mol
# Density = 2.670813 g / cm^3
# Si number density = 26.769057 Si / 1000 Ang^3
#
#
#
# Elastic Constant Matrix: (Units=GPa)
#
#
# Indices 1 2 3 4 5 6 
#
# 1 135.6322 15.4484 40.6070 4.3174 -31.0169 21.9494
# 2 15.4484 93.7053 8.6582 -2.3653 -17.9829 2.4562
# 3 40.6070 8.6582 103.9349 -15.2098 -20.9332 -8.6330
# 4 4.3174 -2.3653 -15.2098 35.8279 9.4941 -11.2776
# 5 -31.0169 -17.9829 -20.9332 9.4941 48.0911 1.2907
# 6 21.9494 2.4562 -8.6330 -11.2776 1.2907 50.1826
#
#
#
# Elastic Compliance Matrix: (Units=1/GPa)
#
#
# Indices 1 2 3 4 5 6 
#
# 1 0.012243 -0.000100 -0.005170 -0.008263 0.007462 -0.008288
# 2 -0.000100 0.011542 -0.000229 -0.000731 0.004318 -0.000836
# 3 -0.005170 -0.000229 0.013530 0.008193 0.000680 0.006424
# 4 -0.008263 -0.000731 0.008193 0.039515 -0.010218 0.014202
# 5 0.007462 0.004318 0.000680 -0.010218 0.029707 -0.006419
# 6 -0.008288 -0.000836 0.006424 0.014202 -0.006419 0.028055
#
#
# Mechanical properties :
#
#
# Convention : Reuss Voigt Hill
#
# Bulk Modulus (GPa) = 37.99837 51.41108 44.70473
# Shear Modulus (GPa) = 32.39176 44.72423 38.55800
#
# Velocity S-wave (km/s) = 3.48234 4.09191 3.79937
# Velocity P-wave (km/s) = 5.51314 6.44764 5.99861
#
# Compressibility (1/GPa) = 0.02631692
#
# Stress axis : x y z
#
# Youngs Moduli (GPa) = 81.68118 86.64328 73.91188
#
# Poissons Ratio (x) = 0.00866 0.38209
# Poissons Ratio (y) = 0.00817 0.01693
# Poissons Ratio (z) = 0.42225 0.01984
#
# Static dielectric constant tensor:
#      x y z
#    x 2.514220 -0.035420 0.120120 
#    y -0.035420 2.114780 0.038350 
#    z 0.120120 0.038350 2.190950 
# 
# From -- ./inp_files/71694.got.cif
#   From: 2010.05.17/outbox.cif.g08.bks.cpg/sg2_36_cif.got.tgz:71694.got - 2010.06.03 11:33:40.
