data_PCOD9100887
_publ_section_title
;
Structure prediction by ZEFSAII (Michael W. Deem and Ramdas Pophale) SiO2 
 PCOD9100887
Probable space group: P -1
;
_chemical_formula_sum "Si O2"
_cell_formula_units_Z 16
_cell_length_a 7.712609
_cell_length_b 15.292460
_cell_length_c 11.860832
_cell_angle_alpha 32.478181
_cell_angle_beta 76.569705
_cell_angle_gamma 83.618583
_cell_volume 720.956695
_symmetry_space_group_name_H-M "P -1"
_symmetry_group_IT_number 2
_symmetry_cell_setting 'triclinic'
loop_
_space_group_symop_operation_xyz
x,y,z
-x,-y,-z
loop_
_atom_site_type_symbol
_atom_site_label
_atom_site_fract_x
_atom_site_fract_y
_atom_site_fract_z
Si Si1 0.676223 0.095365 0.273486
Si Si2 0.919334 0.842600 0.951455
Si Si3 0.455927 0.390733 0.016975
Si Si4 0.196340 0.098732 0.336681
Si Si5 0.788348 0.125251 0.793710
Si Si6 0.423090 0.063909 0.771493
Si Si7 0.584768 0.580420 0.568829
Si Si8 0.222018 0.526530 0.537077
O O1 0.588307 0.256874 0.129448
O O2 0.881136 0.142832 0.145133
O O3 0.685766 0.002461 0.492002
O O4 0.581347 0.986371 0.303023
O O5 0.793779 0.877598 0.825463
O O6 0.906397 0.988153 0.885227
O O7 0.858181 0.658261 0.209101
O O8 0.254457 0.286103 0.166867
O O9 0.500000 0.500000 0.000000
O O10 0.493817 0.499359 0.782449
O O11 0.000000 0.000000 0.500000
O O12 0.623643 0.102295 0.752653
O O13 0.874010 0.318150 0.583285
O O14 0.691590 0.075325 0.982037
O O15 0.339865 0.230274 0.621943
O O16 0.417481 0.574886 0.514274
O O17 0.731484 0.487714 0.586747
#
# Coordination Sequence:
#
# PCOD9100887 Si02
#       8
#     2   2   2   2   2   2   2   2
#     4  11  25  42  65  93 130 173 219 272 329 396
#     4  11  22  44  64  94 135 174 217 270 331 392
#     4  12  24  42  67  98 130 168 220 280 336 389
#     4  10  23  45  68  89 127 176 221 270 331 392
#     4  10  21  37  68  94 129 177 213 267 323 397
#     4  10  20  39  64  97 127 169 222 259 329 392
#     4  10  20  37  66  96 128 165 214 275 319 394
#     4  10  20  38  64  99 130 167 217 265 325 390
#
# _framework density 22.192733
#
# number of rings (size 3 to 8) (size 9 to 14) (size 15 to 20)
#    0.000    1.500    2.500    2.625    1.750    2.500 
#    6.750    2.500    0.000    0.000    0.000    0.000 
#    0.000    0.000    0.000    0.000    0.000    0.000 
#
# Total GULP energy -89338.684429 kJ/mol
# GULP energy per Si atom -5583.667777 kJ/mol
# Density = 2.214222 g / cm^3
# Si number density = 22.192733 Si / 1000 Ang^3
#
#
#
# Elastic Constant Matrix: (Units=GPa)
#
#
# Indices 1 2 3 4 5 6 
#
# 1 56.9907 33.3986 15.5002 -9.5028 -2.0232 6.4128
# 2 33.3986 175.9203 65.7976 -19.8760 -2.5990 0.3713
# 3 15.5002 65.7976 117.9385 -27.6606 -9.6995 3.0430
# 4 -9.5028 -19.8760 -27.6606 30.5284 -5.8359 15.4861
# 5 -2.0232 -2.5990 -9.6995 -5.8359 23.9688 2.5897
# 6 6.4128 0.3713 3.0430 15.4861 2.5897 32.3683
#
#
#
# Elastic Compliance Matrix: (Units=1/GPa)
#
#
# Indices 1 2 3 4 5 6 
#
# 1 0.023547 -0.003942 0.004382 0.017714 0.009185 -0.014242
# 2 -0.003942 0.007894 -0.004417 -0.001415 -0.001817 0.001928
# 3 0.004382 -0.004417 0.018189 0.026165 0.015381 -0.016276
# 4 0.017714 -0.001415 0.026165 0.097363 0.041672 -0.055869
# 5 0.009185 -0.001817 0.015381 0.041672 0.061708 -0.028119
# 6 -0.014242 0.001928 -0.016276 -0.055869 -0.028119 0.064203
#
#
# Mechanical properties :
#
#
# Convention : Reuss Voigt Hill
#
# Bulk Modulus (GPa) = 23.99493 64.47137 44.23315
# Shear Modulus (GPa) = 16.96348 33.11665 25.04006
#
# Velocity S-wave (km/s) = 2.76773 3.86713 3.36266
# Velocity P-wave (km/s) = 4.58795 7.00381 5.92041
#
# Compressibility (1/GPa) = 0.04167548
#
# Stress axis : x y z
#
# Youngs Moduli (GPa) = 42.46738 126.67643 54.97850
#
# Poissons Ratio (x) = 0.49941 -0.24091
# Poissons Ratio (y) = 0.16742 0.24285
# Poissons Ratio (z) = -0.18609 0.55955
#
# Static dielectric constant tensor:
#      x y z
#    x 1.889290 -0.013810 -0.019940 
#    y -0.013810 1.728960 -0.069660 
#    z -0.019940 -0.069660 1.727490 
# 
# From -- ./inp_files/398135.got.cif
#   From: 2010.05.17/outbox.cif.g08.bks.cpg/sg2_200_cif.got.tgz:398135.got - 2010.06.03 11:33:40.
