data_PCOD9100133
_publ_section_title
;
Structure prediction by ZEFSAII (Michael W. Deem and Ramdas Pophale) SiO2 
 PCOD9100133
Probable space group: P -1
;
_chemical_formula_sum "Si O2"
_cell_formula_units_Z 16
_cell_length_a 8.904318
_cell_length_b 6.556009
_cell_length_c 15.340728
_cell_angle_alpha 78.105123
_cell_angle_beta 123.117006
_cell_angle_gamma 95.401891
_cell_volume 733.775167
_symmetry_space_group_name_H-M "P -1"
_symmetry_group_IT_number 2
_symmetry_cell_setting 'triclinic'
loop_
_space_group_symop_operation_xyz
x,y,z
-x,-y,-z
loop_
_atom_site_type_symbol
_atom_site_label
_atom_site_fract_x
_atom_site_fract_y
_atom_site_fract_z
Si Si1 0.219165 0.573377 0.885319
Si Si2 0.521187 0.066677 0.101661
Si Si3 0.116094 0.666536 0.576410
Si Si4 0.163883 0.181717 0.241502
Si Si5 0.190686 0.947057 0.107600
Si Si6 0.215997 0.500649 0.086554
Si Si7 0.202254 0.286071 0.747585
Si Si8 0.889573 0.005936 0.589161
O O1 0.362566 0.727673 0.876951
O O2 0.033291 0.709739 0.819293
O O3 0.187956 0.369630 0.834934
O O4 0.285076 0.516763 0.008282
O O5 0.635850 0.877348 0.196939
O O6 0.500000 0.000000 0.000000
O O7 0.228589 0.502599 0.684647
O O8 0.993733 0.820792 0.584979
O O9 0.000000 0.500000 0.500000
O O10 0.202463 0.832161 0.522672
O O11 0.223607 0.110089 0.362446
O O12 0.261623 0.335878 0.191836
O O13 0.164261 0.979311 0.198403
O O14 0.748749 0.282206 0.876585
O O15 0.664413 0.914606 0.907820
O O16 0.000000 0.000000 0.000000
O O17 0.000000 0.500000 0.000000
O O18 0.032014 0.154613 0.671448
#
# Coordination Sequence:
#
# PCOD9100133 Si02
#       8
#     2   2   2   2   2   2   2   2
#     4  11  22  39  59  88 121 171 210 256 305 361
#     4  12  25  39  59  87 124 172 215 257 306 361
#     4   9  19  36  63  94 125 154 202 266 312 366
#     4  11  22  35  60  84 124 160 204 252 304 364
#     4  12  24  41  57  80 124 170 209 261 303 363
#     4  10  22  34  55  83 116 165 205 246 301 355
#     4  11  22  37  61  89 131 157 205 263 311 365
#     4  10  20  37  62  97 121 160 206 258 318 363
#
# _framework density 21.805046000000001
#
# number of rings (size 3 to 8) (size 9 to 14) (size 15 to 20)
#    0.000    1.250    6.250    0.000    5.250    1.500 
#    0.000    0.000    0.000    0.750    0.000   13.125 
#    0.000    0.000    0.000    0.000    0.000    0.125 
#
# Total GULP energy -89241.647057 kJ/mol
# GULP energy per Si atom -5577.602941 kJ/mol
# Density = 2.175542 g / cm^3
# Si number density = 21.805046 Si / 1000 Ang^3
#
#
#
# Elastic Constant Matrix: (Units=GPa)
#
#
# Indices 1 2 3 4 5 6 
#
# 1 86.9359 29.5673 19.3722 -3.9313 -18.5162 -0.3132
# 2 29.5673 134.3829 37.3692 -5.5061 -20.0007 -3.0093
# 3 19.3722 37.3692 92.2483 -34.2769 -41.5768 -4.1309
# 4 -3.9313 -5.5061 -34.2769 56.9607 2.6308 -11.5821
# 5 -18.5162 -20.0007 -41.5768 2.6308 36.6002 0.3850
# 6 -0.3132 -3.0093 -4.1309 -11.5821 0.3850 26.1598
#
#
#
# Elastic Compliance Matrix: (Units=1/GPa)
#
#
# Indices 1 2 3 4 5 6 
#
# 1 0.013643 -0.002404 0.003070 0.002412 0.008888 0.001309
# 2 -0.002404 0.008929 -0.004475 -0.002060 -0.001266 -0.000602
# 3 0.003070 -0.004475 0.045078 0.028453 0.048075 0.018530
# 4 0.002412 -0.002060 0.028453 0.037436 0.029511 0.020425
# 5 0.008888 -0.001266 0.048075 0.029511 0.083414 0.019391
# 6 0.001309 -0.000602 0.018530 0.020425 0.019391 0.049857
#
#
# Mechanical properties :
#
#
# Convention : Reuss Voigt Hill
#
# Bulk Modulus (GPa) = 16.65797 54.02050 35.33924
# Shear Modulus (GPa) = 18.79796 39.09469 28.94633
#
# Velocity S-wave (km/s) = 2.93933 4.23888 3.64745
# Velocity P-wave (km/s) = 4.37900 6.98467 5.82929
#
# Compressibility (1/GPa) = 0.06003132
#
# Stress axis : x y z
#
# Youngs Moduli (GPa) = 73.29579 112.00070 22.18355
#
# Poissons Ratio (x) = 0.26930 -0.06810
# Poissons Ratio (y) = 0.17624 0.09927
# Poissons Ratio (z) = -0.22501 0.50119
#
# Static dielectric constant tensor:
#      x y z
#    x 1.790640 0.013350 0.015660 
#    y 0.013350 1.905200 -0.012100 
#    z 0.015660 -0.012100 1.806670 
# 
# From -- ./inp_files/571266.got.cif
#   From: 2010.05.17/outbox.cif.g08.bks.cpg/sg2_286_cif.got.tgz:571266.got - 2010.06.03 11:33:40.
