data_PCOD9100463
_publ_section_title
;
Structure prediction by ZEFSAII (Michael W. Deem and Ramdas Pophale) SiO2 
 PCOD9100463
Probable space group: P -1
;
_chemical_formula_sum "Si O2"
_cell_formula_units_Z 16
_cell_length_a 6.973543
_cell_length_b 9.886682
_cell_length_c 17.061464
_cell_angle_alpha 102.481729
_cell_angle_beta 100.510312
_cell_angle_gamma 48.707207
_cell_volume 861.655088
_symmetry_space_group_name_H-M "P -1"
_symmetry_group_IT_number 2
_symmetry_cell_setting 'triclinic'
loop_
_space_group_symop_operation_xyz
x,y,z
-x,-y,-z
loop_
_atom_site_type_symbol
_atom_site_label
_atom_site_fract_x
_atom_site_fract_y
_atom_site_fract_z
Si Si1 0.519247 0.194584 0.097901
Si Si2 0.260760 0.638062 0.942418
Si Si3 0.484837 0.367176 0.431423
Si Si4 0.979116 0.669442 0.341581
Si Si5 0.993789 0.989617 0.403445
Si Si6 0.461604 0.172051 0.549680
Si Si7 0.827114 0.797559 0.052690
Si Si8 0.995337 0.512601 0.161472
O O1 0.672247 0.261786 0.094010
O O2 0.290445 0.329241 0.157717
O O3 0.697416 0.985705 0.110231
O O4 0.380254 0.199301 0.009353
O O5 0.184864 0.536552 0.874779
O O6 0.500000 0.500000 0.000000
O O7 0.019002 0.770299 0.998431
O O8 0.500000 0.500000 0.500000
O O9 0.424938 0.280528 0.482621
O O10 0.260005 0.495340 0.369421
O O11 0.752550 0.197053 0.390235
O O12 0.779452 0.710457 0.397025
O O13 0.927100 0.622922 0.249026
O O14 0.958275 0.846238 0.359502
O O15 0.280651 0.904372 0.393695
O O16 0.000000 0.000000 0.500000
O O17 0.500000 0.000000 0.500000
O O18 0.967700 0.630582 0.101302
#
# Coordination Sequence:
#
# PCOD9100463 Si02
#       8
#     2   2   2   2   2   2   2   2
#     4  10  20  38  64  88 120 158 210 240 289 366
#     4  11  18  38  66  88 117 161 208 245 286 362
#     4  11  20  40  68  88 114 158 212 254 300 370
#     4  12  24  39  62  93 126 162 200 263 318 360
#     4  10  20  39  62  88 117 151 205 254 302 365
#     4  11  20  40  67  89 117 159 212 254 300 371
#     4  10  20  37  64  90 114 167 200 243 296 358
#     4  11  24  38  58  89 130 156 197 254 314 351
#
# _framework density 18.568915000000001
#
# number of rings (size 3 to 8) (size 9 to 14) (size 15 to 20)
#    0.000    1.250    7.500    1.500    0.000    2.000 
#    0.000    0.000    2.750    0.000    0.000    0.000 
#    0.000    0.000    0.000    0.000    0.000    0.000 
#
# Total GULP energy -89285.597152 kJ/mol
# GULP energy per Si atom -5580.349822 kJ/mol
# Density = 1.852665 g / cm^3
# Si number density = 18.568915 Si / 1000 Ang^3
#
#
#
# Elastic Constant Matrix: (Units=GPa)
#
#
# Indices 1 2 3 4 5 6 
#
# 1 84.4062 24.4748 9.4509 6.3235 20.7213 8.2230
# 2 24.4748 102.8653 11.1128 17.7417 14.7536 1.0461
# 3 9.4509 11.1128 55.4818 20.9701 13.2127 6.8608
# 4 6.3235 17.7417 20.9701 21.9196 4.0921 7.0646
# 5 20.7213 14.7536 13.2127 4.0921 12.5257 -1.2031
# 6 8.2230 1.0461 6.8608 7.0646 -1.2031 38.8872
#
#
#
# Elastic Compliance Matrix: (Units=1/GPa)
#
#
# Indices 1 2 3 4 5 6 
#
# 1 0.024426 0.002006 0.012115 -0.007776 -0.053740 -0.007606
# 2 0.002006 0.014568 0.008610 -0.016003 -0.024349 -0.000181
# 3 0.012115 0.008610 0.045816 -0.040177 -0.065926 -0.005617
# 4 -0.007776 -0.016003 -0.040177 0.093311 0.042991 -0.006458
# 5 -0.053740 -0.024349 -0.065926 0.042991 0.255194 0.023735
# 6 -0.007606 -0.000181 -0.005617 -0.006458 0.023735 0.030227
#
#
# Mechanical properties :
#
#
# Convention : Reuss Voigt Hill
#
# Bulk Modulus (GPa) = 7.67624 36.98115 22.32870
# Shear Modulus (GPa) = 10.83414 27.84750 19.34082
#
# Velocity S-wave (km/s) = 2.41810 3.87678 3.23084
# Velocity P-wave (km/s) = 3.45531 6.32440 5.09594
#
# Compressibility (1/GPa) = 0.13027205
#
# Stress axis : x y z
#
# Youngs Moduli (GPa) = 40.94033 68.64176 21.82652
#
# Poissons Ratio (x) = -0.13768 -0.26443
# Poissons Ratio (y) = -0.08212 -0.18793
# Poissons Ratio (z) = -0.49600 -0.59101
#
# Static dielectric constant tensor:
#      x y z
#    x 1.670460 -0.026980 -0.003930 
#    y -0.026980 1.617390 0.001570 
#    z -0.003930 0.001570 1.623730 
# 
# From -- ./inp_files/547305.got.cif
#   From: 2010.05.17/outbox.cif.g08.bks.cpg/sg2_274_cif.got.tgz:547305.got - 2010.06.03 11:33:40.
