data_PCOD9100905
_publ_section_title
;
Structure prediction by ZEFSAII (Michael W. Deem and Ramdas Pophale) SiO2 
 PCOD9100905
Probable space group: P -1
;
_chemical_formula_sum "Si O2"
_cell_formula_units_Z 16
_cell_length_a 8.686691
_cell_length_b 11.071218
_cell_length_c 19.880908
_cell_angle_alpha 159.579459
_cell_angle_beta 71.411560
_cell_angle_gamma 111.742156
_cell_volume 617.270336
_symmetry_space_group_name_H-M "P -1"
_symmetry_group_IT_number 2
_symmetry_cell_setting 'triclinic'
loop_
_space_group_symop_operation_xyz
x,y,z
-x,-y,-z
loop_
_atom_site_type_symbol
_atom_site_label
_atom_site_fract_x
_atom_site_fract_y
_atom_site_fract_z
Si Si1 0.222035 0.096380 0.453811
Si Si2 0.442862 0.331999 0.333566
Si Si3 0.333380 0.725518 0.925117
Si Si4 0.237840 0.847829 0.614837
Si Si5 0.018118 0.268853 0.811426
Si Si6 0.536349 0.251548 0.706884
Si Si7 0.136408 0.776952 0.847349
Si Si8 0.642217 0.858638 0.114286
O O1 0.390434 0.365513 0.544680
O O2 0.097090 0.349452 0.622981
O O3 0.135128 0.828144 0.268844
O O4 0.296632 0.895428 0.398796
O O5 0.280782 0.490788 0.451291
O O6 0.495603 0.078549 0.250263
O O7 0.399785 0.073691 0.141277
O O8 0.474768 0.492337 0.785388
O O9 0.268147 0.822851 0.913809
O O10 0.175134 0.492484 0.864923
O O11 0.375493 0.950974 0.590901
O O12 0.279597 0.126229 0.815717
O O13 0.066424 0.901775 0.637120
O O14 0.000000 0.500000 0.000000
O O15 0.571413 0.493442 0.895725
O O16 0.219395 0.936569 0.849770
O O17 0.000000 0.000000 0.000000
#
# Coordination Sequence:
#
# PCOD9100905 Si02
#       8
#     2   2   2   2   2   2   2   2
#     4  10  23  44  69  99 131 175 225 268 337 383
#     4   9  21  41  68  97 131 172 218 280 326 399
#     4  10  24  45  66  95 134 176 223 267 333 383
#     4  10  20  37  66  98 129 167 216 276 334 396
#     4  11  25  42  67 100 134 172 217 279 335 399
#     4   9  20  40  67  97 126 167 219 281 325 393
#     4  11  27  43  63  94 139 182 218 271 321 401
#     4  10  20  38  65  93 130 175 216 267 333 384
#
# _framework density 25.920572
#
# number of rings (size 3 to 8) (size 9 to 14) (size 15 to 20)
#    0.000    2.000    0.000    1.500    5.250   12.500 
#    0.000    3.125    0.000    0.000    0.000    0.000 
#    0.000    0.000    0.000    0.000    0.000    0.000 
#
# Total GULP energy -89510.613335 kJ/mol
# GULP energy per Si atom -5594.413333 kJ/mol
# Density = 2.586158 g / cm^3
# Si number density = 25.920572 Si / 1000 Ang^3
#
#
#
# Elastic Constant Matrix: (Units=GPa)
#
#
# Indices 1 2 3 4 5 6 
#
# 1 152.5921 50.0867 65.8913 5.1674 -21.9970 -24.5954
# 2 50.0867 74.7690 21.2551 -4.8410 -2.9705 0.6789
# 3 65.8913 21.2551 117.8822 -8.2315 -15.0150 -4.4687
# 4 5.1674 -4.8410 -8.2315 26.7999 -8.0385 9.3734
# 5 -21.9970 -2.9705 -15.0150 -8.0385 61.4206 -0.6360
# 6 -24.5954 0.6789 -4.4687 9.3734 -0.6360 48.3495
#
#
#
# Elastic Compliance Matrix: (Units=1/GPa)
#
#
# Indices 1 2 3 4 5 6 
#
# 1 0.013759 -0.007965 -0.006266 -0.008267 0.002013 0.008161
# 2 -0.007965 0.018834 0.001237 0.007035 -0.000776 -0.005576
# 3 -0.006266 0.001237 0.012334 0.006913 0.001701 -0.003383
# 4 -0.008267 0.007035 0.006913 0.048425 0.005273 -0.012984
# 5 0.002013 -0.000776 0.001701 0.005273 0.018075 0.000408
# 6 0.008161 -0.005576 -0.003383 -0.012984 0.000408 0.027123
#
#
# Mechanical properties :
#
#
# Convention : Reuss Voigt Hill
#
# Bulk Modulus (GPa) = 52.80196 68.85660 60.82928
# Shear Modulus (GPa) = 29.26549 41.18133 35.22341
#
# Velocity S-wave (km/s) = 3.36377 3.99024 3.69032
# Velocity P-wave (km/s) = 5.95831 6.91748 6.45573
#
# Compressibility (1/GPa) = 0.01893869
#
# Stress axis : x y z
#
# Youngs Moduli (GPa) = 72.67759 53.09570 81.07949
#
# Poissons Ratio (x) = 0.42292 0.50806
# Poissons Ratio (y) = 0.57890 -0.10033
# Poissons Ratio (z) = 0.45541 -0.06570
#
# Static dielectric constant tensor:
#      x y z
#    x 2.014230 0.016030 -0.042360 
#    y 0.016030 2.032920 0.028680 
#    z -0.042360 0.028680 2.114690 
# 
# From -- ./inp_files/589782.got.cif
#   From: 2010.05.17/outbox.cif.g08.bks.cpg/sg2_295_cif.got.tgz:589782.got - 2010.06.03 11:33:40.
