data_PCOD9100879
_publ_section_title
;
Structure prediction by ZEFSAII (Michael W. Deem and Ramdas Pophale) SiO2 
 PCOD9100879
Probable space group: P -1
;
_chemical_formula_sum "Si O2"
_cell_formula_units_Z 16
_cell_length_a 25.625018
_cell_length_b 9.386440
_cell_length_c 26.314193
_cell_angle_alpha 139.441521
_cell_angle_beta 10.831538
_cell_angle_gamma 139.402762
_cell_volume 768.930361
_symmetry_space_group_name_H-M "P -1"
_symmetry_group_IT_number 2
_symmetry_cell_setting 'triclinic'
loop_
_space_group_symop_operation_xyz
x,y,z
-x,-y,-z
loop_
_atom_site_type_symbol
_atom_site_label
_atom_site_fract_x
_atom_site_fract_y
_atom_site_fract_z
Si Si1 0.967767 0.864577 0.597472
Si Si2 0.688414 0.678576 0.524096
Si Si3 0.405824 0.796181 0.072565
Si Si4 0.186362 0.231239 0.995659
Si Si5 0.852659 0.678968 0.830531
Si Si6 0.681568 0.151897 0.640441
Si Si7 0.426026 0.817734 0.478978
Si Si8 0.722169 0.282765 0.989025
O O1 0.194378 0.871379 0.337818
O O2 0.120567 0.809001 0.488497
O O3 0.687108 0.717066 0.807478
O O4 0.824098 0.087868 0.806272
O O5 0.547054 0.427143 0.589331
O O6 0.566723 0.760885 0.716615
O O7 0.643020 0.890905 0.591869
O O8 0.020355 0.670444 0.205008
O O9 0.240124 0.581393 0.147145
O O10 0.500000 0.000000 0.000000
O O11 0.390265 0.133682 0.734285
O O12 0.289281 0.491389 0.967587
O O13 0.161487 0.186156 0.066871
O O14 0.887349 0.193441 0.244692
O O15 0.155856 0.720693 0.526769
O O16 0.623198 0.774370 0.039586
O O17 0.500000 0.000000 0.500000
#
# Coordination Sequence:
#
# PCOD9100879 Si02
#       8
#     2   2   2   2   2   2   2   2
#     4  11  22  39  60  82 115 151 198 251 286 332
#     4   9  18  34  58  86 113 141 184 233 273 336
#     4  12  26  40  58  84 114 149 195 254 309 335
#     4  10  21  37  58  86 121 151 185 232 286 343
#     4  12  25  39  57  82 117 159 198 234 281 349
#     4  11  23  39  59  82 112 160 205 230 273 337
#     4  10  20  37  66  96 116 140 181 238 295 340
#     4   9  17  33  58  82 106 147 188 233 288 327
#
# _framework density 20.808125
#
# number of rings (size 3 to 8) (size 9 to 14) (size 15 to 20)
#    0.000    1.500    0.000    6.750    0.000    7.000 
#    0.000    0.000    0.000    4.500    0.000    0.000 
#    0.000    0.000    0.000    0.000    0.000    0.000 
#
# Total GULP energy -89225.807547 kJ/mol
# GULP energy per Si atom -5576.612972 kJ/mol
# Density = 2.076076 g / cm^3
# Si number density = 20.808125 Si / 1000 Ang^3
#
#
#
# Elastic Constant Matrix: (Units=GPa)
#
#
# Indices 1 2 3 4 5 6 
#
# 1 125.7355 24.7744 67.5844 21.8472 38.5783 14.9782
# 2 24.7744 85.1423 2.3449 -7.0317 10.2480 16.5940
# 3 67.5844 2.3449 164.3528 16.4640 41.8886 4.0420
# 4 21.8472 -7.0317 16.4640 43.9237 10.3994 -0.8242
# 5 38.5783 10.2480 41.8886 10.3994 37.4664 6.6108
# 6 14.9782 16.5940 4.0420 -0.8242 6.6108 26.1680
#
#
#
# Elastic Compliance Matrix: (Units=1/GPa)
#
#
# Indices 1 2 3 4 5 6 
#
# 1 0.013820 -0.002535 -0.003007 -0.004258 -0.008309 -0.003873
# 2 -0.002535 0.014437 0.001297 0.003546 -0.002510 -0.007159
# 3 -0.003007 0.001297 0.009272 0.000131 -0.007921 0.001472
# 4 -0.004258 0.003546 0.000131 0.026500 -0.004463 0.002131
# 5 -0.008309 -0.002510 -0.007921 -0.004463 0.046802 -0.004393
# 6 -0.003873 -0.007159 0.001472 0.002131 -0.004393 0.045921
#
#
# Mechanical properties :
#
#
# Convention : Reuss Voigt Hill
#
# Bulk Modulus (GPa) = 34.43728 62.73757 48.58743
# Shear Modulus (GPa) = 28.58420 40.21342 34.39881
#
# Velocity S-wave (km/s) = 3.71037 4.40088 4.07030
# Velocity P-wave (km/s) = 5.91115 7.48597 6.74468
#
# Compressibility (1/GPa) = 0.02903830
#
# Stress axis : x y z
#
# Youngs Moduli (GPa) = 72.36053 69.26600 107.85121
#
# Poissons Ratio (x) = 0.17559 0.32433
# Poissons Ratio (y) = 0.18344 -0.13988
# Poissons Ratio (z) = 0.21760 -0.08984
#
# Static dielectric constant tensor:
#      x y z
#    x 1.774920 -0.032660 0.003640 
#    y -0.032660 1.812440 -0.016240 
#    z 0.003640 -0.016240 1.716520 
# 
# From -- ./inp_files/99317.got.cif
#   From: 2010.05.17/outbox.cif.g08.bks.cpg/sg2_50_cif.got.tgz:99317.got - 2010.06.03 11:33:40.
