data_PCOD9100230
_publ_section_title
;
Structure prediction by ZEFSAII (Michael W. Deem and Ramdas Pophale) SiO2 
 PCOD9100230
Probable space group: P -1
;
_chemical_formula_sum "Si O2"
_cell_formula_units_Z 12
_cell_length_a 20.566930
_cell_length_b 9.386214
_cell_length_c 15.075788
_cell_angle_alpha 37.764818
_cell_angle_beta 158.388082
_cell_angle_gamma 133.237334
_cell_volume 640.179905
_symmetry_space_group_name_H-M "P -1"
_symmetry_group_IT_number 2
_symmetry_cell_setting 'triclinic'
loop_
_space_group_symop_operation_xyz
x,y,z
-x,-y,-z
loop_
_atom_site_type_symbol
_atom_site_label
_atom_site_fract_x
_atom_site_fract_y
_atom_site_fract_z
Si Si1 0.812370 0.944362 0.682146
Si Si2 0.141936 0.618333 0.354985
Si Si3 0.469736 0.757631 0.290924
Si Si4 0.213084 0.927247 0.612561
Si Si5 0.095872 0.133964 0.627602
Si Si6 0.586792 0.678470 0.272627
O O1 0.617638 0.884746 0.457785
O O2 0.816335 0.181515 0.625053
O O3 0.856613 0.980574 0.617646
O O4 0.951752 0.728421 0.012087
O O5 0.136173 0.378764 0.520424
O O6 0.291128 0.560120 0.494734
O O7 0.500000 0.500000 0.500000
O O8 0.510048 0.705932 0.262116
O O9 0.278538 0.937919 0.976280
O O10 0.055783 0.823093 0.509068
O O11 0.273635 0.142208 0.637965
O O12 0.411315 0.749409 0.951617
O O13 0.000000 0.000000 0.500000
#
# Coordination Sequence:
#
# PCOD9100230 Si02
#       6
#     2   2   2   2   2   2
#     4  10  25  42  59  90 125 162 203 241 308 358
#     4  11  23  42  63  86 126 164 197 252 298 359
#     4  11  24  39  64  95 121 155 205 253 298 359
#     4  10  21  38  62  93 118 156 204 247 298 363
#     4  12  21  38  66  93 122 155 202 252 299 351
#     4  10  20  37  63  89 120 159 199 247 303 356
#
# _framework density 18.744731000000002
#
# number of rings (size 3 to 8) (size 9 to 14) (size 15 to 20)
#    0.000    1.333    3.333    3.000    2.333    4.667 
#    0.000    0.833    0.000    0.000    0.000    0.000 
#    0.000    0.000    0.000    0.000    0.000    0.000 
#
# Total GULP energy -66894.502680 kJ/mol
# GULP energy per Si atom -5574.541890 kJ/mol
# Density = 1.870207 g / cm^3
# Si number density = 18.744731 Si / 1000 Ang^3
#
#
#
# Elastic Constant Matrix: (Units=GPa)
#
#
# Indices 1 2 3 4 5 6 
#
# 1 62.9535 29.1771 42.2520 4.2902 0.9892 8.9920
# 2 29.1771 52.2064 53.2432 -5.1452 -4.7232 10.7843
# 3 42.2520 53.2432 134.7050 -2.3735 -2.9005 2.2030
# 4 4.2902 -5.1452 -2.3735 29.8034 -0.2604 -0.9500
# 5 0.9892 -4.7232 -2.9005 -0.2604 30.4744 -2.5853
# 6 8.9920 10.7843 2.2030 -0.9500 -2.5853 15.5402
#
#
#
# Elastic Compliance Matrix: (Units=1/GPa)
#
#
# Indices 1 2 3 4 5 6 
#
# 1 0.024288 -0.008081 -0.004450 -0.005551 -0.003249 -0.008695
# 2 -0.008081 0.043933 -0.014254 0.006922 0.003846 -0.022728
# 3 -0.004450 -0.014254 0.014280 -0.000348 0.000178 0.010450
# 4 -0.005551 0.006922 -0.000348 0.035562 0.001600 0.000898
# 5 -0.003249 0.003846 0.000178 0.001600 0.033965 0.004935
# 6 -0.008695 -0.022728 0.010450 0.000898 0.004935 0.084547
#
#
# Mechanical properties :
#
#
# Convention : Reuss Voigt Hill
#
# Bulk Modulus (GPa) = 34.56356 55.46772 45.01564
# Shear Modulus (GPa) = 16.67846 23.50978 20.09412
#
# Velocity S-wave (km/s) = 2.98613 3.54532 3.27767
# Velocity P-wave (km/s) = 5.51076 6.81281 6.19608
#
# Compressibility (1/GPa) = 0.02893220
#
# Stress axis : x y z
#
# Youngs Moduli (GPa) = 41.17300 22.76201 70.02779
#
# Poissons Ratio (x) = 0.18393 0.31161
# Poissons Ratio (y) = 0.33271 0.99816
# Poissons Ratio (z) = 0.18321 0.32444
#
# Static dielectric constant tensor:
#      x y z
#    x 1.709790 0.019050 0.001190 
#    y 0.019050 1.623830 -0.016620 
#    z 0.001190 -0.016620 1.656150 
# 
# From -- ./inp_files/146841.got.cif
#   From: 2010.05.17/outbox.cif.g08.bks.cpg/sg2_74_cif.got.tgz:146841.got - 2010.06.03 11:33:40.
