data_PCOD9100774
_publ_section_title
;
Structure prediction by ZEFSAII (Michael W. Deem and Ramdas Pophale) SiO2 
 PCOD9100774
Probable space group: P -1
;
_chemical_formula_sum "Si O2"
_cell_formula_units_Z 16
_cell_length_a 9.461761
_cell_length_b 20.793905
_cell_length_c 10.145428
_cell_angle_alpha 134.706982
_cell_angle_beta 28.561613
_cell_angle_gamma 132.777154
_cell_volume 667.137719
_symmetry_space_group_name_H-M "P -1"
_symmetry_group_IT_number 2
_symmetry_cell_setting 'triclinic'
loop_
_space_group_symop_operation_xyz
x,y,z
-x,-y,-z
loop_
_atom_site_type_symbol
_atom_site_label
_atom_site_fract_x
_atom_site_fract_y
_atom_site_fract_z
Si Si1 0.874568 0.269434 0.606906
Si Si2 0.383454 0.376949 0.167589
Si Si3 0.171043 0.554711 0.563033
Si Si4 0.737079 0.841537 0.700814
Si Si5 0.587667 0.909594 0.363790
Si Si6 0.311101 0.339015 0.861757
Si Si7 0.248707 0.957851 0.940490
Si Si8 0.096148 0.842936 0.150424
O O1 0.623196 0.182215 0.645143
O O2 0.085862 0.313001 0.376825
O O3 0.095196 0.231576 0.472411
O O4 0.682681 0.343652 0.924795
O O5 0.342651 0.480744 0.381832
O O6 0.393978 0.363882 0.981318
O O7 0.398771 0.639242 0.435495
O O8 0.000000 0.500000 0.500000
O O9 0.913578 0.594065 0.906222
O O10 0.389996 0.804276 0.901118
O O11 0.735624 0.933005 0.920265
O O12 0.926492 0.872007 0.457957
O O13 0.938007 0.911319 0.058128
O O14 0.500000 0.000000 0.500000
O O15 0.519825 0.925331 0.595850
O O16 0.135526 0.236198 0.846039
O O17 0.222663 0.923073 0.060778
#
# Coordination Sequence:
#
# PCOD9100774 Si02
#       8
#     2   2   2   2   2   2   2   2
#     4  12  24  39  63  90 130 165 206 252 313 379
#     4  11  22  39  65  99 123 156 202 254 322 386
#     4  10  20  37  65  97 130 156 189 258 329 379
#     4  12  26  43  62  86 129 175 217 256 305 357
#     4  12  24  40  65  93 128 161 202 261 328 369
#     4  11  21  39  66  96 129 155 202 259 321 368
#     4  12  25  43  66  91 124 166 218 265 313 362
#     4  12  25  43  65  91 123 170 223 260 295 367
#
# _framework density 23.983056000000001
#
# number of rings (size 3 to 8) (size 9 to 14) (size 15 to 20)
#    0.000    0.500    1.250   10.125    1.750    0.000 
#    0.000    0.000    0.000   15.000    0.000    0.000 
#    0.000    0.000    0.000    0.000    0.000    0.000 
#
# Total GULP energy -89667.603566 kJ/mol
# GULP energy per Si atom -5604.225223 kJ/mol
# Density = 2.392847 g / cm^3
# Si number density = 23.983056 Si / 1000 Ang^3
#
#
#
# Elastic Constant Matrix: (Units=GPa)
#
#
# Indices 1 2 3 4 5 6 
#
# 1 40.5814 8.3446 7.8000 3.6388 -16.2233 -10.4523
# 2 8.3446 69.2437 7.4276 -6.0022 -9.9332 -14.1776
# 3 7.8000 7.4276 91.6482 2.4478 -16.2458 -1.2066
# 4 3.6388 -6.0022 2.4478 43.7915 -9.6779 -12.3410
# 5 -16.2233 -9.9332 -16.2458 -9.6779 39.0973 0.8463
# 6 -10.4523 -14.1776 -1.2066 -12.3410 0.8463 26.2786
#
#
#
# Elastic Compliance Matrix: (Units=1/GPa)
#
#
# Indices 1 2 3 4 5 6 
#
# 1 0.034423 0.002116 -0.000234 0.005719 0.015771 0.017000
# 2 0.002116 0.018985 -0.000465 0.008182 0.007216 0.014673
# 3 -0.000234 -0.000465 0.011810 0.000423 0.004791 0.000242
# 4 0.005719 0.008182 0.000423 0.032178 0.012129 0.021429
# 5 0.015771 0.007216 0.004791 0.012129 0.038627 0.014838
# 6 0.017000 0.014673 0.000242 0.021429 0.014838 0.062329
#
#
# Mechanical properties :
#
#
# Convention : Reuss Voigt Hill
#
# Bulk Modulus (GPa) = 14.69488 27.62420 21.15954
# Shear Modulus (GPa) = 22.91455 33.69354 28.30405
#
# Velocity S-wave (km/s) = 3.09438 3.75225 3.43909
# Velocity P-wave (km/s) = 4.34827 5.50597 4.96101
#
# Compressibility (1/GPa) = 0.06805089
#
# Stress axis : x y z
#
# Youngs Moduli (GPa) = 29.05070 52.67219 84.67286
#
# Poissons Ratio (x) = -0.11144 0.01985
# Poissons Ratio (y) = -0.06146 0.03937
# Poissons Ratio (z) = 0.00681 0.02449
#
# Static dielectric constant tensor:
#      x y z
#    x 1.951480 -0.030710 -0.011240 
#    y -0.030710 1.908270 0.026440 
#    z -0.011240 0.026440 1.862380 
# 
# From -- ./inp_files/439270.got.cif
#   From: 2010.05.17/outbox.cif.g08.bks.cpg/sg2_220_cif.got.tgz:439270.got - 2010.06.03 11:33:40.
