data_PCOD9100487
_publ_section_title
;
Structure prediction by ZEFSAII (Michael W. Deem and Ramdas Pophale) SiO2 
 PCOD9100487
Probable space group: P -1
;
_chemical_formula_sum "Si O2"
_cell_formula_units_Z 16
_cell_length_a 7.327820
_cell_length_b 12.685511
_cell_length_c 13.193326
_cell_angle_alpha 63.959838
_cell_angle_beta 129.605226
_cell_angle_gamma 132.906887
_cell_volume 692.073086
_symmetry_space_group_name_H-M "P -1"
_symmetry_group_IT_number 2
_symmetry_cell_setting 'triclinic'
loop_
_space_group_symop_operation_xyz
x,y,z
-x,-y,-z
loop_
_atom_site_type_symbol
_atom_site_label
_atom_site_fract_x
_atom_site_fract_y
_atom_site_fract_z
Si Si1 0.290525 0.437141 0.074045
Si Si2 0.692505 0.599192 0.676591
Si Si3 0.578917 0.132494 0.404785
Si Si4 0.819711 0.858311 0.867263
Si Si5 0.064018 0.353466 0.817003
Si Si6 0.921486 0.546684 0.573608
Si Si7 0.907537 0.085171 0.365859
Si Si8 0.336590 0.968878 0.126345
O O1 0.209601 0.421881 0.170197
O O2 0.341924 0.312171 0.125863
O O3 0.602510 0.587416 0.109795
O O4 0.078996 0.406044 0.917698
O O5 0.825247 0.569450 0.640047
O O6 0.348105 0.506480 0.574198
O O7 0.817140 0.765564 0.638974
O O8 0.267930 0.095884 0.281051
O O9 0.737932 0.119260 0.370917
O O10 0.801528 0.302264 0.435180
O O11 0.500000 0.000000 0.500000
O O12 0.699412 0.909959 0.891425
O O13 0.154119 0.925373 0.976867
O O14 0.979352 0.428409 0.674679
O O15 0.854085 0.180798 0.813860
O O16 0.658330 0.008436 0.224246
O O17 0.000000 0.000000 0.500000
#
# Coordination Sequence:
#
# PCOD9100487 Si02
#       8
#     2   2   2   2   2   2   2   2
#     4  10  21  37  62  93 119 157 200 258 306 357
#     4  10  23  38  59  85 126 165 202 241 309 367
#     4  10  21  36  61  88 115 155 203 251 306 353
#     4   9  18  37  58  87 121 152 198 254 298 357
#     4  10  20  37  64  91 119 154 207 252 303 357
#     4  10  21  41  61  85 125 164 199 252 302 371
#     4  10  21  36  57  84 119 162 199 246 299 362
#     4   9  19  36  63  87 118 163 200 246 308 355
#
# _framework density 23.118945
#
# number of rings (size 3 to 8) (size 9 to 14) (size 15 to 20)
#    0.000    2.250    1.250    0.750    1.750    3.000 
#    0.000    2.500   11.000    0.000    0.000    0.000 
#    0.000    0.000    0.000    0.000    0.000    0.000 
#
# Total GULP energy -89199.047425 kJ/mol
# GULP energy per Si atom -5574.940464 kJ/mol
# Density = 2.306633 g / cm^3
# Si number density = 23.118945 Si / 1000 Ang^3
#
#
#
# Elastic Constant Matrix: (Units=GPa)
#
#
# Indices 1 2 3 4 5 6 
#
# 1 66.0338 17.6968 20.2984 2.0208 -16.1555 -5.6515
# 2 17.6968 105.4476 37.7664 -2.5372 7.5272 13.4015
# 3 20.2984 37.7664 129.8637 -4.9064 12.6604 17.2890
# 4 2.0208 -2.5372 -4.9064 36.6168 5.3724 4.5263
# 5 -16.1555 7.5272 12.6604 5.3724 41.7417 -3.0850
# 6 -5.6515 13.4015 17.2890 4.5263 -3.0850 22.9428
#
#
#
# Elastic Compliance Matrix: (Units=1/GPa)
#
#
# Indices 1 2 3 4 5 6 
#
# 1 0.023235 -0.004971 -0.005923 -0.006435 0.013712 0.016204
# 2 -0.004971 0.012213 -0.001032 0.002774 -0.004819 -0.008776
# 3 -0.005923 -0.001032 0.011222 0.004131 -0.006859 -0.011050
# 4 -0.006435 0.002774 0.004131 0.031481 -0.009314 -0.013782
# 5 0.013712 -0.004819 -0.006859 -0.009314 0.034732 0.017869
# 6 0.016204 -0.008776 -0.011050 -0.013782 0.017869 0.066154
#
#
# Mechanical properties :
#
#
# Convention : Reuss Voigt Hill
#
# Bulk Modulus (GPa) = 43.82410 50.31868 47.07139
# Shear Modulus (GPa) = 23.75343 35.29916 29.52629
#
# Velocity S-wave (km/s) = 3.20885 3.91173 3.57760
# Velocity P-wave (km/s) = 5.72067 6.49727 6.12130
#
# Compressibility (1/GPa) = 0.02281850
#
# Stress axis : x y z
#
# Youngs Moduli (GPa) = 43.03834 81.87762 89.10945
#
# Poissons Ratio (x) = 0.40701 0.52782
# Poissons Ratio (y) = 0.21394 0.09194
# Poissons Ratio (z) = 0.25493 0.08448
#
# Static dielectric constant tensor:
#      x y z
#    x 1.927410 -0.033600 -0.052400 
#    y -0.033600 1.880030 0.071830 
#    z -0.052400 0.071830 1.987330 
# 
# From -- ./inp_files/504038.got.cif
#   From: 2010.05.17/outbox.cif.g08.bks.cpg/sg2_253_cif.got.tgz:504038.got - 2010.06.03 11:33:40.
