data_PCOD9100454
_publ_section_title
;
Structure prediction by ZEFSAII (Michael W. Deem and Ramdas Pophale) SiO2 
 PCOD9100454
Probable space group: P -1
;
_chemical_formula_sum "Si O2"
_cell_formula_units_Z 16
_cell_length_a 9.206043
_cell_length_b 14.406727
_cell_length_c 14.591982
_cell_angle_alpha 150.690042
_cell_angle_beta 80.132410
_cell_angle_gamma 80.347187
_cell_volume 703.259422
_symmetry_space_group_name_H-M "P -1"
_symmetry_group_IT_number 2
_symmetry_cell_setting 'triclinic'
loop_
_space_group_symop_operation_xyz
x,y,z
-x,-y,-z
loop_
_atom_site_type_symbol
_atom_site_label
_atom_site_fract_x
_atom_site_fract_y
_atom_site_fract_z
Si Si1 0.397513 0.784409 0.004194
Si Si2 0.466641 0.968434 0.873103
Si Si3 0.948587 0.710704 0.759332
Si Si4 0.599128 0.314696 0.466636
Si Si5 0.789722 0.594289 0.081919
Si Si6 0.550321 0.142849 0.510913
Si Si7 0.645413 0.414982 0.827612
Si Si8 0.062989 0.923726 0.055615
O O1 0.513766 0.588849 0.738502
O O2 0.519232 0.626254 0.944433
O O3 0.399852 0.007092 0.181186
O O4 0.188103 0.860698 0.078849
O O5 0.484521 0.729936 0.648385
O O6 0.235033 0.204372 0.087319
O O7 0.500000 0.000000 0.000000
O O8 0.000000 0.500000 0.500000
O O9 0.887745 0.942583 0.902371
O O10 0.091762 0.697960 0.805338
O O11 0.541860 0.223999 0.478906
O O12 0.832165 0.132013 0.278207
O O13 0.658655 0.668742 0.251848
O O14 0.648358 0.857802 0.268425
O O15 0.811517 0.398444 0.842350
O O16 0.000000 0.500000 0.000000
O O17 0.694577 0.170733 0.569782
O O18 0.500000 0.500000 0.000000
#
# Coordination Sequence:
#
# PCOD9100454 Si02
#       8
#     2   2   2   2   2   2   2   2
#     4  11  22  39  62  86 119 161 200 249 308 355
#     4  11  22  37  58  86 118 157 200 247 304 354
#     4  10  21  39  58  84 119 151 203 252 295 356
#     4  10  23  39  56  86 123 155 200 250 293 360
#     4  10  20  37  64  89 118 157 197 248 302 359
#     4   9  20  39  58  86 122 155 197 247 300 355
#     4   9  20  39  60  87 121 155 198 247 296 359
#     4  10  22  38  58  86 115 157 201 247 295 358
#
# _framework density 22.751204999999999
#
# number of rings (size 3 to 8) (size 9 to 14) (size 15 to 20)
#    0.000    2.000    1.250    1.500    1.750    4.000 
#    0.000    8.750    0.000    0.000    0.000    0.000 
#    0.000    0.000    0.000    0.000    0.000    0.000 
#
# Total GULP energy -89242.849448 kJ/mol
# GULP energy per Si atom -5577.678090 kJ/mol
# Density = 2.269942 g / cm^3
# Si number density = 22.751205 Si / 1000 Ang^3
#
#
#
# Elastic Constant Matrix: (Units=GPa)
#
#
# Indices 1 2 3 4 5 6 
#
# 1 165.1950 15.1393 37.9857 -9.0063 12.5611 -21.1742
# 2 15.1393 70.7528 -13.2384 -12.1174 -0.4321 7.4758
# 3 37.9857 -13.2384 62.0255 -3.7948 6.6565 -7.7406
# 4 -9.0063 -12.1174 -3.7948 16.1702 -6.3156 8.1253
# 5 12.5611 -0.4321 6.6565 -6.3156 46.3513 -4.3491
# 6 -21.1742 7.4758 -7.7406 8.1253 -4.3491 28.9533
#
#
#
# Elastic Compliance Matrix: (Units=1/GPa)
#
#
# Indices 1 2 3 4 5 6 
#
# 1 0.008391 -0.004067 -0.005250 -0.003443 -0.001414 0.006537
# 2 -0.004067 0.021497 0.006631 0.022701 0.002244 -0.012786
# 3 -0.005250 0.006631 0.021027 0.007836 -0.000677 -0.002231
# 4 -0.003443 0.022701 0.007836 0.099230 0.010485 -0.032557
# 5 -0.001414 0.002244 -0.000677 0.010485 0.023389 -0.001223
# 6 0.006537 -0.012786 -0.002231 -0.032557 -0.001223 0.050977
#
#
# Mechanical properties :
#
#
# Convention : Reuss Voigt Hill
#
# Bulk Modulus (GPa) = 21.95673 41.97181 31.96427
# Shear Modulus (GPa) = 20.40293 35.50074 27.95183
#
# Velocity S-wave (km/s) = 2.99788 3.95446 3.50892
# Velocity P-wave (km/s) = 4.65348 6.27205 5.52238
#
# Compressibility (1/GPa) = 0.04554413
#
# Stress axis : x y z
#
# Youngs Moduli (GPa) = 119.17520 46.51757 47.55885
#
# Poissons Ratio (x) = 0.18917 0.24968
# Poissons Ratio (y) = 0.48465 -0.31538
# Poissons Ratio (z) = 0.62566 -0.30847
#
# Static dielectric constant tensor:
#      x y z
#    x 1.935570 -0.045280 0.036680 
#    y -0.045280 1.870970 -0.041120 
#    z 0.036680 -0.041120 1.920240 
# 
# From -- ./inp_files/226299.got.cif
#   From: 2010.05.17/outbox.cif.g08.bks.cpg/sg2_114_cif.got.tgz:226299.got - 2010.06.03 11:33:40.
