data_PCOD9100709
_publ_section_title
;
Structure prediction by ZEFSAII (Michael W. Deem and Ramdas Pophale) SiO2 
 PCOD9100709
Probable space group: P -1
;
_chemical_formula_sum "Si O2"
_cell_formula_units_Z 16
_cell_length_a 7.871366
_cell_length_b 13.824234
_cell_length_c 15.180373
_cell_angle_alpha 45.340178
_cell_angle_beta 54.303137
_cell_angle_gamma 35.275769
_cell_volume 678.364272
_symmetry_space_group_name_H-M "P -1"
_symmetry_group_IT_number 2
_symmetry_cell_setting 'triclinic'
loop_
_space_group_symop_operation_xyz
x,y,z
-x,-y,-z
loop_
_atom_site_type_symbol
_atom_site_label
_atom_site_fract_x
_atom_site_fract_y
_atom_site_fract_z
Si Si1 0.333651 0.637634 0.547838
Si Si2 0.859777 0.331908 0.689609
Si Si3 0.278772 0.235224 0.060839
Si Si4 0.841235 0.040841 0.930619
Si Si5 0.178932 0.168406 0.526670
Si Si6 0.017346 0.573211 0.812679
Si Si7 0.190390 0.464536 0.265688
Si Si8 0.258253 0.695841 0.891879
O O1 0.500000 0.500000 0.500000
O O2 0.620385 0.543390 0.580489
O O3 0.052218 0.825636 0.458579
O O4 0.161431 0.627167 0.679701
O O5 0.740861 0.232092 0.798170
O O6 0.916868 0.368023 0.744841
O O7 0.129817 0.188936 0.632649
O O8 0.275017 0.247129 0.160620
O O9 0.001232 0.269191 0.099046
O O10 0.571957 0.066988 0.025602
O O11 0.216868 0.415814 0.928238
O O12 0.078221 0.870484 0.902155
O O13 0.000000 0.000000 0.000000
O O14 0.114053 0.354956 0.401574
O O15 0.500000 0.000000 0.500000
O O16 0.960600 0.479224 0.819981
O O17 0.536493 0.323535 0.230008
O O18 0.500000 0.500000 0.000000
#
# Coordination Sequence:
#
# PCOD9100709 Si02
#       8
#     2   2   2   2   2   2   2   2
#     4   9  19  38  66  90 121 172 216 264 327 387
#     4  11  22  42  66  95 130 172 225 271 332 399
#     4  11  23  40  64  92 134 171 226 272 331 394
#     4  12  26  41  64  99 132 173 222 279 331 397
#     4  10  22  41  66  98 130 170 219 278 329 392
#     4  10  20  37  65  92 124 175 217 273 328 391
#     4  11  22  39  67  94 129 174 222 265 336 398
#     4  12  24  41  63  92 129 175 219 271 336 401
#
# _framework density 23.586151000000001
#
# number of rings (size 3 to 8) (size 9 to 14) (size 15 to 20)
#    0.000    1.250    2.500    3.750    3.500    1.000 
#    0.000    0.625    0.000    0.000    0.000    0.000 
#    0.000    0.000    0.000    0.000    0.000    0.000 
#
# Total GULP energy -89122.729510 kJ/mol
# GULP energy per Si atom -5570.170594 kJ/mol
# Density = 2.353247 g / cm^3
# Si number density = 23.586151 Si / 1000 Ang^3
#
#
#
# Elastic Constant Matrix: (Units=GPa)
#
#
# Indices 1 2 3 4 5 6 
#
# 1 75.0661 36.7313 8.8551 17.9320 14.5414 6.6631
# 2 36.7313 121.2580 34.7827 38.6503 11.7534 4.8186
# 3 8.8551 34.7827 94.3692 49.7144 3.4419 10.3816
# 4 17.9320 38.6503 49.7144 52.1237 -1.1787 1.9577
# 5 14.5414 11.7534 3.4419 -1.1787 32.9148 12.2296
# 6 6.6631 4.8186 10.3816 1.9577 12.2296 39.7451
#
#
#
# Elastic Compliance Matrix: (Units=1/GPa)
#
#
# Indices 1 2 3 4 5 6 
#
# 1 0.017720 -0.003423 0.003825 -0.007321 -0.006867 -0.001081
# 2 -0.003423 0.012101 0.000170 -0.008049 -0.003290 0.000471
# 3 0.003825 0.000170 0.023121 -0.023400 -0.003325 -0.004526
# 4 -0.007321 -0.008049 -0.023400 0.050086 0.009232 0.003008
# 5 -0.006867 -0.003290 -0.003325 0.009232 0.038997 -0.010036
# 6 -0.001081 0.000471 -0.004526 0.003008 -0.010036 0.029406
#
#
# Mechanical properties :
#
#
# Convention : Reuss Voigt Hill
#
# Bulk Modulus (GPa) = 18.48905 50.15906 34.32406
# Shear Modulus (GPa) = 26.55088 38.97833 32.76460
#
# Velocity S-wave (km/s) = 3.35878 4.06962 3.73117
# Velocity P-wave (km/s) = 4.78517 6.58748 5.75729
#
# Compressibility (1/GPa) = 0.05408605
#
# Stress axis : x y z
#
# Youngs Moduli (GPa) = 56.43237 82.63840 43.24987
#
# Poissons Ratio (x) = 0.28286 -0.16543
# Poissons Ratio (y) = 0.19316 -0.00733
# Poissons Ratio (z) = -0.21586 -0.01401
#
# Static dielectric constant tensor:
#      x y z
#    x 1.966780 -0.032470 0.000070 
#    y -0.032470 1.985050 -0.035970 
#    z 0.000070 -0.035970 1.962220 
# 
# From -- ./inp_files/505354.got.cif
#   From: 2010.05.17/outbox.cif.g08.bks.cpg/sg2_253_cif.got.tgz:505354.got - 2010.06.03 11:33:40.
