data_PCOD9100044
_publ_section_title
;
Structure prediction by ZEFSAII (Michael W. Deem and Ramdas Pophale) SiO2 
 PCOD9100044
Probable space group: P -1
;
_chemical_formula_sum "Si O2"
_cell_formula_units_Z 16
_cell_length_a 14.102107
_cell_length_b 20.489160
_cell_length_c 7.309828
_cell_angle_alpha 112.204058
_cell_angle_beta 40.401815
_cell_angle_gamma 143.264926
_cell_volume 655.376171
_symmetry_space_group_name_H-M "P -1"
_symmetry_group_IT_number 2
_symmetry_cell_setting 'triclinic'
loop_
_space_group_symop_operation_xyz
x,y,z
-x,-y,-z
loop_
_atom_site_type_symbol
_atom_site_label
_atom_site_fract_x
_atom_site_fract_y
_atom_site_fract_z
Si Si1 0.914610 0.899176 0.389831
Si Si2 0.164580 0.503322 0.492681
Si Si3 0.809560 0.705091 0.396381
Si Si4 0.450267 0.800649 0.831859
Si Si5 0.471541 0.553271 0.392875
Si Si6 0.003133 0.593096 0.781831
Si Si7 0.533370 0.114840 0.706948
Si Si8 0.549407 0.056615 0.181967
O O1 0.779794 0.775934 0.560733
O O2 0.676474 0.831026 0.532217
O O3 0.000000 0.000000 0.500000
O O4 0.214400 0.994793 0.976447
O O5 0.420644 0.571617 0.296225
O O6 0.165854 0.588240 0.585857
O O7 0.122286 0.466647 0.302542
O O8 0.872547 0.358855 0.870373
O O9 0.754917 0.677744 0.227963
O O10 0.606039 0.561363 0.627791
O O11 0.119019 0.812044 0.122381
O O12 0.528718 0.894444 0.675468
O O13 0.464196 0.843885 0.056925
O O14 0.242905 0.492725 0.804922
O O15 0.227496 0.748220 0.612909
O O16 0.596746 0.059320 0.591981
O O17 0.500000 0.000000 0.000000
#
# Coordination Sequence:
#
# PCOD9100044 Si02
#       8
#     2   2   2   2   2   2   2   2
#     4   9  17  32  56  87 119 166 207 262 311 360
#     4  10  20  37  62  91 124 164 213 261 302 384
#     4  10  21  37  59  92 129 162 215 260 312 380
#     4   9  15  29  58  86 112 155 210 247 307 361
#     4  11  22  39  64  90 132 170 201 262 323 373
#     4  10  21  37  61  95 126 165 212 255 320 374
#     4   8  17  31  53  85 122 149 199 260 302 364
#     4   9  16  32  59  85 118 162 208 260 300 369
#
# _framework density 24.413457999999999
#
# number of rings (size 3 to 8) (size 9 to 14) (size 15 to 20)
#    0.000    2.500    1.250    1.875    0.000    1.000 
#    0.000    5.000    5.500    3.750    0.000    0.000 
#    0.000    0.000    0.000    0.000    0.000    0.000 
#
# Total GULP energy -89450.634525 kJ/mol
# GULP energy per Si atom -5590.664658 kJ/mol
# Density = 2.435789 g / cm^3
# Si number density = 24.413458 Si / 1000 Ang^3
#
#
#
# Elastic Constant Matrix: (Units=GPa)
#
#
# Indices 1 2 3 4 5 6 
#
# 1 160.6435 64.8145 26.5101 11.7200 -26.4141 -7.4838
# 2 64.8145 97.4137 22.0132 -1.9738 4.8357 -18.3485
# 3 26.5101 22.0132 55.6713 2.0635 -8.0092 2.6069
# 4 11.7200 -1.9738 2.0635 34.2281 4.5689 -8.2162
# 5 -26.4141 4.8357 -8.0092 4.5689 40.1072 4.6294
# 6 -7.4838 -18.3485 2.6069 -8.2162 4.6294 61.7372
#
#
#
# Elastic Compliance Matrix: (Units=1/GPa)
#
#
# Indices 1 2 3 4 5 6 
#
# 1 0.011888 -0.009005 -0.000294 -0.006581 0.009934 -0.002844
# 2 -0.009005 0.019511 -0.005620 0.007654 -0.011061 0.006792
# 3 -0.000294 -0.005620 0.021390 -0.003071 0.005501 -0.003430
# 4 -0.006581 0.007654 -0.003071 0.035228 -0.010702 0.007098
# 5 0.009934 -0.011061 0.005501 -0.010702 0.035869 -0.006430
# 6 -0.002844 0.006792 -0.003430 0.007098 -0.006430 0.019443
#
#
# Mechanical properties :
#
#
# Convention : Reuss Voigt Hill
#
# Bulk Modulus (GPa) = 43.57022 60.04489 51.80755
# Shear Modulus (GPa) = 27.65213 40.57389 34.11301
#
# Velocity S-wave (km/s) = 3.36915 4.08112 3.74211
# Velocity P-wave (km/s) = 5.74634 6.84513 6.31966
#
# Compressibility (1/GPa) = 0.02295146
#
# Stress axis : x y z
#
# Youngs Moduli (GPa) = 84.11905 51.25375 46.74974
#
# Poissons Ratio (x) = 0.46156 0.01373
# Poissons Ratio (y) = 0.75752 0.26272
# Poissons Ratio (z) = 0.02471 0.28803
#
# Static dielectric constant tensor:
#      x y z
#    x 1.963690 0.020130 0.006930 
#    y 0.020130 1.960610 -0.026050 
#    z 0.006930 -0.026050 2.058450 
# 
# From -- ./inp_files/319034.got.cif
#   From: 2010.05.17/outbox.cif.g08.bks.cpg/sg2_160_cif.got.tgz:319034.got - 2010.06.03 11:33:40.
