data_PCOD9100608
_publ_section_title
;
Structure prediction by ZEFSAII (Michael W. Deem and Ramdas Pophale) SiO2 
 PCOD9100608
Probable space group: P -1
;
_chemical_formula_sum "Si O2"
_cell_formula_units_Z 16
_cell_length_a 24.497595
_cell_length_b 9.331354
_cell_length_c 5.531060
_cell_angle_alpha 121.697874
_cell_angle_beta 65.481874
_cell_angle_gamma 142.976668
_cell_volume 647.739327
_symmetry_space_group_name_H-M "P -1"
_symmetry_group_IT_number 2
_symmetry_cell_setting 'triclinic'
loop_
_space_group_symop_operation_xyz
x,y,z
-x,-y,-z
loop_
_atom_site_type_symbol
_atom_site_label
_atom_site_fract_x
_atom_site_fract_y
_atom_site_fract_z
Si Si1 0.443865 0.777450 0.612622
Si Si2 0.221542 0.001299 0.252506
Si Si3 0.556148 0.600324 0.741944
Si Si4 0.246059 0.883218 0.610800
Si Si5 0.923288 0.705147 0.657020
Si Si6 0.896527 0.981198 0.698760
Si Si7 0.969619 0.569218 0.819016
Si Si8 0.379006 0.931166 0.145941
O O1 0.404255 0.506538 0.397929
O O2 0.500000 0.000000 0.500000
O O3 0.524861 0.901112 0.756734
O O4 0.368782 0.741163 0.838155
O O5 0.253557 0.023449 0.486959
O O6 0.189555 0.125172 0.374232
O O7 0.125537 0.699078 0.155867
O O8 0.268056 0.028859 0.945052
O O9 0.500000 0.500000 0.500000
O O10 0.612984 0.892281 0.888107
O O11 0.500000 0.500000 0.000000
O O12 0.146570 0.590755 0.544065
O O13 0.310045 0.857203 0.406880
O O14 0.945661 0.708118 0.894636
O O15 0.020400 0.889477 0.515060
O O16 0.878600 0.783989 0.726744
O O17 0.943818 0.223760 0.989958
O O18 0.000000 0.500000 0.500000
#
# Coordination Sequence:
#
# PCOD9100608 Si02
#       8
#     2   2   2   2   2   2   2   2
#     4  10  20  39  70  96 124 165 213 258 306 371
#     4  11  23  39  61  84 121 163 211 251 309 379
#     4  10  20  37  64  98 125 156 209 253 300 368
#     4  11  25  43  59  89 126 169 199 251 322 377
#     4  10  22  36  58  87 119 157 202 267 306 362
#     4  11  20  37  59  86 115 156 214 261 306 355
#     4  11  19  35  60  85 111 158 212 259 306 365
#     4  10  23  41  65  94 131 168 207 260 317 379
#
# _framework density 24.701294999999998
#
# number of rings (size 3 to 8) (size 9 to 14) (size 15 to 20)
#    0.000    1.500    3.750    2.250    1.750    0.000 
#    2.250    1.250    0.000    0.000    0.000    0.000 
#    0.000    0.000    0.000    0.000    0.000    0.000 
#
# Total GULP energy -89237.382294 kJ/mol
# GULP energy per Si atom -5577.336393 kJ/mol
# Density = 2.464507 g / cm^3
# Si number density = 24.701295 Si / 1000 Ang^3
#
#
#
# Elastic Constant Matrix: (Units=GPa)
#
#
# Indices 1 2 3 4 5 6 
#
# 1 149.0788 22.3210 45.3432 -1.4777 -11.9131 -34.3916
# 2 22.3210 55.7601 20.9071 0.9844 -8.7779 -29.0894
# 3 45.3432 20.9071 142.9936 -3.0875 -21.1826 -9.5201
# 4 -1.4777 0.9844 -3.0875 35.3633 -3.3477 -4.5553
# 5 -11.9131 -8.7779 -21.1826 -3.3477 49.1634 0.5646
# 6 -34.3916 -29.0894 -9.5201 -4.5553 0.5646 46.1826
#
#
#
# Elastic Compliance Matrix: (Units=1/GPa)
#
#
# Indices 1 2 3 4 5 6 
#
# 1 0.008986 0.001135 -0.002318 0.001178 0.001381 0.007028
# 2 0.001135 0.028786 -0.002677 0.001797 0.004171 0.018551
# 3 -0.002318 -0.002677 0.008421 0.000754 0.002659 -0.001634
# 4 0.001178 0.001797 0.000754 0.029260 0.002866 0.005015
# 5 0.001381 0.004171 0.002659 0.002866 0.022712 0.004209
# 6 0.007028 0.018551 -0.001634 0.005015 0.004209 0.038679
#
#
# Mechanical properties :
#
#
# Convention : Reuss Voigt Hill
#
# Bulk Modulus (GPa) = 25.99136 58.33057 42.16097
# Shear Modulus (GPa) = 31.76854 43.42593 37.59724
#
# Velocity S-wave (km/s) = 3.59013 4.19745 3.90561
# Velocity P-wave (km/s) = 5.26597 6.86710 6.11913
#
# Compressibility (1/GPa) = 0.03847432
#
# Stress axis : x y z
#
# Youngs Moduli (GPa) = 111.28083 34.73881 118.75128
#
# Poissons Ratio (x) = -0.03943 0.27521
# Poissons Ratio (y) = -0.12630 0.31790
# Poissons Ratio (z) = 0.25790 0.09300
#
# Static dielectric constant tensor:
#      x y z
#    x 2.141930 -0.006670 0.023840 
#    y -0.006670 2.007030 -0.027430 
#    z 0.023840 -0.027430 2.006580 
# 
# From -- ./inp_files/50901.got.cif
#   From: 2010.05.17/outbox.cif.g08.bks.cpg/sg2_26_cif.got.tgz:50901.got - 2010.06.03 11:33:40.
