data_PCOD9100224
_publ_section_title
;
Structure prediction by ZEFSAII (Michael W. Deem and Ramdas Pophale) SiO2 
 PCOD9100224
Probable space group: P -1
;
_chemical_formula_sum "Si O2"
_cell_formula_units_Z 16
_cell_length_a 11.175789
_cell_length_b 11.014962
_cell_length_c 6.788609
_cell_angle_alpha 76.733024
_cell_angle_beta 58.077650
_cell_angle_gamma 106.270748
_cell_volume 603.339293
_symmetry_space_group_name_H-M "P -1"
_symmetry_group_IT_number 2
_symmetry_cell_setting 'triclinic'
loop_
_space_group_symop_operation_xyz
x,y,z
-x,-y,-z
loop_
_atom_site_type_symbol
_atom_site_label
_atom_site_fract_x
_atom_site_fract_y
_atom_site_fract_z
Si Si1 0.167611 0.599320 0.026016
Si Si2 0.653784 0.128327 0.485924
Si Si3 0.141856 0.650728 0.469492
Si Si4 0.329855 0.118239 0.800068
Si Si5 0.475533 0.596352 0.707908
Si Si6 0.114831 0.987251 0.700368
Si Si7 0.420154 0.322862 0.982277
Si Si8 0.080879 0.216759 0.376780
O O1 0.185107 0.604140 0.246983
O O2 0.978626 0.478014 0.233616
O O3 0.233449 0.759830 0.824525
O O4 0.294391 0.561135 0.824784
O O5 0.703951 0.234616 0.590888
O O6 0.461720 0.066619 0.662212
O O7 0.722568 0.020104 0.500906
O O8 0.040941 0.730703 0.467417
O O9 0.397235 0.268342 0.573940
O O10 0.157236 0.019373 0.884100
O O11 0.349726 0.172659 0.986584
O O12 0.516587 0.467058 0.717712
O O13 0.500827 0.660159 0.883566
O O14 0.093563 0.105823 0.554792
O O15 0.977185 0.843616 0.771986
O O16 0.262584 0.338910 0.161919
#
# Coordination Sequence:
#
# PCOD9100224 Si02
#       8
#     2   2   2   2   2   2   2   2
#     4  10  20  37  63  89 116 159 195 245 304 349
#     4  10  22  40  59  87 122 155 198 250 293 349
#     4  10  20  39  61  90 119 153 201 244 299 357
#     4  11  22  39  62  90 118 159 202 243 297 358
#     4  10  21  38  61  89 126 151 196 252 296 360
#     4  10  22  43  61  83 124 162 202 248 289 352
#     4  11  21  38  61  91 120 160 195 245 307 347
#     4  10  21  42  63  85 124 161 196 252 295 348
#
# _framework density 26.519078
#
# number of rings (size 3 to 8) (size 9 to 14) (size 15 to 20)
#    0.000    1.750    2.500    1.875    0.000    0.500 
#   11.250    1.875    0.000    0.000    0.000    0.000 
#    0.000    0.000    0.000    0.000    0.000    0.000 
#
# Total GULP energy -89345.194900 kJ/mol
# GULP energy per Si atom -5584.074681 kJ/mol
# Density = 2.645872 g / cm^3
# Si number density = 26.519078 Si / 1000 Ang^3
#
#
#
# Elastic Constant Matrix: (Units=GPa)
#
#
# Indices 1 2 3 4 5 6 
#
# 1 141.1435 23.5151 26.5202 -4.5473 -2.8713 24.0919
# 2 23.5151 77.2199 21.4941 9.3119 7.4955 -0.3950
# 3 26.5202 21.4941 82.1924 2.8830 7.8365 -10.1668
# 4 -4.5473 9.3119 2.8830 46.6502 3.0658 12.5140
# 5 -2.8713 7.4955 7.8365 3.0658 32.7608 -6.0170
# 6 24.0919 -0.3950 -10.1668 12.5140 -6.0170 38.1539
#
#
#
# Elastic Compliance Matrix: (Units=1/GPa)
#
#
# Indices 1 2 3 4 5 6 
#
# 1 0.009766 -0.002494 -0.003714 0.003905 0.000407 -0.008399
# 2 -0.002494 0.015079 -0.002568 -0.003416 -0.002406 0.001787
# 3 -0.003714 -0.002568 0.015154 -0.002511 -0.001863 0.006886
# 4 0.003905 -0.003416 -0.002511 0.026123 -0.002962 -0.012205
# 5 0.000407 -0.002406 -0.001863 -0.002962 0.032819 0.005369
# 6 -0.008399 0.001787 0.006886 -0.012205 0.005369 0.038216
#
#
# Mechanical properties :
#
#
# Convention : Reuss Voigt Hill
#
# Bulk Modulus (GPa) = 44.54854 49.29051 46.91953
# Shear Modulus (GPa) = 30.82789 38.78140 34.80464
#
# Velocity S-wave (km/s) = 3.41321 3.82828 3.62669
# Velocity P-wave (km/s) = 5.68933 6.17803 5.93871
#
# Compressibility (1/GPa) = 0.02244743
#
# Stress axis : x y z
#
# Youngs Moduli (GPa) = 102.39713 66.31778 65.98951
#
# Poissons Ratio (x) = 0.16537 0.24506
# Poissons Ratio (y) = 0.25534 0.16949
# Poissons Ratio (z) = 0.38026 0.17033
#
# Static dielectric constant tensor:
#      x y z
#    x 2.044060 -0.012570 0.007740 
#    y -0.012570 2.188250 0.047780 
#    z 0.007740 0.047780 2.125870 
# 
# From -- ./inp_files/70396.got.cif
#   From: 2010.05.17/outbox.cif.g08.bks.cpg/sg2_36_cif.got.tgz:70396.got - 2010.06.03 11:33:40.
