data_PCOD9100972
_publ_section_title
;
Structure prediction by ZEFSAII (Michael W. Deem and Ramdas Pophale) SiO2 
 PCOD9100972
Probable space group: P -1
;
_chemical_formula_sum "Si O2"
_cell_formula_units_Z 16
_cell_length_a 7.944293
_cell_length_b 15.907503
_cell_length_c 9.457665
_cell_angle_alpha 140.708278
_cell_angle_beta 101.278516
_cell_angle_gamma 69.325712
_cell_volume 702.033043
_symmetry_space_group_name_H-M "P -1"
_symmetry_group_IT_number 2
_symmetry_cell_setting 'triclinic'
loop_
_space_group_symop_operation_xyz
x,y,z
-x,-y,-z
loop_
_atom_site_type_symbol
_atom_site_label
_atom_site_fract_x
_atom_site_fract_y
_atom_site_fract_z
Si Si1 0.171372 0.305956 0.379012
Si Si2 0.062517 0.492751 0.161800
Si Si3 0.331683 0.830430 0.142709
Si Si4 0.131552 0.064146 0.192804
Si Si5 0.496829 0.343866 0.308909
Si Si6 0.201375 0.946956 0.543097
Si Si7 0.223476 0.722492 0.487471
Si Si8 0.975692 0.755490 0.996618
O O1 0.090478 0.414289 0.632311
O O2 0.246748 0.144024 0.231469
O O3 0.317045 0.345198 0.361334
O O4 0.016864 0.304831 0.239054
O O5 0.224006 0.562022 0.274197
O O6 0.000000 0.500000 0.000000
O O7 0.090397 0.338124 0.025598
O O8 0.350766 0.905787 0.389813
O O9 0.178985 0.757292 0.060711
O O10 0.239141 0.954267 0.179843
O O11 0.482032 0.725699 0.933015
O O12 0.987280 0.193224 0.415228
O O13 0.000000 0.000000 0.000000
O O14 0.500000 0.500000 0.500000
O O15 0.659133 0.263682 0.339757
O O16 0.256528 0.807464 0.468010
O O17 0.168187 0.086309 0.813598
O O18 0.000000 0.000000 0.500000
#
# Coordination Sequence:
#
# PCOD9100972 Si02
#       8
#     2   2   2   2   2   2   2   2
#     4  11  24  39  62  91 128 166 218 251 318 387
#     4  11  23  38  65  97 123 161 214 273 315 368
#     4  11  21  38  67  91 130 160 214 266 321 367
#     4  11  18  38  66  97 116 161 215 276 312 362
#     4  12  26  43  61  90 133 182 211 248 318 394
#     4  10  20  37  67  98 119 159 213 270 322 364
#     4  11  21  41  65  92 128 164 210 267 320 372
#     4  11  20  39  65  93 123 160 217 269 314 369
#
# _framework density 22.790949999999999
#
# number of rings (size 3 to 8) (size 9 to 14) (size 15 to 20)
#    0.000    1.000    5.000    4.125    1.750    0.500 
#    0.000    4.375    0.000    0.000    0.000    0.000 
#    0.000    0.000    0.000    0.000    0.000    0.000 
#
# Total GULP energy -89245.346735 kJ/mol
# GULP energy per Si atom -5577.834171 kJ/mol
# Density = 2.273908 g / cm^3
# Si number density = 22.790950 Si / 1000 Ang^3
#
#
#
# Elastic Constant Matrix: (Units=GPa)
#
#
# Indices 1 2 3 4 5 6 
#
# 1 49.7307 25.6130 32.8763 2.8662 -5.8939 21.8110
# 2 25.6130 136.7970 27.1004 8.1997 -5.7349 30.0740
# 3 32.8763 27.1004 99.8613 -24.3574 -21.8119 16.4333
# 4 2.8662 8.1997 -24.3574 42.9338 10.7861 1.3062
# 5 -5.8939 -5.7349 -21.8119 10.7861 26.0381 2.8946
# 6 21.8110 30.0740 16.4333 1.3062 2.8946 35.6247
#
#
#
# Elastic Compliance Matrix: (Units=1/GPa)
#
#
# Indices 1 2 3 4 5 6 
#
# 1 0.035201 -0.000189 -0.009682 -0.008614 0.005279 -0.017039
# 2 -0.000189 0.009579 -0.001425 -0.003154 0.003007 -0.007442
# 3 -0.009682 -0.001425 0.018189 0.008979 0.009272 -0.002342
# 4 -0.008614 -0.003154 0.008979 0.031621 -0.008592 0.003334
# 5 0.005279 0.003007 0.009272 -0.008592 0.053151 -0.014051
# 6 -0.017039 -0.007442 -0.002342 0.003334 -0.014051 0.046885
#
#
# Mechanical properties :
#
#
# Convention : Reuss Voigt Hill
#
# Bulk Modulus (GPa) = 24.76671 50.84093 37.80382
# Shear Modulus (GPa) = 21.67533 34.30595 27.99064
#
# Velocity S-wave (km/s) = 3.08726 3.88396 3.50829
# Velocity P-wave (km/s) = 4.85785 6.51686 5.74753
#
# Compressibility (1/GPa) = 0.04037679
#
# Stress axis : x y z
#
# Youngs Moduli (GPa) = 28.40799 104.39391 54.97833
#
# Poissons Ratio (x) = 0.01976 0.53229
# Poissons Ratio (y) = 0.00538 0.07835
# Poissons Ratio (z) = 0.27504 0.14878
#
# Static dielectric constant tensor:
#      x y z
#    x 1.901350 0.042980 0.023550 
#    y 0.042980 1.977420 0.026670 
#    z 0.023550 0.026670 1.941510 
# 
# From -- ./inp_files/209357.got.cif
#   From: 2010.05.17/outbox.cif.g08.bks.cpg/sg2_105_cif.got.tgz:209357.got - 2010.06.03 11:33:40.
