data_PCOD9100325
_publ_section_title
;
Structure prediction by ZEFSAII (Michael W. Deem and Ramdas Pophale) SiO2 
 PCOD9100325
Probable space group: P -1
;
_chemical_formula_sum "Si O2"
_cell_formula_units_Z 14
_cell_length_a 10.723274
_cell_length_b 7.696537
_cell_length_c 14.930188
_cell_angle_alpha 113.629495
_cell_angle_beta 143.418895
_cell_angle_gamma 60.260737
_cell_volume 637.625847
_symmetry_space_group_name_H-M "P -1"
_symmetry_group_IT_number 2
_symmetry_cell_setting 'triclinic'
loop_
_space_group_symop_operation_xyz
x,y,z
-x,-y,-z
loop_
_atom_site_type_symbol
_atom_site_label
_atom_site_fract_x
_atom_site_fract_y
_atom_site_fract_z
Si Si1 0.340722 0.864994 0.377130
Si Si2 0.155012 0.631510 0.722640
Si Si3 0.522886 0.020682 0.235198
Si Si4 0.146002 0.039877 0.881383
Si Si5 0.634618 0.334305 0.472508
Si Si6 0.876909 0.720768 0.259798
Si Si7 0.660902 0.673529 0.385466
O O1 0.285692 0.843289 0.443876
O O2 0.494629 0.674268 0.370908
O O3 0.500000 0.000000 0.500000
O O4 0.095695 0.933930 0.210278
O O5 0.284910 0.516301 0.687679
O O6 0.201262 0.466544 0.795109
O O7 0.104937 0.310669 0.441880
O O8 0.788700 0.173513 0.175435
O O9 0.742525 0.909546 0.281401
O O10 0.537187 0.867208 0.293637
O O11 0.319037 0.037109 0.057048
O O12 0.142790 0.209469 0.840307
O O13 0.500000 0.500000 0.500000
O O14 0.866409 0.351581 0.578707
O O15 0.515935 0.236754 0.312062
#
# Coordination Sequence:
#
# PCOD9100325 Si02
#       7
#     2   2   2   2   2   2   2
#     4  11  20  40  63  87 126 167 209 254 309 379
#     4  10  21  40  67  95 121 164 219 259 309 373
#     4  11  23  42  63  94 131 166 208 263 325 369
#     4  11  24  41  66  92 133 169 202 264 324 374
#     4  11  23  39  65  92 121 166 216 260 308 374
#     4  10  23  42  66  92 127 168 214 260 307 380
#     4  10  20  37  63  93 122 160 216 256 300 379
#
# _framework density 21.95645
#
# number of rings (size 3 to 8) (size 9 to 14) (size 15 to 20)
#    0.000    1.429    2.857    2.571    0.000    6.286 
#    0.000    7.143    0.000    0.000    0.000    0.000 
#    0.000    0.000    0.000    0.000    0.000    0.000 
#
# Total GULP energy -78145.405991 kJ/mol
# GULP energy per Si atom -5581.814714 kJ/mol
# Density = 2.190648 g / cm^3
# Si number density = 21.956450 Si / 1000 Ang^3
#
#
#
# Elastic Constant Matrix: (Units=GPa)
#
#
# Indices 1 2 3 4 5 6 
#
# 1 91.3714 14.6740 34.1202 -5.7567 3.5816 -3.8967
# 2 14.6740 93.2706 52.9922 5.7898 -6.3290 -17.7891
# 3 34.1202 52.9922 134.9074 3.8169 -20.4381 -19.7223
# 4 -5.7567 5.7898 3.8169 16.2058 0.0298 0.5518
# 5 3.5816 -6.3290 -20.4381 0.0298 26.4082 -11.2339
# 6 -3.8967 -17.7891 -19.7223 0.5518 -11.2339 49.3708
#
#
#
# Elastic Compliance Matrix: (Units=1/GPa)
#
#
# Indices 1 2 3 4 5 6 
#
# 1 0.013357 -0.000821 -0.004654 0.006239 -0.006771 -0.002711
# 2 -0.000821 0.014571 -0.004580 -0.004551 0.001676 0.003788
# 3 -0.004654 -0.004580 0.013263 -0.003373 0.012416 0.006144
# 4 0.006239 -0.004551 -0.003373 0.066517 -0.006643 -0.004750
# 5 -0.006771 0.001676 0.012416 -0.006643 0.056437 0.017945
# 6 -0.002711 0.003788 0.006144 -0.004750 0.017945 0.027996
#
#
# Mechanical properties :
#
#
# Convention : Reuss Voigt Hill
#
# Bulk Modulus (GPa) = 47.43455 58.12471 52.77963
# Shear Modulus (GPa) = 22.80202 32.91450 27.85826
#
# Velocity S-wave (km/s) = 3.22609 3.87600 3.56588
# Velocity P-wave (km/s) = 5.96051 6.82359 6.40660
#
# Compressibility (1/GPa) = 0.02108168
#
# Stress axis : x y z
#
# Youngs Moduli (GPa) = 74.86656 68.62809 75.39729
#
# Poissons Ratio (x) = 0.05633 0.35093
# Poissons Ratio (y) = 0.06145 0.34529
# Poissons Ratio (z) = 0.34846 0.31429
#
# Static dielectric constant tensor:
#      x y z
#    x 1.850590 0.073450 -0.006890 
#    y 0.073450 1.992440 -0.063230 
#    z -0.006890 -0.063230 1.809180 
# 
# From -- ./inp_files/566155.got.cif
#   From: 2010.05.17/outbox.cif.g08.bks.cpg/sg2_284_cif.got.tgz:566155.got - 2010.06.03 11:33:40.
