data_PCOD9100431
_publ_section_title
;
Structure prediction by ZEFSAII (Michael W. Deem and Ramdas Pophale) SiO2 
 PCOD9100431
Probable space group: P -1
;
_chemical_formula_sum "Si O2"
_cell_formula_units_Z 16
_cell_length_a 11.850945
_cell_length_b 8.729291
_cell_length_c 21.369664
_cell_angle_alpha 104.930363
_cell_angle_beta 28.180432
_cell_angle_gamma 86.031238
_cell_volume 767.120673
_symmetry_space_group_name_H-M "P -1"
_symmetry_group_IT_number 2
_symmetry_cell_setting 'triclinic'
loop_
_space_group_symop_operation_xyz
x,y,z
-x,-y,-z
loop_
_atom_site_type_symbol
_atom_site_label
_atom_site_fract_x
_atom_site_fract_y
_atom_site_fract_z
Si Si1 0.735801 0.149824 0.196612
Si Si2 0.292636 0.368815 0.891045
Si Si3 0.582955 0.131458 0.503235
Si Si4 0.840098 0.307939 0.345530
Si Si5 0.655150 0.976582 0.587841
Si Si6 0.022525 0.632112 0.835518
Si Si7 0.778166 0.408935 0.658107
Si Si8 0.912918 0.410588 0.460514
O O1 0.612106 0.047869 0.283608
O O2 0.412634 0.352327 0.345701
O O3 0.854191 0.248904 0.189108
O O4 0.000000 0.000000 0.000000
O O5 0.438250 0.479906 0.838029
O O6 0.545767 0.148529 0.710950
O O7 0.212028 0.328470 0.992958
O O8 0.000000 0.500000 0.000000
O O9 0.830872 0.122997 0.339414
O O10 0.288245 0.379659 0.678558
O O11 0.500000 0.000000 0.500000
O O12 0.683963 0.049812 0.515420
O O13 0.500000 0.500000 0.500000
O O14 0.884831 0.350774 0.398902
O O15 0.076296 0.288435 0.179187
O O16 0.985776 0.761925 0.423888
O O17 0.914289 0.306099 0.511547
O O18 0.805913 0.585345 0.672029
#
# Coordination Sequence:
#
# PCOD9100431 Si02
#       8
#     2   2   2   2   2   2   2   2
#     4  11  20  35  62  99 129 160 207 266 321 382
#     4  12  22  40  61  95 135 164 208 279 327 373
#     4  11  22  36  64  98 128 163 218 268 315 375
#     4  10  20  37  64  87 128 169 217 257 314 383
#     4  11  23  38  65  97 129 164 219 266 323 385
#     4  11  22  38  60  95 130 167 212 261 323 371
#     4  10  24  38  64  96 129 173 213 263 332 382
#     4  10  20  41  63  91 130 175 211 261 321 390
#
# _framework density 20.857213000000002
#
# number of rings (size 3 to 8) (size 9 to 14) (size 15 to 20)
#    0.000    1.250    5.000    2.625    5.250    0.000 
#    0.000    0.625    0.000    1.500    0.000    0.000 
#    0.000    0.000    0.000    0.000    0.000    0.000 
#
# Total GULP energy -89241.483223 kJ/mol
# GULP energy per Si atom -5577.592701 kJ/mol
# Density = 2.080974 g / cm^3
# Si number density = 20.857213 Si / 1000 Ang^3
#
#
#
# Elastic Constant Matrix: (Units=GPa)
#
#
# Indices 1 2 3 4 5 6 
#
# 1 119.0119 56.0320 20.9256 -25.7138 15.6070 -3.2599
# 2 56.0320 130.0058 27.5058 -37.6079 5.8344 -13.8244
# 3 20.9256 27.5058 36.4395 -23.5726 1.9768 0.2134
# 4 -25.7138 -37.6079 -23.5726 42.3544 4.8759 8.7926
# 5 15.6070 5.8344 1.9768 4.8759 28.5374 -13.8172
# 6 -3.2599 -13.8244 0.2134 8.7926 -13.8172 48.3373
#
#
#
# Elastic Compliance Matrix: (Units=1/GPa)
#
#
# Indices 1 2 3 4 5 6 
#
# 1 0.012538 -0.003605 0.000165 0.006376 -0.009137 -0.003958
# 2 -0.003605 0.011939 -0.002635 0.006629 -0.000536 0.001824
# 3 0.000165 -0.002635 0.048141 0.027950 -0.012286 -0.009551
# 4 0.006376 0.006629 0.027950 0.054542 -0.023021 -0.014299
# 5 -0.009137 -0.000536 -0.012286 -0.023021 0.054102 0.018937
# 6 -0.003958 0.001824 -0.009551 -0.014299 0.018937 0.028999
#
#
# Mechanical properties :
#
#
# Convention : Reuss Voigt Hill
#
# Bulk Modulus (GPa) = 16.53800 54.93156 35.73478
# Shear Modulus (GPa) = 20.61282 35.91207 28.26245
#
# Velocity S-wave (km/s) = 3.14711 4.15397 3.68509
# Velocity P-wave (km/s) = 4.59914 7.02861 5.93942
#
# Compressibility (1/GPa) = 0.06046681
#
# Stress axis : x y z
#
# Youngs Moduli (GPa) = 79.75484 83.76026 20.77247
#
# Poissons Ratio (x) = 0.30197 -0.00342
# Poissons Ratio (y) = 0.28753 0.05474
# Poissons Ratio (z) = -0.01314 0.22072
#
# Static dielectric constant tensor:
#      x y z
#    x 1.787120 -0.001020 0.008460 
#    y -0.001020 1.801850 -0.041560 
#    z 0.008460 -0.041560 1.807260 
# 
# From -- ./inp_files/593607.got.cif
#   From: 2010.05.17/outbox.cif.g08.bks.cpg/sg2_297_cif.got.tgz:593607.got - 2010.06.03 11:33:40.
