data_PCOD9100680
_publ_section_title
;
Structure prediction by ZEFSAII (Michael W. Deem and Ramdas Pophale) SiO2 
 PCOD9100680
Probable space group: P -1
;
_chemical_formula_sum "Si O2"
_cell_formula_units_Z 14
_cell_length_a 14.815286
_cell_length_b 27.741827
_cell_length_c 28.414855
_cell_angle_alpha 170.311199
_cell_angle_beta 16.714611
_cell_angle_gamma 163.558889
_cell_volume 537.362020
_symmetry_space_group_name_H-M "P -1"
_symmetry_group_IT_number 2
_symmetry_cell_setting 'triclinic'
loop_
_space_group_symop_operation_xyz
x,y,z
-x,-y,-z
loop_
_atom_site_type_symbol
_atom_site_label
_atom_site_fract_x
_atom_site_fract_y
_atom_site_fract_z
Si Si1 0.393731 0.841922 0.117396
Si Si2 0.827547 0.419999 0.162758
Si Si3 0.574500 0.824546 0.747414
Si Si4 0.740220 0.098678 0.365920
Si Si5 0.507949 0.441637 0.884506
Si Si6 0.201209 0.529016 0.476089
Si Si7 0.176241 0.914398 0.397290
O O1 0.700224 0.130210 0.227503
O O2 0.068572 0.902689 0.319166
O O3 0.377155 0.862985 0.202318
O O4 0.475191 0.550319 0.778895
O O5 0.979416 0.587701 0.201314
O O6 0.766617 0.693818 0.485427
O O7 0.123055 0.327593 0.952325
O O8 0.537609 0.104618 0.001332
O O9 0.500000 0.500000 0.500000
O O10 0.500000 0.000000 0.000000
O O11 0.692850 0.216957 0.555831
O O12 0.029069 0.313336 0.397157
O O13 0.421363 0.085188 0.480320
O O14 0.702876 0.750918 0.058454
O O15 0.500000 0.500000 0.000000
O O16 0.000000 0.500000 0.500000
#
# Coordination Sequence:
#
# PCOD9100680 Si02
#       7
#     2   2   2   2   2   2   2
#     4  11  26  43  67 103 146 184 230 287 344 413
#     4  10  20  37  65  90 124 170 225 278 343 403
#     4   9  19  37  58  88 119 161 211 259 335 407
#     4  11  24  43  72 100 134 187 229 283 352 416
#     4  11  24  43  68  97 129 168 237 297 341 399
#     4  12  25  44  69 102 145 189 232 281 358 420
#     4  10  24  43  69 103 139 185 236 285 342 418
#
# _framework density 26.0532
#
# number of rings (size 3 to 8) (size 9 to 14) (size 15 to 20)
#    0.000    1.429    1.429    3.429    4.000    6.857 
#    0.000   14.286    0.000    0.000    0.000    0.000 
#    0.000    0.000    0.000    0.000    0.000    0.000 
#
# Total GULP energy -78007.621990 kJ/mol
# GULP energy per Si atom -5571.972999 kJ/mol
# Density = 2.599390 g / cm^3
# Si number density = 26.053200 Si / 1000 Ang^3
#
#
#
# Elastic Constant Matrix: (Units=GPa)
#
#
# Indices 1 2 3 4 5 6 
#
# 1 93.2799 34.6347 5.4871 -1.1650 3.6554 -10.7214
# 2 34.6347 87.9014 10.4636 14.0250 -2.3520 -38.0461
# 3 5.4871 10.4636 152.5815 7.7711 14.4582 -8.0239
# 4 -1.1650 14.0250 7.7711 35.8996 -10.6246 -0.3457
# 5 3.6554 -2.3520 14.4582 -10.6246 34.2917 -0.2263
# 6 -10.7214 -38.0461 -8.0239 -0.3457 -0.2263 35.5293
#
#
#
# Elastic Compliance Matrix: (Units=1/GPa)
#
#
# Indices 1 2 3 4 5 6 
#
# 1 0.013080 -0.007343 -0.000247 0.003050 -0.000875 -0.003948
# 2 -0.007343 0.028003 0.000450 -0.011241 -0.000786 0.027758
# 3 -0.000247 0.000450 0.007142 -0.002842 -0.003822 0.001969
# 4 0.003050 -0.011241 -0.002842 0.036178 0.011236 -0.011336
# 5 -0.000875 -0.000786 -0.003822 0.011236 0.034283 -0.001641
# 6 -0.003948 0.027758 0.001969 -0.011336 -0.001641 0.057003
#
#
# Mechanical properties :
#
#
# Convention : Reuss Voigt Hill
#
# Bulk Modulus (GPa) = 29.45808 48.32596 38.89202
# Shear Modulus (GPa) = 24.84056 40.02261 32.43159
#
# Velocity S-wave (km/s) = 3.09116 3.92368 3.53203
# Velocity P-wave (km/s) = 4.90630 6.25429 5.62085
#
# Compressibility (1/GPa) = 0.03394654
#
# Stress axis : x y z
#
# Youngs Moduli (GPa) = 76.45219 35.71013 140.01110
#
# Poissons Ratio (x) = 0.26223 0.03456
# Poissons Ratio (y) = 0.56140 -0.06307
# Poissons Ratio (z) = 0.01887 -0.01609
#
# Static dielectric constant tensor:
#      x y z
#    x 1.979250 -0.141570 -0.018420 
#    y -0.141570 1.797400 -0.061730 
#    z -0.018420 -0.061730 1.951630 
# 
# From -- ./inp_files/619991.got.cif
#   From: 2010.05.17/outbox.cif.g08.bks.cpg/sg2_310_cif.got.tgz:619991.got - 2010.06.03 11:33:40.
