data_PCOD9100391
_publ_section_title
;
Structure prediction by ZEFSAII (Michael W. Deem and Ramdas Pophale) SiO2 
 PCOD9100391
Probable space group: P -1
;
_chemical_formula_sum "Si O2"
_cell_formula_units_Z 16
_cell_length_a 21.128336
_cell_length_b 24.439165
_cell_length_c 9.099494
_cell_angle_alpha 39.924389
_cell_angle_beta 150.984359
_cell_angle_gamma 160.315909
_cell_volume 720.308476
_symmetry_space_group_name_H-M "P -1"
_symmetry_group_IT_number 2
_symmetry_cell_setting 'triclinic'
loop_
_space_group_symop_operation_xyz
x,y,z
-x,-y,-z
loop_
_atom_site_type_symbol
_atom_site_label
_atom_site_fract_x
_atom_site_fract_y
_atom_site_fract_z
Si Si1 0.547744 0.751395 0.213994
Si Si2 0.139424 0.944137 0.571592
Si Si3 0.689438 0.141488 0.964261
Si Si4 0.714301 0.862619 0.770086
Si Si5 0.261070 0.518384 0.380238
Si Si6 0.607814 0.895752 0.770631
Si Si7 0.382818 0.415512 0.684606
Si Si8 0.177607 0.277597 0.228217
O O1 0.755480 0.928932 0.358307
O O2 0.316587 0.601141 0.171055
O O3 0.685806 0.739239 0.477982
O O4 0.468764 0.761994 0.891349
O O5 0.292432 0.051515 0.510905
O O6 0.817608 0.767448 0.277269
O O7 0.208480 0.884899 0.861100
O O8 0.562984 0.133916 0.605780
O O9 0.953149 0.335753 0.166307
O O10 0.500000 0.000000 0.000000
O O11 0.454878 0.666152 0.591764
O O12 0.711329 0.885038 0.886312
O O13 0.000000 0.000000 0.000000
O O14 0.362962 0.482158 0.619143
O O15 0.867996 0.090082 0.962191
O O16 0.250395 0.352942 0.382458
O O17 0.688338 0.585128 0.906115
#
# Coordination Sequence:
#
# PCOD9100391 Si02
#       8
#     2   2   2   2   2   2   2   2
#     4  10  21  39  67  95 122 158 204 273 321 360
#     4  10  20  41  63  85 127 168 200 257 321 362
#     4  11  24  46  62  86 130 176 212 252 305 379
#     4  11  23  40  66  96 125 163 211 259 317 378
#     4   9  22  44  64  87 129 168 207 256 318 365
#     4  12  23  38  66  97 124 164 219 252 314 376
#     4   9  18  36  63  88 127 163 193 252 328 369
#     4  10  20  37  63  98 128 153 204 264 325 368
#
# _framework density 22.212705
#
# number of rings (size 3 to 8) (size 9 to 14) (size 15 to 20)
#    0.000    1.750    2.500    2.625    1.750    1.500 
#    2.250    1.875    0.000    0.000    0.000    0.000 
#    0.000    0.000    0.000    0.000    0.000    0.000 
#
# Total GULP energy -89253.179346 kJ/mol
# GULP energy per Si atom -5578.323709 kJ/mol
# Density = 2.216215 g / cm^3
# Si number density = 22.212705 Si / 1000 Ang^3
#
#
#
# Elastic Constant Matrix: (Units=GPa)
#
#
# Indices 1 2 3 4 5 6 
#
# 1 50.3415 24.4194 7.4336 -3.9566 -7.4923 8.6966
# 2 24.4194 148.2840 25.8340 16.6698 -5.4146 14.5687
# 3 7.4336 25.8340 88.4948 4.8922 2.8208 5.2898
# 4 -3.9566 16.6698 4.8922 21.1622 1.4171 6.0667
# 5 -7.4923 -5.4146 2.8208 1.4171 27.4635 -8.1817
# 6 8.6966 14.5687 5.2898 6.0667 -8.1817 41.6187
#
#
#
# Elastic Compliance Matrix: (Units=1/GPa)
#
#
# Indices 1 2 3 4 5 6 
#
# 1 0.024095 -0.004230 -0.001187 0.008937 0.004247 -0.003871
# 2 -0.004230 0.008642 -0.001763 -0.007044 0.000881 -0.000717
# 3 -0.001187 -0.001763 0.012105 -0.001228 -0.002123 -0.000912
# 4 0.008937 -0.007044 -0.001228 0.057475 -0.004314 -0.008472
# 5 0.004247 0.000881 -0.002123 -0.004314 0.040466 0.007658
# 6 -0.003871 -0.000717 -0.000912 -0.008472 0.007658 0.027944
#
#
# Mechanical properties :
#
#
# Convention : Reuss Voigt Hill
#
# Bulk Modulus (GPa) = 32.80827 44.72159 38.76493
# Shear Modulus (GPa) = 25.60835 33.34442 29.47638
#
# Velocity S-wave (km/s) = 3.39908 3.87866 3.64676
# Velocity P-wave (km/s) = 5.49610 6.34316 5.93476
#
# Compressibility (1/GPa) = 0.03048012
#
# Stress axis : x y z
#
# Youngs Moduli (GPa) = 41.50262 115.71114 82.61315
#
# Poissons Ratio (x) = 0.48951 0.09807
# Poissons Ratio (y) = 0.17557 0.14567
# Poissons Ratio (z) = 0.04927 0.20404
#
# Static dielectric constant tensor:
#      x y z
#    x 1.800050 0.036860 0.013820 
#    y 0.036860 1.915800 -0.112090 
#    z 0.013820 -0.112090 1.929750 
# 
# From -- ./inp_files/349996.got.cif
#   From: 2010.05.17/outbox.cif.g08.bks.cpg/sg2_175_cif.got.tgz:349996.got - 2010.06.03 11:33:40.
