data_PCOD9100049
_publ_section_title
;
Structure prediction by ZEFSAII (Michael W. Deem and Ramdas Pophale) SiO2 
 PCOD9100049
Probable space group: P -1
;
_chemical_formula_sum "Si O2"
_cell_formula_units_Z 16
_cell_length_a 15.758665
_cell_length_b 11.307248
_cell_length_c 15.110928
_cell_angle_alpha 132.200261
_cell_angle_beta 20.644363
_cell_angle_gamma 130.380739
_cell_volume 701.333328
_symmetry_space_group_name_H-M "P -1"
_symmetry_group_IT_number 2
_symmetry_cell_setting 'triclinic'
loop_
_space_group_symop_operation_xyz
x,y,z
-x,-y,-z
loop_
_atom_site_type_symbol
_atom_site_label
_atom_site_fract_x
_atom_site_fract_y
_atom_site_fract_z
Si Si1 0.322033 0.124154 0.958851
Si Si2 0.104316 0.108440 0.795286
Si Si3 0.895103 0.590314 0.762520
Si Si4 0.635388 0.637951 0.227426
Si Si5 0.320285 0.027557 0.361730
Si Si6 0.943776 0.254637 0.600678
Si Si7 0.317164 0.823359 0.527911
Si Si8 0.465514 0.288186 0.204710
O O1 0.483147 0.135362 0.719547
O O2 0.484102 0.100038 0.873092
O O3 0.201242 0.292705 0.158440
O O4 0.145944 0.966487 0.036752
O O5 0.151545 0.280444 0.879910
O O6 0.272400 0.104444 0.542254
O O7 0.161832 0.976456 0.748080
O O8 0.898250 0.401692 0.652779
O O9 0.156957 0.669392 0.572130
O O10 0.739600 0.609647 0.013550
O O11 0.439164 0.770399 0.472269
O O12 0.516660 0.466487 0.284944
O O13 0.413438 0.154952 0.263238
O O14 0.086667 0.918667 0.502211
O O15 0.788391 0.714152 0.603347
O O16 0.715980 0.254598 0.892165
#
# Coordination Sequence:
#
# PCOD9100049 Si02
#       8
#     2   2   2   2   2   2   2   2
#     4   9  21  38  57  93 128 166 206 251 325 380
#     4  10  22  37  59  92 126 169 203 255 325 376
#     4   9  19  37  63  91 126 160 210 265 314 372
#     4  10  20  37  62  91 126 161 213 263 311 374
#     4  11  25  41  64  89 130 167 208 261 315 388
#     4  11  24  44  71  95 122 165 220 268 314 368
#     4   9  17  36  59  89 123 159 210 259 311 374
#     4  11  25  44  69  96 121 169 219 266 313 366
#
# _framework density 22.813687999999999
#
# number of rings (size 3 to 8) (size 9 to 14) (size 15 to 20)
#    0.000    2.000    1.250    1.125    3.500    7.500 
#    0.000    6.250    0.000    0.000    0.000    0.000 
#    0.000    0.000    0.000    0.000    0.000    0.000 
#
# Total GULP energy -89320.777894 kJ/mol
# GULP energy per Si atom -5582.548618 kJ/mol
# Density = 2.276176 g / cm^3
# Si number density = 22.813688 Si / 1000 Ang^3
#
#
#
# Elastic Constant Matrix: (Units=GPa)
#
#
# Indices 1 2 3 4 5 6 
#
# 1 41.0900 49.2223 21.0529 9.9220 0.4057 -24.6255
# 2 49.2223 151.2264 13.2387 -17.4640 4.8740 3.2354
# 3 21.0529 13.2387 74.0689 -14.6367 -1.2443 2.4299
# 4 9.9220 -17.4640 -14.6367 20.2276 16.1430 -2.9489
# 5 0.4057 4.8740 -1.2443 16.1430 -17.5412 42.9831
# 6 -24.6255 3.2354 2.4299 -2.9489 42.9831 -28.0515
#
#
#
# Elastic Compliance Matrix: (Units=1/GPa)
#
#
# Indices 1 2 3 4 5 6 
#
# 1 -0.014188 0.009143 0.009959 0.036275 -0.022058 -0.023240
# 2 0.009143 0.002024 -0.005818 -0.013854 0.010283 0.008915
# 3 0.009959 -0.005818 0.009549 -0.010341 0.010874 0.009164
# 4 0.036275 -0.013854 -0.010341 -0.012353 0.034343 0.019584
# 5 -0.022058 0.010283 0.010874 0.034343 -0.007256 0.006763
# 6 -0.023240 0.008915 0.009164 0.019584 0.006763 -0.005121
#
#
# Mechanical properties :
#
#
# Convention : Reuss Voigt Hill
#
# Bulk Modulus (GPa) = 41.74904 48.15701 44.95302
# Shear Modulus (GPa) = -108.86276 7.11840 -50.87218
#
# Velocity S-wave (km/s) = -6.91533 1.76833 -4.72730
# Velocity P-wave (km/s) = 6.73963 5.03229 3.17007
#
# Compressibility (1/GPa) = 0.02395265
#
# Stress axis : x y z
#
# Youngs Moduli (GPa) = -70.48305 494.11980 104.72432
#
# Poissons Ratio (x) = -4.51794 -1.04290
# Poissons Ratio (y) = 0.64445 0.60929
# Poissons Ratio (z) = 0.70191 2.87481
#
# Static dielectric constant tensor:
#      x y z
#    x 1.819260 0.007780 -0.018020 
#    y 0.007780 1.827680 0.033340 
#    z -0.018020 0.033340 1.963090 
# 
# From -- ./inp_files/431795.got.cif
#   From: 2010.05.17/outbox.cif.g08.bks.cpg/sg2_216_cif.got.tgz:431795.got - 2010.06.03 11:33:40.
