data_PCOD9100316
_publ_section_title
;
Structure prediction by ZEFSAII (Michael W. Deem and Ramdas Pophale) SiO2 
 PCOD9100316
Probable space group: P -1
;
_chemical_formula_sum "Si O2"
_cell_formula_units_Z 12
_cell_length_a 10.689024
_cell_length_b 9.242737
_cell_length_c 10.242451
_cell_angle_alpha 115.808237
_cell_angle_beta 108.654347
_cell_angle_gamma 122.833791
_cell_volume 519.101007
_symmetry_space_group_name_H-M "P -1"
_symmetry_group_IT_number 2
_symmetry_cell_setting 'triclinic'
loop_
_space_group_symop_operation_xyz
x,y,z
-x,-y,-z
loop_
_atom_site_type_symbol
_atom_site_label
_atom_site_fract_x
_atom_site_fract_y
_atom_site_fract_z
Si Si1 0.812324 0.530983 0.388029
Si Si2 0.698327 0.055233 0.190639
Si Si3 0.044750 0.364413 0.009143
Si Si4 0.253456 0.109357 0.099314
Si Si5 0.235986 0.405767 0.323634
Si Si6 0.657206 0.494739 0.053679
O O1 0.734660 0.271735 0.242182
O O2 0.701727 0.481814 0.467594
O O3 0.071962 0.772462 0.600552
O O4 0.777291 0.602254 0.275978
O O5 0.503128 0.817500 0.128175
O O6 0.643912 0.896429 0.982093
O O7 0.196958 0.510649 0.248610
O O8 0.165072 0.366504 0.945323
O O9 0.000000 0.500000 0.000000
O O10 0.817556 0.063529 0.866376
O O11 0.357467 0.379122 0.280945
O O12 0.012786 0.906968 0.872100
O O13 0.500000 0.500000 0.000000
#
# Coordination Sequence:
#
# PCOD9100316 Si02
#       6
#     2   2   2   2   2   2
#     4  10  22  41  69  89 127 178 221 259 314 399
#     4  10  21  42  69  93 125 173 228 257 317 396
#     4  10  20  37  63  92 130 170 203 267 336 372
#     4   8  16  36  64  83 123 173 207 246 318 397
#     4   8  17  36  63  86 116 174 218 242 310 401
#     4  12  26  40  63 104 136 161 213 283 333 370
#
# _framework density 23.116890000000001
#
# number of rings (size 3 to 8) (size 9 to 14) (size 15 to 20)
#    1.000    1.333    0.000    2.500    4.667    0.667 
#    0.000    4.167    0.000    0.000    0.000    0.000 
#    0.000    0.000    0.000    0.000    0.000    0.000 
#
# Total GULP energy -66910.091410 kJ/mol
# GULP energy per Si atom -5575.840951 kJ/mol
# Density = 2.306427 g / cm^3
# Si number density = 23.116890 Si / 1000 Ang^3
#
#
#
# Elastic Constant Matrix: (Units=GPa)
#
#
# Indices 1 2 3 4 5 6 
#
# 1 92.6199 23.2917 30.5887 -28.6259 10.9655 -5.3736
# 2 23.2917 103.3914 19.1581 -22.8780 7.0611 -4.9843
# 3 30.5887 19.1581 112.5452 -35.2830 -5.4503 -15.4940
# 4 -28.6259 -22.8780 -35.2830 40.8125 -4.0350 7.3561
# 5 10.9655 7.0611 -5.4503 -4.0350 40.6935 -8.1215
# 6 -5.3736 -4.9843 -15.4940 7.3561 -8.1215 45.1770
#
#
#
# Elastic Compliance Matrix: (Units=1/GPa)
#
#
# Indices 1 2 3 4 5 6 
#
# 1 0.014366 -0.000994 -0.001475 0.008067 -0.003257 -0.000806
# 2 -0.000994 0.011181 0.000038 0.005486 -0.001116 0.000034
# 3 -0.001475 0.000038 0.013084 0.010069 0.003813 0.003362
# 4 0.008067 0.005486 0.010069 0.042422 0.002129 -0.001507
# 5 -0.003257 -0.001116 0.003813 0.002129 0.027441 0.005384
# 6 -0.000806 0.000034 0.003362 -0.001507 0.005384 0.024409
#
#
# Mechanical properties :
#
#
# Convention : Reuss Voigt Hill
#
# Bulk Modulus (GPa) = 29.61463 50.51483 40.06473
# Shear Modulus (GPa) = 33.55183 41.03782 37.29483
#
# Velocity S-wave (km/s) = 3.81386 4.21792 4.02097
# Velocity P-wave (km/s) = 5.67738 6.75429 6.23912
#
# Compressibility (1/GPa) = 0.03376709
#
# Stress axis : x y z
#
# Youngs Moduli (GPa) = 69.60801 89.43866 76.43053
#
# Poissons Ratio (x) = 0.08894 0.11273
# Poissons Ratio (y) = 0.06922 -0.00287
# Poissons Ratio (z) = 0.10267 -0.00336
#
# Static dielectric constant tensor:
#      x y z
#    x 1.993750 0.032100 0.049010 
#    y 0.032100 1.853260 -0.001480 
#    z 0.049010 -0.001480 1.911040 
# 
# From -- ./inp_files/239906.got.cif
#   From: 2010.05.17/outbox.cif.g08.bks.cpg/sg2_120_cif.got.tgz:239906.got - 2010.06.03 11:33:40.
