data_PCOD9100017
_publ_section_title
;
Structure prediction by ZEFSAII (Michael W. Deem and Ramdas Pophale) SiO2 
 PCOD9100017
Probable space group: P -1
;
_chemical_formula_sum "Si O2"
_cell_formula_units_Z 12
_cell_length_a 11.649251
_cell_length_b 11.286886
_cell_length_c 12.399416
_cell_angle_alpha 140.388680
_cell_angle_beta 33.172249
_cell_angle_gamma 141.927094
_cell_volume 519.212931
_symmetry_space_group_name_H-M "P -1"
_symmetry_group_IT_number 2
_symmetry_cell_setting 'triclinic'
loop_
_space_group_symop_operation_xyz
x,y,z
-x,-y,-z
loop_
_atom_site_type_symbol
_atom_site_label
_atom_site_fract_x
_atom_site_fract_y
_atom_site_fract_z
Si Si1 0.261687 0.662694 0.424110
Si Si2 0.009802 0.601543 0.232385
Si Si3 0.516835 0.937803 0.064332
Si Si4 0.540592 0.939723 0.585305
Si Si5 0.192087 0.329192 0.779743
Si Si6 0.335681 0.381862 0.309797
O O1 0.333934 0.812622 0.577186
O O2 0.387092 0.516136 0.255003
O O3 0.000000 0.500000 0.500000
O O4 0.359070 0.825507 0.366530
O O5 0.268664 0.760129 0.159319
O O6 0.909215 0.686040 0.270835
O O7 0.863133 0.595050 0.448420
O O8 0.031616 0.396683 0.030516
O O9 0.547836 0.090763 0.244157
O O10 0.705879 0.844283 0.848093
O O11 0.500000 0.000000 0.000000
O O12 0.738630 0.852682 0.365417
O O13 0.439343 0.522775 0.725277
#
# Coordination Sequence:
#
# PCOD9100017 Si02
#       6
#     2   2   2   2   2   2
#     4  10  22  42  66  90 122 171 219 263 316 370
#     4  10  20  37  62  90 128 170 208 256 321 384
#     4  11  24  39  61  95 132 168 206 260 323 383
#     4  10  22  42  64  93 130 163 213 270 312 372
#     4   9  20  37  61  91 125 166 211 262 316 373
#     4  10  21  39  61  89 127 166 210 262 317 377
#
# _framework density 23.111906000000001
#
# number of rings (size 3 to 8) (size 9 to 14) (size 15 to 20)
#    0.000    2.000    0.000    2.500    0.000   11.333 
#    0.000    5.000    0.000    0.000    0.000    0.000 
#    0.000    0.000    0.000    0.000    0.000    0.000 
#
# Total GULP energy -66970.516517 kJ/mol
# GULP energy per Si atom -5580.876376 kJ/mol
# Density = 2.305930 g / cm^3
# Si number density = 23.111906 Si / 1000 Ang^3
#
#
#
# Elastic Constant Matrix: (Units=GPa)
#
#
# Indices 1 2 3 4 5 6 
#
# 1 133.7470 37.9933 46.2968 7.8714 21.1032 -0.7703
# 2 37.9933 87.3956 35.8881 -10.2950 -6.7557 -0.0537
# 3 46.2968 35.8881 116.9515 -5.2708 -5.9013 -15.3175
# 4 7.8714 -10.2950 -5.2708 28.7870 -3.6563 -13.3399
# 5 21.1032 -6.7557 -5.9013 -3.6563 13.1160 6.4277
# 6 -0.7703 -0.0537 -15.3175 -13.3399 6.4277 42.1169
#
#
#
# Elastic Compliance Matrix: (Units=1/GPa)
#
#
# Indices 1 2 3 4 5 6 
#
# 1 0.024992 -0.013830 -0.009633 -0.021302 -0.057067 -0.001102
# 2 -0.013830 0.021834 0.001440 0.016626 0.038969 -0.000382
# 3 -0.009633 0.001440 0.014240 0.011002 0.023298 0.004933
# 4 -0.021302 0.016626 0.011002 0.062676 0.058097 0.014618
# 5 -0.057067 0.038969 0.023298 0.058097 0.218469 -0.007461
# 6 -0.001102 -0.000382 0.004933 0.014618 -0.007461 0.031286
#
#
# Mechanical properties :
#
#
# Convention : Reuss Voigt Hill
#
# Bulk Modulus (GPa) = 58.75811 64.27225 61.51518
# Shear Modulus (GPa) = 11.81434 31.33170 21.57302
#
# Velocity S-wave (km/s) = 2.26338 3.68591 3.05850
# Velocity P-wave (km/s) = 5.68410 6.78116 6.25672
#
# Compressibility (1/GPa) = 0.01701893
#
# Stress axis : x y z
#
# Youngs Moduli (GPa) = 40.01303 45.80097 70.22673
#
# Poissons Ratio (x) = 0.63344 0.67652
# Poissons Ratio (y) = 0.55339 -0.10116
# Poissons Ratio (z) = 0.38546 -0.06598
#
# Static dielectric constant tensor:
#      x y z
#    x 1.917300 0.010090 0.017120 
#    y 0.010090 1.950720 0.039780 
#    z 0.017120 0.039780 1.880120 
# 
# From -- ./inp_files/137092.got.cif
#   From: 2010.05.17/outbox.cif.g08.bks.cpg/sg2_69_cif.got.tgz:137092.got - 2010.06.03 11:33:40.
