data_PCOD9100413
_publ_section_title
;
Structure prediction by ZEFSAII (Michael W. Deem and Ramdas Pophale) SiO2 
 PCOD9100413
Probable space group: P -1
;
_chemical_formula_sum "Si O2"
_cell_formula_units_Z 16
_cell_length_a 7.670006
_cell_length_b 10.498467
_cell_length_c 15.243932
_cell_angle_alpha 86.487386
_cell_angle_beta 125.320952
_cell_angle_gamma 60.626886
_cell_volume 763.266329
_symmetry_space_group_name_H-M "P -1"
_symmetry_group_IT_number 2
_symmetry_cell_setting 'triclinic'
loop_
_space_group_symop_operation_xyz
x,y,z
-x,-y,-z
loop_
_atom_site_type_symbol
_atom_site_label
_atom_site_fract_x
_atom_site_fract_y
_atom_site_fract_z
Si Si1 0.798306 0.446995 0.507219
Si Si2 0.537340 0.278796 0.457007
Si Si3 0.737607 0.431287 0.196125
Si Si4 0.438584 0.205801 0.245087
Si Si5 0.137541 0.615068 0.972701
Si Si6 0.831335 0.957601 0.820119
Si Si7 0.618839 0.670357 0.291488
Si Si8 0.996322 0.919280 0.674613
O O1 0.743347 0.321181 0.515858
O O2 0.694220 0.583255 0.547666
O O3 0.614472 0.556165 0.364543
O O4 0.126259 0.343638 0.596021
O O5 0.429454 0.290910 0.327912
O O6 0.715993 0.087303 0.546565
O O7 0.810528 0.420111 0.115686
O O8 0.705289 0.576536 0.228914
O O9 0.956518 0.251299 0.313387
O O10 0.432772 0.480281 0.109821
O O11 0.732830 0.117682 0.287511
O O12 0.159967 0.338105 0.099520
O O13 0.386009 0.076514 0.259362
O O14 0.058858 0.796348 0.952140
O O15 0.658736 0.140178 0.800515
O O16 0.974494 0.945327 0.771900
#
# Coordination Sequence:
#
# PCOD9100413 Si02
#       8
#     2   2   2   2   2   2   2   2
#     4  10  23  34  55  86 122 149 192 236 288 351
#     4  11  21  38  55  86 119 155 187 239 289 341
#     4  10  20  37  64  85 115 151 198 238 293 333
#     4  10  21  37  60  85 116 156 191 236 287 339
#     4   8  20  40  56  91 111 147 203 240 279 347
#     4   9  21  38  57  86 115 152 196 234 285 343
#     4  11  20  38  57  86 117 157 186 239 291 346
#     4  11  21  36  59  85 116 156 190 239 277 350
#
# _framework density 20.962539
#
# number of rings (size 3 to 8) (size 9 to 14) (size 15 to 20)
#    0.750    1.250    1.250    2.625    0.000    3.500 
#    0.000    0.000    0.000    0.750    0.000    0.000 
#    0.000    0.000    0.000    0.000    0.000    0.000 
#
# Total GULP energy -89172.909607 kJ/mol
# GULP energy per Si atom -5573.306850 kJ/mol
# Density = 2.091483 g / cm^3
# Si number density = 20.962539 Si / 1000 Ang^3
#
#
#
# Elastic Constant Matrix: (Units=GPa)
#
#
# Indices 1 2 3 4 5 6 
#
# 1 33.0156 -18.2963 -7.8284 5.2627 3.7680 -5.5179
# 2 -18.2963 108.1817 28.3749 -15.4761 -4.7135 -3.0875
# 3 -7.8284 28.3749 42.8905 -8.2527 3.5334 5.4510
# 4 5.2627 -15.4761 -8.2527 23.2260 4.1826 2.5672
# 5 3.7680 -4.7135 3.5334 4.1826 17.3048 -2.2956
# 6 -5.5179 -3.0875 5.4510 2.5672 -2.2956 11.0371
#
#
#
# Elastic Compliance Matrix: (Units=1/GPa)
#
#
# Indices 1 2 3 4 5 6 
#
# 1 0.038770 0.006497 -0.001456 -0.007273 -0.001527 0.023293
# 2 0.006497 0.013719 -0.009564 0.001903 0.005474 0.012505
# 3 -0.001456 -0.009564 0.036872 0.013186 -0.016740 -0.028163
# 4 -0.007273 0.001903 0.013186 0.056802 -0.017840 -0.026539
# 5 -0.001527 0.005474 -0.016740 -0.017840 0.071051 0.027963
# 6 0.023293 0.012505 -0.028163 -0.026539 0.027963 0.131645
#
#
# Mechanical properties :
#
#
# Convention : Reuss Voigt Hill
#
# Bulk Modulus (GPa) = 12.45091 20.95426 16.70259
# Shear Modulus (GPa) = 12.99789 22.43608 17.71698
#
# Velocity S-wave (km/s) = 2.49279 3.27508 2.91034
# Velocity P-wave (km/s) = 3.77330 4.93146 4.39074
#
# Compressibility (1/GPa) = 0.08031538
#
# Stress axis : x y z
#
# Youngs Moduli (GPa) = 25.79286 72.89350 27.12051
#
# Poissons Ratio (x) = -0.47356 0.03947
# Poissons Ratio (y) = -0.16757 0.25939
# Poissons Ratio (z) = 0.03754 0.69717
#
# Static dielectric constant tensor:
#      x y z
#    x 1.790010 0.005350 -0.012960 
#    y 0.005350 1.745400 -0.024180 
#    z -0.012960 -0.024180 1.756130 
# 
# From -- ./inp_files/498001.got.cif
#   From: 2010.05.17/outbox.cif.g08.bks.cpg/sg2_250_cif.got.tgz:498001.got - 2010.06.03 11:33:40.
