data_PCOD9100615
_publ_section_title
;
Structure prediction by ZEFSAII (Michael W. Deem and Ramdas Pophale) SiO2 
 PCOD9100615
Probable space group: P -1
;
_chemical_formula_sum "Si O2"
_cell_formula_units_Z 16
_cell_length_a 11.715805
_cell_length_b 7.995641
_cell_length_c 11.267392
_cell_angle_alpha 123.231342
_cell_angle_beta 88.284782
_cell_angle_gamma 58.051021
_cell_volume 668.711882
_symmetry_space_group_name_H-M "P -1"
_symmetry_group_IT_number 2
_symmetry_cell_setting 'triclinic'
loop_
_space_group_symop_operation_xyz
x,y,z
-x,-y,-z
loop_
_atom_site_type_symbol
_atom_site_label
_atom_site_fract_x
_atom_site_fract_y
_atom_site_fract_z
Si Si1 0.350598 0.007817 0.061646
Si Si2 0.055947 0.342336 0.812674
Si Si3 0.889935 0.120514 0.752732
Si Si4 0.618860 0.977071 0.358396
Si Si5 0.404268 0.400107 0.908095
Si Si6 0.356748 0.772888 0.348224
Si Si7 0.573297 0.704964 0.723253
Si Si8 0.967391 0.833303 0.862298
O O1 0.306849 0.280781 0.214250
O O2 0.209249 0.024953 0.070971
O O3 0.475596 0.816243 0.083160
O O4 0.427877 0.914169 0.894358
O O5 0.967701 0.235644 0.751240
O O6 0.040729 0.544098 0.797617
O O7 0.230834 0.087112 0.719349
O O8 0.000000 0.500000 0.000000
O O9 0.807855 0.072778 0.641255
O O10 0.994302 0.870347 0.739798
O O11 0.745149 0.358042 0.927781
O O12 0.646495 0.717597 0.223158
O O13 0.616170 0.045690 0.521093
O O14 0.473994 0.204616 0.374694
O O15 0.511784 0.409291 0.824170
O O16 0.379707 0.574260 0.366066
O O17 0.000000 0.000000 0.000000
#
# Coordination Sequence:
#
# PCOD9100615 Si02
#       8
#     2   2   2   2   2   2   2   2
#     4  10  20  37  64  99 122 161 220 278 322 379
#     4  12  24  44  66  92 133 176 224 274 317 390
#     4  12  24  43  69  99 128 173 225 277 324 387
#     4  11  25  42  63  95 135 176 210 268 340 394
#     4  11  21  41  66  96 128 166 212 275 335 381
#     4  12  23  41  65  98 135 166 215 276 337 396
#     4  10  21  37  67  95 127 165 217 273 334 385
#     4  12  23  37  64  99 127 168 222 272 326 380
#
# _framework density 23.926599
#
# number of rings (size 3 to 8) (size 9 to 14) (size 15 to 20)
#    0.000    0.750    5.000    3.375    1.750    0.500 
#    0.000    0.625    0.000    0.000    0.000    0.000 
#    0.000    0.000    0.000    0.000    0.000    0.000 
#
# Total GULP energy -89370.538082 kJ/mol
# GULP energy per Si atom -5585.658630 kJ/mol
# Density = 2.387214 g / cm^3
# Si number density = 23.926599 Si / 1000 Ang^3
#
#
#
# Elastic Constant Matrix: (Units=GPa)
#
#
# Indices 1 2 3 4 5 6 
#
# 1 151.9011 23.7064 20.0068 -4.3380 38.9324 5.6481
# 2 23.7064 108.9870 6.2250 -13.1383 18.1167 13.7677
# 3 20.0068 6.2250 65.6752 -6.3180 23.1515 1.5790
# 4 -4.3380 -13.1383 -6.3180 19.9213 -1.3493 6.1836
# 5 38.9324 18.1167 23.1515 -1.3493 45.4945 3.1455
# 6 5.6481 13.7677 1.5790 6.1836 3.1455 32.6370
#
#
#
# Elastic Compliance Matrix: (Units=1/GPa)
#
#
# Indices 1 2 3 4 5 6 
#
# 1 0.008521 -0.000397 0.000096 0.001424 -0.007078 -0.000899
# 2 -0.000397 0.011956 0.001714 0.010060 -0.004544 -0.006526
# 3 0.000096 0.001714 0.019407 0.007249 -0.010283 -0.002061
# 4 0.001424 0.010060 0.007249 0.064143 -0.005875 -0.016428
# 5 -0.007078 -0.004544 -0.010283 -0.005875 0.034809 0.001398
# 6 -0.000899 -0.006526 -0.002061 -0.016428 0.001398 0.036626
#
#
# Mechanical properties :
#
#
# Convention : Reuss Voigt Hill
#
# Bulk Modulus (GPa) = 23.41413 47.38221 35.39817
# Shear Modulus (GPa) = 26.75621 38.05224 32.40422
#
# Velocity S-wave (km/s) = 3.34767 3.99228 3.68410
# Velocity P-wave (km/s) = 4.97490 6.41071 5.73789
#
# Compressibility (1/GPa) = 0.04270925
#
# Stress axis : x y z
#
# Youngs Moduli (GPa) = 117.36023 83.63702 51.52887
#
# Poissons Ratio (x) = 0.03321 -0.00492
# Poissons Ratio (y) = 0.04661 -0.08834
# Poissons Ratio (z) = -0.01121 -0.14338
#
# Static dielectric constant tensor:
#      x y z
#    x 1.942810 0.053210 0.036440 
#    y 0.053210 2.014710 0.016030 
#    z 0.036440 0.016030 1.953280 
# 
# From -- ./inp_files/256608.got.cif
#   From: 2010.05.17/outbox.cif.g08.bks.cpg/sg2_129_cif.got.tgz:256608.got - 2010.06.03 11:33:40.
