data_PCOD9100548
_publ_section_title
;
Structure prediction by ZEFSAII (Michael W. Deem and Ramdas Pophale) SiO2 
 PCOD9100548
Probable space group: P -1
;
_chemical_formula_sum "Si O2"
_cell_formula_units_Z 16
_cell_length_a 9.470816
_cell_length_b 17.352869
_cell_length_c 8.728682
_cell_angle_alpha 110.756773
_cell_angle_beta 80.314357
_cell_angle_gamma 47.449196
_cell_volume 796.316274
_symmetry_space_group_name_H-M "P -1"
_symmetry_group_IT_number 2
_symmetry_cell_setting 'triclinic'
loop_
_space_group_symop_operation_xyz
x,y,z
-x,-y,-z
loop_
_atom_site_type_symbol
_atom_site_label
_atom_site_fract_x
_atom_site_fract_y
_atom_site_fract_z
Si Si1 0.747009 0.904069 0.794896
Si Si2 0.005541 0.371402 0.863033
Si Si3 0.235781 0.093047 0.572643
Si Si4 0.203453 0.926818 0.531046
Si Si5 0.595268 0.660541 0.736589
Si Si6 0.350185 0.332131 0.920600
Si Si7 0.883900 0.132603 0.192408
Si Si8 0.100169 0.346531 0.477335
O O1 0.745179 0.932317 0.633614
O O2 0.871088 0.759033 0.656061
O O3 0.916896 0.889160 0.842197
O O4 0.500000 0.000000 0.000000
O O5 0.055746 0.250380 0.763554
O O6 0.140741 0.359992 0.963195
O O7 0.105588 0.351722 0.663625
O O8 0.746582 0.533556 0.020123
O O9 0.500000 0.000000 0.500000
O O10 0.183068 0.034276 0.635655
O O11 0.451737 0.794935 0.313173
O O12 0.184917 0.872212 0.634064
O O13 0.000000 0.000000 0.500000
O O14 0.358460 0.732095 0.756490
O O15 0.678870 0.703481 0.662191
O O16 0.840387 0.495957 0.575590
O O17 0.554370 0.702943 0.950295
O O18 0.000000 0.000000 0.000000
#
# Coordination Sequence:
#
# PCOD9100548 Si02
#       8
#     2   2   2   2   2   2   2   2
#     4  11  25  42  64  92 124 162 213 261 310 374
#     4   9  19  38  63  91 126 161 211 254 304 364
#     4  11  23  40  65  95 124 162 208 262 307 374
#     4  12  24  42  63  91 128 166 204 258 319 372
#     4  10  21  38  64  94 126 165 207 250 316 372
#     4  10  20  37  64  94 123 162 207 256 306 372
#     4  12  26  42  63  90 128 167 206 261 318 372
#     4   9  20  39  64  91 126 167 206 254 304 377
#
# _framework density 20.09252
#
# number of rings (size 3 to 8) (size 9 to 14) (size 15 to 20)
#    0.000    1.500    2.500    2.250    5.250    1.500 
#    0.000    0.625    2.750    0.000    0.000    0.000 
#    0.000    0.000    0.000    0.000    0.000    0.000 
#
# Total GULP energy -89244.154085 kJ/mol
# GULP energy per Si atom -5577.759630 kJ/mol
# Density = 2.004679 g / cm^3
# Si number density = 20.092520 Si / 1000 Ang^3
#
#
#
# Elastic Constant Matrix: (Units=GPa)
#
#
# Indices 1 2 3 4 5 6 
#
# 1 125.8774 40.4784 17.6749 -0.2420 13.8547 -14.0854
# 2 40.4784 69.6727 25.1227 -1.2410 6.7315 -10.5998
# 3 17.6749 25.1227 45.8225 12.6997 15.1860 1.4104
# 4 -0.2420 -1.2410 12.6997 27.8285 2.0223 10.7393
# 5 13.8547 6.7315 15.1860 2.0223 26.7065 -1.9860
# 6 -14.0854 -10.5998 1.4104 10.7393 -1.9860 38.0508
#
#
#
# Elastic Compliance Matrix: (Units=1/GPa)
#
#
# Indices 1 2 3 4 5 6 
#
# 1 0.010333 -0.005479 0.000575 -0.001032 -0.004053 0.002357
# 2 -0.005479 0.022534 -0.013370 0.005386 0.004615 0.003466
# 3 0.000575 -0.013370 0.039739 -0.016947 -0.018327 -0.001158
# 4 -0.001032 0.005386 -0.016947 0.048060 0.004313 -0.011592
# 5 -0.004053 0.004615 -0.018327 0.004313 0.048611 0.001784
# 6 0.002357 0.003466 -0.001158 -0.011592 0.001784 0.031527
#
#
# Mechanical properties :
#
#
# Convention : Reuss Voigt Hill
#
# Bulk Modulus (GPa) = 27.73361 45.32493 36.52927
# Shear Modulus (GPa) = 20.05043 29.05692 24.55368
#
# Velocity S-wave (km/s) = 3.16239 3.80696 3.49955
# Velocity P-wave (km/s) = 5.21222 6.47542 5.87785
#
# Compressibility (1/GPa) = 0.03605733
#
# Stress axis : x y z
#
# Youngs Moduli (GPa) = 96.77503 44.37689 25.16449
#
# Poissons Ratio (x) = 0.24313 -0.01446
# Poissons Ratio (y) = 0.53021 0.33645
# Poissons Ratio (z) = -0.05561 0.59333
#
# Static dielectric constant tensor:
#      x y z
#    x 1.754600 0.093530 -0.056250 
#    y 0.093530 1.926370 -0.133810 
#    z -0.056250 -0.133810 1.785310 
# 
# From -- ./inp_files/215511.got.cif
#   From: 2010.05.17/outbox.cif.g08.bks.cpg/sg2_108_cif.got.tgz:215511.got - 2010.06.03 11:33:40.
