data_PCOD9100558
_publ_section_title
;
Structure prediction by ZEFSAII (Michael W. Deem and Ramdas Pophale) SiO2 
 PCOD9100558
Probable space group: P -1
;
_chemical_formula_sum "Si O2"
_cell_formula_units_Z 14
_cell_length_a 19.496377
_cell_length_b 10.180241
_cell_length_c 11.102135
_cell_angle_alpha 27.107140
_cell_angle_beta 132.902234
_cell_angle_gamma 120.915300
_cell_volume 706.864093
_symmetry_space_group_name_H-M "P -1"
_symmetry_group_IT_number 2
_symmetry_cell_setting 'triclinic'
loop_
_space_group_symop_operation_xyz
x,y,z
-x,-y,-z
loop_
_atom_site_type_symbol
_atom_site_label
_atom_site_fract_x
_atom_site_fract_y
_atom_site_fract_z
Si Si1 0.298233 0.240938 0.800302
Si Si2 0.021419 0.287122 0.081671
Si Si3 0.854137 0.342481 0.167348
Si Si4 0.613288 0.437500 0.150004
Si Si5 0.818081 0.229235 0.934399
Si Si6 0.493741 0.837023 0.249839
Si Si7 0.658581 0.759806 0.707054
O O1 0.332011 0.403004 0.820824
O O2 0.257902 0.486448 0.448392
O O3 0.218788 0.065801 0.879938
O O4 0.392798 0.995647 0.064576
O O5 0.104331 0.982943 0.458318
O O6 0.062344 0.482145 0.876713
O O7 0.000000 0.500000 0.000000
O O8 0.920423 0.205531 0.009429
O O9 0.830228 0.288129 0.043237
O O10 0.759484 0.547461 0.951783
O O11 0.663093 0.081410 0.499258
O O12 0.500000 0.500000 0.000000
O O13 0.619484 0.581353 0.909694
O O14 0.500000 0.500000 0.500000
O O15 0.581639 0.839458 0.441488
O O16 0.500000 0.000000 0.000000
#
# Coordination Sequence:
#
# PCOD9100558 Si02
#       7
#     2   2   2   2   2   2   2
#     4  12  24  40  63  88 127 163 214 258 301 375
#     4  10  20  37  64  94 131 163 200 250 317 396
#     4  11  21  39  65  98 128 160 204 256 326 380
#     4  12  26  45  65  85 123 178 230 251 300 364
#     4  11  22  39  64  97 126 160 202 259 324 374
#     4  12  25  39  61  95 129 159 194 259 332 374
#     4  12  25  42  67  90 128 167 215 264 303 376
#
# _framework density 19.805788
#
# number of rings (size 3 to 8) (size 9 to 14) (size 15 to 20)
#    0.000    0.571    1.429    9.857    2.000    0.000 
#    0.000    0.000    0.000   17.143    0.000    0.000 
#    0.000    0.000    0.000    0.000    0.000    0.000 
#
# Total GULP energy -78335.183611 kJ/mol
# GULP energy per Si atom -5595.370258 kJ/mol
# Density = 1.976071 g / cm^3
# Si number density = 19.805788 Si / 1000 Ang^3
#
#
#
# Elastic Constant Matrix: (Units=GPa)
#
#
# Indices 1 2 3 4 5 6 
#
# 1 74.4521 44.1530 13.0093 11.5404 -17.3558 15.2802
# 2 44.1530 96.3295 18.4037 -27.6389 6.6235 15.1045
# 3 13.0093 18.4037 94.8404 -31.6426 2.5782 -5.8653
# 4 11.5404 -27.6389 -31.6426 1.6938 22.4222 -15.4530
# 5 -17.3558 6.6235 2.5782 22.4222 30.6932 -2.4559
# 6 15.2802 15.1045 -5.8653 -15.4530 -2.4559 20.2042
#
#
#
# Elastic Compliance Matrix: (Units=1/GPa)
#
#
# Indices 1 2 3 4 5 6 
#
# 1 0.011094 -0.002598 0.003466 0.012534 -0.002304 0.003865
# 2 -0.002598 0.012866 -0.005368 -0.006971 0.000136 -0.014527
# 3 0.003466 -0.005368 0.009388 -0.004880 0.005983 0.001113
# 4 0.012534 -0.006971 -0.004880 -0.010126 0.015475 -0.011548
# 5 -0.002304 0.000136 0.005983 0.015475 0.020861 0.017750
# 6 0.003865 -0.014527 0.001113 -0.011548 0.017750 0.051080
#
#
# Mechanical properties :
#
#
# Convention : Reuss Voigt Hill
#
# Bulk Modulus (GPa) = 41.07334 46.30599 43.68967
# Shear Modulus (GPa) = 44.53143 23.18866 33.86004
#
# Velocity S-wave (km/s) = 4.74688 3.42541 4.13922
# Velocity P-wave (km/s) = 7.12930 6.25103 6.70456
#
# Compressibility (1/GPa) = 0.02434669
#
# Stress axis : x y z
#
# Youngs Moduli (GPa) = 90.14285 77.72487 106.51446
#
# Poissons Ratio (x) = 0.20195 -0.36917
# Poissons Ratio (y) = 0.23422 0.57179
# Poissons Ratio (z) = -0.31243 0.41724
#
# Static dielectric constant tensor:
#      x y z
#    x 1.695620 0.024570 -0.001790 
#    y 0.024570 1.635860 -0.027050 
#    z -0.001790 -0.027050 1.663320 
# 
# From -- ./inp_files/328301.got.cif
#   From: 2010.05.17/outbox.cif.g08.bks.cpg/sg2_165_cif.got.tgz:328301.got - 2010.06.03 11:33:40.
