data_PCOD9100170
_publ_section_title
;
Structure prediction by ZEFSAII (Michael W. Deem and Ramdas Pophale) SiO2 
 PCOD9100170
Probable space group: P -1
;
_chemical_formula_sum "Si O2"
_cell_formula_units_Z 16
_cell_length_a 20.995518
_cell_length_b 15.312390
_cell_length_c 9.285513
_cell_angle_alpha 64.887051
_cell_angle_beta 114.449290
_cell_angle_gamma 162.078637
_cell_volume 831.209251
_symmetry_space_group_name_H-M "P -1"
_symmetry_group_IT_number 2
_symmetry_cell_setting 'triclinic'
loop_
_space_group_symop_operation_xyz
x,y,z
-x,-y,-z
loop_
_atom_site_type_symbol
_atom_site_label
_atom_site_fract_x
_atom_site_fract_y
_atom_site_fract_z
Si Si1 0.569582 0.980652 0.614962
Si Si2 0.020523 0.533597 0.165968
Si Si3 0.209881 0.401203 0.855799
Si Si4 0.826542 0.799285 0.797890
Si Si5 0.066340 0.771520 0.229484
Si Si6 0.739779 0.073910 0.450509
Si Si7 0.551301 0.609240 0.819460
Si Si8 0.406292 0.474799 0.502411
O O1 0.395753 0.688596 0.736284
O O2 0.500000 0.000000 0.500000
O O3 0.767381 0.234473 0.730177
O O4 0.631599 0.009290 0.502491
O O5 0.016150 0.637805 0.144699
O O6 0.830802 0.237213 0.277664
O O7 0.000000 0.500000 0.000000
O O8 0.073869 0.317074 0.832369
O O9 0.247372 0.388179 0.045627
O O10 0.063464 0.137733 0.812230
O O11 0.694141 0.716955 0.795469
O O12 0.772334 0.721266 0.633656
O O13 0.066092 0.714273 0.420987
O O14 0.305685 0.113632 0.207625
O O15 0.584594 0.786911 0.462958
O O16 0.366363 0.395502 0.687197
O O17 0.500000 0.500000 0.000000
O O18 0.500000 0.500000 0.500000
#
# Coordination Sequence:
#
# PCOD9100170 Si02
#       8
#     2   2   2   2   2   2   2   2
#     4  11  23  41  65  87 117 166 205 249 302 367
#     4  11  24  39  62  89 116 153 204 257 300 352
#     4  10  20  37  63  84 123 159 203 241 305 362
#     4   9  20  35  57  86 122 158 192 248 300 354
#     4   9  19  39  58  82 116 163 193 241 295 361
#     4  10  21  39  63  85 119 156 203 242 302 364
#     4   9  18  31  59  86 114 152 202 238 294 360
#     4   9  19  35  57  86 116 154 191 246 296 348
#
# _framework density 19.249065000000002
#
# number of rings (size 3 to 8) (size 9 to 14) (size 15 to 20)
#    0.000    2.250    0.000    3.750    7.000    1.000 
#    2.250    1.875    0.000    0.000    0.000    0.000 
#    0.000    0.000    0.000    0.000    0.000    0.000 
#
# Total GULP energy -89184.701626 kJ/mol
# GULP energy per Si atom -5574.043852 kJ/mol
# Density = 1.920525 g / cm^3
# Si number density = 19.249065 Si / 1000 Ang^3
#
#
#
# Elastic Constant Matrix: (Units=GPa)
#
#
# Indices 1 2 3 4 5 6 
#
# 1 94.9783 28.8725 46.4170 4.9962 7.6477 -22.2250
# 2 28.8725 74.3850 63.6977 -2.8496 -7.2569 -10.9109
# 3 46.4170 63.6977 177.4177 -2.0961 -18.9330 -11.7383
# 4 4.9962 -2.8496 -2.0961 31.7059 -6.2038 0.8063
# 5 7.6477 -7.2569 -18.9330 -6.2038 33.3272 4.4236
# 6 -22.2250 -10.9109 -11.7383 0.8063 4.4236 22.5546
#
#
#
# Elastic Compliance Matrix: (Units=1/GPa)
#
#
# Indices 1 2 3 4 5 6 
#
# 1 0.018344 -0.002459 -0.003961 -0.005832 -0.010345 0.017063
# 2 -0.002459 0.020596 -0.006330 0.001975 0.001300 0.003921
# 3 -0.003961 -0.006330 0.009351 0.001857 0.005622 -0.003267
# 4 -0.005832 0.001975 0.001857 0.034949 0.010269 -0.007088
# 5 -0.010345 0.001300 0.005622 0.010269 0.039732 -0.014799
# 6 0.017063 0.003921 -0.003267 -0.007088 -0.014799 0.064503
#
#
# Mechanical properties :
#
#
# Convention : Reuss Voigt Hill
#
# Bulk Modulus (GPa) = 43.87305 69.41728 56.64516
# Shear Modulus (GPa) = 22.66857 31.37048 27.01952
#
# Velocity S-wave (km/s) = 3.43541 4.04135 3.75064
# Velocity P-wave (km/s) = 6.21110 7.61037 6.94606
#
# Compressibility (1/GPa) = 0.02279304
#
# Stress axis : x y z
#
# Youngs Moduli (GPa) = 54.51320 48.55367 106.94228
#
# Poissons Ratio (x) = 0.11938 0.42355
# Poissons Ratio (y) = 0.13403 0.67691
# Poissons Ratio (z) = 0.21590 0.30733
#
# Static dielectric constant tensor:
#      x y z
#    x 1.690530 -0.017880 0.075350 
#    y -0.017880 1.739590 -0.084790 
#    z 0.075350 -0.084790 1.853700 
# 
# From -- ./inp_files/347552.got.cif
#   From: 2010.05.17/outbox.cif.g08.bks.cpg/sg2_174_cif.got.tgz:347552.got - 2010.06.03 11:33:40.
