data_PCOD9100745
_publ_section_title
;
Structure prediction by ZEFSAII (Michael W. Deem and Ramdas Pophale) SiO2 
 PCOD9100745
Probable space group: P -1
;
_chemical_formula_sum "Si O2"
_cell_formula_units_Z 16
_cell_length_a 13.466496
_cell_length_b 10.377731
_cell_length_c 8.407786
_cell_angle_alpha 69.701520
_cell_angle_beta 79.317922
_cell_angle_gamma 125.283639
_cell_volume 777.065295
_symmetry_space_group_name_H-M "P -1"
_symmetry_group_IT_number 2
_symmetry_cell_setting 'triclinic'
loop_
_space_group_symop_operation_xyz
x,y,z
-x,-y,-z
loop_
_atom_site_type_symbol
_atom_site_label
_atom_site_fract_x
_atom_site_fract_y
_atom_site_fract_z
Si Si1 0.508607 0.664581 0.472101
Si Si2 0.229319 0.908035 0.796038
Si Si3 0.133338 0.550071 0.507038
Si Si4 0.069807 0.425300 0.942271
Si Si5 0.659706 0.029776 0.618723
Si Si6 0.310676 0.519489 0.312987
Si Si7 0.593747 0.670512 0.773377
Si Si8 0.658636 0.263610 0.081413
O O1 0.500000 0.500000 0.500000
O O2 0.394695 0.623934 0.408534
O O3 0.501875 0.349327 0.328239
O O4 0.660682 0.868438 0.298808
O O5 0.270426 0.818225 0.934628
O O6 0.271168 0.897530 0.609301
O O7 0.067329 0.800306 0.898789
O O8 0.104397 0.472680 0.727311
O O9 0.163176 0.449210 0.427139
O O10 0.000000 0.500000 0.500000
O O11 0.258388 0.781766 0.380590
O O12 0.216487 0.541686 0.940745
O O13 0.000000 0.500000 0.000000
O O14 0.672503 0.879880 0.727583
O O15 0.493123 0.906898 0.720626
O O16 0.316435 0.365962 0.322783
O O17 0.372936 0.672732 0.088953
O O18 0.500000 0.500000 0.000000
#
# Coordination Sequence:
#
# PCOD9100745 Si02
#       8
#     2   2   2   2   2   2   2   2
#     4   9  21  39  64  91 130 163 211 273 318 366
#     4  10  20  37  65  94 127 172 212 263 323 383
#     4  12  25  40  62  98 138 166 210 279 334 371
#     4  10  21  39  61  91 132 170 210 260 323 394
#     4  11  22  38  70  93 126 167 228 262 321 388
#     4  11  24  39  64  99 136 163 210 277 331 367
#     4  10  21  44  64  93 126 175 218 260 318 393
#     4  11  21  36  65  98 124 167 220 260 321 393
#
# _framework density 20.59029
#
# number of rings (size 3 to 8) (size 9 to 14) (size 15 to 20)
#    0.000    1.500    3.750    2.625    3.500    3.000 
#    0.000    0.625    2.750    6.750    0.000    0.000 
#    0.000    0.000    0.000    0.000    0.000    0.000 
#
# Total GULP energy -89153.627730 kJ/mol
# GULP energy per Si atom -5572.101733 kJ/mol
# Density = 2.054343 g / cm^3
# Si number density = 20.590290 Si / 1000 Ang^3
#
#
#
# Elastic Constant Matrix: (Units=GPa)
#
#
# Indices 1 2 3 4 5 6 
#
# 1 102.4719 44.9609 36.6961 -8.3479 -8.4439 4.9023
# 2 44.9609 61.9184 0.5607 -18.9212 -5.9978 -6.0650
# 3 36.6961 0.5607 76.6557 -2.7671 2.6630 8.2551
# 4 -8.3479 -18.9212 -2.7671 32.3381 2.2518 -3.0544
# 5 -8.4439 -5.9978 2.6630 2.2518 45.4773 0.6543
# 6 4.9023 -6.0650 8.2551 -3.0544 0.6543 39.1160
#
#
#
# Elastic Compliance Matrix: (Units=1/GPa)
#
#
# Indices 1 2 3 4 5 6 
#
# 1 0.020342 -0.016558 -0.009524 -0.005765 0.002488 -0.003599
# 2 -0.016558 0.033968 0.007526 0.016911 0.000026 0.007074
# 3 -0.009524 0.007526 0.017864 0.003507 -0.001980 -0.001102
# 4 -0.005765 0.016911 0.003507 0.040253 -0.001121 0.005766
# 5 0.002488 0.000026 -0.001980 -0.001121 0.022631 -0.000356
# 6 -0.003599 0.007074 -0.001102 0.005766 -0.000356 0.027802
#
#
# Mechanical properties :
#
#
# Convention : Reuss Voigt Hill
#
# Bulk Modulus (GPa) = 28.52081 45.05349 36.78715
# Shear Modulus (GPa) = 23.62300 33.97483 28.79892
#
# Velocity S-wave (km/s) = 3.39084 4.06648 3.74393
# Velocity P-wave (km/s) = 5.40482 6.63150 6.04933
#
# Compressibility (1/GPa) = 0.03506212
#
# Stress axis : x y z
#
# Youngs Moduli (GPa) = 49.15989 29.43914 55.97993
#
# Poissons Ratio (x) = 0.48745 0.53314
# Poissons Ratio (y) = 0.81398 -0.42129
# Poissons Ratio (z) = 0.46819 -0.22155
#
# Static dielectric constant tensor:
#      x y z
#    x 1.779920 0.009120 0.006850 
#    y 0.009120 1.813230 0.009930 
#    z 0.006850 0.009930 1.796900 
# 
# From -- ./inp_files/304973.got.cif
#   From: 2010.05.17/outbox.cif.g08.bks.cpg/sg2_153_cif.got.tgz:304973.got - 2010.06.03 11:33:40.
