data_PCOD9100998
_publ_section_title
;
Structure prediction by ZEFSAII (Michael W. Deem and Ramdas Pophale) SiO2 
 PCOD9100998
Probable space group: P -1
;
_chemical_formula_sum "Si O2"
_cell_formula_units_Z 13
_cell_length_a 11.140427
_cell_length_b 9.238990
_cell_length_c 18.289879
_cell_angle_alpha 142.462035
_cell_angle_beta 29.971532
_cell_angle_gamma 129.407863
_cell_volume 564.552493
_symmetry_space_group_name_H-M "P -1"
_symmetry_group_IT_number 2
_symmetry_cell_setting 'triclinic'
loop_
_space_group_symop_operation_xyz
x,y,z
-x,-y,-z
loop_
_atom_site_type_symbol
_atom_site_label
_atom_site_fract_x
_atom_site_fract_y
_atom_site_fract_z
Si Si1 0.605370 0.741683 0.674236
Si Si2 0.306801 0.597616 0.078291
Si Si3 0.507252 0.229225 0.482646
Si Si4 0.628498 0.377113 0.109481
Si Si5 0.738562 0.929394 0.106895
Si Si6 0.824549 0.841818 0.249290
Si Si7 0.000000 0.000000 0.500000
O O1 0.526092 0.509163 0.582476
O O2 0.576804 0.682774 0.751167
O O3 0.406338 0.978237 0.853070
O O4 0.861044 0.791390 0.529181
O O5 0.500000 0.500000 0.000000
O O6 0.413175 0.659494 0.968715
O O7 0.119249 0.808806 0.297608
O O8 0.205866 0.351907 0.018264
O O9 0.559183 0.077020 0.320766
O O10 0.257490 0.187818 0.635828
O O11 0.715402 0.098469 0.376115
O O12 0.687922 0.646118 0.201659
O O13 0.887453 0.219301 0.932832
O O14 0.000000 0.000000 0.000000
#
# Coordination Sequence:
#
# PCOD9100998 Si02
#       7
#     2   2   2   2   2   2   1
#     4  11  25  44  71 107 143 188 245 296 365 430
#     4  12  27  50  73 100 151 194 241 294 367 433
#     4  10  20  37  68 111 140 177 234 303 365 426
#     4  10  22  42  72 101 141 189 237 297 360 435
#     4  12  24  42  72 105 146 191 238 305 361 429
#     4   9  19  37  68 110 142 171 232 308 370 420
#     4  12  28  50  66 100 146 196 248 290 352 438
#
# _framework density 23.027087999999999
#
# number of rings (size 3 to 8) (size 9 to 14) (size 15 to 20)
#    0.000    1.231    3.077    2.308    6.462    0.615 
#    0.000    0.769    0.000    0.000    0.000    0.000 
#    0.000    0.000    0.000    0.000    0.000    0.000 
#
# Total GULP energy -72389.310865 kJ/mol
# GULP energy per Si atom -5568.408528 kJ/mol
# Density = 2.297468 g / cm^3
# Si number density = 23.027088 Si / 1000 Ang^3
#
#
#
# Elastic Constant Matrix: (Units=GPa)
#
#
# Indices 1 2 3 4 5 6 
#
# 1 77.1576 18.4395 27.0514 -17.4531 29.9382 -22.4782
# 2 18.4395 80.5419 9.1315 -9.2422 13.3344 -14.3215
# 3 27.0514 9.1315 87.2787 -0.9933 40.2818 -7.0916
# 4 -17.4531 -9.2422 -0.9933 56.3315 -10.1944 0.8745
# 5 29.9382 13.3344 40.2818 -10.1944 41.7474 -4.9839
# 6 -22.4782 -14.3215 -7.0916 0.8745 -4.9839 19.5580
#
#
#
# Elastic Compliance Matrix: (Units=1/GPa)
#
#
# Indices 1 2 3 4 5 6 
#
# 1 0.029184 0.002296 0.001707 0.005669 -0.018231 0.030942
# 2 0.002296 0.015188 0.001500 0.001955 -0.005952 0.012700
# 3 0.001707 0.001500 0.021639 -0.003032 -0.022695 0.005259
# 4 0.005669 0.001955 -0.003032 0.020400 0.004049 0.006968
# 5 -0.018231 -0.005952 -0.022695 0.004049 0.059603 -0.018532
# 6 0.030942 0.012700 0.005259 0.006968 -0.018532 0.092864
#
#
# Mechanical properties :
#
#
# Convention : Reuss Voigt Hill
#
# Bulk Modulus (GPa) = 12.98411 39.35811 26.17111
# Shear Modulus (GPa) = 19.72043 36.21777 27.96910
#
# Velocity S-wave (km/s) = 2.92961 3.97020 3.48892
# Velocity P-wave (km/s) = 4.13453 6.17623 5.25548
#
# Compressibility (1/GPa) = 0.07701724
#
# Stress axis : x y z
#
# Youngs Moduli (GPa) = 34.26577 65.84058 46.21339
#
# Poissons Ratio (x) = -0.15115 -0.07889
# Poissons Ratio (y) = -0.07867 -0.06934
# Poissons Ratio (z) = -0.05850 -0.09879
#
# Static dielectric constant tensor:
#      x y z
#    x 1.955870 0.024120 0.011830 
#    y 0.024120 1.901850 0.053540 
#    z 0.011830 0.053540 1.951460 
# 
# From -- ./inp_files/173782.got.cif
#   From: 2010.05.17/outbox.cif.g08.bks.cpg/sg2_87_cif.got.tgz:173782.got - 2010.06.03 11:33:40.
