data_PCOD9100408
_publ_section_title
;
Structure prediction by ZEFSAII (Michael W. Deem and Ramdas Pophale) SiO2 
 PCOD9100408
Probable space group: P -1
;
_chemical_formula_sum "Si O2"
_cell_formula_units_Z 14
_cell_length_a 8.947552
_cell_length_b 18.505926
_cell_length_c 11.628588
_cell_angle_alpha 30.409251
_cell_angle_beta 135.960968
_cell_angle_gamma 148.329564
_cell_volume 510.883571
_symmetry_space_group_name_H-M "P -1"
_symmetry_group_IT_number 2
_symmetry_cell_setting 'triclinic'
loop_
_space_group_symop_operation_xyz
x,y,z
-x,-y,-z
loop_
_atom_site_type_symbol
_atom_site_label
_atom_site_fract_x
_atom_site_fract_y
_atom_site_fract_z
Si Si1 0.812779 0.329880 0.391415
Si Si2 0.694498 0.661607 0.289255
Si Si3 0.128204 0.713164 0.753448
Si Si4 0.128457 0.761995 0.946457
Si Si5 0.158433 0.272274 0.962570
Si Si6 0.204351 0.159145 0.695910
Si Si7 0.598843 0.190681 0.693901
O O1 0.675806 0.233473 0.324226
O O2 0.610369 0.273131 0.464044
O O3 0.996075 0.275324 0.612166
O O4 0.038188 0.556474 0.189097
O O5 0.500000 0.500000 0.500000
O O6 0.718688 0.820631 0.153418
O O7 0.620288 0.622553 0.166818
O O8 0.198751 0.806373 0.789190
O O9 0.921818 0.744239 0.544765
O O10 0.000000 0.500000 0.000000
O O11 0.393612 0.963340 0.874472
O O12 0.848482 0.711325 0.925069
O O13 0.914359 0.283560 0.780766
O O14 0.026809 0.060645 0.157287
O O15 0.466872 0.236372 0.653024
#
# Coordination Sequence:
#
# PCOD9100408 Si02
#       7
#     2   2   2   2   2   2   2
#     4   9  21  39  58  85 119 156 198 250 289 349
#     4  10  22  34  58  87 119 157 193 238 307 355
#     4   9  20  41  61  83 121 158 200 248 291 342
#     4  10  20  37  64  80 120 161 197 239 299 347
#     4  10  22  37  57  92 121 154 192 248 295 356
#     4  10  20  38  60  84 122 153 197 252 282 354
#     4  10  22  36  61  91 120 155 195 244 304 349
#
# _framework density 27.403504000000002
#
# number of rings (size 3 to 8) (size 9 to 14) (size 15 to 20)
#    0.000    2.286    0.000    2.143    6.000    4.000 
#    0.000    2.857    9.429    0.000    0.000    0.000 
#    0.000    0.000    0.000    0.000    0.000    0.000 
#
# Total GULP energy -78055.310086 kJ/mol
# GULP energy per Si atom -5575.379292 kJ/mol
# Density = 2.734113 g / cm^3
# Si number density = 27.403504 Si / 1000 Ang^3
#
#
#
# Elastic Constant Matrix: (Units=GPa)
#
#
# Indices 1 2 3 4 5 6 
#
# 1 168.9515 43.1290 24.9597 10.7011 -38.5874 -37.7745
# 2 43.1290 70.1413 8.3174 6.6282 1.5229 -29.9580
# 3 24.9597 8.3174 90.5291 -2.5879 -1.3602 9.3741
# 4 10.7011 6.6282 -2.5879 30.4708 -3.8878 -3.2747
# 5 -38.5874 1.5229 -1.3602 -3.8878 56.5662 8.9652
# 6 -37.7745 -29.9580 9.3741 -3.2747 8.9652 51.6474
#
#
#
# Elastic Compliance Matrix: (Units=1/GPa)
#
#
# Indices 1 2 3 4 5 6 
#
# 1 0.009677 -0.003785 -0.002719 -0.001602 0.005853 0.004258
# 2 -0.003785 0.022017 -0.002299 -0.003124 -0.005208 0.011126
# 3 -0.002719 -0.002299 0.012613 0.001881 -0.000504 -0.005405
# 4 -0.001602 -0.003124 0.001881 0.034273 0.001619 -0.001433
# 5 0.005853 -0.005208 -0.000504 0.001619 0.022293 -0.002416
# 6 0.004258 0.011126 -0.005405 -0.001433 -0.002416 0.030240
#
#
# Mechanical properties :
#
#
# Convention : Reuss Voigt Hill
#
# Bulk Modulus (GPa) = 37.45131 53.60380 45.52756
# Shear Modulus (GPa) = 31.72208 44.61792 38.17000
#
# Velocity S-wave (km/s) = 3.40603 4.03945 3.73619
# Velocity P-wave (km/s) = 5.40040 6.43115 5.93818
#
# Compressibility (1/GPa) = 0.02670134
#
# Stress axis : x y z
#
# Youngs Moduli (GPa) = 103.33790 45.41922 79.28374
#
# Poissons Ratio (x) = 0.17190 0.21558
# Poissons Ratio (y) = 0.39111 0.18227
# Poissons Ratio (z) = 0.28099 0.10442
#
# Static dielectric constant tensor:
#      x y z
#    x 2.294770 -0.115320 -0.083420 
#    y -0.115320 2.342230 -0.017980 
#    z -0.083420 -0.017980 2.220430 
# 
# From -- ./inp_files/177508.got.cif
#   From: 2010.05.17/outbox.cif.g08.bks.cpg/sg2_89_cif.got.tgz:177508.got - 2010.06.03 11:33:40.
