data_PCOD9100576
_publ_section_title
;
Structure prediction by ZEFSAII (Michael W. Deem and Ramdas Pophale) SiO2 
 PCOD9100576
Probable space group: P -1
;
_chemical_formula_sum "Si O2"
_cell_formula_units_Z 14
_cell_length_a 15.589444
_cell_length_b 7.370280
_cell_length_c 9.371061
_cell_angle_alpha 113.697074
_cell_angle_beta 40.147265
_cell_angle_gamma 127.126719
_cell_volume 549.787896
_symmetry_space_group_name_H-M "P -1"
_symmetry_group_IT_number 2
_symmetry_cell_setting 'triclinic'
loop_
_space_group_symop_operation_xyz
x,y,z
-x,-y,-z
loop_
_atom_site_type_symbol
_atom_site_label
_atom_site_fract_x
_atom_site_fract_y
_atom_site_fract_z
Si Si1 0.760273 0.143755 0.527068
Si Si2 0.400196 0.724328 0.036348
Si Si3 0.698664 0.747327 0.701126
Si Si4 0.431655 0.745693 0.395033
Si Si5 0.783414 0.987297 0.949986
Si Si6 0.292965 0.624995 0.839907
Si Si7 0.007519 0.721924 0.984050
O O1 0.617293 0.105538 0.595218
O O2 0.894492 0.224339 0.267572
O O3 0.745350 0.933900 0.573903
O O4 0.755645 0.323796 0.703110
O O5 0.522545 0.676771 0.941223
O O6 0.376069 0.624047 0.877714
O O7 0.500000 0.000000 0.000000
O O8 0.683909 0.514973 0.591308
O O9 0.798076 0.860756 0.752399
O O10 0.610848 0.827767 0.179288
O O11 0.389057 0.740436 0.612261
O O12 0.780320 0.215472 0.975087
O O13 0.910088 0.074934 0.941343
O O14 0.165488 0.370666 0.875215
O O15 0.000000 0.500000 0.000000
#
# Coordination Sequence:
#
# PCOD9100576 Si02
#       7
#     2   2   2   2   2   2   2
#     4  11  21  41  68  92 134 171 211 268 332 373
#     4  10  20  37  64  95 129 162 213 270 321 372
#     4  11  24  41  64 108 130 159 224 277 320 387
#     4  12  24  39  72  99 129 172 218 267 335 376
#     4  11  20  40  66  95 135 168 213 275 317 384
#     4  11  22  43  65  96 134 175 219 264 321 398
#     4  10  23  40  68  95 129 180 221 253 329 397
#
# _framework density 25.464364
#
# number of rings (size 3 to 8) (size 9 to 14) (size 15 to 20)
#    0.000    1.143    7.143    1.714    4.000    1.143 
#    0.000    1.429    0.000    0.000    0.000    0.000 
#    0.000    0.000    0.000    0.000    0.000    0.000 
#
# Total GULP energy -78259.924184 kJ/mol
# GULP energy per Si atom -5589.994585 kJ/mol
# Density = 2.540641 g / cm^3
# Si number density = 25.464364 Si / 1000 Ang^3
#
#
#
# Elastic Constant Matrix: (Units=GPa)
#
#
# Indices 1 2 3 4 5 6 
#
# 1 83.9096 54.7226 54.2824 -9.6905 40.9656 17.5351
# 2 54.7226 114.1344 55.7968 7.2279 31.7873 18.2095
# 3 54.2824 55.7968 125.2416 -1.3859 52.8775 13.4394
# 4 -9.6905 7.2279 -1.3859 38.6036 3.8389 11.3894
# 5 40.9656 31.7873 52.8775 3.8389 38.9923 8.4064
# 6 17.5351 18.2095 13.4394 11.3894 8.4064 55.6214
#
#
#
# Elastic Compliance Matrix: (Units=1/GPa)
#
#
# Indices 1 2 3 4 5 6 
#
# 1 0.037128 -0.009610 0.005595 0.017428 -0.038836 -0.007610
# 2 -0.009610 0.014584 -0.004378 -0.005703 0.004758 -0.000238
# 3 0.005595 -0.004378 0.020745 0.006627 -0.030648 -0.002068
# 4 0.017428 -0.005703 0.006627 0.036676 -0.024304 -0.009065
# 5 -0.038836 0.004758 -0.030648 -0.024304 0.104970 0.007203
# 6 -0.007610 -0.000238 -0.002068 -0.009065 0.007203 0.021723
#
#
# Mechanical properties :
#
#
# Convention : Reuss Voigt Hill
#
# Bulk Modulus (GPa) = 17.96282 72.54324 45.25303
# Shear Modulus (GPa) = 18.43858 37.20906 27.82382
#
# Velocity S-wave (km/s) = 2.69382 3.82674 3.30912
# Velocity P-wave (km/s) = 4.09206 6.93363 5.69299
#
# Compressibility (1/GPa) = 0.05567056
#
# Stress axis : x y z
#
# Youngs Moduli (GPa) = 26.93355 68.56907 48.20431
#
# Poissons Ratio (x) = 0.65898 -0.26972
# Poissons Ratio (y) = 0.25884 0.21106
# Poissons Ratio (z) = -0.15070 0.30022
#
# Static dielectric constant tensor:
#      x y z
#    x 2.025770 0.019910 0.003080 
#    y 0.019910 2.089340 0.018510 
#    z 0.003080 0.018510 2.097390 
# 
# From -- ./inp_files/327802.got.cif
#   From: 2010.05.17/outbox.cif.g08.bks.cpg/sg2_164_cif.got.tgz:327802.got - 2010.06.03 11:33:40.
