data_PCOD9100562
_publ_section_title
;
Structure prediction by ZEFSAII (Michael W. Deem and Ramdas Pophale) SiO2 
 PCOD9100562
Probable space group: P -1
;
_chemical_formula_sum "Si O2"
_cell_formula_units_Z 14
_cell_length_a 8.645591
_cell_length_b 8.020425
_cell_length_c 14.007249
_cell_angle_alpha 96.124690
_cell_angle_beta 139.856303
_cell_angle_gamma 73.670506
_cell_volume 591.664507
_symmetry_space_group_name_H-M "P -1"
_symmetry_group_IT_number 2
_symmetry_cell_setting 'triclinic'
loop_
_space_group_symop_operation_xyz
x,y,z
-x,-y,-z
loop_
_atom_site_type_symbol
_atom_site_label
_atom_site_fract_x
_atom_site_fract_y
_atom_site_fract_z
Si Si1 0.995408 0.039599 0.114425
Si Si2 0.440402 0.703108 0.349478
Si Si3 0.814209 0.772917 0.369545
Si Si4 0.292544 0.827777 0.651790
Si Si5 0.583260 0.830266 0.599497
Si Si6 0.287997 0.475490 0.130793
Si Si7 0.522522 0.335638 0.930655
O O1 0.162351 0.167458 0.228155
O O2 0.164584 0.853408 0.228623
O O3 0.716464 0.139282 0.030734
O O4 0.000000 0.000000 0.000000
O O5 0.612068 0.764154 0.355280
O O6 0.585847 0.680689 0.516139
O O7 0.389612 0.526709 0.281073
O O8 0.740870 0.676200 0.237841
O O9 0.088177 0.721926 0.545899
O O10 0.794402 0.972094 0.341210
O O11 0.379530 0.846269 0.586077
O O12 0.533900 0.718783 0.819513
O O13 0.500000 0.000000 0.500000
O O14 0.335034 0.612555 0.088324
O O15 0.000000 0.500000 0.000000
O O16 0.500000 0.500000 0.000000
#
# Coordination Sequence:
#
# PCOD9100562 Si02
#       7
#     2   2   2   2   2   2   2
#     4  11  18  38  71  89 123 175 219 260 315 400
#     4  10  22  40  67  95 124 178 222 264 324 401
#     4  10  22  41  66  89 132 174 218 253 348 389
#     4  11  22  39  64  96 133 165 214 284 323 389
#     4  10  20  37  64  95 121 165 226 262 315 387
#     4  11  25  40  65  99 131 171 227 272 333 381
#     4  11  25  43  64  97 132 176 219 272 331 392
#
# _framework density 23.662058999999999
#
# number of rings (size 3 to 8) (size 9 to 14) (size 15 to 20)
#    0.000    1.429    5.714    0.857    2.000    6.286 
#    2.571    0.714    0.000    0.000    0.000    0.000 
#    0.000    0.000    0.000    0.000    0.000    0.000 
#
# Total GULP energy -78115.463656 kJ/mol
# GULP energy per Si atom -5579.675975 kJ/mol
# Density = 2.360820 g / cm^3
# Si number density = 23.662059 Si / 1000 Ang^3
#
#
#
# Elastic Constant Matrix: (Units=GPa)
#
#
# Indices 1 2 3 4 5 6 
#
# 1 34.9919 7.1799 22.7183 7.1700 13.6749 6.6314
# 2 7.1799 74.9708 41.0147 13.6938 3.2624 -15.5578
# 3 22.7183 41.0147 135.0480 27.6015 12.7536 -8.8892
# 4 7.1700 13.6938 27.6015 62.7941 -7.9125 -3.0366
# 5 13.6749 3.2624 12.7536 -7.9125 35.0275 4.4157
# 6 6.6314 -15.5578 -8.8892 -3.0366 4.4157 30.4244
#
#
#
# Elastic Compliance Matrix: (Units=1/GPa)
#
#
# Indices 1 2 3 4 5 6 
#
# 1 0.039910 -0.001899 -0.004614 -0.004274 -0.013494 -0.009486
# 2 -0.001899 0.017831 -0.004160 -0.001543 -0.000797 0.008278
# 3 -0.004614 -0.004160 0.010531 -0.003435 -0.002674 0.002000
# 4 -0.004274 -0.001543 -0.003435 0.019191 0.007401 -0.000020
# 5 -0.013494 -0.000797 -0.002674 0.007401 0.036898 -0.002864
# 6 -0.009486 0.008278 0.002000 -0.000020 -0.002864 0.040167
#
#
# Mechanical properties :
#
#
# Convention : Reuss Voigt Hill
#
# Bulk Modulus (GPa) = 21.31030 42.98185 32.14607
# Shear Modulus (GPa) = 24.81216 37.25572 31.03394
#
# Velocity S-wave (km/s) = 3.24173 3.97229 3.62546
# Velocity P-wave (km/s) = 4.79973 6.26443 5.58035
#
# Compressibility (1/GPa) = 0.04692567
#
# Stress axis : x y z
#
# Youngs Moduli (GPa) = 25.05644 56.08301 94.96134
#
# Poissons Ratio (x) = 0.10649 0.43812
# Poissons Ratio (y) = 0.04758 0.39508
# Poissons Ratio (z) = 0.11560 0.23333
#
# Static dielectric constant tensor:
#      x y z
#    x 1.884530 -0.053950 0.000700 
#    y -0.053950 2.045270 -0.019660 
#    z 0.000700 -0.019660 1.998510 
# 
# From -- ./inp_files/495323.got.cif
#   From: 2010.05.17/outbox.cif.g08.bks.cpg/sg2_248_cif.got.tgz:495323.got - 2010.06.03 11:33:40.
