data_PCOD9100985
_publ_section_title
;
Structure prediction by ZEFSAII (Michael W. Deem and Ramdas Pophale) SiO2 
 PCOD9100985
Probable space group: P -1
;
_chemical_formula_sum "Si O2"
_cell_formula_units_Z 16
_cell_length_a 26.650937
_cell_length_b 13.178928
_cell_length_c 5.642506
_cell_angle_alpha 120.447647
_cell_angle_beta 120.775237
_cell_angle_gamma 24.633917
_cell_volume 704.920424
_symmetry_space_group_name_H-M "P -1"
_symmetry_group_IT_number 2
_symmetry_cell_setting 'triclinic'
loop_
_space_group_symop_operation_xyz
x,y,z
-x,-y,-z
loop_
_atom_site_type_symbol
_atom_site_label
_atom_site_fract_x
_atom_site_fract_y
_atom_site_fract_z
Si Si1 0.474040 0.476882 0.160352
Si Si2 0.820009 0.537255 0.951681
Si Si3 0.799364 0.122682 0.924223
Si Si4 0.426777 0.956281 0.178346
Si Si5 0.845739 0.294770 0.331032
Si Si6 0.000120 0.371324 0.950995
Si Si7 0.968260 0.885695 0.660869
Si Si8 0.606166 0.812087 0.227155
O O1 0.500000 0.500000 0.500000
O O2 0.334088 0.683846 0.104616
O O3 0.500000 0.500000 0.000000
O O4 0.550280 0.221221 0.013733
O O5 0.823362 0.421218 0.644772
O O6 0.870594 0.564285 0.973020
O O7 0.679494 0.813273 0.986334
O O8 0.924262 0.332205 0.150727
O O9 0.829155 0.187817 0.223653
O O10 0.839425 0.104393 0.742211
O O11 0.891059 0.851996 0.869363
O O12 0.551713 0.806636 0.263412
O O13 0.386210 0.077875 0.481964
O O14 0.978177 0.091174 0.303772
O O15 0.740342 0.524076 0.162353
O O16 0.024931 0.232998 0.643897
O O17 0.000000 0.500000 0.000000
O O18 0.500000 0.000000 0.000000
#
# Coordination Sequence:
#
# PCOD9100985 Si02
#       8
#     2   2   2   2   2   2   2   2
#     4  12  31  51  72 105 145 197 247 299 355 429
#     4   9  21  39  64  98 132 174 227 286 349 420
#     4  11  25  44  68  97 136 179 228 293 352 424
#     4  10  22  41  65 100 137 182 239 291 358 422
#     4  10  20  40  63 103 138 167 225 283 366 420
#     4  10  24  41  64  92 129 178 232 285 342 413
#     4  10  22  40  67 100 130 177 224 284 355 420
#     4  10  20  37  68 100 135 184 230 292 359 430
#
# _framework density 22.697599
#
# number of rings (size 3 to 8) (size 9 to 14) (size 15 to 20)
#    0.000    1.750    1.250    1.125    5.250    8.500 
#    0.000    0.000    0.000    0.000    0.000    0.000 
#    0.000    0.000    0.000    0.000    0.000    0.000 
#
# Total GULP energy -89247.779397 kJ/mol
# GULP energy per Si atom -5577.986212 kJ/mol
# Density = 2.264594 g / cm^3
# Si number density = 22.697599 Si / 1000 Ang^3
#
#
#
# Elastic Constant Matrix: (Units=GPa)
#
#
# Indices 1 2 3 4 5 6 
#
# 1 157.3508 50.6930 34.5843 11.1354 22.2787 -17.1828
# 2 50.6930 111.3482 23.2605 9.1378 10.6478 -0.3225
# 3 34.5843 23.2605 82.9791 -0.0774 8.6558 9.4791
# 4 11.1354 9.1378 -0.0774 31.3877 2.6015 3.8580
# 5 22.2787 10.6478 8.6558 2.6015 33.4113 9.2811
# 6 -17.1828 -0.3225 9.4791 3.8580 9.2811 53.5445
#
#
#
# Elastic Compliance Matrix: (Units=1/GPa)
#
#
# Indices 1 2 3 4 5 6 
#
# 1 0.009482 -0.002894 -0.003090 -0.002639 -0.005714 0.004753
# 2 -0.002894 0.010911 -0.001734 -0.002050 -0.000867 -0.000258
# 3 -0.003090 -0.001734 0.014267 0.002103 -0.000236 -0.003638
# 4 -0.002639 -0.002050 0.002103 0.033833 0.000266 -0.003716
# 5 -0.005714 -0.000867 -0.000236 0.000266 0.036310 -0.008110
# 6 0.004753 -0.000258 -0.003638 -0.003716 -0.008110 0.022517
#
#
# Mechanical properties :
#
#
# Convention : Reuss Voigt Hill
#
# Bulk Modulus (GPa) = 52.02019 63.19488 57.60753
# Shear Modulus (GPa) = 33.51993 39.87805 36.69899
#
# Velocity S-wave (km/s) = 3.84709 4.19612 4.02539
# Velocity P-wave (km/s) = 6.53468 7.16792 6.85861
#
# Compressibility (1/GPa) = 0.01922331
#
# Stress axis : x y z
#
# Youngs Moduli (GPa) = 105.46628 91.64850 70.08993
#
# Poissons Ratio (x) = 0.26527 0.21656
# Poissons Ratio (y) = 0.30527 0.12156
# Poissons Ratio (z) = 0.32587 0.15895
#
# Static dielectric constant tensor:
#      x y z
#    x 1.933940 0.021910 -0.111370 
#    y 0.021910 1.863230 -0.042090 
#    z -0.111370 -0.042090 1.891050 
# 
# From -- ./inp_files/123800.got.cif
#   From: 2010.05.17/outbox.cif.g08.bks.cpg/sg2_62_cif.got.tgz:123800.got - 2010.06.03 11:33:40.
