data_PCOD9100281
_publ_section_title
;
Structure prediction by ZEFSAII (Michael W. Deem and Ramdas Pophale) SiO2 
 PCOD9100281
Probable space group: P -1
;
_chemical_formula_sum "Si O2"
_cell_formula_units_Z 14
_cell_length_a 11.415213
_cell_length_b 19.214084
_cell_length_c 24.900064
_cell_angle_alpha 21.096350
_cell_angle_beta 21.186206
_cell_angle_gamma 24.207848
_cell_volume 672.103969
_symmetry_space_group_name_H-M "P -1"
_symmetry_group_IT_number 2
_symmetry_cell_setting 'triclinic'
loop_
_space_group_symop_operation_xyz
x,y,z
-x,-y,-z
loop_
_atom_site_type_symbol
_atom_site_label
_atom_site_fract_x
_atom_site_fract_y
_atom_site_fract_z
Si Si1 0.181080 0.973698 0.047466
Si Si2 0.099540 0.366847 0.267426
Si Si3 0.305080 0.854432 0.662663
Si Si4 0.538855 0.871328 0.815751
Si Si5 0.152282 0.764075 0.906519
Si Si6 0.600965 0.568321 0.104698
Si Si7 0.301374 0.868946 0.347240
O O1 0.407115 0.112529 0.830936
O O2 0.389278 0.739497 0.113841
O O3 0.841567 0.040358 0.108299
O O4 0.048156 0.031055 0.123084
O O5 0.212548 0.209119 0.282880
O O6 0.439558 0.311307 0.199648
O O7 0.783889 0.335714 0.456407
O O8 0.032798 0.586139 0.111409
O O9 0.105570 0.798432 0.838737
O O10 0.510106 0.633267 0.709388
O O11 0.500000 0.000000 0.500000
O O12 0.048440 0.979196 0.637530
O O13 0.620583 0.038296 0.697231
O O14 0.560597 0.684754 0.981083
O O15 0.000000 0.500000 0.000000
#
# Coordination Sequence:
#
# PCOD9100281 Si02
#       7
#     2   2   2   2   2   2   2
#     4  10  23  40  65  93 128 161 212 266 313 366
#     4  10  20  37  63  91 125 166 212 253 313 379
#     4  12  23  39  65  92 127 163 213 258 311 378
#     4  10  20  39  66  93 124 164 215 263 311 366
#     4  10  22  40  60  91 128 168 200 260 324 370
#     4  11  20  40  65  89 121 173 213 243 315 386
#     4  11  21  37  62  96 121 167 212 258 305 383
#
# _framework density 20.830110000000001
#
# number of rings (size 3 to 8) (size 9 to 14) (size 15 to 20)
#    0.000    1.429    5.714    2.143    0.000    1.143 
#    0.000    2.143    0.000    0.000    0.000    1.000 
#    0.000    0.000    0.000    0.000    0.000    0.000 
#
# Total GULP energy -78183.851303 kJ/mol
# GULP energy per Si atom -5584.560807 kJ/mol
# Density = 2.078270 g / cm^3
# Si number density = 20.830110 Si / 1000 Ang^3
#
#
#
# Elastic Constant Matrix: (Units=GPa)
#
#
# Indices 1 2 3 4 5 6 
#
# 1 21.9469 11.4311 -2.9812 0.2147 5.0468 9.5432
# 2 11.4311 93.3996 22.8378 0.0910 -0.8378 13.9043
# 3 -2.9812 22.8378 101.3874 -16.6862 -15.3940 7.6608
# 4 0.2147 0.0910 -16.6862 18.9870 -5.3541 0.0592
# 5 5.0468 -0.8378 -15.3940 -5.3541 23.7107 -2.7263
# 6 9.5432 13.9043 7.6608 0.0592 -2.7263 23.4311
#
#
#
# Elastic Compliance Matrix: (Units=1/GPa)
#
#
# Indices 1 2 3 4 5 6 
#
# 1 0.062941 -0.004482 0.001719 -0.003665 -0.016189 -0.025412
# 2 -0.004482 0.012861 -0.003669 -0.003901 -0.002415 -0.004878
# 3 0.001719 -0.003669 0.015902 0.017815 0.013601 -0.002185
# 4 -0.003665 -0.003901 0.017815 0.076751 0.029683 0.001243
# 5 -0.016189 -0.002415 0.013601 0.029683 0.062305 0.010754
# 6 -0.025412 -0.004878 -0.002185 0.001243 0.010754 0.057885
#
#
# Mechanical properties :
#
#
# Convention : Reuss Voigt Hill
#
# Bulk Modulus (GPa) = 12.68390 31.03435 21.85913
# Shear Modulus (GPa) = 15.25374 25.58885 20.42129
#
# Velocity S-wave (km/s) = 2.70903 3.50873 3.13449
# Velocity P-wave (km/s) = 3.98592 5.59876 4.85971
#
# Compressibility (1/GPa) = 0.07884008
#
# Stress axis : x y z
#
# Youngs Moduli (GPa) = 15.88791 77.75648 62.88395
#
# Poissons Ratio (x) = 0.34853 -0.10812
# Poissons Ratio (y) = 0.07121 0.23072
# Poissons Ratio (z) = -0.02732 0.28528
#
# Static dielectric constant tensor:
#      x y z
#    x 1.733410 0.019950 -0.018760 
#    y 0.019950 1.747480 -0.015990 
#    z -0.018760 -0.015990 1.784880 
# 
# From -- ./inp_files/396641.got.cif
#   From: 2010.05.17/outbox.cif.g08.bks.cpg/sg2_199_cif.got.tgz:396641.got - 2010.06.03 11:33:40.
