data_PCOD9100239
_publ_section_title
;
Structure prediction by ZEFSAII (Michael W. Deem and Ramdas Pophale) SiO2 
 PCOD9100239
Probable space group: P -1
;
_chemical_formula_sum "Si O2"
_cell_formula_units_Z 16
_cell_length_a 15.552513
_cell_length_b 15.587703
_cell_length_c 12.578575
_cell_angle_alpha 119.666388
_cell_angle_beta 149.526283
_cell_angle_gamma 38.553775
_cell_volume 794.286718
_symmetry_space_group_name_H-M "P -1"
_symmetry_group_IT_number 2
_symmetry_cell_setting 'triclinic'
loop_
_space_group_symop_operation_xyz
x,y,z
-x,-y,-z
loop_
_atom_site_type_symbol
_atom_site_label
_atom_site_fract_x
_atom_site_fract_y
_atom_site_fract_z
Si Si1 0.100881 0.188369 0.081546
Si Si2 0.097932 0.823000 0.765137
Si Si3 0.426712 0.627612 0.786901
Si Si4 0.548963 0.619444 0.306997
Si Si5 0.740028 0.861354 0.541578
Si Si6 0.977186 0.548557 0.624167
Si Si7 0.706017 0.189781 0.630709
Si Si8 0.403102 0.446718 0.302903
O O1 0.138721 0.153031 0.226953
O O2 0.422031 0.048452 0.295889
O O3 0.940504 0.167508 0.853679
O O4 0.907640 0.374957 0.964257
O O5 0.196777 0.769930 0.716415
O O6 0.956808 0.787185 0.633533
O O7 0.369654 0.713863 0.064694
O O8 0.862569 0.015939 0.660266
O O9 0.449212 0.497805 0.736124
O O10 0.392931 0.668163 0.651638
O O11 0.725473 0.539187 0.083022
O O12 0.402606 0.748259 0.326226
O O13 0.864292 0.515088 0.558864
O O14 0.736223 0.746974 0.489141
O O15 0.000000 0.500000 0.500000
O O16 0.444569 0.339782 0.365133
O O17 0.500000 0.500000 0.500000
#
# Coordination Sequence:
#
# PCOD9100239 Si02
#       8
#     2   2   2   2   2   2   2   2
#     4  10  20  37  63  89 124 168 210 263 312 374
#     4  12  23  37  62  96 135 158 210 272 323 372
#     4  12  23  44  64  94 133 171 209 266 321 384
#     4  12  22  40  67  96 129 168 220 257 323 384
#     4  11  22  37  61  96 131 160 203 270 329 363
#     4  12  23  37  63  98 131 169 201 261 331 384
#     4  11  23  39  64  95 123 174 219 259 308 387
#     4  10  20  44  69  84 124 181 217 253 322 374
#
# _framework density 20.14386
#
# number of rings (size 3 to 8) (size 9 to 14) (size 15 to 20)
#    0.000    0.750    7.500    2.250    3.500    0.500 
#    0.000    2.500    0.000    3.000    0.000    0.000 
#    0.000    0.000    0.000    0.000    0.000    0.000 
#
# Total GULP energy -89344.993334 kJ/mol
# GULP energy per Si atom -5584.062083 kJ/mol
# Density = 2.009801 g / cm^3
# Si number density = 20.143860 Si / 1000 Ang^3
#
#
#
# Elastic Constant Matrix: (Units=GPa)
#
#
# Indices 1 2 3 4 5 6 
#
# 1 77.5755 8.4799 31.0478 11.3989 3.9201 -26.3727
# 2 8.4799 50.5407 9.7261 13.0376 -3.2362 -15.5257
# 3 31.0478 9.7261 61.2806 -1.9681 9.9458 -2.3845
# 4 11.3989 13.0376 -1.9681 23.6977 -0.2155 -2.5317
# 5 3.9201 -3.2362 9.9458 -0.2155 37.2046 5.7398
# 6 -26.3727 -15.5257 -2.3845 -2.5317 5.7398 41.4670
#
#
#
# Elastic Compliance Matrix: (Units=1/GPa)
#
#
# Indices 1 2 3 4 5 6 
#
# 1 0.026321 0.008020 -0.014242 -0.016334 -0.001153 0.018086
# 2 0.008020 0.029711 -0.009153 -0.019424 0.001875 0.014253
# 3 -0.014242 -0.009153 0.025783 0.012963 -0.004637 -0.009569
# 4 -0.016334 -0.019424 0.012963 0.060411 -0.001066 -0.013080
# 5 -0.001153 0.001875 -0.004637 -0.001066 0.029073 -0.004388
# 6 0.018086 0.014253 -0.009569 -0.013080 -0.004388 0.040213
#
#
# Mechanical properties :
#
#
# Convention : Reuss Voigt Hill
#
# Bulk Modulus (GPa) = 19.58220 31.98937 25.78579
# Shear Modulus (GPa) = 19.28383 29.81671 24.55027
#
# Velocity S-wave (km/s) = 3.09739 3.85150 3.49484
# Velocity P-wave (km/s) = 4.74701 5.97441 5.39572
#
# Compressibility (1/GPa) = 0.05106678
#
# Stress axis : x y z
#
# Youngs Moduli (GPa) = 37.99220 33.65762 38.78475
#
# Poissons Ratio (x) = -0.26995 0.55238
# Poissons Ratio (y) = -0.30471 0.35498
# Poissons Ratio (z) = 0.54109 0.30805
#
# Static dielectric constant tensor:
#      x y z
#    x 1.724900 0.019030 0.017790 
#    y 0.019030 1.774530 0.036590 
#    z 0.017790 0.036590 1.767440 
# 
# From -- ./inp_files/423723.got.cif
#   From: 2010.05.17/outbox.cif.g08.bks.cpg/sg2_212_cif.got.tgz:423723.got - 2010.06.03 11:33:40.
