data_PCOD9100241
_publ_section_title
;
Structure prediction by ZEFSAII (Michael W. Deem and Ramdas Pophale) SiO2 
 PCOD9100241
Probable space group: P -1
;
_chemical_formula_sum "Si O2"
_cell_formula_units_Z 12
_cell_length_a 7.128704
_cell_length_b 14.641221
_cell_length_c 16.566179
_cell_angle_alpha 148.852239
_cell_angle_beta 131.044912
_cell_angle_gamma 39.733513
_cell_volume 571.679257
_symmetry_space_group_name_H-M "P -1"
_symmetry_group_IT_number 2
_symmetry_cell_setting 'triclinic'
loop_
_space_group_symop_operation_xyz
x,y,z
-x,-y,-z
loop_
_atom_site_type_symbol
_atom_site_label
_atom_site_fract_x
_atom_site_fract_y
_atom_site_fract_z
Si Si1 0.239411 0.188583 0.620105
Si Si2 0.790842 0.177029 0.365095
Si Si3 0.793706 0.838588 0.011838
Si Si4 0.712990 0.478472 0.190565
Si Si5 0.879827 0.479644 0.534018
Si Si6 0.130403 0.538399 0.146023
O O1 0.346651 0.351900 0.765632
O O2 0.962947 0.203022 0.506693
O O3 0.112532 0.239855 0.714427
O O4 0.500000 0.000000 0.500000
O O5 0.876260 0.270173 0.384165
O O6 0.447997 0.331052 0.400720
O O7 0.842452 0.957588 0.188373
O O8 0.786553 0.644200 0.901807
O O9 0.072753 0.742905 0.958225
O O10 0.500000 0.000000 0.000000
O O11 0.427960 0.520261 0.187506
O O12 0.914474 0.513645 0.335186
O O13 0.000000 0.500000 0.500000
O O14 0.000000 0.500000 0.000000
#
# Coordination Sequence:
#
# PCOD9100241 Si02
#       6
#     2   2   2   2   2   2
#     4  10  24  44  67  90 130 176 220 268 320 387
#     4  10  22  39  62  94 125 169 214 265 326 387
#     4  11  24  43  68  97 133 171 212 271 333 386
#     4  10  23  42  63  94 131 170 215 271 327 385
#     4  10  20  37  63  89 126 163 214 272 323 375
#     4  11  27  45  66  97 134 174 220 267 323 393
#
# _framework density 20.990790000000001
#
# number of rings (size 3 to 8) (size 9 to 14) (size 15 to 20)
#    0.000    1.667    1.667    1.000    9.333    4.000 
#    3.000    0.000    0.000    0.000    0.000    0.000 
#    0.000    0.000    0.000    0.000    0.000    0.000 
#
# Total GULP energy -66855.519049 kJ/mol
# GULP energy per Si atom -5571.293254 kJ/mol
# Density = 2.094301 g / cm^3
# Si number density = 20.990790 Si / 1000 Ang^3
#
#
#
# Elastic Constant Matrix: (Units=GPa)
#
#
# Indices 1 2 3 4 5 6 
#
# 1 134.2777 27.8646 27.7149 -6.0018 -12.5112 -37.5131
# 2 27.8646 53.3171 5.8446 -6.7171 -3.8039 -29.2555
# 3 27.7149 5.8446 84.1680 2.6745 -11.2881 -20.8006
# 4 -6.0018 -6.7171 2.6745 28.2296 -5.1677 -0.8047
# 5 -12.5112 -3.8039 -11.2881 -5.1677 32.3072 -3.0062
# 6 -37.5131 -29.2555 -20.8006 -0.8047 -3.0062 34.5383
#
#
#
# Elastic Compliance Matrix: (Units=1/GPa)
#
#
# Indices 1 2 3 4 5 6 
#
# 1 0.012884 0.006115 0.001579 0.006336 0.009236 0.021076
# 2 0.006115 0.049269 0.010790 0.017289 0.020011 0.057018
# 3 0.001579 0.010790 0.017454 0.003842 0.010678 0.022385
# 4 0.006336 0.017289 0.003842 0.044072 0.015320 0.026201
# 5 0.009236 0.020011 0.010678 0.015320 0.046586 0.037824
# 6 0.021076 0.057018 0.022385 0.026201 0.037824 0.117525
#
#
# Mechanical properties :
#
#
# Convention : Reuss Voigt Hill
#
# Bulk Modulus (GPa) = 8.57811 43.84564 26.21188
# Shear Modulus (GPa) = 17.26038 33.03762 25.14900
#
# Velocity S-wave (km/s) = 2.87066 3.97156 3.46511
# Velocity P-wave (km/s) = 3.88369 6.47799 5.34076
#
# Compressibility (1/GPa) = 0.11657585
#
# Stress axis : x y z
#
# Youngs Moduli (GPa) = 77.61475 20.29675 57.29360
#
# Poissons Ratio (x) = -0.12412 -0.09045
# Poissons Ratio (y) = -0.47463 -0.61823
# Poissons Ratio (z) = -0.12253 -0.21901
#
# Static dielectric constant tensor:
#      x y z
#    x 1.905950 0.137520 -0.007790 
#    y 0.137520 1.890170 0.043350 
#    z -0.007790 0.043350 1.787190 
# 
# From -- ./inp_files/26103.got.cif
#   From: 2010.05.17/outbox.cif.g08.bks.cpg/sg2_14_cif.got.tgz:26103.got - 2010.06.03 11:33:40.
