data_PCOD9100814
_publ_section_title
;
Structure prediction by ZEFSAII (Michael W. Deem and Ramdas Pophale) SiO2 
 PCOD9100814
Probable space group: P -1
;
_chemical_formula_sum "Si O2"
_cell_formula_units_Z 14
_cell_length_a 11.773272
_cell_length_b 10.111294
_cell_length_c 7.712749
_cell_angle_alpha 105.493245
_cell_angle_beta 130.882994
_cell_angle_gamma 78.666574
_cell_volume 668.643598
_symmetry_space_group_name_H-M "P -1"
_symmetry_group_IT_number 2
_symmetry_cell_setting 'triclinic'
loop_
_space_group_symop_operation_xyz
x,y,z
-x,-y,-z
loop_
_atom_site_type_symbol
_atom_site_label
_atom_site_fract_x
_atom_site_fract_y
_atom_site_fract_z
Si Si1 0.563289 0.868385 0.745276
Si Si2 0.868393 0.734436 0.976196
Si Si3 0.673364 0.472756 0.609263
Si Si4 0.910319 0.128911 0.534178
Si Si5 0.566581 0.169336 0.771944
Si Si6 0.379466 0.711952 0.799299
Si Si7 0.840074 0.203182 0.845098
O O1 0.741635 0.850312 0.922203
O O2 0.517516 0.814450 0.489540
O O3 0.489350 0.782712 0.794622
O O4 0.516217 0.028062 0.758587
O O5 0.778227 0.598082 0.804933
O O6 0.978079 0.748036 0.257255
O O7 0.985346 0.763249 0.947676
O O8 0.500000 0.500000 0.500000
O O9 0.666230 0.429208 0.385212
O O10 0.751559 0.341153 0.737366
O O11 0.770483 0.190314 0.309875
O O12 0.843407 0.098022 0.649053
O O13 0.000000 0.000000 0.500000
O O14 0.740830 0.152199 0.882850
O O15 0.551726 0.288084 0.940820
#
# Coordination Sequence:
#
# PCOD9100814 Si02
#       7
#     2   2   2   2   2   2   2
#     4  11  21  40  60  89 123 161 198 254 304 354
#     4  10  20  37  66  86 121 166 197 246 310 351
#     4  11  19  39  66  85 119 164 205 245 302 352
#     4   9  19  37  60  87 121 157 200 241 304 361
#     4  11  22  39  61  89 125 156 202 254 303 356
#     4  11  22  39  62  89 119 163 203 247 300 361
#     4   9  21  38  58  88 124 153 197 252 296 354
#
# _framework density 20.937913000000002
#
# number of rings (size 3 to 8) (size 9 to 14) (size 15 to 20)
#    0.857    0.857    4.286    1.714    0.000    0.571 
#    0.000    3.571    0.000    0.000    0.000    0.000 
#    0.000    0.000    0.000    0.000    0.000    0.000 
#
# Total GULP energy -77978.128780 kJ/mol
# GULP energy per Si atom -5569.866341 kJ/mol
# Density = 2.089026 g / cm^3
# Si number density = 20.937913 Si / 1000 Ang^3
#
#
#
# Elastic Constant Matrix: (Units=GPa)
#
#
# Indices 1 2 3 4 5 6 
#
# 1 77.1542 13.3394 37.2180 -5.1605 10.1154 -13.8899
# 2 13.3394 45.9405 6.9726 9.7099 -0.7105 -16.3881
# 3 37.2180 6.9726 98.9088 12.7198 -4.4847 -3.6969
# 4 -5.1605 9.7099 12.7198 27.7104 -11.9052 6.3086
# 5 10.1154 -0.7105 -4.4847 -11.9052 46.0790 3.0731
# 6 -13.8899 -16.3881 -3.6969 6.3086 3.0731 30.6612
#
#
#
# Elastic Compliance Matrix: (Units=1/GPa)
#
#
# Indices 1 2 3 4 5 6 
#
# 1 0.019070 -0.003904 -0.007621 0.005658 -0.003850 0.004855
# 2 -0.003904 0.034844 0.002338 -0.021337 -0.005362 0.022065
# 3 -0.007621 0.002338 0.013998 -0.008601 0.000771 0.001178
# 4 0.005658 -0.021337 -0.008601 0.060319 0.014761 -0.023768
# 5 -0.003850 -0.005362 0.000771 0.014761 0.027038 -0.010264
# 6 0.004855 0.022065 0.001178 -0.023768 -0.010264 0.052668
#
#
# Mechanical properties :
#
#
# Convention : Reuss Voigt Hill
#
# Bulk Modulus (GPa) = 20.18665 37.45152 28.81908
# Shear Modulus (GPa) = 20.59111 31.85502 26.22306
#
# Velocity S-wave (km/s) = 3.13938 3.90475 3.54279
# Velocity P-wave (km/s) = 4.77526 6.18508 5.52532
#
# Compressibility (1/GPa) = 0.04953770
#
# Stress axis : x y z
#
# Youngs Moduli (GPa) = 52.43939 28.69952 71.43716
#
# Poissons Ratio (x) = 0.11204 0.54444
# Poissons Ratio (y) = 0.20473 -0.16704
# Poissons Ratio (z) = 0.39965 -0.06711
#
# Static dielectric constant tensor:
#      x y z
#    x 1.774880 0.002660 0.009650 
#    y 0.002660 1.785870 0.014890 
#    z 0.009650 0.014890 1.807380 
# 
# From -- ./inp_files/260370.got.cif
#   From: 2010.05.17/outbox.cif.g08.bks.cpg/sg2_131_cif.got.tgz:260370.got - 2010.06.03 11:33:40.
