data_PCOD9100623
_publ_section_title
;
Structure prediction by ZEFSAII (Michael W. Deem and Ramdas Pophale) SiO2 
 PCOD9100623
Probable space group: P -1
;
_chemical_formula_sum "Si O2"
_cell_formula_units_Z 13
_cell_length_a 9.137632
_cell_length_b 9.836555
_cell_length_c 9.594781
_cell_angle_alpha 69.396015
_cell_angle_beta 125.298642
_cell_angle_gamma 136.200815
_cell_volume 483.908486
_symmetry_space_group_name_H-M "P -1"
_symmetry_group_IT_number 2
_symmetry_cell_setting 'triclinic'
loop_
_space_group_symop_operation_xyz
x,y,z
-x,-y,-z
loop_
_atom_site_type_symbol
_atom_site_label
_atom_site_fract_x
_atom_site_fract_y
_atom_site_fract_z
Si Si1 0.912858 0.696399 0.316492
Si Si2 0.389712 0.071065 0.326885
Si Si3 0.191563 0.676124 0.719916
Si Si4 0.136696 0.834084 0.891819
Si Si5 0.568995 0.756226 0.219201
Si Si6 0.349015 0.284089 0.430846
Si Si7 0.000000 0.500000 0.000000
O O1 0.854105 0.516841 0.266532
O O2 0.696224 0.686694 0.242543
O O3 0.040960 0.700882 0.525959
O O4 0.103643 0.896842 0.258811
O O5 0.524796 0.145420 0.227396
O O6 0.476835 0.264156 0.386678
O O7 0.500000 0.000000 0.500000
O O8 0.111620 0.674031 0.833386
O O9 0.906148 0.804419 0.738132
O O10 0.357051 0.055977 0.887359
O O11 0.116887 0.723578 0.054440
O O12 0.681369 0.833820 0.408153
O O13 0.281239 0.579940 0.133258
O O14 0.500000 0.500000 0.500000
#
# Coordination Sequence:
#
# PCOD9100623 Si02
#       7
#     2   2   2   2   2   2   1
#     4  10  20  37  65 100 136 162 207 271 336 387
#     4  10  21  35  58 104 136 160 200 273 337 386
#     4  10  22  36  64 102 134 163 206 270 338 389
#     4  12  25  45  68  97 131 176 223 275 328 388
#     4  12  23  44  70  99 130 176 226 273 325 387
#     4  12  22  39  73 102 130 167 221 279 328 383
#     4  12  30  44  66  92 138 178 230 270 324 390
#
# _framework density 26.864583
#
# number of rings (size 3 to 8) (size 9 to 14) (size 15 to 20)
#    0.000    0.923    4.615    3.692    4.308    1.231 
#    0.000    0.769    0.000    2.769    0.000    0.000 
#    0.000    0.000    0.000    0.000    0.000    0.000 
#
# Total GULP energy -72656.601186 kJ/mol
# GULP energy per Si atom -5588.969322 kJ/mol
# Density = 2.680344 g / cm^3
# Si number density = 26.864583 Si / 1000 Ang^3
#
#
#
# Elastic Constant Matrix: (Units=GPa)
#
#
# Indices 1 2 3 4 5 6 
#
# 1 206.7951 67.9193 59.5173 0.3353 25.7314 -1.0291
# 2 67.9193 196.0628 27.3138 -17.1807 19.2029 8.0947
# 3 59.5173 27.3138 66.1637 -24.2394 10.4343 2.3575
# 4 0.3353 -17.1807 -24.2394 31.8888 8.4511 7.8053
# 5 25.7314 19.2029 10.4343 8.4511 51.9163 3.8369
# 6 -1.0291 8.0947 2.3575 7.8053 3.8369 59.4104
#
#
#
# Elastic Compliance Matrix: (Units=1/GPa)
#
#
# Indices 1 2 3 4 5 6 
#
# 1 0.008737 -0.002551 -0.010654 -0.010178 0.000246 0.002243
# 2 -0.002551 0.006538 0.002452 0.006518 -0.002580 -0.001722
# 3 -0.010654 0.002452 0.037463 0.033516 -0.008177 -0.005881
# 4 -0.010178 0.006518 0.033516 0.066727 -0.014207 -0.010243
# 5 0.000246 -0.002580 -0.008177 -0.014207 0.023977 0.000998
# 6 0.002243 -0.001722 -0.005881 -0.010243 0.000998 0.018620
#
#
# Mechanical properties :
#
#
# Convention : Reuss Voigt Hill
#
# Bulk Modulus (GPa) = 32.01774 86.50248 59.26011
# Shear Modulus (GPa) = 25.77621 49.59453 37.68537
#
# Velocity S-wave (km/s) = 3.10092 4.30128 3.74945
# Velocity P-wave (km/s) = 4.97644 7.54569 6.39149
#
# Compressibility (1/GPa) = 0.03123269
#
# Stress axis : x y z
#
# Youngs Moduli (GPa) = 114.45742 152.96340 26.69286
#
# Poissons Ratio (x) = 0.39021 0.28438
# Poissons Ratio (y) = 0.29198 -0.06546
# Poissons Ratio (z) = 1.21940 -0.37511
#
# Static dielectric constant tensor:
#      x y z
#    x 2.220200 0.170130 -0.194690 
#    y 0.170130 2.506810 -0.220190 
#    z -0.194690 -0.220190 2.254420 
# 
# From -- ./inp_files/175689.got.cif
#   From: 2010.05.17/outbox.cif.g08.bks.cpg/sg2_88_cif.got.tgz:175689.got - 2010.06.03 11:33:40.
