data_PCOD9100826
_publ_section_title
;
Structure prediction by ZEFSAII (Michael W. Deem and Ramdas Pophale) SiO2 
 PCOD9100826
Probable space group: P -1
;
_chemical_formula_sum "Si O2"
_cell_formula_units_Z 14
_cell_length_a 8.591983
_cell_length_b 8.925468
_cell_length_c 14.330219
_cell_angle_alpha 41.491472
_cell_angle_beta 70.459866
_cell_angle_gamma 88.786662
_cell_volume 638.158003
_symmetry_space_group_name_H-M "P -1"
_symmetry_group_IT_number 2
_symmetry_cell_setting 'triclinic'
loop_
_space_group_symop_operation_xyz
x,y,z
-x,-y,-z
loop_
_atom_site_type_symbol
_atom_site_label
_atom_site_fract_x
_atom_site_fract_y
_atom_site_fract_z
Si Si1 0.627377 0.235495 0.982881
Si Si2 0.204904 0.165484 0.878570
Si Si3 0.775260 0.867978 0.904039
Si Si4 0.320466 0.545792 0.519460
Si Si5 0.848080 0.167952 0.490669
Si Si6 0.088623 0.281335 0.229169
Si Si7 0.179584 0.590020 0.325199
O O1 0.774075 0.445440 0.913789
O O2 0.670860 0.329266 0.823125
O O3 0.424821 0.194111 0.065572
O O4 0.672960 0.992321 0.093804
O O5 0.217146 0.355469 0.707811
O O6 0.247124 0.259986 0.931499
O O7 0.000000 0.000000 0.000000
O O8 0.901765 0.796228 0.842492
O O9 0.852646 0.159320 0.767882
O O10 0.500000 0.500000 0.500000
O O11 0.322425 0.795173 0.449076
O O12 0.241142 0.520791 0.443467
O O13 0.902348 0.234803 0.340713
O O14 0.012929 0.366895 0.422107
O O15 0.841433 0.900834 0.640710
#
# Coordination Sequence:
#
# PCOD9100826 Si02
#       7
#     2   2   2   2   2   2   2
#     4  10  21  40  60  92 119 157 203 252 296 359
#     4  11  24  38  60  91 128 155 201 255 305 358
#     4  11  20  38  64  89 116 160 206 249 298 352
#     4  12  22  37  63  93 122 152 200 260 304 348
#     4  10  22  39  62  92 115 155 210 252 289 356
#     4  10  21  37  65  86 121 157 209 244 291 364
#     4  10  20  37  66  89 113 158 214 247 289 352
#
# _framework density 21.938140000000001
#
# number of rings (size 3 to 8) (size 9 to 14) (size 15 to 20)
#    0.000    1.429    1.429    6.857    2.000    0.000 
#    0.000    2.857    0.000    8.571    0.000    0.000 
#    0.000    0.000    0.000    0.000    0.000    0.000 
#
# Total GULP energy -78210.450163 kJ/mol
# GULP energy per Si atom -5586.460726 kJ/mol
# Density = 2.188821 g / cm^3
# Si number density = 21.938140 Si / 1000 Ang^3
#
#
#
# Elastic Constant Matrix: (Units=GPa)
#
#
# Indices 1 2 3 4 5 6 
#
# 1 44.9809 7.3450 -3.6705 12.6328 11.2343 -13.1254
# 2 7.3450 117.1279 13.8806 18.1869 5.3698 -7.3177
# 3 -3.6705 13.8806 80.0189 13.5644 26.6113 11.2233
# 4 12.6328 18.1869 13.5644 31.4254 3.7275 -4.6654
# 5 11.2343 5.3698 26.6113 3.7275 28.6410 5.4856
# 6 -13.1254 -7.3177 11.2233 -4.6654 5.4856 28.2541
#
#
#
# Elastic Compliance Matrix: (Units=1/GPa)
#
#
# Indices 1 2 3 4 5 6 
#
# 1 0.038605 0.000902 0.010612 -0.015027 -0.026395 0.016596
# 2 0.000902 0.009572 -0.000671 -0.005066 -0.001362 0.002592
# 3 0.010612 -0.000671 0.023154 -0.011306 -0.023754 -0.001697
# 4 -0.015027 -0.005066 -0.011306 0.044537 0.011292 0.001360
# 5 -0.026395 -0.001362 -0.023754 0.011292 0.068940 -0.014699
# 6 0.016596 0.002592 -0.001697 0.001360 -0.014699 0.047526
#
#
# Mechanical properties :
#
#
# Convention : Reuss Voigt Hill
#
# Bulk Modulus (GPa) = 10.75074 30.80423 20.77748
# Shear Modulus (GPa) = 20.69073 32.63560 26.66317
#
# Velocity S-wave (km/s) = 3.07439 3.86115 3.49001
# Velocity P-wave (km/s) = 4.18493 5.82665 5.07265
#
# Compressibility (1/GPa) = 0.09301682
#
# Stress axis : x y z
#
# Youngs Moduli (GPa) = 25.90311 104.47530 43.18835
#
# Poissons Ratio (x) = -0.09420 -0.45831
# Poissons Ratio (y) = -0.02336 0.02897
# Poissons Ratio (z) = -0.27488 0.07009
#
# Static dielectric constant tensor:
#      x y z
#    x 1.847360 -0.038810 -0.003840 
#    y -0.038810 1.850650 0.028910 
#    z -0.003840 0.028910 1.834920 
# 
# From -- ./inp_files/167842.got.cif
#   From: 2010.05.17/outbox.cif.g08.bks.cpg/sg2_84_cif.got.tgz:167842.got - 2010.06.03 11:33:40.
