data_PCOD9100419
_publ_section_title
;
Structure prediction by ZEFSAII (Michael W. Deem and Ramdas Pophale) SiO2 
 PCOD9100419
Probable space group: P -1
;
_chemical_formula_sum "Si O2"
_cell_formula_units_Z 13
_cell_length_a 5.001062
_cell_length_b 17.297002
_cell_length_c 9.144824
_cell_angle_alpha 44.116065
_cell_angle_beta 116.391542
_cell_angle_gamma 115.722938
_cell_volume 484.828834
_symmetry_space_group_name_H-M "P -1"
_symmetry_group_IT_number 2
_symmetry_cell_setting 'triclinic'
loop_
_space_group_symop_operation_xyz
x,y,z
-x,-y,-z
loop_
_atom_site_type_symbol
_atom_site_label
_atom_site_fract_x
_atom_site_fract_y
_atom_site_fract_z
Si Si1 0.993133 0.108272 0.952452
Si Si2 0.000000 0.500000 0.500000
Si Si3 0.813863 0.628320 0.712020
Si Si4 0.580880 0.677687 0.282408
Si Si5 0.335595 0.810589 0.495350
Si Si6 0.020224 0.435206 0.869393
Si Si7 0.047256 0.052104 0.597408
O O1 0.800057 0.179003 0.713176
O O2 0.303714 0.198389 0.927305
O O3 0.855312 0.047624 0.146846
O O4 0.000000 0.000000 0.000000
O O5 0.228317 0.411450 0.616310
O O6 0.804403 0.480812 0.320752
O O7 0.649144 0.684155 0.463632
O O8 0.822911 0.502558 0.828812
O O9 0.162373 0.698276 0.680879
O O10 0.785122 0.620881 0.892375
O O11 0.221759 0.631456 0.222409
O O12 0.689732 0.840443 0.509769
O O13 0.231612 0.907708 0.441923
O O14 0.000000 0.000000 0.500000
#
# Coordination Sequence:
#
# PCOD9100419 Si02
#       7
#     2   1   2   2   2   2   2
#     4   9  20  39  65  90 128 175 217 270 333 395
#     4   8  20  34  56  88 120 162 218 266 324 388
#     4  10  20  37  64  85 130 173 216 275 330 396
#     4   9  19  38  59  88 126 168 218 272 326 395
#     4  10  23  42  65  96 129 174 221 268 336 399
#     4   9  20  37  58  89 123 168 220 270 326 400
#     4  11  23  41  66  97 133 168 221 277 329 397
#
# _framework density 26.813587999999999
#
# number of rings (size 3 to 8) (size 9 to 14) (size 15 to 20)
#    0.923    1.538    0.000    1.385    2.154    4.308 
#    0.000    6.154    0.000    0.000    0.000    0.000 
#    0.000    0.000    0.000    0.000    0.000    0.000 
#
# Total GULP energy -72373.861067 kJ/mol
# GULP energy per Si atom -5567.220082 kJ/mol
# Density = 2.675256 g / cm^3
# Si number density = 26.813588 Si / 1000 Ang^3
#
#
#
# Elastic Constant Matrix: (Units=GPa)
#
#
# Indices 1 2 3 4 5 6 
#
# 1 122.2938 24.7424 22.7975 -2.5952 -3.9251 -13.9499
# 2 24.7424 84.3490 32.5123 12.3398 -2.5518 -9.0793
# 3 22.7975 32.5123 148.1695 32.2372 -41.9328 -29.4480
# 4 -2.5952 12.3398 32.2372 65.3029 -8.3689 -16.0005
# 5 -3.9251 -2.5518 -41.9328 -8.3689 28.6685 -3.4456
# 6 -13.9499 -9.0793 -29.4480 -16.0005 -3.4456 33.0082
#
#
#
# Elastic Compliance Matrix: (Units=1/GPa)
#
#
# Indices 1 2 3 4 5 6 
#
# 1 0.009342 -0.002639 0.000565 0.002256 0.003147 0.005148
# 2 -0.002639 0.014313 -0.005180 -0.002134 -0.007724 -0.003640
# 3 0.000565 -0.005180 0.021784 -0.000047 0.034084 0.021784
# 4 0.002256 -0.002134 -0.000047 0.019260 0.006920 0.010383
# 5 0.003147 -0.007724 0.034084 0.006920 0.091611 0.042531
# 6 0.005148 -0.003640 0.021784 0.010383 0.042531 0.060377
#
#
# Mechanical properties :
#
#
# Convention : Reuss Voigt Hill
#
# Bulk Modulus (GPa) = 32.32898 57.21294 44.77096
# Shear Modulus (GPa) = 20.70357 43.71328 32.20842
#
# Velocity S-wave (km/s) = 2.78174 4.04204 3.46959
# Velocity P-wave (km/s) = 4.73292 6.57021 5.72574
#
# Compressibility (1/GPa) = 0.03093200
#
# Stress axis : x y z
#
# Youngs Moduli (GPa) = 107.04683 69.86800 45.90443
#
# Poissons Ratio (x) = 0.18435 -0.02592
# Poissons Ratio (y) = 0.28245 0.23777
# Poissons Ratio (z) = -0.06046 0.36189
#
# Static dielectric constant tensor:
#      x y z
#    x 1.840320 -0.065110 0.304720 
#    y -0.065110 2.159110 -0.011120 
#    z 0.304720 -0.011120 2.265400 
# 
# From -- ./inp_files/41432.got.cif
#   From: 2010.05.17/outbox.cif.g08.bks.cpg/sg2_21_cif.got.tgz:41432.got - 2010.06.03 11:33:40.
