data_PCOD9100035
_publ_section_title
;
Structure prediction by ZEFSAII (Michael W. Deem and Ramdas Pophale) SiO2 
 PCOD9100035
Probable space group: P -1
;
_chemical_formula_sum "Si O2"
_cell_formula_units_Z 16
_cell_length_a 9.134732
_cell_length_b 11.344011
_cell_length_c 11.440214
_cell_angle_alpha 42.707656
_cell_angle_beta 99.327034
_cell_angle_gamma 116.248702
_cell_volume 694.807954
_symmetry_space_group_name_H-M "P -1"
_symmetry_group_IT_number 2
_symmetry_cell_setting 'triclinic'
loop_
_space_group_symop_operation_xyz
x,y,z
-x,-y,-z
loop_
_atom_site_type_symbol
_atom_site_label
_atom_site_fract_x
_atom_site_fract_y
_atom_site_fract_z
Si Si1 0.884900 0.489535 0.830247
Si Si2 0.373367 0.118572 0.284259
Si Si3 0.743733 0.348686 0.161523
Si Si4 0.986856 0.290753 0.801296
Si Si5 0.220938 0.738905 0.414449
Si Si6 0.187308 0.169719 0.442768
Si Si7 0.306239 0.344846 0.905395
Si Si8 0.486363 0.358823 0.492631
O O1 0.886708 0.319659 0.875041
O O2 0.830564 0.639752 0.659142
O O3 0.077385 0.631040 0.795416
O O4 0.766330 0.396638 0.993335
O O5 0.564128 0.160455 0.297121
O O6 0.301252 0.193596 0.325480
O O7 0.257635 0.887187 0.417217
O O8 0.367269 0.225811 0.084379
O O9 0.727675 0.516930 0.109553
O O10 0.861441 0.194920 0.747498
O O11 0.100360 0.517888 0.605271
O O12 0.122411 0.223030 0.906972
O O13 0.388820 0.732553 0.401562
O O14 0.304734 0.174485 0.563426
O O15 0.000000 0.000000 0.500000
O O16 0.436203 0.488050 0.719654
O O17 0.500000 0.500000 0.500000
#
# Coordination Sequence:
#
# PCOD9100035 Si02
#       8
#     2   2   2   2   2   2   2   2
#     4  10  20  37  62  91 120 165 208 259 317 380
#     4  12  23  39  66  98 129 164 215 272 326 375
#     4  10  20  37  63  90 127 163 204 258 325 386
#     4   9  20  42  63  87 129 173 216 254 324 393
#     4  10  23  40  63  91 128 175 215 259 322 392
#     4  12  25  38  63  98 134 162 216 277 324 375
#     4  10  20  40  67  93 122 173 214 261 324 394
#     4  11  24  44  67  89 127 180 220 257 327 400
#
# _framework density 23.027944000000002
#
# number of rings (size 3 to 8) (size 9 to 14) (size 15 to 20)
#    0.000    1.500    2.500    2.625    1.750    3.000 
#    0.000    2.500    0.000    0.000    0.000    0.000 
#    0.000    0.000    0.000    0.000    0.000    0.000 
#
# Total GULP energy -89320.779205 kJ/mol
# GULP energy per Si atom -5582.548700 kJ/mol
# Density = 2.297553 g / cm^3
# Si number density = 23.027944 Si / 1000 Ang^3
#
#
#
# Elastic Constant Matrix: (Units=GPa)
#
#
# Indices 1 2 3 4 5 6 
#
# 1 94.3366 31.2195 29.1540 3.2766 -15.4521 11.1019
# 2 31.2195 106.8924 16.9361 14.4102 -9.0802 22.3056
# 3 29.1540 16.9361 51.4180 16.6129 -5.3788 10.6365
# 4 3.2766 14.4102 16.6129 25.8753 -4.3472 1.3537
# 5 -15.4521 -9.0802 -5.3788 -4.3472 33.6522 -0.9880
# 6 11.1019 22.3056 10.6365 1.3537 -0.9880 30.0215
#
#
#
# Elastic Compliance Matrix: (Units=1/GPa)
#
#
# Indices 1 2 3 4 5 6 
#
# 1 0.015217 -0.003457 -0.009112 0.006766 0.005473 0.000045
# 2 -0.003457 0.012947 0.001998 -0.007432 0.001011 -0.008681
# 3 -0.009112 0.001998 0.032194 -0.020410 -0.001389 -0.008647
# 4 0.006766 -0.007432 -0.020410 0.055499 0.005241 0.007921
# 5 0.005473 0.001011 -0.001389 0.005241 0.032914 -0.001436
# 6 0.000045 -0.008681 -0.008647 0.007921 -0.001436 0.042402
#
#
# Mechanical properties :
#
#
# Convention : Reuss Voigt Hill
#
# Bulk Modulus (GPa) = 25.49907 45.25180 35.37543
# Shear Modulus (GPa) = 22.18405 29.59898 25.89151
#
# Velocity S-wave (km/s) = 3.10716 3.58907 3.35677
# Velocity P-wave (km/s) = 4.89589 6.07196 5.51536
#
# Compressibility (1/GPa) = 0.03921712
#
# Stress axis : x y z
#
# Youngs Moduli (GPa) = 65.71802 77.23499 31.06130
#
# Poissons Ratio (x) = 0.26700 0.28302
# Poissons Ratio (y) = 0.22719 -0.06206
# Poissons Ratio (z) = 0.59881 -0.15433
#
# Static dielectric constant tensor:
#      x y z
#    x 1.861450 0.082550 0.015710 
#    y 0.082550 1.921050 0.018490 
#    z 0.015710 0.018490 1.880390 
# 
# From -- ./inp_files/277570.got.cif
#   From: 2010.05.17/outbox.cif.g08.bks.cpg/sg2_139_cif.got.tgz:277570.got - 2010.06.03 11:33:40.
