data_PCOD9100022
_publ_section_title
;
Structure prediction by ZEFSAII (Michael W. Deem and Ramdas Pophale) SiO2 
 PCOD9100022
Probable space group: P -1
;
_chemical_formula_sum "Si O2"
_cell_formula_units_Z 16
_cell_length_a 14.717335
_cell_length_b 7.524555
_cell_length_c 7.331977
_cell_angle_alpha 57.378654
_cell_angle_beta 90.970975
_cell_angle_gamma 105.983884
_cell_volume 648.701843
_symmetry_space_group_name_H-M "P -1"
_symmetry_group_IT_number 2
_symmetry_cell_setting 'triclinic'
loop_
_space_group_symop_operation_xyz
x,y,z
-x,-y,-z
loop_
_atom_site_type_symbol
_atom_site_label
_atom_site_fract_x
_atom_site_fract_y
_atom_site_fract_z
Si Si1 0.309901 0.048839 0.245819
Si Si2 0.149961 0.724305 0.012373
Si Si3 0.878167 0.153361 0.436406
Si Si4 0.536167 0.593797 0.748759
Si Si5 0.906447 0.717560 0.637046
Si Si6 0.607170 0.347430 0.588929
Si Si7 0.949244 0.760795 0.044698
Si Si8 0.757821 0.758644 0.191346
O O1 0.370627 0.191478 0.334432
O O2 0.299280 0.233359 0.001549
O O3 0.202806 0.906634 0.382833
O O4 0.359732 0.870640 0.278277
O O5 0.144657 0.698580 0.806969
O O6 0.171534 0.524866 0.230083
O O7 0.038882 0.669556 0.097113
O O8 0.210974 0.975690 0.913993
O O9 0.987344 0.246977 0.459167
O O10 0.873198 0.922055 0.461174
O O11 0.557833 0.398564 0.741645
O O12 0.463526 0.673275 0.575498
O O13 0.500000 0.500000 0.000000
O O14 0.924357 0.767320 0.827278
O O15 0.690842 0.578403 0.421162
O O16 0.851551 0.684732 0.197264
O O17 0.000000 0.000000 0.000000
#
# Coordination Sequence:
#
# PCOD9100022 Si02
#       8
#     2   2   2   2   2   2   2   2
#     4  12  25  44  74 107 140 188 232 288 362 421
#     4  10  22  37  62  91 133 195 239 283 342 397
#     4  10  21  37  63  95 136 177 239 285 337 407
#     4  11  25  54  78 107 143 177 223 300 360 437
#     4  10  20  37  62  90 133 192 236 285 340 399
#     4  11  27  48  78 108 142 180 232 287 365 434
#     4   9  18  35  58  85 133 179 228 284 334 387
#     4  11  23  43  61 103 141 177 236 295 335 418
#
# _framework density 24.664645
#
# number of rings (size 3 to 8) (size 9 to 14) (size 15 to 20)
#    0.000    1.500    2.500    2.625    3.500    2.500 
#    4.500    0.625    0.000    0.000    0.000    0.000 
#    0.000    0.000    0.000    0.000    0.000    0.000 
#
# Total GULP energy -89432.206312 kJ/mol
# GULP energy per Si atom -5589.512894 kJ/mol
# Density = 2.460851 g / cm^3
# Si number density = 24.664645 Si / 1000 Ang^3
#
#
#
# Elastic Constant Matrix: (Units=GPa)
#
#
# Indices 1 2 3 4 5 6 
#
# 1 65.4514 8.4620 17.0916 14.4194 7.3351 1.6138
# 2 8.4620 75.4984 8.3558 -1.5684 6.5597 9.7230
# 3 17.0916 8.3558 101.3446 6.6606 6.4863 -1.7033
# 4 14.4194 -1.5684 6.6606 41.0055 -8.2064 -6.8574
# 5 7.3351 6.5597 6.4863 -8.2064 26.0861 1.9071
# 6 1.6138 9.7230 -1.7033 -6.8574 1.9071 36.3341
#
#
#
# Elastic Compliance Matrix: (Units=1/GPa)
#
#
# Indices 1 2 3 4 5 6 
#
# 1 0.018508 -0.001198 -0.002106 -0.007846 -0.006721 -0.001728
# 2 -0.001198 0.014183 -0.000847 -0.000064 -0.002772 -0.003648
# 3 -0.002106 -0.000847 0.010539 -0.001348 -0.002289 0.000680
# 4 -0.007846 -0.000064 -0.001348 0.030637 0.011796 0.005465
# 5 -0.006721 -0.002772 -0.002289 0.011796 0.045144 0.000790
# 6 -0.001728 -0.003648 0.000680 0.005465 0.000790 0.029597
#
#
# Mechanical properties :
#
#
# Convention : Reuss Voigt Hill
#
# Bulk Modulus (GPa) = 28.63026 34.45703 31.54365
# Shear Modulus (GPa) = 29.66451 34.57747 32.12099
#
# Velocity S-wave (km/s) = 3.47178 3.74826 3.61267
# Velocity P-wave (km/s) = 5.26346 5.72129 5.49714
#
# Compressibility (1/GPa) = 0.03492808
#
# Stress axis : x y z
#
# Youngs Moduli (GPa) = 54.03170 70.50844 94.88713
#
# Poissons Ratio (x) = 0.08445 0.19981
# Poissons Ratio (y) = 0.06472 0.08037
# Poissons Ratio (z) = 0.11378 0.05972
#
# Static dielectric constant tensor:
#      x y z
#    x 1.999470 0.007510 0.033680 
#    y 0.007510 2.050110 -0.022940 
#    z 0.033680 -0.022940 1.971720 
# 
# From -- ./inp_files/294056.got.cif
#   From: 2010.05.17/outbox.cif.g08.bks.cpg/sg2_148_cif.got.tgz:294056.got - 2010.06.03 11:33:40.
