data_PCOD9100464
_publ_section_title
;
Structure prediction by ZEFSAII (Michael W. Deem and Ramdas Pophale) SiO2 
 PCOD9100464
Probable space group: P -1
;
_chemical_formula_sum "Si O2"
_cell_formula_units_Z 16
_cell_length_a 9.754731
_cell_length_b 8.075839
_cell_length_c 15.517048
_cell_angle_alpha 144.907899
_cell_angle_beta 82.955482
_cell_angle_gamma 90.084390
_cell_volume 686.888957
_symmetry_space_group_name_H-M "P -1"
_symmetry_group_IT_number 2
_symmetry_cell_setting 'triclinic'
loop_
_space_group_symop_operation_xyz
x,y,z
-x,-y,-z
loop_
_atom_site_type_symbol
_atom_site_label
_atom_site_fract_x
_atom_site_fract_y
_atom_site_fract_z
Si Si1 0.468704 0.215213 0.466786
Si Si2 0.208829 0.000374 0.131919
Si Si3 0.945797 0.886345 0.045448
Si Si4 0.680327 0.214663 0.596352
Si Si5 0.313120 0.227898 0.054721
Si Si6 0.812159 0.417117 0.396900
Si Si7 0.068255 0.670332 0.462358
Si Si8 0.518197 0.152765 0.855407
O O1 0.591727 0.300816 0.552073
O O2 0.353177 0.468178 0.542583
O O3 0.377556 0.052489 0.470429
O O4 0.521774 0.989648 0.290220
O O5 0.291104 0.998992 0.034211
O O6 0.127234 0.331966 0.288012
O O7 0.318973 0.950944 0.178741
O O8 0.089359 0.798725 0.050763
O O9 0.851195 0.159705 0.215748
O O10 0.837839 0.676098 0.939871
O O11 0.000000 0.000000 0.000000
O O12 0.650102 0.488352 0.780164
O O13 0.844557 0.154168 0.532286
O O14 0.425020 0.091229 0.917556
O O15 0.876939 0.293524 0.430110
O O16 0.902125 0.675992 0.479215
O O17 0.500000 0.500000 0.000000
#
# Coordination Sequence:
#
# PCOD9100464 Si02
#       8
#     2   2   2   2   2   2   2   2
#     4  11  24  41  59  87 124 165 202 240 297 357
#     4   9  19  39  63  89 117 154 195 251 297 356
#     4   9  20  38  63  93 118 147 200 250 303 352
#     4  10  23  42  59  83 126 164 201 242 293 363
#     4  10  21  40  63  89 120 157 201 248 298 352
#     4  10  20  37  64  90 116 153 194 252 297 353
#     4   9  19  37  62  87 115 149 199 244 299 348
#     4  12  23  39  60  89 123 162 202 245 296 352
#
# _framework density 23.293431000000002
#
# number of rings (size 3 to 8) (size 9 to 14) (size 15 to 20)
#    0.000    2.000    2.500    1.125    1.750    5.000 
#    0.000    0.625    0.000    0.000    0.000    0.000 
#    0.000    0.000    0.000    0.000    0.000    0.000 
#
# Total GULP energy -89404.213115 kJ/mol
# GULP energy per Si atom -5587.763320 kJ/mol
# Density = 2.324041 g / cm^3
# Si number density = 23.293431 Si / 1000 Ang^3
#
#
#
# Elastic Constant Matrix: (Units=GPa)
#
#
# Indices 1 2 3 4 5 6 
#
# 1 112.2724 3.3203 17.3325 -5.6498 20.7921 -3.7712
# 2 3.3203 33.5159 10.4698 -9.6284 6.5206 1.9141
# 3 17.3325 10.4698 103.1195 -36.9373 9.3548 3.4950
# 4 -5.6498 -9.6284 -36.9373 29.1337 0.9087 2.5323
# 5 20.7921 6.5206 9.3548 0.9087 39.9994 -10.6732
# 6 -3.7712 1.9141 3.4950 2.5323 -10.6732 26.9713
#
#
#
# Elastic Compliance Matrix: (Units=1/GPa)
#
#
# Indices 1 2 3 4 5 6 
#
# 1 0.010051 0.000790 -0.000666 0.001613 -0.005469 -0.000880
# 2 0.000790 0.036150 0.003840 0.018022 -0.009896 -0.008561
# 3 -0.000666 0.003840 0.020577 0.028255 -0.008107 -0.008893
# 4 0.001613 0.018022 0.028255 0.078597 -0.017215 -0.018907
# 5 -0.005469 -0.009896 -0.008107 -0.017215 0.036268 0.016957
# 6 -0.000880 -0.008561 -0.008893 -0.018907 0.016957 0.047199
#
#
# Mechanical properties :
#
#
# Convention : Reuss Voigt Hill
#
# Bulk Modulus (GPa) = 13.38552 34.57254 23.97903
# Shear Modulus (GPa) = 20.34041 33.73988 27.04014
#
# Velocity S-wave (km/s) = 2.95824 3.81001 3.41082
# Velocity P-wave (km/s) = 4.17459 5.85058 5.08215
#
# Compressibility (1/GPa) = 0.07470762
#
# Stress axis : x y z
#
# Youngs Moduli (GPa) = 99.49474 27.66232 48.59722
#
# Poissons Ratio (x) = -0.02185 0.03235
# Poissons Ratio (y) = -0.07860 -0.18663
# Poissons Ratio (z) = 0.06623 -0.10623
#
# Static dielectric constant tensor:
#      x y z
#    x 1.966060 0.031490 0.014810 
#    y 0.031490 1.929880 -0.016680 
#    z 0.014810 -0.016680 1.843090 
# 
# From -- ./inp_files/327633.got.cif
#   From: 2010.05.17/outbox.cif.g08.bks.cpg/sg2_164_cif.got.tgz:327633.got - 2010.06.03 11:33:40.
