data_PCOD9100606
_publ_section_title
;
Structure prediction by ZEFSAII (Michael W. Deem and Ramdas Pophale) SiO2 
 PCOD9100606
Probable space group: P -1
;
_chemical_formula_sum "Si O2"
_cell_formula_units_Z 14
_cell_length_a 7.759823
_cell_length_b 13.768265
_cell_length_c 11.754472
_cell_angle_alpha 116.748042
_cell_angle_beta 128.883010
_cell_angle_gamma 104.505966
_cell_volume 560.388317
_symmetry_space_group_name_H-M "P -1"
_symmetry_group_IT_number 2
_symmetry_cell_setting 'triclinic'
loop_
_space_group_symop_operation_xyz
x,y,z
-x,-y,-z
loop_
_atom_site_type_symbol
_atom_site_label
_atom_site_fract_x
_atom_site_fract_y
_atom_site_fract_z
Si Si1 0.736087 0.777839 0.321961
Si Si2 0.194104 0.689097 0.187830
Si Si3 0.056456 0.446722 0.767769
Si Si4 0.092867 0.878198 0.278260
Si Si5 0.736231 0.505819 0.535842
Si Si6 0.242630 0.117967 0.056203
Si Si7 0.891550 0.234634 0.377267
O O1 0.517641 0.797021 0.294745
O O2 0.948539 0.854060 0.331347
O O3 0.976785 0.829763 0.552958
O O4 0.418902 0.579629 0.051511
O O5 0.962370 0.709556 0.088668
O O6 0.250669 0.708103 0.357964
O O7 0.000000 0.500000 0.000000
O O8 0.998887 0.547521 0.754226
O O9 0.035387 0.365105 0.606788
O O10 0.500000 0.000000 0.500000
O O11 0.968487 0.920864 0.160414
O O12 0.500000 0.500000 0.500000
O O13 0.506399 0.318170 0.296061
O O14 0.934809 0.650583 0.601308
O O15 0.485134 0.104094 0.130785
O O16 0.000000 0.000000 0.000000
#
# Coordination Sequence:
#
# PCOD9100606 Si02
#       7
#     2   2   2   2   2   2   2
#     4  11  22  39  71  98 137 168 224 282 334 389
#     4  10  24  39  70 104 130 166 228 281 332 387
#     4  10  20  37  64  97 133 165 220 269 335 389
#     4  12  26  46  70  94 136 185 222 270 338 404
#     4  11  24  39  68 101 133 172 225 281 331 392
#     4  11  26  46  66  94 138 180 222 269 340 406
#     4  11  21  41  67  99 131 179 222 274 338 399
#
# _framework density 24.982679000000001
#
# number of rings (size 3 to 8) (size 9 to 14) (size 15 to 20)
#    0.000    1.143    1.429    5.571   12.000    0.571 
#    0.000    0.714    0.000    0.000    0.000    0.000 
#    0.000    0.000    0.000    0.000    0.000    0.000 
#
# Total GULP energy -78181.116065 kJ/mol
# GULP energy per Si atom -5584.365433 kJ/mol
# Density = 2.492582 g / cm^3
# Si number density = 24.982679 Si / 1000 Ang^3
#
#
#
# Elastic Constant Matrix: (Units=GPa)
#
#
# Indices 1 2 3 4 5 6 
#
# 1 164.9170 77.2468 21.5330 -13.3154 34.4323 33.7770
# 2 77.2468 166.7557 56.8979 -21.4194 25.3373 27.9195
# 3 21.5330 56.8979 105.7625 -17.2106 30.4949 10.9961
# 4 -13.3154 -21.4194 -17.2106 53.8634 -4.7660 13.3263
# 5 34.4323 25.3373 30.4949 -4.7660 22.3265 11.4136
# 6 33.7770 27.9195 10.9961 13.3263 11.4136 39.9066
#
#
#
# Elastic Compliance Matrix: (Units=1/GPa)
#
#
# Indices 1 2 3 4 5 6 
#
# 1 0.012504 -0.003599 0.006386 0.003082 -0.020750 -0.004920
# 2 -0.003599 0.009853 -0.004687 0.003016 0.003790 -0.004646
# 3 0.006386 -0.004687 0.020343 0.003356 -0.031711 0.000217
# 4 0.003082 0.003016 0.003356 0.025012 -0.000310 -0.013907
# 5 -0.020750 0.003790 -0.031711 -0.000310 0.121334 -0.010950
# 6 -0.004920 -0.004646 0.000217 -0.013907 -0.010950 0.040189
#
#
# Mechanical properties :
#
#
# Convention : Reuss Voigt Hill
#
# Bulk Modulus (GPa) = 25.70624 83.19895 54.45260
# Shear Modulus (GPa) = 20.32509 42.00311 31.16410
#
# Velocity S-wave (km/s) = 2.85540 4.10480 3.53573
# Velocity P-wave (km/s) = 4.60251 7.47267 6.20580
#
# Compressibility (1/GPa) = 0.03890106
#
# Stress axis : x y z
#
# Youngs Moduli (GPa) = 79.97208 101.49614 49.15699
#
# Poissons Ratio (x) = 0.36530 -0.31393
# Poissons Ratio (y) = 0.28783 0.23038
# Poissons Ratio (z) = -0.51072 0.47567
#
# Static dielectric constant tensor:
#      x y z
#    x 2.104040 0.054170 -0.038240 
#    y 0.054170 0.359200 -0.177950 
#    z -0.038240 -0.177950 1.999210 
# 
# From -- ./inp_files/397507.got.cif
#   From: 2010.05.17/outbox.cif.g08.bks.cpg/sg2_199_cif.got.tgz:397507.got - 2010.06.03 11:33:40.
