data_PCOD9100045
_publ_section_title
;
Structure prediction by ZEFSAII (Michael W. Deem and Ramdas Pophale) SiO2 
 PCOD9100045
Probable space group: P -1
;
_chemical_formula_sum "Si O2"
_cell_formula_units_Z 14
_cell_length_a 11.649350
_cell_length_b 14.914677
_cell_length_c 11.744208
_cell_angle_alpha 127.665008
_cell_angle_beta 139.176181
_cell_angle_gamma 28.390678
_cell_volume 624.384892
_symmetry_space_group_name_H-M "P -1"
_symmetry_group_IT_number 2
_symmetry_cell_setting 'triclinic'
loop_
_space_group_symop_operation_xyz
x,y,z
-x,-y,-z
loop_
_atom_site_type_symbol
_atom_site_label
_atom_site_fract_x
_atom_site_fract_y
_atom_site_fract_z
Si Si1 0.516643 0.382774 0.540922
Si Si2 0.042451 0.823291 0.475356
Si Si3 0.453133 0.063043 0.882196
Si Si4 0.948664 0.510918 0.838461
Si Si5 0.592084 0.304596 0.796330
Si Si6 0.158687 0.923044 0.847378
Si Si7 0.695717 0.515961 0.058152
O O1 0.294361 0.605589 0.544161
O O2 0.836593 0.238256 0.612701
O O3 0.502631 0.347371 0.630877
O O4 0.372326 0.368012 0.335728
O O5 0.078370 0.911493 0.654866
O O6 0.696361 0.965539 0.319060
O O7 0.185914 0.288737 0.822825
O O8 0.726578 0.006251 0.018393
O O9 0.500000 0.000000 0.000000
O O10 0.026393 0.579392 0.875694
O O11 0.000000 0.500000 0.000000
O O12 0.343065 0.414816 0.790032
O O13 0.692019 0.382769 0.953612
O O14 0.870984 0.075600 0.830861
O O15 0.412314 0.712420 0.929126
#
# Coordination Sequence:
#
# PCOD9100045 Si02
#       7
#     2   2   2   2   2   2   2
#     4  10  20  37  62  91 124 165 206 252 314 366
#     4  10  21  38  60  93 132 159 204 264 307 367
#     4  10  22  35  57  91 127 156 202 252 307 373
#     4  10  22  37  64  89 123 163 197 262 319 359
#     4  11  23  39  67  88 120 173 206 251 307 376
#     4  11  22  41  65  89 126 165 207 257 315 361
#     4  10  23  43  61  91 125 160 214 253 307 369
#
# _framework density 22.422067999999999
#
# number of rings (size 3 to 8) (size 9 to 14) (size 15 to 20)
#    0.000    1.714    1.429    3.000    6.000    4.000 
#    0.000    0.000    0.000    3.429    0.000    0.000 
#    0.000    0.000    0.000    0.000    0.000    0.000 
#
# Total GULP energy -78030.967524 kJ/mol
# GULP energy per Si atom -5573.640537 kJ/mol
# Density = 2.237103 g / cm^3
# Si number density = 22.422068 Si / 1000 Ang^3
#
#
#
# Elastic Constant Matrix: (Units=GPa)
#
#
# Indices 1 2 3 4 5 6 
#
# 1 71.8640 -7.7792 30.2486 15.0555 -11.0756 -16.2882
# 2 -7.7792 68.0982 13.0034 9.2848 5.8545 2.9508
# 3 30.2486 13.0034 111.4764 6.0781 -13.3768 -15.7922
# 4 15.0555 9.2848 6.0781 14.1240 2.4086 -3.4637
# 5 -11.0756 5.8545 -13.3768 2.4086 31.9620 0.0331
# 6 -16.2882 2.9508 -15.7922 -3.4637 0.0331 29.5384
#
#
#
# Elastic Compliance Matrix: (Units=1/GPa)
#
#
# Indices 1 2 3 4 5 6 
#
# 1 0.025469 0.006627 -0.004008 -0.029254 0.008131 0.007800
# 2 0.006627 0.018791 -0.003453 -0.018266 -0.001212 -0.002210
# 3 -0.004008 -0.003453 0.011450 0.002056 0.003876 0.004493
# 4 -0.029254 -0.018266 0.002056 0.115698 -0.014650 0.000376
# 5 0.008131 -0.001212 0.003876 -0.014650 0.037048 0.004917
# 6 0.007800 -0.002210 0.004493 0.000376 0.004917 0.040817
#
#
# Mechanical properties :
#
#
# Convention : Reuss Voigt Hill
#
# Bulk Modulus (GPa) = 18.50396 35.82048 27.16222
# Shear Modulus (GPa) = 18.59032 29.52259 24.05646
#
# Velocity S-wave (km/s) = 2.88255 3.63254 3.27906
# Velocity P-wave (km/s) = 4.39878 5.79690 5.14555
#
# Compressibility (1/GPa) = 0.05404249
#
# Stress axis : x y z
#
# Youngs Moduli (GPa) = 39.26282 53.21605 87.33299
#
# Poissons Ratio (x) = -0.35264 0.35005
# Poissons Ratio (y) = -0.26018 0.30152
# Poissons Ratio (z) = 0.15738 0.18373
#
# Static dielectric constant tensor:
#      x y z
#    x 1.936900 0.021540 0.085730 
#    y 0.021540 1.838750 -0.003460 
#    z 0.085730 -0.003460 1.890270 
# 
# From -- ./inp_files/326451.got.cif
#   From: 2010.05.17/outbox.cif.g08.bks.cpg/sg2_164_cif.got.tgz:326451.got - 2010.06.03 11:33:40.
