data_PCOD9100614
_publ_section_title
;
Structure prediction by ZEFSAII (Michael W. Deem and Ramdas Pophale) SiO2 
 PCOD9100614
Probable space group: P -1
;
_chemical_formula_sum "Si O2"
_cell_formula_units_Z 12
_cell_length_a 19.176141
_cell_length_b 13.993405
_cell_length_c 4.987979
_cell_angle_alpha 129.261003
_cell_angle_beta 56.940158
_cell_angle_gamma 151.911420
_cell_volume 487.645303
_symmetry_space_group_name_H-M "P -1"
_symmetry_group_IT_number 2
_symmetry_cell_setting 'triclinic'
loop_
_space_group_symop_operation_xyz
x,y,z
-x,-y,-z
loop_
_atom_site_type_symbol
_atom_site_label
_atom_site_fract_x
_atom_site_fract_y
_atom_site_fract_z
Si Si1 0.114190 0.042443 0.208169
Si Si2 0.311186 0.276582 0.725246
Si Si3 0.127930 0.418776 0.318148
Si Si4 0.290409 0.588050 0.781139
Si Si5 0.452342 0.249078 0.746908
Si Si6 0.346485 0.872334 0.486355
O O1 0.235716 0.167937 0.404650
O O2 0.000000 0.000000 0.500000
O O3 0.026898 0.812519 0.887635
O O4 0.193181 0.187557 0.029711
O O5 0.358649 0.209488 0.656534
O O6 0.455048 0.540528 0.896039
O O7 0.151786 0.410834 0.558294
O O8 0.196777 0.640089 0.533320
O O9 0.245255 0.492296 0.004829
O O10 0.426051 0.681415 0.545473
O O11 0.328895 0.780065 0.075143
O O12 0.362698 0.037299 0.724131
O O13 0.500000 0.000000 0.500000
#
# Coordination Sequence:
#
# PCOD9100614 Si02
#       6
#     2   2   2   2   2   2
#     4  12  24  47  65  92 128 173 224 255 313 391
#     4  11  28  41  68  96 129 178 201 270 328 375
#     4  10  22  37  65  96 121 162 224 255 312 364
#     4  10  20  37  64  99 120 165 206 267 314 361
#     4  11  22  44  62 101 136 159 218 264 326 384
#     4  10  22  37  69 100 127 167 213 268 317 370
#
# _framework density 24.608048
#
# number of rings (size 3 to 8) (size 9 to 14) (size 15 to 20)
#    1.000    0.333    1.667    4.000    0.000    5.333 
#    0.000    1.667    0.000    0.000    0.000    0.000 
#    0.000    0.000    0.000    0.000    0.000    0.000 
#
# Total GULP energy -67099.241015 kJ/mol
# GULP energy per Si atom -5591.603418 kJ/mol
# Density = 2.455204 g / cm^3
# Si number density = 24.608048 Si / 1000 Ang^3
#
#
#
# Elastic Constant Matrix: (Units=GPa)
#
#
# Indices 1 2 3 4 5 6 
#
# 1 96.7953 33.7990 60.8207 41.5719 2.0849 -9.1144
# 2 33.7990 109.6196 47.8191 40.1759 -1.2957 -12.3961
# 3 60.8207 47.8191 121.9158 34.5293 30.2546 -2.1066
# 4 41.5719 40.1759 34.5293 57.9564 -2.8798 -5.6864
# 5 2.0849 -1.2957 30.2546 -2.8798 49.6549 10.6619
# 6 -9.1144 -12.3961 -2.1066 -5.6864 10.6619 36.8235
#
#
#
# Elastic Compliance Matrix: (Units=1/GPa)
#
#
# Indices 1 2 3 4 5 6 
#
# 1 0.019226 0.001447 -0.008210 -0.009510 0.003168 0.002390
# 2 0.001447 0.013716 -0.004378 -0.007548 0.001880 0.003015
# 3 -0.008210 -0.004378 0.017071 -0.001740 -0.010312 0.000188
# 4 -0.009510 -0.007548 -0.001740 0.030386 0.003295 -0.001256
# 5 0.003168 0.001880 -0.010312 0.003295 0.027982 -0.006766
# 6 0.002390 0.003015 0.000188 -0.001256 -0.006766 0.030539
#
#
# Mechanical properties :
#
#
# Convention : Reuss Voigt Hill
#
# Bulk Modulus (GPa) = 36.06281 68.13425 52.09853
# Shear Modulus (GPa) = 29.33497 41.27975 35.30736
#
# Velocity S-wave (km/s) = 3.45641 4.10016 3.79197
# Velocity P-wave (km/s) = 5.53315 7.08258 6.35526
#
# Compressibility (1/GPa) = 0.02772940
#
# Stress axis : x y z
#
# Youngs Moduli (GPa) = 52.01265 72.90887 58.58037
#
# Poissons Ratio (x) = -0.10549 0.48096
# Poissons Ratio (y) = -0.07526 0.25647
# Poissons Ratio (z) = 0.42704 0.31920
#
# Static dielectric constant tensor:
#      x y z
#    x 1.939590 -0.039570 -0.051900 
#    y -0.039570 2.012790 0.020240 
#    z -0.051900 0.020240 1.990550 
# 
# From -- ./inp_files/110179.got.cif
#   From: 2010.05.17/outbox.cif.g08.bks.cpg/sg2_56_cif.got.tgz:110179.got - 2010.06.03 11:33:40.
