data_PCOD9100704
_publ_section_title
;
Structure prediction by ZEFSAII (Michael W. Deem and Ramdas Pophale) SiO2 
 PCOD9100704
Probable space group: P -1
;
_chemical_formula_sum "Si O2"
_cell_formula_units_Z 16
_cell_length_a 5.439645
_cell_length_b 13.832791
_cell_length_c 14.931339
_cell_angle_alpha 48.040334
_cell_angle_beta 104.552043
_cell_angle_gamma 80.062786
_cell_volume 712.411719
_symmetry_space_group_name_H-M "P -1"
_symmetry_group_IT_number 2
_symmetry_cell_setting 'triclinic'
loop_
_space_group_symop_operation_xyz
x,y,z
-x,-y,-z
loop_
_atom_site_type_symbol
_atom_site_label
_atom_site_fract_x
_atom_site_fract_y
_atom_site_fract_z
Si Si1 0.446050 0.282207 0.958540
Si Si2 0.222170 0.758396 0.643910
Si Si3 0.195841 0.196486 0.118716
Si Si4 0.995771 0.446697 0.334419
Si Si5 0.680649 0.481007 0.937319
Si Si6 0.131255 0.844474 0.059395
Si Si7 0.768091 0.981289 0.596730
Si Si8 0.532770 0.475038 0.624567
O O1 0.128862 0.407816 0.829971
O O2 0.594709 0.384419 0.922519
O O3 0.583339 0.176615 0.954040
O O4 0.478197 0.196416 0.105394
O O5 0.039626 0.678193 0.645043
O O6 0.540603 0.638328 0.778958
O O7 0.055604 0.860868 0.648692
O O8 0.230256 0.864149 0.502683
O O9 0.245980 0.078334 0.270837
O O10 0.016996 0.361648 0.045230
O O11 0.070825 0.159432 0.038671
O O12 0.766766 0.482920 0.374460
O O13 0.309933 0.427000 0.395625
O O14 0.500000 0.500000 0.000000
O O15 0.251724 0.697840 0.223499
O O16 0.000000 0.000000 0.000000
O O17 0.500000 0.000000 0.500000
O O18 0.500000 0.500000 0.500000
#
# Coordination Sequence:
#
# PCOD9100704 Si02
#       8
#     2   2   2   2   2   2   2   2
#     4   9  21  37  64  97 126 169 224 287 329 407
#     4  10  24  43  62  95 136 181 229 284 347 418
#     4  11  22  42  65  94 132 174 231 284 339 414
#     4  10  22  43  70  99 138 176 232 290 345 415
#     4  10  20  37  65  92 121 173 229 277 333 401
#     4  10  23  44  67  94 134 176 226 282 355 420
#     4  11  26  41  62  96 143 183 224 282 354 424
#     4  11  23  44  72 104 135 176 231 296 354 417
#
# _framework density 22.458922999999999
#
# number of rings (size 3 to 8) (size 9 to 14) (size 15 to 20)
#    0.000    1.750    2.500    1.125    3.500    4.000 
#    0.000    0.000    0.000    0.000    0.000    0.000 
#    0.000    0.000    0.000    0.000    0.000    0.000 
#
# Total GULP energy -89231.479422 kJ/mol
# GULP energy per Si atom -5576.967464 kJ/mol
# Density = 2.240781 g / cm^3
# Si number density = 22.458923 Si / 1000 Ang^3
#
#
#
# Elastic Constant Matrix: (Units=GPa)
#
#
# Indices 1 2 3 4 5 6 
#
# 1 66.7668 19.3231 44.6820 -3.9508 -13.5581 3.0256
# 2 19.3231 113.1366 72.1514 -11.3384 -1.4411 -7.2057
# 3 44.6820 72.1514 179.8418 7.4602 -36.5637 -10.9339
# 4 -3.9508 -11.3384 7.4602 37.5916 -1.0027 -0.6262
# 5 -13.5581 -1.4411 -36.5637 -1.0027 32.9251 6.7467
# 6 3.0256 -7.2057 -10.9339 -0.6262 6.7467 25.5049
#
#
#
# Elastic Compliance Matrix: (Units=1/GPa)
#
#
# Indices 1 2 3 4 5 6 
#
# 1 0.019183 -0.000791 -0.003931 0.002593 0.004676 -0.005358
# 2 -0.000791 0.014227 -0.007207 0.005474 -0.008223 0.003333
# 3 -0.003931 -0.007207 0.011894 -0.004645 0.011031 0.000497
# 4 0.002593 0.005474 -0.004645 0.029377 -0.003119 0.000794
# 5 0.004676 -0.008223 0.011031 -0.003119 0.046235 -0.010456
# 6 -0.005358 0.003333 0.000497 0.000794 -0.010456 0.043784
#
#
# Mechanical properties :
#
#
# Convention : Reuss Voigt Hill
#
# Bulk Modulus (GPa) = 46.63183 70.22867 58.43025
# Shear Modulus (GPa) = 25.54825 34.11023 29.82924
#
# Velocity S-wave (km/s) = 3.37642 3.90138 3.64836
# Velocity P-wave (km/s) = 6.00071 7.18555 6.61969
#
# Compressibility (1/GPa) = 0.02144458
#
# Stress axis : x y z
#
# Youngs Moduli (GPa) = 52.12909 70.29117 84.07279
#
# Poissons Ratio (x) = 0.05559 0.33053
# Poissons Ratio (y) = 0.04123 0.60595
# Poissons Ratio (z) = 0.20495 0.50662
#
# Static dielectric constant tensor:
#      x y z
#    x 2.193170 0.009600 0.127790 
#    y 0.009600 1.841600 0.051890 
#    z 0.127790 0.051890 1.933000 
# 
# From -- ./inp_files/83130.got.cif
#   From: 2010.05.17/outbox.cif.g08.bks.cpg/sg2_42_cif.got.tgz:83130.got - 2010.06.03 11:33:40.
