data_PCOD9100534
_publ_section_title
;
Structure prediction by ZEFSAII (Michael W. Deem and Ramdas Pophale) SiO2 
 PCOD9100534
Probable space group: P -1
;
_chemical_formula_sum "Si O2"
_cell_formula_units_Z 16
_cell_length_a 11.812480
_cell_length_b 10.987114
_cell_length_c 14.661993
_cell_angle_alpha 150.034078
_cell_angle_beta 122.871746
_cell_angle_gamma 49.833895
_cell_volume 725.690471
_symmetry_space_group_name_H-M "P -1"
_symmetry_group_IT_number 2
_symmetry_cell_setting 'triclinic'
loop_
_space_group_symop_operation_xyz
x,y,z
-x,-y,-z
loop_
_atom_site_type_symbol
_atom_site_label
_atom_site_fract_x
_atom_site_fract_y
_atom_site_fract_z
Si Si1 0.710790 0.332581 0.514249
Si Si2 0.859145 0.126494 0.621840
Si Si3 0.793233 0.758522 0.619079
Si Si4 0.909464 0.560044 0.353899
Si Si5 0.862378 0.930063 0.176170
Si Si6 0.902023 0.230710 0.969845
Si Si7 0.303941 0.400794 0.032881
Si Si8 0.537079 0.883221 0.725927
O O1 0.842978 0.210187 0.564179
O O2 0.639105 0.651611 0.689643
O O3 0.594411 0.210453 0.412948
O O4 0.758636 0.221303 0.360429
O O5 0.993734 0.161979 0.754573
O O6 0.876204 0.829301 0.457184
O O7 0.712388 0.342854 0.748820
O O8 0.802509 0.631808 0.441263
O O9 0.638003 0.860908 0.668776
O O10 0.925700 0.547707 0.601638
O O11 0.840106 0.005422 0.788606
O O12 0.902457 0.335180 0.138936
O O13 0.772928 0.752627 0.040430
O O14 0.934276 0.892693 0.084052
O O15 0.795131 0.480951 0.023997
O O16 0.462393 0.178013 0.927555
#
# Coordination Sequence:
#
# PCOD9100534 Si02
#       8
#     2   2   2   2   2   2   2   2
#     4  10  22  40  64  92 123 166 209 254 314 371
#     4  11  20  39  64  95 121 161 213 260 311 361
#     4  11  24  43  64  92 128 166 204 261 308 374
#     4  11  23  41  67  95 124 160 213 257 316 364
#     4  10  20  37  64  93 127 155 205 271 307 361
#     4  11  22  42  64  96 124 162 209 261 312 364
#     4  10  22  40  59  93 132 162 207 258 306 376
#     4  10  23  42  60  87 130 169 202 255 310 372
#
# _framework density 22.047968999999998
#
# number of rings (size 3 to 8) (size 9 to 14) (size 15 to 20)
#    0.000    1.500    2.500    4.500    1.750    4.000 
#    2.250    2.500    0.000    0.000    0.000    0.000 
#    0.000    0.000    0.000    0.000    0.000    0.000 
#
# Total GULP energy -89445.374049 kJ/mol
# GULP energy per Si atom -5590.335878 kJ/mol
# Density = 2.199779 g / cm^3
# Si number density = 22.047969 Si / 1000 Ang^3
#
#
#
# Elastic Constant Matrix: (Units=GPa)
#
#
# Indices 1 2 3 4 5 6 
#
# 1 128.2198 4.1535 47.7759 10.1117 -30.7530 0.4478
# 2 4.1535 50.9131 26.9564 13.9710 -8.0864 3.9390
# 3 47.7759 26.9564 113.8239 6.3656 -40.1868 8.2082
# 4 10.1117 13.9710 6.3656 41.0268 -0.5094 -8.7295
# 5 -30.7530 -8.0864 -40.1868 -0.5094 36.5219 5.9338
# 6 0.4478 3.9390 8.2082 -8.7295 5.9338 19.8349
#
#
#
# Elastic Compliance Matrix: (Units=1/GPa)
#
#
# Indices 1 2 3 4 5 6 
#
# 1 0.010704 0.002837 -0.001550 -0.004237 0.008625 -0.004609
# 2 0.002837 0.026264 -0.004412 -0.010964 0.004773 -0.009707
# 3 -0.001550 -0.004412 0.019426 -0.004137 0.021536 -0.015391
# 4 -0.004237 -0.010964 -0.004137 0.034591 -0.013860 0.023355
# 5 0.008625 0.004773 0.021536 -0.013860 0.064987 -0.035596
# 6 -0.004609 -0.009707 -0.015391 0.023355 -0.035596 0.079744
#
#
# Mechanical properties :
#
#
# Convention : Reuss Voigt Hill
#
# Bulk Modulus (GPa) = 19.94341 50.08092 35.01217
# Shear Modulus (GPa) = 19.32878 33.74814 26.53846
#
# Velocity S-wave (km/s) = 2.96407 3.91662 3.47316
# Velocity P-wave (km/s) = 4.55844 6.57397 5.65670
#
# Compressibility (1/GPa) = 0.05014187
#
# Stress axis : x y z
#
# Youngs Moduli (GPa) = 93.42562 38.07524 51.47803
#
# Poissons Ratio (x) = -0.10800 0.07979
# Poissons Ratio (y) = -0.26501 0.22714
# Poissons Ratio (z) = 0.14481 0.16800
#
# Static dielectric constant tensor:
#      x y z
#    x 1.826520 0.001470 -0.041910 
#    y 0.001470 1.834750 0.024510 
#    z -0.041910 0.024510 1.833050 
# 
# From -- ./inp_files/519396.got.cif
#   From: 2010.05.17/outbox.cif.g08.bks.cpg/sg2_260_cif.got.tgz:519396.got - 2010.06.03 11:33:40.
