data_PCOD9100253
_publ_section_title
;
Structure prediction by ZEFSAII (Michael W. Deem and Ramdas Pophale) SiO2 
 PCOD9100253
Probable space group: P -1
;
_chemical_formula_sum "Si O2"
_cell_formula_units_Z 14
_cell_length_a 11.888167
_cell_length_b 17.943980
_cell_length_c 7.592750
_cell_angle_alpha 89.478414
_cell_angle_beta 107.370439
_cell_angle_gamma 151.762657
_cell_volume 604.781339
_symmetry_space_group_name_H-M "P -1"
_symmetry_group_IT_number 2
_symmetry_cell_setting 'triclinic'
loop_
_space_group_symop_operation_xyz
x,y,z
-x,-y,-z
loop_
_atom_site_type_symbol
_atom_site_label
_atom_site_fract_x
_atom_site_fract_y
_atom_site_fract_z
Si Si1 0.705827 0.463807 0.863691
Si Si2 0.101842 0.680532 0.472904
Si Si3 0.672292 0.677939 0.601101
Si Si4 0.672970 0.982011 0.161186
Si Si5 0.071696 0.565851 0.814784
Si Si6 0.670087 0.089312 0.821961
Si Si7 0.533428 0.437980 0.109559
O O1 0.520113 0.378336 0.606046
O O2 0.870100 0.484364 0.876596
O O3 0.495002 0.355048 0.937140
O O4 0.987161 0.682986 0.040377
O O5 0.053740 0.616295 0.643978
O O6 0.033005 0.573515 0.308964
O O7 0.862881 0.608695 0.341436
O O8 0.443350 0.907586 0.602790
O O9 0.500000 0.500000 0.500000
O O10 0.678961 0.694789 0.815124
O O11 0.000423 0.861271 0.665831
O O12 0.524843 0.949649 0.236171
O O13 0.427290 0.776259 0.013337
O O14 0.696764 0.052732 0.007133
O O15 0.500000 0.500000 0.000000
#
# Coordination Sequence:
#
# PCOD9100253 Si02
#       7
#     2   2   2   2   2   2   2
#     4  11  22  38  63  92 124 159 202 253 305 362
#     4  10  20  37  63  90 122 159 208 249 302 364
#     4  12  20  37  61  88 130 160 194 256 310 354
#     4   9  17  31  61  88 116 160 204 247 302 359
#     4   9  20  40  64  88 120 164 206 248 304 361
#     4   9  17  33  60  92 116 154 209 253 297 353
#     4  12  24  35  60  96 124 160 204 246 311 367
#
# _framework density 23.148862999999999
#
# number of rings (size 3 to 8) (size 9 to 14) (size 15 to 20)
#    0.000    1.714    4.286    1.714    0.000    1.143 
#    0.000    0.714    3.143    0.857    0.000    0.000 
#    0.000    0.000    0.000    0.000    0.000    0.000 
#
# Total GULP energy -78140.034809 kJ/mol
# GULP energy per Si atom -5581.431058 kJ/mol
# Density = 2.309617 g / cm^3
# Si number density = 23.148863 Si / 1000 Ang^3
#
#
#
# Elastic Constant Matrix: (Units=GPa)
#
#
# Indices 1 2 3 4 5 6 
#
# 1 124.1096 25.6519 51.1797 5.9361 10.3874 4.1048
# 2 25.6519 81.3723 40.8251 -5.8492 -2.9785 7.6656
# 3 51.1797 40.8251 93.1790 23.6550 16.6878 1.3977
# 4 5.9361 -5.8492 23.6550 39.0228 2.6137 -4.5146
# 5 10.3874 -2.9785 16.6878 2.6137 52.9797 -5.3789
# 6 4.1048 7.6656 1.3977 -4.5146 -5.3789 36.7263
#
#
#
# Elastic Compliance Matrix: (Units=1/GPa)
#
#
# Indices 1 2 3 4 5 6 
#
# 1 0.010603 0.000054 -0.006342 0.002173 -0.000259 -0.000726
# 2 0.000054 0.018961 -0.011375 0.009252 0.003998 -0.001808
# 3 -0.006342 -0.011375 0.024157 -0.015031 -0.006326 -0.000610
# 4 0.002173 0.009252 -0.015031 0.035950 0.003391 0.003314
# 5 -0.000259 0.003998 -0.006326 0.003391 0.021277 0.002968
# 6 -0.000726 -0.001808 -0.000610 0.003314 0.002968 0.028552
#
#
# Mechanical properties :
#
#
# Convention : Reuss Voigt Hill
#
# Bulk Modulus (GPa) = 54.36080 59.33047 56.84563
# Shear Modulus (GPa) = 27.63065 37.81270 32.72167
#
# Velocity S-wave (km/s) = 3.45861 4.04599 3.76378
# Velocity P-wave (km/s) = 6.28358 6.89292 6.59529
#
# Compressibility (1/GPa) = 0.01839561
#
# Stress axis : x y z
#
# Youngs Moduli (GPa) = 94.31056 52.74067 41.39529
#
# Poissons Ratio (x) = -0.00287 0.26254
# Poissons Ratio (y) = -0.00514 0.47087
# Poissons Ratio (z) = 0.59814 0.59993
#
# Static dielectric constant tensor:
#      x y z
#    x 1.886420 0.013190 0.015400 
#    y 0.013190 1.956700 -0.089880 
#    z 0.015400 -0.089880 1.957260 
# 
# From -- ./inp_files/277934.got.cif
#   From: 2010.05.17/outbox.cif.g08.bks.cpg/sg2_139_cif.got.tgz:277934.got - 2010.06.03 11:33:40.
