data_PCOD9100071
_publ_section_title
;
Structure prediction by ZEFSAII (Michael W. Deem and Ramdas Pophale) SiO2 
 PCOD9100071
Probable space group: P -1
;
_chemical_formula_sum "Si O2"
_cell_formula_units_Z 14
_cell_length_a 9.640791
_cell_length_b 11.948843
_cell_length_c 10.757773
_cell_angle_alpha 63.985515
_cell_angle_beta 119.062913
_cell_angle_gamma 140.796105
_cell_volume 680.332747
_symmetry_space_group_name_H-M "P -1"
_symmetry_group_IT_number 2
_symmetry_cell_setting 'triclinic'
loop_
_space_group_symop_operation_xyz
x,y,z
-x,-y,-z
loop_
_atom_site_type_symbol
_atom_site_label
_atom_site_fract_x
_atom_site_fract_y
_atom_site_fract_z
Si Si1 0.335824 0.868019 0.883778
Si Si2 0.273286 0.172812 0.274663
Si Si3 0.071021 0.306718 0.052817
Si Si4 0.873922 0.296800 0.562679
Si Si5 0.523243 0.313249 0.076284
Si Si6 0.060653 0.188624 0.852377
Si Si7 0.372156 0.021330 0.582990
O O1 0.438766 0.806554 0.890176
O O2 0.097609 0.712087 0.924899
O O3 0.316208 0.968538 0.727259
O O4 0.500000 0.000000 0.000000
O O5 0.184889 0.262339 0.206292
O O6 0.492898 0.299552 0.218703
O O7 0.303250 0.110784 0.442119
O O8 0.097389 0.998226 0.196125
O O9 0.261801 0.494050 0.977319
O O10 0.961176 0.174864 0.949762
O O11 0.645214 0.170307 0.609775
O O12 0.000000 0.500000 0.500000
O O13 0.049700 0.301722 0.702962
O O14 0.765651 0.166471 0.457969
O O15 0.303702 0.262181 0.949734
#
# Coordination Sequence:
#
# PCOD9100071 Si02
#       7
#     2   2   2   2   2   2   2
#     4  12  24  43  61  84 128 169 204 244 313 382
#     4  10  20  40  65  88 122 156 209 259 302 360
#     4  11  23  36  62  91 124 165 197 253 306 366
#     4  10  21  36  65  93 126 155 206 263 309 358
#     4  11  22  37  62  91 123 154 209 260 298 361
#     4  10  20  37  62  93 114 161 207 251 308 356
#     4  10  23  40  60  94 125 163 205 258 311 366
#
# _framework density 20.578164999999998
#
# number of rings (size 3 to 8) (size 9 to 14) (size 15 to 20)
#    0.000    1.429    0.000    9.000    6.000    0.571 
#    2.571    0.000    0.000    2.571    0.000    0.000 
#    0.000    0.000    0.000    0.000    0.000    0.000 
#
# Total GULP energy -78168.605454 kJ/mol
# GULP energy per Si atom -5583.471818 kJ/mol
# Density = 2.053133 g / cm^3
# Si number density = 20.578165 Si / 1000 Ang^3
#
#
#
# Elastic Constant Matrix: (Units=GPa)
#
#
# Indices 1 2 3 4 5 6 
#
# 1 70.1290 13.2827 25.6395 -1.9367 6.9328 14.4027
# 2 13.2827 98.6393 44.6550 -23.2938 6.0821 13.9143
# 3 25.6395 44.6550 144.8144 -17.7311 4.3073 2.0902
# 4 -1.9367 -23.2938 -17.7311 30.1664 -4.7010 2.1801
# 5 6.9328 6.0821 4.3073 -4.7010 28.6788 -12.1587
# 6 14.4027 13.9143 2.0902 2.1801 -12.1587 24.7726
#
#
#
# Elastic Compliance Matrix: (Units=1/GPa)
#
#
# Indices 1 2 3 4 5 6 
#
# 1 0.020435 0.002603 -0.003685 0.000521 -0.013130 -0.019522
# 2 0.002603 0.016806 -0.003853 0.010687 -0.008545 -0.015762
# 3 -0.003685 -0.003853 0.008851 0.002074 0.002715 0.004710
# 4 0.000521 0.010687 0.002074 0.043405 0.000056 -0.010273
# 5 -0.013130 -0.008545 0.002715 0.000056 0.056355 0.039859
# 6 -0.019522 -0.015762 0.004710 -0.010273 0.039859 0.080640
#
#
# Mechanical properties :
#
#
# Convention : Reuss Voigt Hill
#
# Bulk Modulus (GPa) = 27.60726 53.41523 40.51124
# Shear Modulus (GPa) = 20.12589 32.05726 26.09158
#
# Velocity S-wave (km/s) = 3.13073 3.95122 3.56466
# Velocity P-wave (km/s) = 5.14913 6.84323 6.05571
#
# Compressibility (1/GPa) = 0.03622235
#
# Stress axis : x y z
#
# Youngs Moduli (GPa) = 48.93511 59.50327 112.98214
#
# Poissons Ratio (x) = -0.15486 0.41629
# Poissons Ratio (y) = -0.12736 0.43530
# Poissons Ratio (z) = 0.18030 0.22926
#
# Static dielectric constant tensor:
#      x y z
#    x 1.733080 0.001640 0.026160 
#    y 0.001640 1.794370 -0.006150 
#    z 0.026160 -0.006150 1.750240 
# 
# From -- ./inp_files/389546.got.cif
#   From: 2010.05.17/outbox.cif.g08.bks.cpg/sg2_195_cif.got.tgz:389546.got - 2010.06.03 11:33:40.
