data_PCOD9100038
_publ_section_title
;
Structure prediction by ZEFSAII (Michael W. Deem and Ramdas Pophale) SiO2 
 PCOD9100038
Probable space group: P -1
;
_chemical_formula_sum "Si O2"
_cell_formula_units_Z 13
_cell_length_a 14.706350
_cell_length_b 14.255189
_cell_length_c 10.223696
_cell_angle_alpha 149.985628
_cell_angle_beta 30.800099
_cell_angle_gamma 152.904838
_cell_volume 450.342409
_symmetry_space_group_name_H-M "P -1"
_symmetry_group_IT_number 2
_symmetry_cell_setting 'triclinic'
loop_
_space_group_symop_operation_xyz
x,y,z
-x,-y,-z
loop_
_atom_site_type_symbol
_atom_site_label
_atom_site_fract_x
_atom_site_fract_y
_atom_site_fract_z
Si Si1 0.167014 0.768189 0.098541
Si Si2 0.517679 0.596958 0.256036
Si Si3 0.000000 0.500000 0.500000
Si Si4 0.122307 0.260376 0.197859
Si Si5 0.358407 0.873025 0.693359
Si Si6 0.619511 0.305623 0.020082
Si Si7 0.254298 0.223123 0.546911
O O1 0.260675 0.812250 0.889045
O O2 0.321432 0.810798 0.082697
O O3 0.000000 0.500000 0.000000
O O4 0.097728 0.946590 0.416372
O O5 0.287365 0.359244 0.233541
O O6 0.499435 0.767371 0.391210
O O7 0.579708 0.702416 0.447550
O O8 0.723154 0.603741 0.956491
O O9 0.018796 0.638943 0.507862
O O10 0.827277 0.252550 0.336743
O O11 0.000000 0.000000 0.000000
O O12 0.524833 0.146964 0.817257
O O13 0.399515 0.276780 0.306059
O O14 0.789986 0.582068 0.145311
#
# Coordination Sequence:
#
# PCOD9100038 Si02
#       7
#     2   2   1   2   2   2   2
#     4  11  22  38  63  95 131 169 210 270 323 384
#     4  10  20  42  65  91 130 171 214 272 320 396
#     4  10  24  42  64  98 124 164 220 276 308 396
#     4  10  24  43  63  91 129 172 219 266 330 380
#     4  10  20  43  66  92 134 168 221 262 329 387
#     4  10  20  38  64  91 125 170 205 260 319 388
#     4  10  20  37  62  91 121 164 214 252 324 382
#
# _framework density 28.866921999999999
#
# number of rings (size 3 to 8) (size 9 to 14) (size 15 to 20)
#    0.000    1.846    3.077    0.923    2.154    4.308 
#    2.769    2.308    0.000    0.000    0.000    0.000 
#    0.000    0.000    0.000    0.000    0.000    0.000 
#
# Total GULP energy -72440.816762 kJ/mol
# GULP energy per Si atom -5572.370520 kJ/mol
# Density = 2.880122 g / cm^3
# Si number density = 28.866922 Si / 1000 Ang^3
#
#
#
# Elastic Constant Matrix: (Units=GPa)
#
#
# Indices 1 2 3 4 5 6 
#
# 1 130.4198 30.2224 27.7770 10.6967 1.7428 1.6485
# 2 30.2224 144.9292 60.9109 48.1154 14.7739 11.5541
# 3 27.7770 60.9109 120.7871 68.9878 14.5643 -0.0778
# 4 10.6967 48.1154 68.9878 67.7172 0.6999 4.4133
# 5 1.7428 14.7739 14.5643 0.6999 54.8161 16.4300
# 6 1.6485 11.5541 -0.0778 4.4133 16.4300 41.1660
#
#
#
# Elastic Compliance Matrix: (Units=1/GPa)
#
#
# Indices 1 2 3 4 5 6 
#
# 1 0.008389 -0.001500 -0.002788 0.002610 0.001028 -0.000610
# 2 -0.001500 0.009827 -0.001479 -0.005124 -0.001701 -0.001473
# 3 -0.002788 -0.001479 0.023610 -0.022873 -0.007270 0.005925
# 4 0.002610 -0.005124 -0.022873 0.041644 0.008854 -0.006708
# 5 0.001028 -0.001701 -0.007270 0.008854 0.023450 -0.009886
# 6 -0.000610 -0.001473 0.005925 -0.006708 -0.009886 0.029406
#
#
# Mechanical properties :
#
#
# Convention : Reuss Voigt Hill
#
# Bulk Modulus (GPa) = 33.01277 70.43964 51.72621
# Shear Modulus (GPa) = 31.65406 51.22157 41.43781
#
# Velocity S-wave (km/s) = 3.31501 4.21694 3.79288
# Velocity P-wave (km/s) = 5.11013 6.94007 6.09418
#
# Compressibility (1/GPa) = 0.03029131
#
# Stress axis : x y z
#
# Youngs Moduli (GPa) = 119.20588 101.76439 42.35406
#
# Poissons Ratio (x) = 0.15269 0.11806
# Poissons Ratio (y) = 0.17886 0.06266
# Poissons Ratio (z) = 0.33229 0.15055
#
# Static dielectric constant tensor:
#      x y z
#    x 2.375800 0.196860 -0.304300 
#    y 0.196860 2.535980 -0.301650 
#    z -0.304300 -0.301650 2.696750 
# 
# From -- ./inp_files/450763.got.cif
#   From: 2010.05.17/outbox.cif.g08.bks.cpg/sg2_226_cif.got.tgz:450763.got - 2010.06.03 11:33:40.
