data_PCOD9100662
_publ_section_title
;
Structure prediction by ZEFSAII (Michael W. Deem and Ramdas Pophale) SiO2 
 PCOD9100662
Probable space group: P -1
;
_chemical_formula_sum "Si O2"
_cell_formula_units_Z 14
_cell_length_a 15.570127
_cell_length_b 8.916304
_cell_length_c 8.447397
_cell_angle_alpha 43.608407
_cell_angle_beta 95.257266
_cell_angle_gamma 123.822606
_cell_volume 564.078025
_symmetry_space_group_name_H-M "P -1"
_symmetry_group_IT_number 2
_symmetry_cell_setting 'triclinic'
loop_
_space_group_symop_operation_xyz
x,y,z
-x,-y,-z
loop_
_atom_site_type_symbol
_atom_site_label
_atom_site_fract_x
_atom_site_fract_y
_atom_site_fract_z
Si Si1 0.469399 0.234798 0.361274
Si Si2 0.728555 0.771095 0.632333
Si Si3 0.303340 0.589675 0.682744
Si Si4 0.605047 0.094992 0.055381
Si Si5 0.893906 0.759472 0.813482
Si Si6 0.177891 0.778941 0.992636
Si Si7 0.095059 0.062944 0.847256
O O1 0.393712 0.319357 0.266838
O O2 0.616584 0.474293 0.198013
O O3 0.404873 0.961570 0.429429
O O4 0.441020 0.094816 0.642750
O O5 0.846703 0.919229 0.644792
O O6 0.775317 0.984137 0.324691
O O7 0.683595 0.447591 0.839608
O O8 0.229462 0.399826 0.656432
O O9 0.200563 0.472501 0.882964
O O10 0.699405 0.090233 0.001215
O O11 0.500000 0.000000 0.000000
O O12 0.884761 0.540576 0.857540
O O13 0.032797 0.008325 0.711962
O O14 0.100753 0.811470 0.056360
O O15 0.000000 0.000000 0.000000
#
# Coordination Sequence:
#
# PCOD9100662 Si02
#       7
#     2   2   2   2   2   2   2
#     4  10  21  39  62  87 129 163 194 257 305 362
#     4  10  20  37  65  89 120 159 208 245 310 361
#     4  10  20  40  60  90 126 165 201 246 310 359
#     4  10  22  37  61  97 123 155 210 250 300 375
#     4  10  20  43  62  90 119 164 210 246 299 368
#     4  10  21  40  66  88 121 162 200 257 308 349
#     4  10  23  39  66  87 124 163 204 255 304 357
#
# _framework density 24.819258999999999
#
# number of rings (size 3 to 8) (size 9 to 14) (size 15 to 20)
#    0.000    2.000    4.286    0.429    4.000    2.286 
#    0.000    0.714    0.000    0.000    0.000    0.000 
#    0.000    0.000    0.000    0.000    0.000    0.000 
#
# Total GULP energy -78145.202530 kJ/mol
# GULP energy per Si atom -5581.800181 kJ/mol
# Density = 2.476277 g / cm^3
# Si number density = 24.819259 Si / 1000 Ang^3
#
#
#
# Elastic Constant Matrix: (Units=GPa)
#
#
# Indices 1 2 3 4 5 6 
#
# 1 242.8216 71.8557 19.1092 -3.7383 28.2606 8.6532
# 2 71.8557 102.7551 3.6519 -10.2673 8.5048 26.2398
# 3 19.1092 3.6519 51.9518 5.5219 12.3570 4.1977
# 4 -3.7383 -10.2673 5.5219 10.0748 8.2650 -0.0146
# 5 28.2606 8.5048 12.3570 8.2650 43.0199 4.4882
# 6 8.6532 26.2398 4.1977 -0.0146 4.4882 59.6719
#
#
#
# Elastic Compliance Matrix: (Units=1/GPa)
#
#
# Indices 1 2 3 4 5 6 
#
# 1 0.005689 -0.003850 -0.001356 0.001372 -0.002974 0.001188
# 2 -0.003850 0.016092 -0.000315 0.017880 -0.003346 -0.006240
# 3 -0.001356 -0.000315 0.021687 -0.010049 -0.003246 -0.000948
# 4 0.001372 0.017880 -0.010049 0.147584 -0.029370 -0.005109
# 5 -0.002974 -0.003346 -0.003246 -0.029370 0.032469 -0.000318
# 6 0.001188 -0.006240 -0.000948 -0.005109 -0.000318 0.019419
#
#
# Mechanical properties :
#
#
# Convention : Reuss Voigt Hill
#
# Bulk Modulus (GPa) = 30.84128 65.19581 48.01854
# Shear Modulus (GPa) = 18.88274 42.74741 30.81508
#
# Velocity S-wave (km/s) = 2.76127 4.15462 3.52743
# Velocity P-wave (km/s) = 4.75599 7.02423 5.99830
#
# Compressibility (1/GPa) = 0.03242408
#
# Stress axis : x y z
#
# Youngs Moduli (GPa) = 175.76823 62.14121 46.11137
#
# Poissons Ratio (x) = 0.23926 0.06255
# Poissons Ratio (y) = 0.67675 0.01455
# Poissons Ratio (z) = 0.23842 0.01960
#
# Static dielectric constant tensor:
#      x y z
#    x 2.144810 0.105500 -0.056990 
#    y 0.105500 2.166820 0.054430 
#    z -0.056990 0.054430 2.009410 
# 
# From -- ./inp_files/297310.got.cif
#   From: 2010.05.17/outbox.cif.g08.bks.cpg/sg2_149_cif.got.tgz:297310.got - 2010.06.03 11:33:40.
