data_PCOD9100795
_publ_section_title
;
Structure prediction by ZEFSAII (Michael W. Deem and Ramdas Pophale) SiO2 
 PCOD9100795
Probable space group: P -1
;
_chemical_formula_sum "Si O2"
_cell_formula_units_Z 16
_cell_length_a 15.262174
_cell_length_b 11.922463
_cell_length_c 7.345012
_cell_angle_alpha 88.024657
_cell_angle_beta 82.572060
_cell_angle_gamma 29.166863
_cell_volume 637.332411
_symmetry_space_group_name_H-M "P -1"
_symmetry_group_IT_number 2
_symmetry_cell_setting 'triclinic'
loop_
_space_group_symop_operation_xyz
x,y,z
-x,-y,-z
loop_
_atom_site_type_symbol
_atom_site_label
_atom_site_fract_x
_atom_site_fract_y
_atom_site_fract_z
Si Si1 0.851140 0.944941 0.460705
Si Si2 0.938702 0.717217 0.824514
Si Si3 0.143630 0.875955 0.810553
Si Si4 0.361197 0.245515 0.813050
Si Si5 0.612839 0.206820 0.067420
Si Si6 0.563159 0.802747 0.776883
Si Si7 0.463890 0.367283 0.694470
Si Si8 0.054269 0.521437 0.322558
O O1 0.918316 0.815895 0.640736
O O2 0.896344 0.788995 0.325667
O O3 0.940435 0.953042 0.337533
O O4 0.639237 0.212752 0.542116
O O5 0.144495 0.502794 0.848318
O O6 0.902893 0.622943 0.826301
O O7 0.781906 0.940448 0.979037
O O8 0.262424 0.643029 0.705375
O O9 0.295540 0.787631 0.868337
O O10 0.000000 0.000000 0.000000
O O11 0.457389 0.239780 0.680176
O O12 0.422252 0.055676 0.738176
O O13 0.422471 0.196753 0.007406
O O14 0.508523 0.343521 0.897326
O O15 0.487802 0.269790 0.228668
O O16 0.763673 0.613484 0.666756
O O17 0.000000 0.500000 0.500000
#
# Coordination Sequence:
#
# PCOD9100795 Si02
#       8
#     2   2   2   2   2   2   2   2
#     4  10  24  44  64  93 133 180 217 267 333 391
#     4  10  21  40  66  98 139 172 213 268 333 402
#     4  12  26  44  71  99 127 171 231 280 323 383
#     4  10  20  37  66 100 129 172 215 267 331 390
#     4  10  23  41  67 100 128 171 220 274 335 388
#     4  10  21  36  64  99 134 168 213 272 330 391
#     4  10  22  47  66  90 140 172 216 275 328 391
#     4  10  21  40  62  94 140 173 209 265 325 403
#
# _framework density 25.104637
#
# number of rings (size 3 to 8) (size 9 to 14) (size 15 to 20)
#    0.000    1.750    0.000    5.250    7.000    1.000 
#    4.500    8.750    0.000    0.000    0.000    0.000 
#    0.000    0.000    0.000    0.000    0.000    0.000 
#
# Total GULP energy -89486.618318 kJ/mol
# GULP energy per Si atom -5592.913645 kJ/mol
# Density = 2.504750 g / cm^3
# Si number density = 25.104637 Si / 1000 Ang^3
#
#
#
# Elastic Constant Matrix: (Units=GPa)
#
#
# Indices 1 2 3 4 5 6 
#
# 1 106.6062 20.6072 22.3334 -4.8074 -32.9873 2.2969
# 2 20.6072 114.4754 43.1799 3.2951 -6.0762 19.8774
# 3 22.3334 43.1799 98.0817 -10.7560 -43.6821 14.9103
# 4 -4.8074 3.2951 -10.7560 40.7742 -7.5264 3.9936
# 5 -32.9873 -6.0762 -43.6821 -7.5264 47.0846 4.9753
# 6 2.2969 19.8774 14.9103 3.9936 4.9753 37.2322
#
#
#
# Elastic Compliance Matrix: (Units=1/GPa)
#
#
# Indices 1 2 3 4 5 6 
#
# 1 0.015628 -0.004756 0.010690 0.009873 0.022547 -0.006778
# 2 -0.004756 0.013479 -0.011945 -0.007423 -0.013918 0.000537
# 3 0.010690 -0.011945 0.040912 0.024175 0.049873 -0.019924
# 4 0.009873 -0.007423 0.024175 0.040948 0.036582 -0.015608
# 5 0.022547 -0.013918 0.049873 0.036582 0.090520 -0.029953
# 6 -0.006778 0.000537 -0.019924 -0.015608 -0.029953 0.040645
#
#
# Mechanical properties :
#
#
# Convention : Reuss Voigt Hill
#
# Bulk Modulus (GPa) = 17.24250 54.60049 35.92150
# Shear Modulus (GPa) = 18.28235 40.55441 29.41838
#
# Velocity S-wave (km/s) = 2.70153 4.02358 3.42691
# Velocity P-wave (km/s) = 4.07605 6.58650 5.47705
#
# Compressibility (1/GPa) = 0.05799622
#
# Stress axis : x y z
#
# Youngs Moduli (GPa) = 63.98689 74.18877 24.44272
#
# Poissons Ratio (x) = 0.35285 -0.26129
# Poissons Ratio (y) = 0.30432 0.29198
# Poissons Ratio (z) = -0.68402 0.88622
#
# Static dielectric constant tensor:
#      x y z
#    x 2.025390 -0.008320 0.049880 
#    y -0.008320 1.975130 -0.034650 
#    z 0.049880 -0.034650 2.097440 
# 
# From -- ./inp_files/307290.got.cif
#   From: 2010.05.17/outbox.cif.g08.bks.cpg/sg2_154_cif.got.tgz:307290.got - 2010.06.03 11:33:40.
