data_PCOD9100092
_publ_section_title
;
Structure prediction by ZEFSAII (Michael W. Deem and Ramdas Pophale) SiO2 
 PCOD9100092
Probable space group: P -1
;
_chemical_formula_sum "Si O2"
_cell_formula_units_Z 16
_cell_length_a 22.499596
_cell_length_b 10.256904
_cell_length_c 16.962129
_cell_angle_alpha 148.509717
_cell_angle_beta 20.251542
_cell_angle_gamma 147.531680
_cell_volume 686.810612
_symmetry_space_group_name_H-M "P -1"
_symmetry_group_IT_number 2
_symmetry_cell_setting 'triclinic'
loop_
_space_group_symop_operation_xyz
x,y,z
-x,-y,-z
loop_
_atom_site_type_symbol
_atom_site_label
_atom_site_fract_x
_atom_site_fract_y
_atom_site_fract_z
Si Si1 0.457335 0.541290 0.982180
Si Si2 0.426047 0.816977 0.574374
Si Si3 0.003843 0.394152 0.153445
Si Si4 0.858277 0.239426 0.508871
Si Si5 0.724802 0.655116 0.570335
Si Si6 0.033806 0.856863 0.462628
Si Si7 0.765976 0.968620 0.323950
Si Si8 0.843047 0.954556 0.901535
O O1 0.338895 0.744167 0.214610
O O2 0.319713 0.280707 0.991406
O O3 0.500000 0.500000 0.000000
O O4 0.632939 0.603136 0.743607
O O5 0.407084 0.526586 0.418493
O O6 0.500000 0.000000 0.500000
O O7 0.563561 0.902424 0.517862
O O8 0.237042 0.820176 0.850150
O O9 0.902315 0.544930 0.298713
O O10 0.866129 0.122165 0.203093
O O11 0.046480 0.579963 0.273257
O O12 0.174134 0.292461 0.866666
O O13 0.823094 0.176578 0.428507
O O14 0.000000 0.500000 0.500000
O O15 0.966309 0.032496 0.291789
O O16 0.785438 0.957517 0.633900
O O17 0.881470 0.880033 0.725699
O O18 0.000000 0.000000 0.500000
#
# Coordination Sequence:
#
# PCOD9100092 Si02
#       8
#     2   2   2   2   2   2   2   2
#     4  11  20  36  63  95 129 167 221 273 324 383
#     4  12  23  40  63  99 133 168 222 273 329 385
#     4  10  20  37  62  93 131 168 222 264 332 384
#     4  10  22  36  60  98 130 165 214 274 332 382
#     4  11  22  40  64  94 132 177 216 272 331 395
#     4  10  23  42  66  95 131 179 221 267 332 403
#     4  11  22  36  65  97 130 170 216 280 330 380
#     4  11  22  39  64  91 132 167 223 274 322 390
#
# _framework density 23.296088000000001
#
# number of rings (size 3 to 8) (size 9 to 14) (size 15 to 20)
#    0.000    1.250    2.500    5.250    1.750    1.500 
#    0.000    2.500    0.000    4.500    0.000    0.000 
#    0.000    0.000    0.000    0.000    0.000    0.000 
#
# Total GULP energy -89093.535814 kJ/mol
# GULP energy per Si atom -5568.345988 kJ/mol
# Density = 2.324306 g / cm^3
# Si number density = 23.296088 Si / 1000 Ang^3
#
#
#
# Elastic Constant Matrix: (Units=GPa)
#
#
# Indices 1 2 3 4 5 6 
#
# 1 85.3720 10.4469 30.9562 0.8447 -8.0262 30.0751
# 2 10.4469 87.5483 14.5306 5.2709 7.3424 24.9306
# 3 30.9562 14.5306 108.7388 8.0825 -3.6649 1.5817
# 4 0.8447 5.2709 8.0825 25.4886 2.7381 4.4184
# 5 -8.0262 7.3424 -3.6649 2.7381 39.9231 2.4361
# 6 30.0751 24.9306 1.5817 4.4184 2.4361 28.4910
#
#
#
# Elastic Compliance Matrix: (Units=1/GPa)
#
#
# Indices 1 2 3 4 5 6 
#
# 1 0.026940 0.007667 -0.008439 0.005903 0.005024 -0.036023
# 2 0.007667 0.017973 -0.004388 0.001628 -0.000829 -0.023758
# 3 -0.008439 -0.004388 0.012359 -0.004937 -0.000200 0.012845
# 4 0.005903 0.001628 -0.004937 0.042851 -0.001658 -0.013885
# 5 0.005024 -0.000829 -0.000200 -0.001658 0.026708 -0.006594
# 6 -0.036023 -0.023758 0.012845 -0.013885 -0.006594 0.095918
#
#
# Mechanical properties :
#
#
# Convention : Reuss Voigt Hill
#
# Bulk Modulus (GPa) = 21.29865 43.72517 32.51191
# Shear Modulus (GPa) = 20.10309 33.82891 26.96600
#
# Velocity S-wave (km/s) = 2.94077 3.81481 3.40595
# Velocity P-wave (km/s) = 4.54898 6.18173 5.42711
#
# Compressibility (1/GPa) = 0.04695133
#
# Stress axis : x y z
#
# Youngs Moduli (GPa) = 37.12019 55.64033 80.91549
#
# Poissons Ratio (x) = -0.42661 0.68286
# Poissons Ratio (y) = -0.28461 0.35504
# Poissons Ratio (z) = 0.31327 0.24414
#
# Static dielectric constant tensor:
#      x y z
#    x 1.965360 0.021690 0.024490 
#    y 0.021690 1.937290 0.064170 
#    z 0.024490 0.064170 1.973870 
# 
# From -- ./inp_files/579256.got.cif
#   From: 2010.05.17/outbox.cif.g08.bks.cpg/sg2_290_cif.got.tgz:579256.got - 2010.06.03 11:33:40.
