data_PCOD9100465
_publ_section_title
;
Structure prediction by ZEFSAII (Michael W. Deem and Ramdas Pophale) SiO2 
 PCOD9100465
Probable space group: P -1
;
_chemical_formula_sum "Si O2"
_cell_formula_units_Z 16
_cell_length_a 12.362432
_cell_length_b 18.268112
_cell_length_c 11.594433
_cell_angle_alpha 124.117017
_cell_angle_beta 33.445993
_cell_angle_gamma 142.670217
_cell_volume 832.884448
_symmetry_space_group_name_H-M "P -1"
_symmetry_group_IT_number 2
_symmetry_cell_setting 'triclinic'
loop_
_space_group_symop_operation_xyz
x,y,z
-x,-y,-z
loop_
_atom_site_type_symbol
_atom_site_label
_atom_site_fract_x
_atom_site_fract_y
_atom_site_fract_z
Si Si1 0.571847 0.101068 0.113102
Si Si2 0.535408 0.415636 0.950313
Si Si3 0.427350 0.262029 0.717346
Si Si4 0.476653 0.084554 0.445444
Si Si5 0.029989 0.857825 0.808649
Si Si6 0.422184 0.697354 0.757590
Si Si7 0.798087 0.496677 0.032296
Si Si8 0.755229 0.678792 0.279675
O O1 0.454059 0.050373 0.302087
O O2 0.483199 0.170212 0.209487
O O3 0.908652 0.210391 0.921931
O O4 0.500000 0.000000 0.000000
O O5 0.621161 0.371826 0.737558
O O6 0.500000 0.500000 0.000000
O O7 0.738081 0.480381 0.935999
O O8 0.217896 0.282164 0.149377
O O9 0.525515 0.205314 0.518580
O O10 0.351992 0.311429 0.734241
O O11 0.148369 0.148116 0.940336
O O12 0.740284 0.124101 0.309109
O O13 0.200450 0.966599 0.657885
O O14 0.350887 0.634389 0.890220
O O15 0.635237 0.700320 0.507285
O O16 0.127415 0.598045 0.860927
O O17 0.679725 0.550731 0.237460
#
# Coordination Sequence:
#
# PCOD9100465 Si02
#       8
#     2   2   2   2   2   2   2   2
#     4  11  24  40  60  89 122 157 210 258 296 363
#     4  10  20  38  61  93 126 149 194 260 301 357
#     4  10  20  37  64  90 116 165 194 248 309 365
#     4  11  20  42  62  84 124 164 204 243 312 368
#     4   9  22  38  61  90 121 160 198 256 303 357
#     4  10  23  41  64  86 118 172 200 248 318 358
#     4  10  21  42  61  90 125 154 208 254 298 378
#     4  11  20  40  65  84 123 161 203 249 312 366
#
# _framework density 19.210349000000001
#
# number of rings (size 3 to 8) (size 9 to 14) (size 15 to 20)
#    0.750    1.000    3.750    0.750    1.750    1.500 
#    9.000    1.250    0.000    0.000    0.000    0.000 
#    0.000    0.000    0.000    0.000    0.000    0.000 
#
# Total GULP energy -89215.679816 kJ/mol
# GULP energy per Si atom -5575.979988 kJ/mol
# Density = 1.916662 g / cm^3
# Si number density = 19.210349 Si / 1000 Ang^3
#
#
#
# Elastic Constant Matrix: (Units=GPa)
#
#
# Indices 1 2 3 4 5 6 
#
# 1 84.2025 15.4425 2.8004 8.1193 -0.5982 -10.1538
# 2 15.4425 51.9534 0.6207 13.6643 -5.8910 -12.2151
# 3 2.8004 0.6207 56.9804 13.7082 5.1840 -8.4210
# 4 8.1193 13.6643 13.7082 27.7237 -4.8112 5.2408
# 5 -0.5982 -5.8910 5.1840 -4.8112 13.4752 3.3918
# 6 -10.1538 -12.2151 -8.4210 5.2408 3.3918 25.8811
#
#
#
# Elastic Compliance Matrix: (Units=1/GPa)
#
#
# Indices 1 2 3 4 5 6 
#
# 1 0.013593 -0.000833 0.002844 -0.007475 -0.005565 0.008108
# 2 -0.000833 0.030740 0.009501 -0.024786 -0.004875 0.022931
# 3 0.002844 0.009501 0.030102 -0.029158 -0.023859 0.024426
# 4 -0.007475 -0.024786 -0.029158 0.080528 0.040306 -0.045707
# 5 -0.005565 -0.004875 -0.023859 0.040306 0.103969 -0.034034
# 6 0.008108 0.022931 0.024426 -0.045707 -0.034034 0.074305
#
#
# Mechanical properties :
#
#
# Convention : Reuss Voigt Hill
#
# Bulk Modulus (GPa) = 10.26073 25.65150 17.95611
# Shear Modulus (GPa) = 14.59008 25.03416 19.81212
#
# Velocity S-wave (km/s) = 2.75888 3.61385 3.21491
# Velocity P-wave (km/s) = 3.93718 5.54934 4.81126
#
# Compressibility (1/GPa) = 0.09745896
#
# Stress axis : x y z
#
# Youngs Moduli (GPa) = 73.56559 32.53132 33.22063
#
# Poissons Ratio (x) = 0.02710 -0.09448
# Poissons Ratio (y) = 0.06128 -0.31564
# Poissons Ratio (z) = -0.20921 -0.30909
#
# Static dielectric constant tensor:
#      x y z
#    x 1.648670 -0.015070 0.012380 
#    y -0.015070 1.682840 -0.002830 
#    z 0.012380 -0.002830 1.676560 
# 
# From -- ./inp_files/436853.got.cif
#   From: 2010.05.17/outbox.cif.g08.bks.cpg/sg2_219_cif.got.tgz:436853.got - 2010.06.03 11:33:40.
