data_PCOD9100422
_publ_section_title
;
Structure prediction by ZEFSAII (Michael W. Deem and Ramdas Pophale) SiO2 
 PCOD9100422
Probable space group: P -1
;
_chemical_formula_sum "Si O2"
_cell_formula_units_Z 15
_cell_length_a 8.832974
_cell_length_b 6.986544
_cell_length_c 13.358968
_cell_angle_alpha 81.664211
_cell_angle_beta 131.189355
_cell_angle_gamma 106.164710
_cell_volume 595.030592
_symmetry_space_group_name_H-M "P -1"
_symmetry_group_IT_number 2
_symmetry_cell_setting 'triclinic'
loop_
_space_group_symop_operation_xyz
x,y,z
-x,-y,-z
loop_
_atom_site_type_symbol
_atom_site_label
_atom_site_fract_x
_atom_site_fract_y
_atom_site_fract_z
Si Si1 0.409720 0.840569 0.558085
Si Si2 0.044428 0.478346 0.402377
Si Si3 0.500000 0.000000 0.000000
Si Si4 0.261648 0.173222 0.576969
Si Si5 0.267934 0.635944 0.208050
Si Si6 0.113833 0.694295 0.928299
Si Si7 0.158166 0.031206 0.207883
Si Si8 0.164202 0.208205 0.763738
O O1 0.258059 0.645033 0.465047
O O2 0.500000 0.000000 0.500000
O O3 0.292893 0.959470 0.572982
O O4 0.621304 0.807611 0.699152
O O5 0.103963 0.267367 0.436616
O O6 0.000000 0.500000 0.500000
O O7 0.867800 0.566226 0.266095
O O8 0.641624 0.835603 0.090729
O O9 0.714424 0.180245 0.079177
O O10 0.491605 0.325348 0.661783
O O11 0.195351 0.161369 0.664700
O O12 0.217458 0.847096 0.194385
O O13 0.083184 0.467099 0.189008
O O14 0.228310 0.604868 0.073635
O O15 0.003393 0.857291 0.916621
O O16 0.041709 0.934184 0.265748
#
# Coordination Sequence:
#
# PCOD9100422 Si02
#       8
#     2   2   1   2   2   2   2   2
#     4  11  22  41  63  94 122 162 209 254 310 367
#     4  10  22  40  61  91 124 160 205 255 300 371
#     4  10  20  38  64  88 124 162 196 262 298 358
#     4  10  22  40  66  89 128 163 202 253 315 363
#     4  10  20  38  63  91 117 159 208 250 306 362
#     4  10  20  37  64  86 120 162 206 250 306 360
#     4  10  21  38  60  89 126 152 205 257 304 361
#     4  10  20  40  60  90 125 161 202 253 302 366
#
# _framework density 25.208787999999998
#
# number of rings (size 3 to 8) (size 9 to 14) (size 15 to 20)
#    0.000    1.867    2.667    1.200    0.000    2.667 
#    2.400    6.667    2.933    0.000    0.000    0.000 
#    0.000    0.000    0.000    0.000    0.000    0.000 
#
# Total GULP energy -83545.288456 kJ/mol
# GULP energy per Si atom -5569.685897 kJ/mol
# Density = 2.515141 g / cm^3
# Si number density = 25.208788 Si / 1000 Ang^3
#
#
#
# Elastic Constant Matrix: (Units=GPa)
#
#
# Indices 1 2 3 4 5 6 
#
# 1 68.3260 12.3868 33.2451 6.2261 16.5175 1.8325
# 2 12.3868 82.7368 39.9946 4.0396 24.7727 8.0459
# 3 33.2451 39.9946 115.1199 -26.5607 48.3188 -7.6100
# 4 6.2261 4.0396 -26.5607 48.3767 -4.1415 18.0344
# 5 16.5175 24.7727 48.3188 -4.1415 43.6954 2.7239
# 6 1.8325 8.0459 -7.6100 18.0344 2.7239 47.1241
#
#
#
# Elastic Compliance Matrix: (Units=1/GPa)
#
#
# Indices 1 2 3 4 5 6 
#
# 1 0.018547 0.001017 -0.006948 -0.006525 -0.000554 0.000512
# 2 0.001017 0.016028 -0.005268 -0.003999 -0.003909 -0.001871
# 3 -0.006948 -0.005268 0.023518 0.012039 -0.019345 0.001478
# 4 -0.006525 -0.003999 0.012039 0.031305 -0.005063 -0.008807
# 5 -0.000554 -0.003909 -0.019345 -0.005063 0.046421 -0.003181
# 6 0.000512 -0.001871 0.001478 -0.008807 -0.003181 0.025313
#
#
# Mechanical properties :
#
#
# Convention : Reuss Voigt Hill
#
# Bulk Modulus (GPa) = 28.01536 48.60398 38.30967
# Shear Modulus (GPa) = 25.58472 39.87631 32.73052
#
# Velocity S-wave (km/s) = 3.18923 3.98155 3.60721
# Velocity P-wave (km/s) = 4.96981 6.36077 5.70782
#
# Compressibility (1/GPa) = 0.03569470
#
# Stress axis : x y z
#
# Youngs Moduli (GPa) = 53.91677 62.39017 42.52020
#
# Poissons Ratio (x) = -0.06344 0.29545
# Poissons Ratio (y) = -0.05482 0.22399
# Poissons Ratio (z) = 0.37463 0.32866
#
# Static dielectric constant tensor:
#      x y z
#    x 2.021170 -0.003100 -0.043300 
#    y -0.003100 1.991320 0.005680 
#    z -0.043300 0.005680 2.077910 
# 
# From -- ./inp_files/552636.got.cif
#   From: 2010.05.17/outbox.cif.g08.bks.cpg/sg2_277_cif.got.tgz:552636.got - 2010.06.03 11:33:40.
