data_PCOD9100474
_publ_section_title
;
Structure prediction by ZEFSAII (Michael W. Deem and Ramdas Pophale) SiO2 
 PCOD9100474
Probable space group: P -1
;
_chemical_formula_sum "Si O2"
_cell_formula_units_Z 16
_cell_length_a 19.671864
_cell_length_b 15.755494
_cell_length_c 7.991801
_cell_angle_alpha 148.585607
_cell_angle_beta 40.744884
_cell_angle_gamma 148.269925
_cell_volume 674.419616
_symmetry_space_group_name_H-M "P -1"
_symmetry_group_IT_number 2
_symmetry_cell_setting 'triclinic'
loop_
_space_group_symop_operation_xyz
x,y,z
-x,-y,-z
loop_
_atom_site_type_symbol
_atom_site_label
_atom_site_fract_x
_atom_site_fract_y
_atom_site_fract_z
Si Si1 0.226542 0.483487 0.416769
Si Si2 0.986447 0.669312 0.883225
Si Si3 0.492689 0.825734 0.576322
Si Si4 0.706814 0.809536 0.062978
Si Si5 0.234043 0.051293 0.194184
Si Si6 0.271422 0.444683 0.884411
Si Si7 0.510931 0.847693 0.971132
Si Si8 0.963062 0.147803 0.263329
O O1 0.336784 0.700032 0.652356
O O2 0.070733 0.361244 0.513787
O O3 0.263133 0.343704 0.193177
O O4 0.261069 0.507632 0.195751
O O5 0.000000 0.500000 0.500000
O O6 0.004750 0.799321 0.903622
O O7 0.840418 0.573618 0.049758
O O8 0.097437 0.827216 0.071317
O O9 0.558450 0.725881 0.214052
O O10 0.530686 0.854678 0.747371
O O11 0.545788 0.022742 0.694074
O O12 0.806785 0.015418 0.334168
O O13 0.743812 0.866476 0.897427
O O14 0.242897 0.225370 0.577217
O O15 0.353083 0.049061 0.017840
O O16 0.409965 0.619806 0.843035
O O17 0.000000 0.000000 0.000000
#
# Coordination Sequence:
#
# PCOD9100474 Si02
#       8
#     2   2   2   2   2   2   2   2
#     4  10  20  37  64  90 122 163 213 251 311 380
#     4  10  23  39  66 100 129 161 212 267 314 378
#     4  11  24  41  58  87 127 169 210 267 314 374
#     4  10  20  37  64  90 122 163 213 251 311 380
#     4  11  23  41  66  95 129 166 208 260 317 379
#     4  11  23  41  66  95 129 166 208 260 317 379
#     4  11  26  41  60  89 132 164 215 264 322 368
#     4   8  18  35  58  92 120 156 203 253 299 375
#
# _framework density 23.724102999999999
#
# number of rings (size 3 to 8) (size 9 to 14) (size 15 to 20)
#    0.000    1.750    0.000    3.375    7.000    1.000 
#    0.000    3.750    0.000    3.000    0.000    0.000 
#    0.000    0.000    0.000    0.000    0.000    0.000 
#
# Total GULP energy -89314.657628 kJ/mol
# GULP energy per Si atom -5582.166102 kJ/mol
# Density = 2.367011 g / cm^3
# Si number density = 23.724103 Si / 1000 Ang^3
#
#
#
# Elastic Constant Matrix: (Units=GPa)
#
#
# Indices 1 2 3 4 5 6 
#
# 1 87.5976 41.0978 3.0639 5.2481 3.4470 11.1803
# 2 41.0978 71.3080 1.2689 14.0196 5.1711 17.7951
# 3 3.0639 1.2689 29.6950 8.4600 -6.9056 -5.1073
# 4 5.2481 14.0196 8.4600 24.5657 6.9279 0.3004
# 5 3.4470 5.1711 -6.9056 6.9279 24.4595 8.0789
# 6 11.1803 17.7951 -5.1073 0.3004 8.0789 34.1414
#
#
#
# Elastic Compliance Matrix: (Units=1/GPa)
#
#
# Indices 1 2 3 4 5 6 
#
# 1 0.015923 -0.009654 -0.002735 0.003599 -0.001940 -0.000164
# 2 -0.009654 0.024503 0.003298 -0.014188 0.004448 -0.010044
# 3 -0.002735 0.003298 0.044418 -0.021624 0.017756 0.001810
# 4 0.003599 -0.014188 -0.021624 0.062118 -0.023878 0.008085
# 5 -0.001940 0.004448 0.017756 -0.023878 0.055977 -0.012063
# 6 -0.000164 -0.010044 0.001810 0.008085 -0.012063 0.037633
#
#
# Mechanical properties :
#
#
# Convention : Reuss Voigt Hill
#
# Bulk Modulus (GPa) = 15.00126 31.05130 23.02628
# Shear Modulus (GPa) = 17.79526 26.17799 21.98663
#
# Velocity S-wave (km/s) = 2.74175 3.32540 3.04758
# Velocity P-wave (km/s) = 4.04473 5.27838 4.70219
#
# Compressibility (1/GPa) = 0.06666105
#
# Stress axis : x y z
#
# Youngs Moduli (GPa) = 62.80394 40.81200 22.51330
#
# Poissons Ratio (x) = 0.39401 0.06158
# Poissons Ratio (y) = 0.60632 -0.07425
# Poissons Ratio (z) = 0.17178 -0.13461
#
# Static dielectric constant tensor:
#      x y z
#    x 1.872000 0.041370 0.036360 
#    y 0.041370 1.999790 0.037300 
#    z 0.036360 0.037300 2.012250 
# 
# From -- ./inp_files/348749.got.cif
#   From: 2010.05.17/outbox.cif.g08.bks.cpg/sg2_175_cif.got.tgz:348749.got - 2010.06.03 11:33:40.
