data_PCOD9100739
_publ_section_title
;
Structure prediction by ZEFSAII (Michael W. Deem and Ramdas Pophale) SiO2 
 PCOD9100739
Probable space group: P -1
;
_chemical_formula_sum "Si O2"
_cell_formula_units_Z 16
_cell_length_a 17.452075
_cell_length_b 8.251315
_cell_length_c 5.761822
_cell_angle_alpha 117.895533
_cell_angle_beta 101.907844
_cell_angle_gamma 89.218203
_cell_volume 714.221664
_symmetry_space_group_name_H-M "P -1"
_symmetry_group_IT_number 2
_symmetry_cell_setting 'triclinic'
loop_
_space_group_symop_operation_xyz
x,y,z
-x,-y,-z
loop_
_atom_site_type_symbol
_atom_site_label
_atom_site_fract_x
_atom_site_fract_y
_atom_site_fract_z
Si Si1 0.160906 0.918819 0.219532
Si Si2 0.853800 0.702528 0.295997
Si Si3 0.750666 0.415316 0.737762
Si Si4 0.018978 0.711877 0.229329
Si Si5 0.608839 0.364364 0.940214
Si Si6 0.452676 0.003544 0.220129
Si Si7 0.449969 0.387704 0.590098
Si Si8 0.151018 0.661822 0.653041
O O1 0.213040 0.771849 0.277392
O O2 0.070496 0.838933 0.164602
O O3 0.174889 0.128383 0.458295
O O4 0.173151 0.857424 0.922542
O O5 0.872957 0.520009 0.329368
O O6 0.935621 0.782005 0.283295
O O7 0.794841 0.601606 0.001481
O O8 0.663978 0.402419 0.779973
O O9 0.773663 0.403452 0.478097
O O10 0.077866 0.696330 0.469845
O O11 0.000000 0.500000 0.000000
O O12 0.518524 0.354947 0.794651
O O13 0.613284 0.165936 0.922653
O O14 0.614777 0.514154 0.246290
O O15 0.416696 0.196681 0.332668
O O16 0.500000 0.000000 0.500000
O O17 0.500000 0.000000 0.000000
O O18 0.500000 0.500000 0.500000
#
# Coordination Sequence:
#
# PCOD9100739 Si02
#       8
#     2   2   2   2   2   2   2   2
#     4  10  23  38  59  87 118 157 208 252 303 362
#     4  11  22  38  61  87 119 157 205 252 304 363
#     4  10  23  42  59  81 127 164 198 246 306 368
#     4  11  19  38  61  86 118 155 198 260 309 352
#     4  10  22  39  62  90 123 161 200 253 313 374
#     4  10  20  38  63  95 127 160 199 258 314 372
#     4  10  20  37  65  94 119 151 205 254 308 373
#     4  10  21  38  58  85 120 158 203 248 306 358
#
# _framework density 22.402011000000002
#
# number of rings (size 3 to 8) (size 9 to 14) (size 15 to 20)
#    0.000    1.750    5.000    0.750    0.000    5.500 
#    0.000    0.000    0.000    0.000    0.000    0.000 
#    0.000    0.000    0.000    0.000    0.000    0.000 
#
# Total GULP energy -89105.535735 kJ/mol
# GULP energy per Si atom -5569.095983 kJ/mol
# Density = 2.235102 g / cm^3
# Si number density = 22.402011 Si / 1000 Ang^3
#
#
#
# Elastic Constant Matrix: (Units=GPa)
#
#
# Indices 1 2 3 4 5 6 
#
# 1 82.0635 5.9581 30.5814 13.7541 -14.6098 11.6133
# 2 5.9581 54.1933 38.0428 29.5959 -13.3594 4.3480
# 3 30.5814 38.0428 136.1406 40.5187 -37.2615 -5.0954
# 4 13.7541 29.5959 40.5187 48.4320 -8.5473 -12.1666
# 5 -14.6098 -13.3594 -37.2615 -8.5473 27.7728 -9.0509
# 6 11.6133 4.3480 -5.0954 -12.1666 -9.0509 24.8876
#
#
#
# Elastic Compliance Matrix: (Units=1/GPa)
#
#
# Indices 1 2 3 4 5 6 
#
# 1 0.016622 0.007084 -0.003338 -0.009948 -0.000145 -0.014593
# 2 0.007084 0.037980 -0.005635 -0.027209 -0.002142 -0.025175
# 3 -0.003338 -0.005635 0.016755 -0.002803 0.021158 0.012297
# 4 -0.009948 -0.027209 -0.002803 0.052803 0.006189 0.036886
# 5 -0.000145 -0.002142 0.021158 0.006189 0.076840 0.035744
# 6 -0.014593 -0.025175 0.012297 0.036886 0.035744 0.084937
#
#
# Mechanical properties :
#
#
# Convention : Reuss Voigt Hill
#
# Bulk Modulus (GPa) = 14.79754 46.84022 30.81888
# Shear Modulus (GPa) = 16.01319 33.40616 24.70967
#
# Velocity S-wave (km/s) = 2.67649 3.86581 3.32476
# Velocity P-wave (km/s) = 4.02135 6.39377 5.34096
#
# Compressibility (1/GPa) = 0.06757881
#
# Stress axis : x y z
#
# Youngs Moduli (GPa) = 60.16060 26.32943 59.68270
#
# Poissons Ratio (x) = -0.18652 0.19925
# Poissons Ratio (y) = -0.42618 0.33631
# Poissons Ratio (z) = 0.20085 0.14837
#
# Static dielectric constant tensor:
#      x y z
#    x 1.841330 -0.005560 -0.053320 
#    y -0.005560 1.865190 -0.036340 
#    z -0.053320 -0.036340 2.108150 
# 
# From -- ./inp_files/53387.got.cif
#   From: 2010.05.17/outbox.cif.g08.bks.cpg/sg2_27_cif.got.tgz:53387.got - 2010.06.03 11:33:40.
