data_PCOD9100946
_publ_section_title
;
Structure prediction by ZEFSAII (Michael W. Deem and Ramdas Pophale) SiO2 
 PCOD9100946
Probable space group: P -1
;
_chemical_formula_sum "Si O2"
_cell_formula_units_Z 13
_cell_length_a 11.800073
_cell_length_b 17.890104
_cell_length_c 7.847596
_cell_angle_alpha 143.745867
_cell_angle_beta 36.174791
_cell_angle_gamma 143.815477
_cell_volume 517.156492
_symmetry_space_group_name_H-M "P -1"
_symmetry_group_IT_number 2
_symmetry_cell_setting 'triclinic'
loop_
_space_group_symop_operation_xyz
x,y,z
-x,-y,-z
loop_
_atom_site_type_symbol
_atom_site_label
_atom_site_fract_x
_atom_site_fract_y
_atom_site_fract_z
Si Si1 0.000000 0.000000 0.500000
Si Si2 0.848232 0.529157 0.871847
Si Si3 0.237393 0.623168 0.768487
Si Si4 0.168120 0.970756 0.858411
Si Si5 0.495448 0.736733 0.995811
Si Si6 0.654865 0.713093 0.256687
Si Si7 0.855992 0.691462 0.618886
O O1 0.114342 0.978484 0.136959
O O2 0.221541 0.131651 0.531235
O O3 0.000000 0.500000 0.500000
O O4 0.026356 0.634075 0.984556
O O5 0.682936 0.385481 0.897982
O O6 0.726670 0.610550 0.086094
O O7 0.388145 0.717218 0.906731
O O8 0.401994 0.656021 0.473477
O O9 0.159012 0.462306 0.627766
O O10 0.399494 0.099750 0.774068
O O11 0.000000 0.000000 0.000000
O O12 0.097091 0.811646 0.585325
O O13 0.706057 0.705291 0.677596
O O14 0.729166 0.710018 0.970412
#
# Coordination Sequence:
#
# PCOD9100946 Si02
#       7
#     1   2   2   2   2   2   2
#     4  10  20  40  70  94 126 174 216 274 324 396
#     4  12  25  40  63  97 133 172 219 267 327 397
#     4  12  22  39  65  98 127 166 218 272 326 384
#     4   9  20  37  63  97 128 168 220 264 332 393
#     4  11  22  40  62  97 132 167 222 272 326 389
#     4  11  22  42  68  94 127 170 222 267 330 388
#     4  10  20  37  67  92 125 172 209 266 327 390
#
# _framework density 25.137457000000001
#
# number of rings (size 3 to 8) (size 9 to 14) (size 15 to 20)
#    0.000    1.231    4.615    2.308    0.000    0.000 
#    0.000    1.538    0.000    0.000    0.000    0.000 
#    0.000    0.000    0.000    0.000    0.000    0.000 
#
# Total GULP energy -72511.820072 kJ/mol
# GULP energy per Si atom -5577.832313 kJ/mol
# Density = 2.508024 g / cm^3
# Si number density = 25.137457 Si / 1000 Ang^3
#
#
#
# Elastic Constant Matrix: (Units=GPa)
#
#
# Indices 1 2 3 4 5 6 
#
# 1 81.1738 33.4197 23.2057 -10.1189 5.8739 29.6280
# 2 33.4197 178.3649 10.0397 -11.7779 -8.9422 48.3143
# 3 23.2057 10.0397 73.9712 -14.4513 -2.4116 16.9733
# 4 -10.1189 -11.7779 -14.4513 37.9641 4.7202 10.0746
# 5 5.8739 -8.9422 -2.4116 4.7202 35.3731 0.4613
# 6 29.6280 48.3143 16.9733 10.0746 0.4613 44.1718
#
#
#
# Elastic Compliance Matrix: (Units=1/GPa)
#
#
# Indices 1 2 3 4 5 6 
#
# 1 0.019644 0.001379 -0.000601 0.010401 -0.004123 -0.016783
# 2 0.001379 0.009839 0.003362 0.008468 0.001552 -0.014926
# 3 -0.000601 0.003362 0.018439 0.011223 0.000878 -0.012928
# 4 0.010401 0.008468 0.011223 0.044705 -0.004386 -0.030701
# 5 -0.004123 0.001552 0.000878 -0.004386 0.029974 0.001418
# 6 -0.016783 -0.014926 -0.012928 -0.030701 0.001418 0.062177
#
#
# Mechanical properties :
#
#
# Convention : Reuss Voigt Hill
#
# Bulk Modulus (GPa) = 17.79321 51.87113 34.83217
# Shear Modulus (GPa) = 25.61074 41.29144 33.45109
#
# Velocity S-wave (km/s) = 3.19537 4.05733 3.65187
# Velocity P-wave (km/s) = 4.55056 6.52909 5.62746
#
# Compressibility (1/GPa) = 0.05620121
#
# Stress axis : x y z
#
# Youngs Moduli (GPa) = 50.90634 101.63849 54.23389
#
# Poissons Ratio (x) = -0.14020 0.03260
# Poissons Ratio (y) = -0.07022 -0.18231
# Poissons Ratio (z) = 0.03060 -0.34167
#
# Static dielectric constant tensor:
#      x y z
#    x 2.044720 -0.003120 0.053250 
#    y -0.003120 2.026050 0.028290 
#    z 0.053250 0.028290 2.103910 
# 
# From -- ./inp_files/249685.got.cif
#   From: 2010.05.17/outbox.cif.g08.bks.cpg/sg2_125_cif.got.tgz:249685.got - 2010.06.03 11:33:40.
