data_PCOD9100481
_publ_section_title
;
Structure prediction by ZEFSAII (Michael W. Deem and Ramdas Pophale) SiO2 
 PCOD9100481
Probable space group: P -1
;
_chemical_formula_sum "Si O2"
_cell_formula_units_Z 16
_cell_length_a 23.975767
_cell_length_b 7.901895
_cell_length_c 11.594542
_cell_angle_alpha 142.032245
_cell_angle_beta 146.690457
_cell_angle_gamma 52.074411
_cell_volume 735.761801
_symmetry_space_group_name_H-M "P -1"
_symmetry_group_IT_number 2
_symmetry_cell_setting 'triclinic'
loop_
_space_group_symop_operation_xyz
x,y,z
-x,-y,-z
loop_
_atom_site_type_symbol
_atom_site_label
_atom_site_fract_x
_atom_site_fract_y
_atom_site_fract_z
Si Si1 0.367951 0.633762 0.773660
Si Si2 0.808376 0.877112 0.805850
Si Si3 0.112517 0.883381 0.176460
Si Si4 0.525489 0.304221 0.765109
Si Si5 0.781635 0.987223 0.358434
Si Si6 0.261514 0.593121 0.921019
Si Si7 0.052600 0.455131 0.395107
Si Si8 0.998617 0.011142 0.643902
O O1 0.435225 0.498188 0.720193
O O2 0.317690 0.908448 0.807922
O O3 0.270701 0.397174 0.498318
O O4 0.438564 0.709505 0.047622
O O5 0.848245 0.014675 0.826880
O O6 0.746124 0.107139 0.879023
O O7 0.903390 0.835805 0.034043
O O8 0.204442 0.870291 0.414723
O O9 0.058098 0.137540 0.270736
O O10 0.029102 0.612682 0.885178
O O11 0.500000 0.000000 0.500000
O O12 0.627506 0.441704 0.951138
O O13 0.770018 0.655564 0.177220
O O14 0.887779 0.083441 0.526946
O O15 0.172990 0.562521 0.652454
O O16 0.008223 0.687416 0.516752
O O17 0.000000 0.000000 0.500000
#
# Coordination Sequence:
#
# PCOD9100481 Si02
#       8
#     2   2   2   2   2   2   2   2
#     4  11  26  43  73 100 129 171 228 283 342 397
#     4  11  22  41  67  96 132 191 220 261 331 408
#     4  10  20  37  64  90 135 178 225 259 314 407
#     4  11  24  49  73  96 127 174 229 280 346 411
#     4  11  25  41  63 103 135 170 218 283 328 390
#     4  10  21  42  69  92 132 179 223 270 330 393
#     4   9  19  36  59  89 127 180 211 256 310 395
#     4  11  25  36  60  99 143 176 219 268 326 392
#
# _framework density 21.746168000000001
#
# number of rings (size 3 to 8) (size 9 to 14) (size 15 to 20)
#    0.000    1.500    1.250    4.500    7.000    4.500 
#    2.250    0.625    0.000    0.000    0.000    0.000 
#    0.000    0.000    0.000    0.000    0.000    0.000 
#
# Total GULP energy -89172.572499 kJ/mol
# GULP energy per Si atom -5573.285781 kJ/mol
# Density = 2.169667 g / cm^3
# Si number density = 21.746168 Si / 1000 Ang^3
#
#
#
# Elastic Constant Matrix: (Units=GPa)
#
#
# Indices 1 2 3 4 5 6 
#
# 1 104.4785 10.5399 13.0033 -16.0447 6.4778 -15.8987
# 2 10.5399 67.6631 11.6697 -11.5835 2.8956 -17.8295
# 3 13.0033 11.6697 83.2237 5.0693 -6.5375 -7.1068
# 4 -16.0447 -11.5835 5.0693 41.7772 -7.2424 -2.7360
# 5 6.4778 2.8956 -6.5375 -7.2424 33.0221 -6.8218
# 6 -15.8987 -17.8295 -7.1068 -2.7360 -6.8218 34.6112
#
#
#
# Elastic Compliance Matrix: (Units=1/GPa)
#
#
# Indices 1 2 3 4 5 6 
#
# 1 0.011374 0.000924 -0.001764 0.005148 -0.000360 0.005675
# 2 0.000924 0.018887 -0.002200 0.006788 0.001387 0.010512
# 3 -0.001764 -0.002200 0.013060 -0.002305 0.002850 0.001118
# 4 0.005148 0.006788 -0.002305 0.029760 0.006322 0.008987
# 5 -0.000360 0.001387 0.002850 0.006322 0.033900 0.008316
# 6 0.005675 0.010512 0.001118 0.008987 0.008316 0.039493
#
#
# Mechanical properties :
#
#
# Convention : Reuss Voigt Hill
#
# Bulk Modulus (GPa) = 26.85106 36.19900 31.52503
# Shear Modulus (GPa) = 30.30914 36.55892 33.43403
#
# Velocity S-wave (km/s) = 3.73737 4.10465 3.92531
# Velocity P-wave (km/s) = 5.56761 6.25672 5.92219
#
# Compressibility (1/GPa) = 0.03724248
#
# Stress axis : x y z
#
# Youngs Moduli (GPa) = 87.91950 52.94598 76.57234
#
# Poissons Ratio (x) = -0.04895 0.13508
# Poissons Ratio (y) = -0.08128 0.16843
# Poissons Ratio (z) = 0.15509 0.11646
#
# Static dielectric constant tensor:
#      x y z
#    x 1.846110 0.020040 -0.025170 
#    y 0.020040 1.826010 -0.023300 
#    z -0.025170 -0.023300 1.858110 
# 
# From -- ./inp_files/474359.got.cif
#   From: 2010.05.17/outbox.cif.g08.bks.cpg/sg2_238_cif.got.tgz:474359.got - 2010.06.03 11:33:40.
