data_PCOD9100752
_publ_section_title
;
Structure prediction by ZEFSAII (Michael W. Deem and Ramdas Pophale) SiO2 
 PCOD9100752
Probable space group: P -1
;
_chemical_formula_sum "Si O2"
_cell_formula_units_Z 16
_cell_length_a 9.126808
_cell_length_b 9.111180
_cell_length_c 11.869361
_cell_angle_alpha 90.267324
_cell_angle_beta 125.271740
_cell_angle_gamma 98.322862
_cell_volume 792.556802
_symmetry_space_group_name_H-M "P -1"
_symmetry_group_IT_number 2
_symmetry_cell_setting 'triclinic'
loop_
_space_group_symop_operation_xyz
x,y,z
-x,-y,-z
loop_
_atom_site_type_symbol
_atom_site_label
_atom_site_fract_x
_atom_site_fract_y
_atom_site_fract_z
Si Si1 0.013935 0.869553 0.338614
Si Si2 0.443455 0.550788 0.144913
Si Si3 0.973322 0.789672 0.580399
Si Si4 0.380148 0.883973 0.119475
Si Si5 0.321744 0.299954 0.945379
Si Si6 0.340229 0.866017 0.852173
Si Si7 0.625901 0.122033 0.631813
Si Si8 0.410047 0.394193 0.556836
O O1 0.192400 0.828239 0.359632
O O2 0.972721 0.799981 0.444482
O O3 0.850089 0.810989 0.179657
O O4 0.045647 0.047764 0.376569
O O5 0.370686 0.706342 0.120866
O O6 0.603805 0.591750 0.124876
O O7 0.533713 0.521618 0.301488
O O8 0.297202 0.411989 0.035739
O O9 0.805293 0.666109 0.544987
O O10 0.170769 0.770565 0.713172
O O11 0.327233 0.930452 0.220948
O O12 0.581407 0.983885 0.184033
O O13 0.286437 0.902747 0.956854
O O14 0.488090 0.218390 0.057332
O O15 0.506830 0.249713 0.598405
O O16 0.500000 0.000000 0.500000
O O17 0.500000 0.500000 0.500000
#
# Coordination Sequence:
#
# PCOD9100752 Si02
#       8
#     2   2   2   2   2   2   2   2
#     4  11  22  39  70  96 117 164 221 257 304 374
#     4   9  19  39  62  82 123 168 199 246 312 369
#     4  11  22  40  67  94 122 164 214 258 312 372
#     4   9  19  37  61  86 128 161 204 250 319 365
#     4  10  20  39  64  93 122 158 213 256 302 368
#     4  10  20  37  65  95 120 164 209 263 304 364
#     4  11  22  41  64  94 124 165 211 264 308 368
#     4  11  24  44  60  90 134 168 200 257 322 372
#
# _framework density 20.187826999999999
#
# number of rings (size 3 to 8) (size 9 to 14) (size 15 to 20)
#    0.000    1.750    2.500    3.000    3.500    2.000 
#    9.000    3.750    0.000    0.000    0.000    0.000 
#    0.000    0.000    0.000    0.000    0.000    0.000 
#
# Total GULP energy -89188.017907 kJ/mol
# GULP energy per Si atom -5574.251119 kJ/mol
# Density = 2.014188 g / cm^3
# Si number density = 20.187827 Si / 1000 Ang^3
#
#
#
# Elastic Constant Matrix: (Units=GPa)
#
#
# Indices 1 2 3 4 5 6 
#
# 1 67.5220 23.6996 48.0846 14.5076 4.3970 9.4633
# 2 23.6996 52.0293 57.1962 13.4052 -10.9354 14.3645
# 3 48.0846 57.1962 148.3893 28.0036 5.5199 7.2055
# 4 14.5076 13.4052 28.0036 28.9845 -3.6022 -2.6172
# 5 4.3970 -10.9354 5.5199 -3.6022 35.1537 3.5244
# 6 9.4633 14.3645 7.2055 -2.6172 3.5244 27.4008
#
#
#
# Elastic Compliance Matrix: (Units=1/GPa)
#
#
# Indices 1 2 3 4 5 6 
#
# 1 0.020938 -0.002335 -0.004417 -0.005931 -0.002752 -0.005058
# 2 -0.002335 0.053798 -0.018516 -0.005428 0.021972 -0.025872
# 3 -0.004417 -0.018516 0.016298 -0.005415 -0.009083 0.007598
# 4 -0.005931 -0.005428 -0.005415 0.046595 0.003645 0.010300
# 5 -0.002752 0.021972 -0.009083 0.003645 0.038710 -0.012811
# 6 -0.005058 -0.025872 0.007598 0.010300 -0.012811 0.052439
#
#
# Mechanical properties :
#
#
# Convention : Reuss Voigt Hill
#
# Bulk Modulus (GPa) = 24.69342 58.43347 41.56345
# Shear Modulus (GPa) = 17.07563 27.57181 22.32372
#
# Velocity S-wave (km/s) = 2.91148 3.69963 3.32897
# Velocity P-wave (km/s) = 4.85394 6.87441 5.95055
#
# Compressibility (1/GPa) = 0.04049661
#
# Stress axis : x y z
#
# Youngs Moduli (GPa) = 47.76053 18.58793 61.35591
#
# Poissons Ratio (x) = 0.04341 0.27104
# Poissons Ratio (y) = 0.11153 1.13609
# Poissons Ratio (z) = 0.21098 0.34418
#
# Static dielectric constant tensor:
#      x y z
#    x 1.716180 -0.025630 -0.016250 
#    y -0.025630 1.748030 0.000440 
#    z -0.016250 0.000440 1.747850 
# 
# From -- ./inp_files/382456.got.cif
#   From: 2010.05.17/outbox.cif.g08.bks.cpg/sg2_192_cif.got.tgz:382456.got - 2010.06.03 11:33:40.
