data_PCOD9100732
_publ_section_title
;
Structure prediction by ZEFSAII (Michael W. Deem and Ramdas Pophale) SiO2 
 PCOD9100732
Probable space group: P -1
;
_chemical_formula_sum "Si O2"
_cell_formula_units_Z 12
_cell_length_a 12.358661
_cell_length_b 12.698920
_cell_length_c 9.125507
_cell_angle_alpha 70.042896
_cell_angle_beta 111.009178
_cell_angle_gamma 156.614712
_cell_volume 530.367952
_symmetry_space_group_name_H-M "P -1"
_symmetry_group_IT_number 2
_symmetry_cell_setting 'triclinic'
loop_
_space_group_symop_operation_xyz
x,y,z
-x,-y,-z
loop_
_atom_site_type_symbol
_atom_site_label
_atom_site_fract_x
_atom_site_fract_y
_atom_site_fract_z
Si Si1 0.717540 0.272411 0.553425
Si Si2 0.622899 0.207327 0.866544
Si Si3 0.059223 0.007864 0.191972
Si Si4 0.837097 0.562970 0.019616
Si Si5 0.281085 0.096214 0.849343
Si Si6 0.330577 0.543636 0.700123
O O1 0.728345 0.258955 0.737987
O O2 0.655324 0.349967 0.467168
O O3 0.000000 0.500000 0.500000
O O4 0.500000 0.000000 0.500000
O O5 0.835945 0.460285 0.953741
O O6 0.566797 0.395010 0.910593
O O7 0.500000 0.000000 0.000000
O O8 0.379410 0.264315 0.238590
O O9 0.929487 0.989468 0.243261
O O10 0.899918 0.754030 0.273495
O O11 0.000000 0.000000 0.000000
O O12 0.384807 0.094998 0.783878
O O13 0.747981 0.456984 0.189814
O O14 0.116236 0.876044 0.992679
#
# Coordination Sequence:
#
# PCOD9100732 Si02
#       6
#     2   2   2   2   2   2
#     4  12  29  47  69  98 138 174 224 282 345 394
#     4  10  25  45  69  94 130 177 227 275 331 402
#     4  12  20  38  67 101 135 176 220 273 321 400
#     4  10  20  37  65  93 129 164 223 259 328 378
#     4  10  22  36  65  97 127 164 225 263 321 382
#     4  12  23  40  67 101 137 173 220 277 335 384
#
# _framework density 22.625802
#
# number of rings (size 3 to 8) (size 9 to 14) (size 15 to 20)
#    1.000    0.000    3.333    3.500    4.667    0.667 
#    0.000    1.667    0.000    0.000    0.000    0.000 
#    0.000    0.000    0.000    0.000    0.000    0.000 
#
# Total GULP energy -66992.278865 kJ/mol
# GULP energy per Si atom -5582.689905 kJ/mol
# Density = 2.257430 g / cm^3
# Si number density = 22.625802 Si / 1000 Ang^3
#
#
#
# Elastic Constant Matrix: (Units=GPa)
#
#
# Indices 1 2 3 4 5 6 
#
# 1 136.2312 24.8178 36.4133 -5.3170 -10.4780 12.6083
# 2 24.8178 105.4402 14.8493 -19.2356 -10.9511 4.4147
# 3 36.4133 14.8493 91.7272 -21.8497 -14.6643 -5.1811
# 4 -5.3170 -19.2356 -21.8497 22.7387 0.0911 3.8867
# 5 -10.4780 -10.9511 -14.6643 0.0911 36.9246 -7.4229
# 6 12.6083 4.4147 -5.1811 3.8867 -7.4229 46.8267
#
#
#
# Elastic Compliance Matrix: (Units=1/GPa)
#
#
# Indices 1 2 3 4 5 6 
#
# 1 0.008897 -0.002009 -0.004130 -0.003172 -0.000192 -0.002430
# 2 -0.002009 0.012296 0.002288 0.012249 0.003798 -0.000780
# 3 -0.004130 0.002288 0.017565 0.017393 0.006941 0.002496
# 4 -0.003172 0.012249 0.017393 0.070761 0.008895 -0.002840
# 5 -0.000192 0.003798 0.006941 0.008895 0.031848 0.004772
# 6 -0.002430 -0.000780 0.002496 -0.002840 0.004772 0.023352
#
#
# Mechanical properties :
#
#
# Convention : Reuss Voigt Hill
#
# Bulk Modulus (GPa) = 32.20061 53.95106 43.07583
# Shear Modulus (GPa) = 27.35625 38.45254 32.90439
#
# Velocity S-wave (km/s) = 3.48095 4.12697 3.81765
# Velocity P-wave (km/s) = 5.51531 6.82685 6.20583
#
# Compressibility (1/GPa) = 0.03105531
#
# Stress axis : x y z
#
# Youngs Moduli (GPa) = 112.40045 81.32413 56.93174
#
# Poissons Ratio (x) = 0.16340 0.23513
# Poissons Ratio (y) = 0.22584 -0.13025
# Poissons Ratio (z) = 0.46422 -0.18606
#
# Static dielectric constant tensor:
#      x y z
#    x 1.950520 -0.008410 0.029420 
#    y -0.008410 1.837250 0.034010 
#    z 0.029420 0.034010 1.819680 
# 
# From -- ./inp_files/312861.got.cif
#   From: 2010.05.17/outbox.cif.g08.bks.cpg/sg2_157_cif.got.tgz:312861.got - 2010.06.03 11:33:40.
