data_PCOD9100376
_publ_section_title
;
Structure prediction by ZEFSAII (Michael W. Deem and Ramdas Pophale) SiO2 
 PCOD9100376
Probable space group: P -1
;
_chemical_formula_sum "Si O2"
_cell_formula_units_Z 16
_cell_length_a 26.356131
_cell_length_b 8.352206
_cell_length_c 13.740147
_cell_angle_alpha 55.170330
_cell_angle_beta 157.256484
_cell_angle_gamma 137.243705
_cell_volume 726.201451
_symmetry_space_group_name_H-M "P -1"
_symmetry_group_IT_number 2
_symmetry_cell_setting 'triclinic'
loop_
_space_group_symop_operation_xyz
x,y,z
-x,-y,-z
loop_
_atom_site_type_symbol
_atom_site_label
_atom_site_fract_x
_atom_site_fract_y
_atom_site_fract_z
Si Si1 0.354539 0.907613 0.063670
Si Si2 0.530431 0.782093 0.032840
Si Si3 0.021247 0.474605 0.429769
Si Si4 0.316639 0.409249 0.175221
Si Si5 0.743775 0.173108 0.443921
Si Si6 0.815515 0.855078 0.771184
Si Si7 0.458417 0.569616 0.719103
Si Si8 0.818273 0.769880 0.207334
O O1 0.356237 0.677052 0.138387
O O2 0.357050 0.012097 0.925772
O O3 0.515144 0.175403 0.305118
O O4 0.177409 0.778359 0.854196
O O5 0.339240 0.699590 0.713867
O O6 0.581122 0.602034 0.196641
O O7 0.597668 0.926655 0.205383
O O8 0.000000 0.500000 0.500000
O O9 0.092186 0.665544 0.396623
O O10 0.163224 0.443999 0.689142
O O11 0.500000 0.500000 0.500000
O O12 0.191691 0.245858 0.100850
O O13 0.227311 0.225984 0.986573
O O14 0.777721 0.051380 0.632392
O O15 0.670866 0.607940 0.534346
O O16 0.000000 0.000000 0.000000
O O17 0.651068 0.675971 0.001617
O O18 0.000000 0.000000 0.500000
#
# Coordination Sequence:
#
# PCOD9100376 Si02
#       8
#     2   2   2   2   2   2   2   2
#     4  12  24  39  69 100 135 177 230 285 341 407
#     4  10  20  37  63  96 133 167 216 281 353 391
#     4  12  21  37  67 104 132 171 230 282 342 401
#     4  12  25  46  72  97 137 192 233 272 344 421
#     4  10  20  37  65  93 129 175 223 279 333 407
#     4  11  25  44  66  94 137 188 231 274 337 413
#     4  11  24  43  66 102 138 176 224 291 348 403
#     4  12  24  43  70 106 140 172 229 296 347 400
#
# _framework density 22.032453
#
# number of rings (size 3 to 8) (size 9 to 14) (size 15 to 20)
#    0.000    0.750    6.250    1.875    1.750    0.500 
#    2.250    0.000    0.000    2.250    0.000    0.000 
#    0.000    0.000    0.000    0.000    0.000    0.000 
#
# Total GULP energy -89122.351436 kJ/mol
# GULP energy per Si atom -5570.146965 kJ/mol
# Density = 2.198231 g / cm^3
# Si number density = 22.032453 Si / 1000 Ang^3
#
#
#
# Elastic Constant Matrix: (Units=GPa)
#
#
# Indices 1 2 3 4 5 6 
#
# 1 55.4454 24.1279 11.1345 3.6720 -2.4055 21.4605
# 2 24.1279 100.8922 20.2711 -2.2022 -4.1819 20.0867
# 3 11.1345 20.2711 87.1186 10.1537 2.2916 2.1653
# 4 3.6720 -2.2022 10.1537 29.3518 1.9937 -0.9580
# 5 -2.4055 -4.1819 2.2916 1.9937 41.8443 0.3200
# 6 21.4605 20.0867 2.1653 -0.9580 0.3200 31.3699
#
#
#
# Elastic Compliance Matrix: (Units=1/GPa)
#
#
# Indices 1 2 3 4 5 6 
#
# 1 0.026140 -0.002642 -0.001968 -0.003427 0.001633 -0.016176
# 2 -0.002642 0.012330 -0.002638 0.001897 0.001179 -0.005860
# 3 -0.001968 -0.002638 0.012813 -0.004257 -0.000891 0.002030
# 4 -0.003427 0.001897 -0.004257 0.036300 -0.001523 0.002548
# 5 0.001633 0.001179 -0.000891 -0.001523 0.024247 -0.002105
# 6 -0.016176 -0.005860 0.002030 0.002548 -0.002105 0.046655
#
#
# Mechanical properties :
#
#
# Convention : Reuss Voigt Hill
#
# Bulk Modulus (GPa) = 27.18326 39.39145 33.28735
# Shear Modulus (GPa) = 26.99154 33.04138 30.01646
#
# Velocity S-wave (km/s) = 3.50391 3.87676 3.69504
# Velocity P-wave (km/s) = 5.36046 6.16090 5.77456
#
# Compressibility (1/GPa) = 0.03678735
#
# Stress axis : x y z
#
# Youngs Moduli (GPa) = 38.25620 81.10051 78.04549
#
# Poissons Ratio (x) = 0.21431 0.15356
# Poissons Ratio (y) = 0.10109 0.20587
# Poissons Ratio (z) = 0.07527 0.21393
#
# Static dielectric constant tensor:
#      x y z
#    x 1.904630 -0.031810 -0.008020 
#    y -0.031810 1.973410 0.013000 
#    z -0.008020 0.013000 1.835820 
# 
# From -- ./inp_files/544817.got.cif
#   From: 2010.05.17/outbox.cif.g08.bks.cpg/sg2_273_cif.got.tgz:544817.got - 2010.06.03 11:33:40.
