data_PCOD9100318
_publ_section_title
;
Structure prediction by ZEFSAII (Michael W. Deem and Ramdas Pophale) SiO2 
 PCOD9100318
Probable space group: P -1
;
_chemical_formula_sum "Si O2"
_cell_formula_units_Z 15
_cell_length_a 14.707991
_cell_length_b 17.414684
_cell_length_c 8.431108
_cell_angle_alpha 140.738263
_cell_angle_beta 143.807605
_cell_angle_gamma 29.252858
_cell_volume 604.445330
_symmetry_space_group_name_H-M "P -1"
_symmetry_group_IT_number 2
_symmetry_cell_setting 'triclinic'
loop_
_space_group_symop_operation_xyz
x,y,z
-x,-y,-z
loop_
_atom_site_type_symbol
_atom_site_label
_atom_site_fract_x
_atom_site_fract_y
_atom_site_fract_z
Si Si1 0.000000 0.500000 0.000000
Si Si2 0.087587 0.197017 0.816172
Si Si3 0.947888 0.094103 0.239934
Si Si4 0.992459 0.352031 0.392945
Si Si5 0.350725 0.538281 0.707320
Si Si6 0.699654 0.397503 0.779541
Si Si7 0.671518 0.672741 0.080389
Si Si8 0.744861 0.974150 0.898903
O O1 0.048398 0.350837 0.940664
O O2 0.222088 0.364387 0.998489
O O3 0.130410 0.079621 0.548730
O O4 0.225773 0.111895 0.030705
O O5 0.864007 0.266688 0.676695
O O6 0.769239 0.281889 0.237809
O O7 0.884100 0.021566 0.155121
O O8 0.000000 0.000000 0.000000
O O9 0.134044 0.394660 0.640260
O O10 0.841077 0.448070 0.487800
O O11 0.840202 0.374558 0.085855
O O12 0.167730 0.155879 0.327913
O O13 0.500000 0.500000 0.000000
O O14 0.520065 0.407522 0.610237
O O15 0.604823 0.570238 0.853203
O O16 0.484578 0.856669 0.157846
#
# Coordination Sequence:
#
# PCOD9100318 Si02
#       8
#     1   2   2   2   2   2   2   2
#     4  10  24  44  64  88 132 176 218 276 324 390
#     4  10  24  45  67  96 135 174 224 275 336 392
#     4  12  23  42  68  98 138 173 216 279 337 395
#     4  10  20  37  63  92 135 171 216 273 324 390
#     4  10  20  38  62  95 130 168 220 271 323 391
#     4   9  20  39  62  92 128 171 221 267 327 394
#     4  11  21  40  63  94 127 173 225 268 332 387
#     4  11  23  41  66 100 134 173 221 273 336 404
#
# _framework density 24.816140000000001
#
# number of rings (size 3 to 8) (size 9 to 14) (size 15 to 20)
#    0.000    1.600    2.667    2.000    0.000    1.067 
#    2.400    1.333    0.000    0.000    0.000    0.000 
#    0.000    0.000    0.000    0.000    0.000    0.000 
#
# Total GULP energy -83501.778102 kJ/mol
# GULP energy per Si atom -5566.785207 kJ/mol
# Density = 2.475966 g / cm^3
# Si number density = 24.816140 Si / 1000 Ang^3
#
#
#
# Elastic Constant Matrix: (Units=GPa)
#
#
# Indices 1 2 3 4 5 6 
#
# 1 97.4682 29.0255 22.8725 -3.7868 5.1023 -12.2584
# 2 29.0255 61.8316 2.4453 -10.5321 -7.1968 -10.9691
# 3 22.8725 2.4453 62.6871 -0.9417 8.3509 -1.6781
# 4 -3.7868 -10.5321 -0.9417 34.2449 4.6989 -5.9741
# 5 5.1023 -7.1968 8.3509 4.6989 40.1947 2.7888
# 6 -12.2584 -10.9691 -1.6781 -5.9741 2.7888 52.4673
#
#
#
# Elastic Compliance Matrix: (Units=1/GPa)
#
#
# Indices 1 2 3 4 5 6 
#
# 1 0.013412 -0.006010 -0.004338 0.000117 -0.002020 0.001859
# 2 -0.006010 0.020982 0.001113 0.005974 0.003346 0.003520
# 3 -0.004338 0.001113 0.017913 0.000783 -0.003066 0.000044
# 4 0.000117 0.005974 0.000783 0.032421 -0.003257 0.005166
# 5 -0.002020 0.003346 -0.003066 -0.003257 0.026868 -0.001669
# 6 0.001859 0.003520 0.000044 0.005166 -0.001669 0.020908
#
#
# Mechanical properties :
#
#
# Convention : Reuss Voigt Hill
#
# Bulk Modulus (GPa) = 29.55486 36.74152 33.14819
# Shear Modulus (GPa) = 30.81606 36.55764 33.68685
#
# Velocity S-wave (km/s) = 3.52771 3.84231 3.68837
# Velocity P-wave (km/s) = 5.34119 5.87555 5.61473
#
# Compressibility (1/GPa) = 0.03383538
#
# Stress axis : x y z
#
# Youngs Moduli (GPa) = 74.56279 47.66086 55.82467
#
# Poissons Ratio (x) = 0.28642 0.24219
# Poissons Ratio (y) = 0.44809 -0.06211
# Poissons Ratio (z) = 0.32348 -0.05302
#
# Static dielectric constant tensor:
#      x y z
#    x 2.029430 -0.003980 -0.055450 
#    y -0.003980 1.959250 -0.064360 
#    z -0.055450 -0.064360 1.805570 
# 
# From -- ./inp_files/318177.got.cif
#   From: 2010.05.17/outbox.cif.g08.bks.cpg/sg2_160_cif.got.tgz:318177.got - 2010.06.03 11:33:40.
