data_PCOD9100743
_publ_section_title
;
Structure prediction by ZEFSAII (Michael W. Deem and Ramdas Pophale) SiO2 
 PCOD9100743
Probable space group: P -1
;
_chemical_formula_sum "Si O2"
_cell_formula_units_Z 14
_cell_length_a 12.158151
_cell_length_b 14.884961
_cell_length_c 18.106634
_cell_angle_alpha 152.171482
_cell_angle_beta 155.727334
_cell_angle_gamma 42.727771
_cell_volume 583.441812
_symmetry_space_group_name_H-M "P -1"
_symmetry_group_IT_number 2
_symmetry_cell_setting 'triclinic'
loop_
_space_group_symop_operation_xyz
x,y,z
-x,-y,-z
loop_
_atom_site_type_symbol
_atom_site_label
_atom_site_fract_x
_atom_site_fract_y
_atom_site_fract_z
Si Si1 0.886038 0.794137 0.552886
Si Si2 0.353072 0.641175 0.728101
Si Si3 0.136167 0.723031 0.356418
Si Si4 0.099422 0.973928 0.653613
Si Si5 0.877720 0.023012 0.860872
Si Si6 0.404078 0.658903 0.254753
Si Si7 0.641795 0.596415 0.581585
O O1 0.541966 0.706394 0.291905
O O2 0.026872 0.621837 0.520251
O O3 0.995051 0.905004 0.622438
O O4 0.990383 0.934957 0.793263
O O5 0.438444 0.486107 0.718973
O O6 0.413919 0.581909 0.640890
O O7 0.564509 0.877754 0.039749
O O8 0.458978 0.738210 0.552905
O O9 0.058163 0.880104 0.370061
O O10 0.064504 0.785132 0.439453
O O11 0.927737 0.482006 0.041752
O O12 0.020307 0.267137 0.111872
O O13 0.539462 0.880151 0.540284
O O14 0.000000 0.000000 0.000000
O O15 0.500000 0.500000 0.500000
#
# Coordination Sequence:
#
# PCOD9100743 Si02
#       7
#     2   2   2   2   2   2   2
#     4  10  20  37  65  94 125 161 213 267 304 377
#     4  11  20  37  62  94 126 163 208 262 310 375
#     4  10  23  43  62  91 130 171 205 262 317 381
#     4  10  21  39  62  91 127 167 215 254 318 370
#     4  10  21  42  61  93 126 164 210 257 321 375
#     4   9  22  38  63  89 129 162 210 257 326 363
#     4  12  23  39  67  93 124 167 216 257 313 382
#
# _framework density 23.995536000000001
#
# number of rings (size 3 to 8) (size 9 to 14) (size 15 to 20)
#    0.857    0.857    1.429    3.429    0.000    2.857 
#    0.000    2.143    0.000    0.000    0.000    0.000 
#    0.000    0.000    0.000    0.000    0.000    0.000 
#
# Total GULP energy -78134.610408 kJ/mol
# GULP energy per Si atom -5581.043601 kJ/mol
# Density = 2.394092 g / cm^3
# Si number density = 23.995536 Si / 1000 Ang^3
#
#
#
# Elastic Constant Matrix: (Units=GPa)
#
#
# Indices 1 2 3 4 5 6 
#
# 1 99.8107 7.8325 11.3576 -20.9080 -8.1225 28.2067
# 2 7.8325 55.4318 10.1415 -16.4165 1.7521 6.8360
# 3 11.3576 10.1415 127.1208 3.1690 7.6537 5.4536
# 4 -20.9080 -16.4165 3.1690 17.5960 0.3576 13.8696
# 5 -8.1225 1.7521 7.6537 0.3576 33.4159 5.8455
# 6 28.2067 6.8360 5.4536 13.8696 5.8455 31.7644
#
#
#
# Elastic Compliance Matrix: (Units=1/GPa)
#
#
# Indices 1 2 3 4 5 6 
#
# 1 -0.005065 -0.014444 0.001798 -0.039928 -0.004944 0.025641
# 2 -0.014444 0.008664 0.000739 -0.028623 -0.008173 0.024837
# 3 0.001798 0.000739 0.007768 0.005798 -0.000475 -0.005534
# 4 -0.039928 -0.028623 0.005798 -0.081134 -0.022698 0.080224
# 5 -0.004944 -0.008173 -0.000475 -0.022698 0.027568 0.011068
# 6 0.025641 0.024837 -0.005534 0.080224 0.011068 -0.032748
#
#
# Mechanical properties :
#
#
# Convention : Reuss Voigt Hill
#
# Bulk Modulus (GPa) = -80.34837 37.89182 -21.22828
# Shear Modulus (GPa) = -90.44635 33.42404 -28.51115
#
# Velocity S-wave (km/s) = -6.14612 3.73624 -3.45075
# Velocity P-wave (km/s) = 9.16100 5.86840 4.97422
#
# Compressibility (1/GPa) = -0.01244580
#
# Stress axis : x y z
#
# Youngs Moduli (GPa) = -197.44640 115.41727 128.72699
#
# Poissons Ratio (x) = 1.66710 -0.23143
# Poissons Ratio (y) = -2.85193 -0.09518
# Poissons Ratio (z) = 0.35497 -0.08534
#
# Static dielectric constant tensor:
#      x y z
#    x 1.869940 0.068560 -0.024130 
#    y 0.068560 1.954480 -0.032290 
#    z -0.024130 -0.032290 1.928720 
# 
# From -- ./inp_files/279717.got.cif
#   From: 2010.05.17/outbox.cif.g08.bks.cpg/sg2_140_cif.got.tgz:279717.got - 2010.06.03 11:33:40.
