data_PCOD9100636
_publ_section_title
;
Structure prediction by ZEFSAII (Michael W. Deem and Ramdas Pophale) SiO2 
 PCOD9100636
Probable space group: P -1
;
_chemical_formula_sum "Si O2"
_cell_formula_units_Z 16
_cell_length_a 18.158532
_cell_length_b 8.551639
_cell_length_c 7.266806
_cell_angle_alpha 127.040904
_cell_angle_beta 85.599956
_cell_angle_gamma 124.428925
_cell_volume 680.663604
_symmetry_space_group_name_H-M "P -1"
_symmetry_group_IT_number 2
_symmetry_cell_setting 'triclinic'
loop_
_space_group_symop_operation_xyz
x,y,z
-x,-y,-z
loop_
_atom_site_type_symbol
_atom_site_label
_atom_site_fract_x
_atom_site_fract_y
_atom_site_fract_z
Si Si1 0.863317 0.388953 0.433587
Si Si2 0.325248 0.981694 0.232268
Si Si3 0.837124 0.556563 0.937033
Si Si4 0.653543 0.198095 0.232903
Si Si5 0.969015 0.933257 0.742952
Si Si6 0.778985 0.867527 0.175620
Si Si7 0.767071 0.775904 0.551902
Si Si8 0.591543 0.793436 0.227200
O O1 0.860782 0.449725 0.691767
O O2 0.761960 0.294492 0.307015
O O3 0.945423 0.663983 0.518531
O O4 0.859841 0.149497 0.270133
O O5 0.271303 0.087760 0.260193
O O6 0.385410 0.133897 0.511784
O O7 0.239108 0.681741 0.088104
O O8 0.387965 0.983705 0.066841
O O9 0.784546 0.661318 0.944320
O O10 0.936901 0.807451 0.186453
O O11 0.680097 0.468640 0.383363
O O12 0.593358 0.009478 0.282286
O O13 0.869583 0.877372 0.683961
O O14 0.000000 0.000000 0.000000
O O15 0.786284 0.845403 0.379388
O O16 0.679930 0.817140 0.143311
O O17 0.500000 0.500000 0.000000
#
# Coordination Sequence:
#
# PCOD9100636 Si02
#       8
#     2   2   2   2   2   2   2   2
#     4   9  19  39  55  86 126 161 200 255 289 349
#     4  11  22  40  65  88 123 164 200 249 303 363
#     4  11  19  37  60  83 123 164 201 250 293 349
#     4  10  20  38  65  88 118 159 198 241 309 364
#     4   9  21  34  54  86 124 162 214 248 286 348
#     4  10  20  37  65  84 118 164 202 241 321 357
#     4  10  20  38  59  87 124 165 201 247 297 350
#     4  10  23  45  67  91 123 151 195 259 308 370
#
# _framework density 23.506471000000001
#
# number of rings (size 3 to 8) (size 9 to 14) (size 15 to 20)
#    0.000    2.000    5.000    0.000    0.000    8.000 
#    0.000    3.125    0.000    0.000    0.000    0.000 
#    0.000    0.000    0.000    0.000    0.000    0.000 
#
# Total GULP energy -89376.702840 kJ/mol
# GULP energy per Si atom -5586.043928 kJ/mol
# Density = 2.345297 g / cm^3
# Si number density = 23.506471 Si / 1000 Ang^3
#
#
#
# Elastic Constant Matrix: (Units=GPa)
#
#
# Indices 1 2 3 4 5 6 
#
# 1 32.8958 22.4694 25.6294 16.2302 -17.2034 -21.7722
# 2 22.4694 73.9982 58.2664 13.1055 7.2223 -39.8471
# 3 25.6294 58.2664 83.7275 34.7941 8.4003 -3.5144
# 4 16.2302 13.1055 34.7941 37.4075 -6.9119 -21.1080
# 5 -17.2034 7.2223 8.4003 -6.9119 32.6852 10.9251
# 6 -21.7722 -39.8471 -3.5144 -21.1080 10.9251 22.0953
#
#
#
# Elastic Compliance Matrix: (Units=1/GPa)
#
#
# Indices 1 2 3 4 5 6 
#
# 1 0.081295 -0.025839 -0.005515 -0.015778 0.048770 -0.006556
# 2 -0.025839 0.005796 0.010622 -0.014997 -0.013826 -0.020810
# 3 -0.005515 0.010622 0.007302 0.003663 -0.014970 0.025784
# 4 -0.015778 -0.014997 0.003663 0.024077 0.006605 -0.022275
# 5 0.048770 -0.013826 -0.014970 0.006605 0.066514 -0.005837
# 6 -0.006556 -0.020810 0.025784 -0.022275 -0.005837 -0.013023
#
#
# Mechanical properties :
#
#
# Convention : Reuss Voigt Hill
#
# Bulk Modulus (GPa) = 18.89332 44.81689 31.85510
# Shear Modulus (GPa) = 21.63874 24.05469 22.84671
#
# Velocity S-wave (km/s) = 3.03734 3.20241 3.12097
# Velocity P-wave (km/s) = 4.51171 5.72548 5.15444
#
# Compressibility (1/GPa) = 0.05292877
#
# Stress axis : x y z
#
# Youngs Moduli (GPa) = 12.30085 172.54729 136.95148
#
# Poissons Ratio (x) = 4.45841 0.75530
# Poissons Ratio (y) = 0.31784 -1.45469
# Poissons Ratio (z) = 0.06784 -1.83279
#
# Static dielectric constant tensor:
#      x y z
#    x 1.889340 -0.000850 0.002030 
#    y -0.000850 2.048180 -0.061570 
#    z 0.002030 -0.061570 1.947770 
# 
# From -- ./inp_files/329594.got.cif
#   From: 2010.05.17/outbox.cif.g08.bks.cpg/sg2_165_cif.got.tgz:329594.got - 2010.06.03 11:33:40.
