data_PCOD9100418
_publ_section_title
;
Structure prediction by ZEFSAII (Michael W. Deem and Ramdas Pophale) SiO2 
 PCOD9100418
Probable space group: P -1
;
_chemical_formula_sum "Si O2"
_cell_formula_units_Z 14
_cell_length_a 16.615759
_cell_length_b 14.429631
_cell_length_c 6.621831
_cell_angle_alpha 54.896156
_cell_angle_beta 45.018581
_cell_angle_gamma 27.705336
_cell_volume 515.849152
_symmetry_space_group_name_H-M "P -1"
_symmetry_group_IT_number 2
_symmetry_cell_setting 'triclinic'
loop_
_space_group_symop_operation_xyz
x,y,z
-x,-y,-z
loop_
_atom_site_type_symbol
_atom_site_label
_atom_site_fract_x
_atom_site_fract_y
_atom_site_fract_z
Si Si1 0.893714 0.993184 0.423574
Si Si2 0.780084 0.311922 0.467450
Si Si3 0.871816 0.434367 0.865831
Si Si4 0.563723 0.172094 0.036959
Si Si5 0.476328 0.090501 0.648715
Si Si6 0.601309 0.238305 0.302483
Si Si7 0.160427 0.298983 0.240819
O O1 0.821067 0.061786 0.236580
O O2 0.815222 0.172081 0.447515
O O3 0.745812 0.020320 0.748982
O O4 0.115296 0.786951 0.374483
O O5 0.550431 0.542533 0.618403
O O6 0.897660 0.311348 0.129344
O O7 0.640609 0.624461 0.965264
O O8 0.923450 0.507737 0.798962
O O9 0.001044 0.336607 0.551686
O O10 0.525103 0.087989 0.335637
O O11 0.613292 0.222808 0.059896
O O12 0.496828 0.201409 0.573722
O O13 0.650484 0.878412 0.720746
O O14 0.257253 0.228679 0.936126
#
# Coordination Sequence:
#
# PCOD9100418 Si02
#       7
#     2   2   2   2   2   2   2
#     4  11  23  43  67  90 130 166 203 263 315 368
#     4  11  23  42  65  95 125 167 211 254 314 377
#     4  11  21  38  62  95 124 166 214 253 309 375
#     4  10  22  40  65  94 123 167 205 257 316 371
#     4   9  20  39  57  95 121 160 213 246 313 371
#     4  10  22  43  62  95 127 160 206 261 309 374
#     4  10  20  37  64  85 129 167 205 260 308 363
#
# _framework density 27.139716
#
# number of rings (size 3 to 8) (size 9 to 14) (size 15 to 20)
#    0.857    0.857    2.857    1.286    0.000    2.857 
#    0.000    7.143    0.000    0.000    0.000    0.000 
#    0.000    0.000    0.000    0.000    0.000    0.000 
#
# Total GULP energy -78426.661272 kJ/mol
# GULP energy per Si atom -5601.904377 kJ/mol
# Density = 2.707795 g / cm^3
# Si number density = 27.139716 Si / 1000 Ang^3
#
#
#
# Elastic Constant Matrix: (Units=GPa)
#
#
# Indices 1 2 3 4 5 6 
#
# 1 72.4850 24.3370 11.2500 -2.1214 10.1737 -25.0669
# 2 24.3370 100.5355 24.5225 -13.1468 -1.9941 -7.6352
# 3 11.2500 24.5225 118.3070 -7.2273 15.7441 2.0967
# 4 -2.1214 -13.1468 -7.2273 49.2294 3.6254 -6.7461
# 5 10.1737 -1.9941 15.7441 3.6254 42.7312 -1.2075
# 6 -25.0669 -7.6352 2.0967 -6.7461 -1.2075 52.2752
#
#
#
# Elastic Compliance Matrix: (Units=1/GPa)
#
#
# Indices 1 2 3 4 5 6 
#
# 1 0.018691 -0.003676 -0.000520 0.001229 -0.004294 0.008506
# 2 -0.003676 0.011786 -0.002215 0.002572 0.002035 0.000426
# 3 -0.000520 -0.002215 0.009511 0.000921 -0.003588 -0.000918
# 4 0.001229 0.002572 0.000921 0.021861 -0.002262 0.003697
# 5 -0.004294 0.002035 -0.003588 -0.002262 0.025996 -0.001309
# 6 0.008506 0.000426 -0.000918 0.003697 -0.001309 0.023754
#
#
# Mechanical properties :
#
#
# Convention : Reuss Voigt Hill
#
# Bulk Modulus (GPa) = 36.80903 45.72737 41.26820
# Shear Modulus (GPa) = 37.45959 44.26171 40.86065
#
# Velocity S-wave (km/s) = 3.71920 4.04280 3.88437
# Velocity P-wave (km/s) = 5.65999 6.21915 5.94615
#
# Compressibility (1/GPa) = 0.02716725
#
# Stress axis : x y z
#
# Youngs Moduli (GPa) = 53.50111 84.84633 105.14077
#
# Poissons Ratio (x) = 0.31192 0.05462
# Poissons Ratio (y) = 0.19669 0.23285
# Poissons Ratio (z) = 0.02780 0.18790
#
# Static dielectric constant tensor:
#      x y z
#    x 2.168330 0.092480 -0.009510 
#    y 0.092480 2.056340 -0.033740 
#    z -0.009510 -0.033740 2.143630 
# 
# From -- ./inp_files/348314.got.cif
#   From: 2010.05.17/outbox.cif.g08.bks.cpg/sg2_175_cif.got.tgz:348314.got - 2010.06.03 11:33:40.
