data_PCOD9100631
_publ_section_title
;
Structure prediction by ZEFSAII (Michael W. Deem and Ramdas Pophale) SiO2 
 PCOD9100631
Probable space group: P -1
;
_chemical_formula_sum "Si O2"
_cell_formula_units_Z 16
_cell_length_a 14.504773
_cell_length_b 7.512049
_cell_length_c 14.706412
_cell_angle_alpha 118.916950
_cell_angle_beta 149.386711
_cell_angle_gamma 70.809120
_cell_volume 700.402963
_symmetry_space_group_name_H-M "P -1"
_symmetry_group_IT_number 2
_symmetry_cell_setting 'triclinic'
loop_
_space_group_symop_operation_xyz
x,y,z
-x,-y,-z
loop_
_atom_site_type_symbol
_atom_site_label
_atom_site_fract_x
_atom_site_fract_y
_atom_site_fract_z
Si Si1 0.611916 0.778807 0.688557
Si Si2 0.805672 0.253072 0.710203
Si Si3 0.953670 0.697377 0.247813
Si Si4 0.163260 0.567878 0.552495
Si Si5 0.936344 0.071544 0.099674
Si Si6 0.322541 0.524850 0.179184
Si Si7 0.700613 0.599308 0.540566
Si Si8 0.094715 0.838960 0.710291
O O1 0.412182 0.829351 0.513518
O O2 0.627385 0.675715 0.774940
O O3 0.657784 0.606835 0.613918
O O4 0.779955 0.975396 0.872158
O O5 0.887059 0.329289 0.698117
O O6 0.806705 0.390752 0.836318
O O7 0.939796 0.096361 0.810507
O O8 0.996059 0.631520 0.368420
O O9 0.940461 0.938981 0.296670
O O10 0.776551 0.552264 0.016672
O O11 0.303264 0.557342 0.586683
O O12 0.215125 0.736767 0.716594
O O13 0.090590 0.340903 0.478510
O O14 0.093784 0.265122 0.256304
O O15 0.834950 0.124780 0.117995
O O16 0.515834 0.685962 0.374909
#
# Coordination Sequence:
#
# PCOD9100631 Si02
#       8
#     2   2   2   2   2   2   2   2
#     4  11  20  36  58  84 119 157 201 240 302 365
#     4  10  21  35  59  86 120 165 191 245 308 353
#     4  11  20  37  61  89 118 159 205 244 302 365
#     4  10  20  37  65  81 116 159 202 249 313 344
#     4  10  21  39  58  85 123 152 202 254 298 358
#     4  11  21  35  56  85 126 154 200 244 296 366
#     4  10  22  37  55  89 118 157 198 252 293 363
#     4   9  20  39  60  86 114 156 203 256 296 357
#
# _framework density 22.843993000000001
#
# number of rings (size 3 to 8) (size 9 to 14) (size 15 to 20)
#    0.000    1.750    2.500    4.125    1.750    2.000 
#    4.500    0.625    5.500    2.250    0.000    0.000 
#    0.000    0.000    0.000    0.000    0.000    0.000 
#
# Total GULP energy -89132.151952 kJ/mol
# GULP energy per Si atom -5570.759497 kJ/mol
# Density = 2.279200 g / cm^3
# Si number density = 22.843993 Si / 1000 Ang^3
#
#
#
# Elastic Constant Matrix: (Units=GPa)
#
#
# Indices 1 2 3 4 5 6 
#
# 1 108.6072 25.7255 26.3968 8.8266 -12.2876 -16.2784
# 2 25.7255 66.0506 18.7747 18.5948 -6.0308 -0.8281
# 3 26.3968 18.7747 96.7021 2.5890 8.9210 -8.7757
# 4 8.8266 18.5948 2.5890 24.6384 -2.6489 -8.4373
# 5 -12.2876 -6.0308 8.9210 -2.6489 33.9464 5.6698
# 6 -16.2784 -0.8281 -8.7757 -8.4373 5.6698 35.1204
#
#
#
# Elastic Compliance Matrix: (Units=1/GPa)
#
#
# Indices 1 2 3 4 5 6 
#
# 1 0.011655 -0.003673 -0.002423 0.000707 0.003539 0.004309
# 2 -0.003673 0.022851 -0.003921 -0.017507 0.003551 -0.006922
# 3 -0.002423 -0.003921 0.012475 0.003156 -0.005190 0.003498
# 4 0.000707 -0.017507 0.003156 0.058154 -0.001641 0.014939
# 5 0.003539 0.003551 -0.005190 -0.001641 0.033504 -0.005376
# 6 0.004309 -0.006922 0.003498 0.014939 -0.005376 0.035638
#
#
# Mechanical properties :
#
#
# Convention : Reuss Voigt Hill
#
# Bulk Modulus (GPa) = 37.10800 45.90598 41.50699
# Shear Modulus (GPa) = 24.59503 32.10523 28.35013
#
# Velocity S-wave (km/s) = 3.28480 3.75295 3.52665
# Velocity P-wave (km/s) = 5.53768 6.23847 5.89849
#
# Compressibility (1/GPa) = 0.02694836
#
# Stress axis : x y z
#
# Youngs Moduli (GPa) = 85.80050 43.76197 80.15783
#
# Poissons Ratio (x) = 0.16072 0.19420
# Poissons Ratio (y) = 0.31511 0.31430
# Poissons Ratio (z) = 0.20787 0.17159
#
# Static dielectric constant tensor:
#      x y z
#    x 1.889330 0.058490 0.038460 
#    y 0.058490 2.041520 0.010930 
#    z 0.038460 0.010930 1.873190 
# 
# From -- ./inp_files/530075.got.cif
#   From: 2010.05.17/outbox.cif.g08.bks.cpg/sg2_266_cif.got.tgz:530075.got - 2010.06.03 11:33:40.
