data_PCOD9100397
_publ_section_title
;
Structure prediction by ZEFSAII (Michael W. Deem and Ramdas Pophale) SiO2 
 PCOD9100397
Probable space group: P -1
;
_chemical_formula_sum "Si O2"
_cell_formula_units_Z 12
_cell_length_a 13.766231
_cell_length_b 11.256871
_cell_length_c 7.995829
_cell_angle_alpha 134.756049
_cell_angle_beta 129.130482
_cell_angle_gamma 32.455071
_cell_volume 469.948916
_symmetry_space_group_name_H-M "P -1"
_symmetry_group_IT_number 2
_symmetry_cell_setting 'triclinic'
loop_
_space_group_symop_operation_xyz
x,y,z
-x,-y,-z
loop_
_atom_site_type_symbol
_atom_site_label
_atom_site_fract_x
_atom_site_fract_y
_atom_site_fract_z
Si Si1 0.772490 0.592697 0.519489
Si Si2 0.212704 0.745145 0.984250
Si Si3 0.458273 0.614176 0.806989
Si Si4 0.065246 0.500860 0.887336
Si Si5 0.160200 0.714498 0.403889
Si Si6 0.542646 0.923593 0.164033
O O1 0.773352 0.470131 0.242175
O O2 0.850059 0.394596 0.552458
O O3 0.902718 0.626588 0.707426
O O4 0.576041 0.845926 0.614790
O O5 0.321031 0.721064 0.921559
O O6 0.347160 0.654756 0.195778
O O7 0.000000 0.000000 0.000000
O O8 0.347877 0.628646 0.554268
O O9 0.484706 0.786312 0.984262
O O10 0.244998 0.239515 0.753444
O O11 0.131413 0.622468 0.123427
O O12 0.000000 0.500000 0.000000
O O13 0.000000 0.000000 0.500000
O O14 0.500000 0.000000 0.000000
#
# Coordination Sequence:
#
# PCOD9100397 Si02
#       6
#     2   2   2   2   2   2
#     4  10  23  42  66  98 136 182 232 280 343 413
#     4  10  24  52  72  97 135 184 244 293 333 401
#     4  10  25  43  72 102 138 183 239 276 349 413
#     4  10  21  39  61  96 140 177 219 269 346 413
#     4  10  20  37  63  99 137 177 218 279 339 410
#     4  12  23  42  66 102 147 179 218 285 349 420
#
# _framework density 25.534687999999999
#
# number of rings (size 3 to 8) (size 9 to 14) (size 15 to 20)
#    0.000    1.667    3.333    1.000    2.333    9.333 
#    0.000    1.667    0.000    0.000    0.000    0.000 
#    0.000    0.000    0.000    0.000    0.000    0.000 
#
# Total GULP energy -67138.276380 kJ/mol
# GULP energy per Si atom -5594.856365 kJ/mol
# Density = 2.547657 g / cm^3
# Si number density = 25.534688 Si / 1000 Ang^3
#
#
#
# Elastic Constant Matrix: (Units=GPa)
#
#
# Indices 1 2 3 4 5 6 
#
# 1 130.7900 57.6749 27.4232 -6.9243 9.0375 -20.6876
# 2 57.6749 173.9069 72.5348 -6.3639 0.6373 -51.8670
# 3 27.4232 72.5348 151.7791 -16.0524 5.1609 -21.8995
# 4 -6.9243 -6.3639 -16.0524 42.9870 -3.3070 -2.0464
# 5 9.0375 0.6373 5.1609 -3.3070 25.5328 4.3762
# 6 -20.6876 -51.8670 -21.8995 -2.0464 4.3762 55.6443
#
#
#
# Elastic Compliance Matrix: (Units=1/GPa)
#
#
# Indices 1 2 3 4 5 6 
#
# 1 0.009297 -0.002650 -0.000022 0.000902 -0.003322 0.001273
# 2 -0.002650 0.010163 -0.003328 0.000188 0.000152 0.007173
# 3 -0.000022 -0.003328 0.008575 0.002622 -0.001383 0.000470
# 4 0.000902 0.000188 0.002622 0.024674 0.001948 0.002297
# 5 -0.003322 0.000152 -0.001383 0.001948 0.041700 -0.004846
# 6 0.001273 0.007173 0.000470 0.002297 -0.004846 0.025781
#
#
# Mechanical properties :
#
#
# Convention : Reuss Voigt Hill
#
# Bulk Modulus (GPa) = 62.35901 85.74908 74.05405
# Shear Modulus (GPa) = 36.35449 44.75569 40.55509
#
# Velocity S-wave (km/s) = 3.77733 4.19112 3.98959
# Velocity P-wave (km/s) = 6.59535 7.55479 7.09132
#
# Compressibility (1/GPa) = 0.01603617
#
# Stress axis : x y z
#
# Youngs Moduli (GPa) = 107.55694 98.39852 116.61630
#
# Poissons Ratio (x) = 0.26072 0.00252
# Poissons Ratio (y) = 0.28498 0.38814
# Poissons Ratio (z) = 0.00232 0.32751
#
# Static dielectric constant tensor:
#      x y z
#    x 2.097220 -0.018030 0.004780 
#    y -0.018030 1.996850 -0.032560 
#    z 0.004780 -0.032560 2.076390 
# 
# From -- ./inp_files/308864.got.cif
#   From: 2010.05.17/outbox.cif.g08.bks.cpg/sg2_155_cif.got.tgz:308864.got - 2010.06.03 11:33:40.
