data_PCOD9100116
_publ_section_title
;
Structure prediction by ZEFSAII (Michael W. Deem and Ramdas Pophale) SiO2 
 PCOD9100116
Probable space group: P -1
;
_chemical_formula_sum "Si O2"
_cell_formula_units_Z 16
_cell_length_a 13.381494
_cell_length_b 8.525316
_cell_length_c 12.151233
_cell_angle_alpha 52.836601
_cell_angle_beta 128.157672
_cell_angle_gamma 102.310519
_cell_volume 839.849170
_symmetry_space_group_name_H-M "P -1"
_symmetry_group_IT_number 2
_symmetry_cell_setting 'triclinic'
loop_
_space_group_symop_operation_xyz
x,y,z
-x,-y,-z
loop_
_atom_site_type_symbol
_atom_site_label
_atom_site_fract_x
_atom_site_fract_y
_atom_site_fract_z
Si Si1 0.139388 0.806640 0.876028
Si Si2 0.487908 0.421946 0.147698
Si Si3 0.953326 0.441338 0.375221
Si Si4 0.220241 0.818566 0.524480
Si Si5 0.607232 0.123814 0.035628
Si Si6 0.791369 0.644888 0.984119
Si Si7 0.931106 0.962038 0.856721
Si Si8 0.842833 0.931923 0.424110
O O1 0.271211 0.880844 0.962572
O O2 0.168488 0.571792 0.960739
O O3 0.042489 0.857434 0.889534
O O4 0.094262 0.930324 0.677689
O O5 0.624471 0.269455 0.339172
O O6 0.500000 0.500000 0.000000
O O7 0.458644 0.636225 0.101537
O O8 0.363017 0.326620 0.110661
O O9 0.841444 0.326009 0.378950
O O10 0.878035 0.615074 0.167595
O O11 0.000000 0.500000 0.500000
O O12 0.078831 0.293877 0.462119
O O13 0.151866 0.841839 0.349552
O O14 0.173983 0.027406 0.474606
O O15 0.691695 0.020079 0.243083
O O16 0.500000 0.000000 0.000000
O O17 0.832155 0.821314 0.871315
O O18 0.000000 0.000000 0.000000
#
# Coordination Sequence:
#
# PCOD9100116 Si02
#       8
#     2   2   2   2   2   2   2   2
#     4   9  19  40  62  86 119 164 206 251 309 366
#     4  11  20  38  65  93 119 162 209 257 305 362
#     4  12  22  34  61  95 121 155 205 265 303 350
#     4  12  21  41  65  87 128 160 209 258 299 382
#     4   9  19  34  60  95 127 151 193 265 315 354
#     4  11  23  40  61  88 125 164 210 248 306 381
#     4  12  26  41  59  91 128 165 201 261 320 359
#     4  10  20  37  62  95 117 157 210 249 313 351
#
# _framework density 19.05104
#
# number of rings (size 3 to 8) (size 9 to 14) (size 15 to 20)
#    0.750    0.500    5.000    2.250    1.750    1.500 
#    0.000    0.000    0.000    1.500    0.000    0.000 
#    0.000    0.000    0.000    0.000    0.000    0.000 
#
# Total GULP energy -89101.034129 kJ/mol
# GULP energy per Si atom -5568.814633 kJ/mol
# Density = 1.900768 g / cm^3
# Si number density = 19.051040 Si / 1000 Ang^3
#
#
#
# Elastic Constant Matrix: (Units=GPa)
#
#
# Indices 1 2 3 4 5 6 
#
# 1 125.7130 39.7546 44.4367 10.0359 13.9444 7.0092
# 2 39.7546 47.5988 6.5318 14.7079 9.0291 5.7014
# 3 44.4367 6.5318 82.9463 15.4755 12.5110 -13.6570
# 4 10.0359 14.7079 15.4755 26.9999 1.5369 -6.1939
# 5 13.9444 9.0291 12.5110 1.5369 36.2604 -4.0740
# 6 7.0092 5.7014 -13.6570 -6.1939 -4.0740 31.6547
#
#
#
# Elastic Compliance Matrix: (Units=1/GPa)
#
#
# Indices 1 2 3 4 5 6 
#
# 1 0.014576 -0.012111 -0.008374 0.005150 -0.000334 -0.003694
# 2 -0.012111 0.039132 0.007633 -0.022229 -0.007496 -0.006388
# 3 -0.008374 0.007633 0.019603 -0.010588 -0.004286 0.006313
# 4 0.005150 -0.022229 -0.010588 0.055225 0.005976 0.009870
# 5 -0.000334 -0.007496 -0.004286 0.005976 0.031335 0.004777
# 6 -0.003694 -0.006388 0.006313 0.009870 0.004777 0.038829
#
#
# Mechanical properties :
#
#
# Convention : Reuss Voigt Hill
#
# Bulk Modulus (GPa) = 21.00552 48.63381 34.81966
# Shear Modulus (GPa) = 20.80966 30.01866 25.41416
#
# Velocity S-wave (km/s) = 3.30860 3.97381 3.65636
# Velocity P-wave (km/s) = 5.06415 6.82924 6.01183
#
# Compressibility (1/GPa) = 0.04760653
#
# Stress axis : x y z
#
# Youngs Moduli (GPa) = 68.60453 25.55465 51.01371
#
# Poissons Ratio (x) = 0.30948 0.42719
# Poissons Ratio (y) = 0.83084 -0.38936
# Poissons Ratio (z) = 0.57450 -0.19505
#
# Static dielectric constant tensor:
#      x y z
#    x 1.674110 -0.008000 0.051450 
#    y -0.008000 1.724440 0.016430 
#    z 0.051450 0.016430 1.729990 
# 
# From -- ./inp_files/392985.got.cif
#   From: 2010.05.17/outbox.cif.g08.bks.cpg/sg2_197_cif.got.tgz:392985.got - 2010.06.03 11:33:40.
