data_PCOD9100878
_publ_section_title
;
Structure prediction by ZEFSAII (Michael W. Deem and Ramdas Pophale) SiO2 
 PCOD9100878
Probable space group: P -1
;
_chemical_formula_sum "Si O2"
_cell_formula_units_Z 16
_cell_length_a 8.190222
_cell_length_b 8.907310
_cell_length_c 18.971302
_cell_angle_alpha 37.760726
_cell_angle_beta 103.912310
_cell_angle_gamma 81.510298
_cell_volume 676.980362
_symmetry_space_group_name_H-M "P -1"
_symmetry_group_IT_number 2
_symmetry_cell_setting 'triclinic'
loop_
_space_group_symop_operation_xyz
x,y,z
-x,-y,-z
loop_
_atom_site_type_symbol
_atom_site_label
_atom_site_fract_x
_atom_site_fract_y
_atom_site_fract_z
Si Si1 0.575164 0.200853 0.802744
Si Si2 0.882989 0.482311 0.191260
Si Si3 0.406581 0.846821 0.873886
Si Si4 0.832027 0.529957 0.889965
Si Si5 0.594564 0.267415 0.935837
Si Si6 0.960999 0.874705 0.365045
Si Si7 0.097158 0.667443 0.603251
Si Si8 0.152129 0.978944 0.224160
O O1 0.664602 0.126867 0.918372
O O2 0.342346 0.485208 0.683436
O O3 0.564100 0.936412 0.867069
O O4 0.708701 0.227516 0.749020
O O5 0.638380 0.631091 0.117318
O O6 0.947194 0.469889 0.283638
O O7 0.002077 0.562011 0.120519
O O8 0.948457 0.161159 0.287937
O O9 0.252661 0.021883 0.730132
O O10 0.500000 0.500000 0.000000
O O11 0.304295 0.925678 0.911565
O O12 0.644116 0.514361 0.852915
O O13 0.760096 0.857503 0.785312
O O14 0.951311 0.278274 0.057203
O O15 0.014848 0.675250 0.513827
O O16 0.108020 0.799955 0.341339
O O17 0.000000 0.000000 0.500000
#
# Coordination Sequence:
#
# PCOD9100878 Si02
#       8
#     2   2   2   2   2   2   2   2
#     4  11  25  39  62  96 134 170 220 271 322 396
#     4   9  19  37  66  96 123 171 222 268 318 393
#     4  12  22  38  66 100 130 168 216 270 336 396
#     4  10  20  37  66  95 137 171 212 268 339 394
#     4  11  21  39  61  97 135 169 207 271 337 389
#     4  10  20  38  67  88 128 179 213 266 328 384
#     4   9  21  44  67  88 127 179 223 265 323 385
#     4  10  21  37  58 101 131 165 217 274 324 396
#
# _framework density 23.634360999999998
#
# number of rings (size 3 to 8) (size 9 to 14) (size 15 to 20)
#    0.000    1.750    2.500    1.875    1.750    2.500 
#    4.500    0.000    5.500    9.750    0.000    0.000 
#    0.000    0.000    0.000    0.000    0.000    0.000 
#
# Total GULP energy -89236.211591 kJ/mol
# GULP energy per Si atom -5577.263224 kJ/mol
# Density = 2.358057 g / cm^3
# Si number density = 23.634361 Si / 1000 Ang^3
#
#
#
# Elastic Constant Matrix: (Units=GPa)
#
#
# Indices 1 2 3 4 5 6 
#
# 1 94.6678 48.1601 16.9686 28.2195 -17.9093 -6.8286
# 2 48.1601 137.4313 52.7058 25.2961 -8.6023 -32.7490
# 3 16.9686 52.7058 64.1064 35.3711 1.7266 1.5898
# 4 28.2195 25.2961 35.3711 67.3753 -2.2820 -3.7004
# 5 -17.9093 -8.6023 1.7266 -2.2820 20.4525 1.3154
# 6 -6.8286 -32.7490 1.5898 -3.7004 1.3154 46.7063
#
#
#
# Elastic Compliance Matrix: (Units=1/GPa)
#
#
# Indices 1 2 3 4 5 6 
#
# 1 0.016931 -0.006278 0.004136 -0.006684 0.011278 -0.002914
# 2 -0.006278 0.018040 -0.016511 0.005328 0.003267 0.012624
# 3 0.004136 -0.016511 0.037572 -0.016243 -0.007450 -0.013329
# 4 -0.006684 0.005328 -0.016243 0.024462 0.000151 0.005246
# 5 0.011278 0.003267 -0.007450 0.000151 0.060629 0.002498
# 6 -0.002914 0.012624 -0.013329 0.005246 0.002498 0.030635
#
#
# Mechanical properties :
#
#
# Convention : Reuss Voigt Hill
#
# Bulk Modulus (GPa) = 28.37830 59.09716 43.73773
# Shear Modulus (GPa) = 21.06846 38.79822 29.93334
#
# Velocity S-wave (km/s) = 2.98893 4.05606 3.56268
# Velocity P-wave (km/s) = 4.89335 6.85526 5.95565
#
# Compressibility (1/GPa) = 0.03523819
#
# Stress axis : x y z
#
# Youngs Moduli (GPa) = 59.06193 55.43102 26.61522
#
# Poissons Ratio (x) = 0.34798 -0.11009
# Poissons Ratio (y) = 0.37078 0.43946
# Poissons Ratio (z) = -0.24429 0.91525
#
# Static dielectric constant tensor:
#      x y z
#    x 1.919000 0.002010 -0.021480 
#    y 0.002010 1.964440 -0.033370 
#    z -0.021480 -0.033370 2.048400 
# 
# From -- ./inp_files/556888.got.cif
#   From: 2010.05.17/outbox.cif.g08.bks.cpg/sg2_279_cif.got.tgz:556888.got - 2010.06.03 11:33:40.
