data_PCOD9100216
_publ_section_title
;
Structure prediction by ZEFSAII (Michael W. Deem and Ramdas Pophale) SiO2 
 PCOD9100216
Probable space group: P -1
;
_chemical_formula_sum "Si O2"
_cell_formula_units_Z 16
_cell_length_a 19.566312
_cell_length_b 7.635750
_cell_length_c 11.016833
_cell_angle_alpha 149.937325
_cell_angle_beta 47.378210
_cell_angle_gamma 127.282032
_cell_volume 605.860821
_symmetry_space_group_name_H-M "P -1"
_symmetry_group_IT_number 2
_symmetry_cell_setting 'triclinic'
loop_
_space_group_symop_operation_xyz
x,y,z
-x,-y,-z
loop_
_atom_site_type_symbol
_atom_site_label
_atom_site_fract_x
_atom_site_fract_y
_atom_site_fract_z
Si Si1 0.236676 0.917109 0.999392
Si Si2 0.085536 0.486047 0.298430
Si Si3 0.186536 0.895048 0.591103
Si Si4 0.355083 0.379186 0.669774
Si Si5 0.546895 0.522162 0.628127
Si Si6 0.936418 0.420411 0.887241
Si Si7 0.417750 0.244221 0.996239
Si Si8 0.132432 0.682370 0.773569
O O1 0.130048 0.876527 0.148749
O O2 0.307662 0.252010 0.101351
O O3 0.289995 0.690191 0.897633
O O4 0.223376 0.701021 0.759368
O O5 0.060176 0.655670 0.305297
O O6 0.000000 0.500000 0.500000
O O7 0.180155 0.678990 0.346219
O O8 0.103491 0.080272 0.030356
O O9 0.284780 0.073455 0.616694
O O10 0.151140 0.624945 0.575791
O O11 0.116850 0.210501 0.831919
O O12 0.435456 0.517231 0.745450
O O13 0.404392 0.265546 0.416027
O O14 0.575871 0.669548 0.813683
O O15 0.564312 0.124464 0.319484
O O16 0.045764 0.477054 0.819290
O O17 0.500000 0.500000 0.000000
#
# Coordination Sequence:
#
# PCOD9100216 Si02
#       8
#     2   2   2   2   2   2   2   2
#     4  10  24  41  60  95 126 167 216 269 328 394
#     4  11  19  36  60  88 117 167 217 261 318 382
#     4  10  20  37  63  88 123 160 219 260 313 387
#     4   9  22  42  67  95 123 174 216 272 316 406
#     4  10  23  46  73  95 132 179 218 268 339 395
#     4  10  20  39  61  83 125 170 208 263 315 390
#     4  11  25  46  71 102 138 169 216 279 337 397
#     4  11  21  38  60  88 128 169 211 265 327 377
#
# _framework density 26.408702999999999
#
# number of rings (size 3 to 8) (size 9 to 14) (size 15 to 20)
#    0.000    1.750    2.500    1.500    3.500    5.500 
#    6.750    0.625    0.000    0.000    0.000    0.000 
#    0.000    0.000    0.000    0.000    0.000    0.000 
#
# Total GULP energy -89280.899800 kJ/mol
# GULP energy per Si atom -5580.056238 kJ/mol
# Density = 2.634860 g / cm^3
# Si number density = 26.408703 Si / 1000 Ang^3
#
#
#
# Elastic Constant Matrix: (Units=GPa)
#
#
# Indices 1 2 3 4 5 6 
#
# 1 138.2065 41.6207 31.0325 -1.4736 26.1584 46.8624
# 2 41.6207 172.8322 25.7988 8.5250 12.1167 37.5568
# 3 31.0325 25.7988 95.3589 12.7200 -0.5043 5.7558
# 4 -1.4736 8.5250 12.7200 28.4904 -4.9742 0.3355
# 5 26.1584 12.1167 -0.5043 -4.9742 37.5939 1.6519
# 6 46.8624 37.5568 5.7558 0.3355 1.6519 47.9253
#
#
#
# Elastic Compliance Matrix: (Units=1/GPa)
#
#
# Indices 1 2 3 4 5 6 
#
# 1 0.014557 0.000821 -0.004282 0.000888 -0.009717 -0.014035
# 2 0.000821 0.007531 -0.001680 -0.001908 -0.002993 -0.006386
# 3 -0.004282 -0.001680 0.012777 -0.004969 0.002863 0.003906
# 4 0.000888 -0.001908 -0.004969 0.038804 0.005031 0.000779
# 5 -0.009717 -0.002993 0.002863 0.005031 0.034578 0.010276
# 6 -0.014035 -0.006386 0.003906 0.000779 0.010276 0.038765
#
#
# Mechanical properties :
#
#
# Convention : Reuss Voigt Hill
#
# Bulk Modulus (GPa) = 40.68087 67.03351 53.85719
# Shear Modulus (GPa) = 30.21343 43.33163 36.77253
#
# Velocity S-wave (km/s) = 3.38608 4.05508 3.73559
# Velocity P-wave (km/s) = 5.54303 6.88209 6.24853
#
# Compressibility (1/GPa) = 0.02458158
#
# Stress axis : x y z
#
# Youngs Moduli (GPa) = 68.69436 132.79020 78.26507
#
# Poissons Ratio (x) = -0.10899 0.33514
# Poissons Ratio (y) = -0.05638 0.13151
# Poissons Ratio (z) = 0.29416 0.22314
#
# Static dielectric constant tensor:
#      x y z
#    x 2.117630 0.030110 -0.005780 
#    y 0.030110 2.124100 -0.028230 
#    z -0.005780 -0.028230 2.267550 
# 
# From -- ./inp_files/39295.got.cif
#   From: 2010.05.17/outbox.cif.g08.bks.cpg/sg2_20_cif.got.tgz:39295.got - 2010.06.03 11:33:40.
