data_PCOD9100784
_publ_section_title
;
Structure prediction by ZEFSAII (Michael W. Deem and Ramdas Pophale) SiO2 
 PCOD9100784
Probable space group: P -1
;
_chemical_formula_sum "Si O2"
_cell_formula_units_Z 14
_cell_length_a 7.406413
_cell_length_b 24.787395
_cell_length_c 13.186620
_cell_angle_alpha 158.093962
_cell_angle_beta 121.307402
_cell_angle_gamma 50.460906
_cell_volume 674.987172
_symmetry_space_group_name_H-M "P -1"
_symmetry_group_IT_number 2
_symmetry_cell_setting 'triclinic'
loop_
_space_group_symop_operation_xyz
x,y,z
-x,-y,-z
loop_
_atom_site_type_symbol
_atom_site_label
_atom_site_fract_x
_atom_site_fract_y
_atom_site_fract_z
Si Si1 0.733207 0.278545 0.309692
Si Si2 0.824478 0.351983 0.691190
Si Si3 0.923349 0.019088 0.207244
Si Si4 0.759689 0.672892 0.737173
Si Si5 0.157095 0.029790 0.680980
Si Si6 0.347065 0.290734 0.674322
Si Si7 0.229367 0.221041 0.297209
O O1 0.746853 0.322057 0.505750
O O2 0.458242 0.350698 0.323314
O O3 0.930175 0.317077 0.380020
O O4 0.851489 0.080872 0.976638
O O5 0.829632 0.210863 0.517365
O O6 0.102021 0.312496 0.693091
O O7 0.659164 0.536919 0.003576
O O8 0.978178 0.946103 0.208584
O O9 0.733473 0.965407 0.014990
O O10 0.691231 0.739258 0.716722
O O11 0.000000 0.500000 0.500000
O O12 0.804135 0.811700 0.047612
O O13 0.417269 0.867637 0.490789
O O14 0.000000 0.000000 0.500000
O O15 0.314138 0.269347 0.508050
#
# Coordination Sequence:
#
# PCOD9100784 Si02
#       7
#     2   2   2   2   2   2   2
#     4   9  20  39  64  93 129 154 208 265 294 378
#     4  10  20  37  65  99 119 161 205 259 324 358
#     4   9  20  39  63  89 123 160 203 256 316 358
#     4  11  24  40  66  90 123 173 214 248 311 374
#     4  11  26  43  57  90 134 166 207 259 312 372
#     4  10  22  39  63  92 131 158 206 263 311 374
#     4   8  21  40  61  97 117 161 207 259 313 352
#
# _framework density 20.741135
#
# number of rings (size 3 to 8) (size 9 to 14) (size 15 to 20)
#    0.857    1.429    0.000    1.286    6.000    3.429 
#    0.000    2.857    0.000    0.000    0.000    0.000 
#    0.000    0.000    0.000    0.000    0.000    0.000 
#
# Total GULP energy -78065.845268 kJ/mol
# GULP energy per Si atom -5576.131805 kJ/mol
# Density = 2.069393 g / cm^3
# Si number density = 20.741135 Si / 1000 Ang^3
#
#
#
# Elastic Constant Matrix: (Units=GPa)
#
#
# Indices 1 2 3 4 5 6 
#
# 1 53.3939 13.3122 23.8579 -10.9378 -0.1092 -22.9552
# 2 13.3122 88.2923 62.6796 -15.5070 -1.4791 -27.0319
# 3 23.8579 62.6796 150.0328 1.1017 -2.1761 -18.9534
# 4 -10.9378 -15.5070 1.1017 35.8051 0.4099 -6.4433
# 5 -0.1092 -1.4791 -2.1761 0.4099 20.6224 1.6950
# 6 -22.9552 -27.0319 -18.9534 -6.4433 1.6950 34.3190
#
#
#
# Elastic Compliance Matrix: (Units=1/GPa)
#
#
# Indices 1 2 3 4 5 6 
#
# 1 0.043600 0.019098 -0.009532 0.029979 -0.003679 0.044752
# 2 0.019098 0.033772 -0.012619 0.027665 -0.002459 0.037721
# 3 -0.009532 -0.012619 0.012068 -0.010883 0.001501 -0.011768
# 4 0.029979 0.027665 -0.010883 0.057889 -0.004011 0.046899
# 5 -0.003679 -0.002459 0.001501 -0.004011 0.049088 -0.006746
# 6 0.044752 0.037721 -0.011768 0.046899 -0.006746 0.091423
#
#
# Mechanical properties :
#
#
# Convention : Reuss Voigt Hill
#
# Bulk Modulus (GPa) = 11.99997 54.60205 33.30101
# Shear Modulus (GPa) = 15.54127 30.94059 23.24093
#
# Velocity S-wave (km/s) = 2.74030 3.86651 3.35105
# Velocity P-wave (km/s) = 3.97624 6.80557 5.57343
#
# Compressibility (1/GPa) = 0.08333353
#
# Stress axis : x y z
#
# Youngs Moduli (GPa) = 22.93580 29.61051 82.86354
#
# Poissons Ratio (x) = -0.56551 0.78985
# Poissons Ratio (y) = -0.43803 1.04569
# Poissons Ratio (z) = 0.21862 0.37367
#
# Static dielectric constant tensor:
#      x y z
#    x 1.813010 -0.060370 -0.024480 
#    y -0.060370 1.747040 0.037310 
#    z -0.024480 0.037310 1.776300 
# 
# From -- ./inp_files/294970.got.cif
#   From: 2010.05.17/outbox.cif.g08.bks.cpg/sg2_148_cif.got.tgz:294970.got - 2010.06.03 11:33:40.
