data_PCOD9100344
_publ_section_title
;
Structure prediction by ZEFSAII (Michael W. Deem and Ramdas Pophale) SiO2 
 PCOD9100344
Probable space group: P -1
;
_chemical_formula_sum "Si O2"
_cell_formula_units_Z 16
_cell_length_a 19.912314
_cell_length_b 13.176174
_cell_length_c 10.113017
_cell_angle_alpha 33.407491
_cell_angle_beta 150.247064
_cell_angle_gamma 148.023392
_cell_volume 646.659138
_symmetry_space_group_name_H-M "P -1"
_symmetry_group_IT_number 2
_symmetry_cell_setting 'triclinic'
loop_
_space_group_symop_operation_xyz
x,y,z
-x,-y,-z
loop_
_atom_site_type_symbol
_atom_site_label
_atom_site_fract_x
_atom_site_fract_y
_atom_site_fract_z
Si Si1 0.159445 0.032831 0.173416
Si Si2 0.591584 0.862465 0.686095
Si Si3 0.037454 0.593660 0.316403
Si Si4 0.454893 0.912335 0.161499
Si Si5 0.997620 0.792712 0.659678
Si Si6 0.209464 0.036907 0.554805
Si Si7 0.260638 0.743655 0.322213
Si Si8 0.235853 0.453815 0.272582
O O1 0.096612 0.835399 0.184346
O O2 0.290194 0.202029 0.116866
O O3 0.234707 0.036807 0.441458
O O4 0.000000 0.000000 0.000000
O O5 0.575018 0.000337 0.387299
O O6 0.413272 0.723512 0.566076
O O7 0.666492 0.014508 0.770023
O O8 0.171566 0.594496 0.454906
O O9 0.000000 0.500000 0.500000
O O10 0.885001 0.504625 0.066188
O O11 0.388146 0.664720 0.309556
O O12 0.500000 0.000000 0.000000
O O13 0.321052 0.972486 0.895459
O O14 0.836696 0.620169 0.625437
O O15 0.044996 0.863451 0.512774
O O16 0.120800 0.729897 0.005554
O O17 0.000000 0.000000 0.500000
O O18 0.242276 0.262897 0.416192
#
# Coordination Sequence:
#
# PCOD9100344 Si02
#       8
#     2   2   2   2   2   2   2   2
#     4  11  21  38  63  92 124 164 209 265 326 384
#     4  10  21  38  60  88 124 168 214 259 325 385
#     4  10  20  37  63  94 124 163 219 265 319 387
#     4  12  24  40  63  91 127 171 220 260 321 395
#     4   9  19  37  64  96 124 164 213 265 327 383
#     4  11  21  40  65  95 127 170 206 269 331 377
#     4   9  19  38  63  88 124 170 209 264 328 381
#     4  10  23  40  61  95 131 164 216 273 316 385
#
# _framework density 24.742554999999999
#
# number of rings (size 3 to 8) (size 9 to 14) (size 15 to 20)
#    0.000    1.750    3.750    0.750    3.500    1.000 
#    2.250    0.000    0.000    3.750    0.000    0.000 
#    0.000    0.000    0.000    0.000    0.000    0.000 
#
# Total GULP energy -89101.860419 kJ/mol
# GULP energy per Si atom -5568.866276 kJ/mol
# Density = 2.468624 g / cm^3
# Si number density = 24.742555 Si / 1000 Ang^3
#
#
#
# Elastic Constant Matrix: (Units=GPa)
#
#
# Indices 1 2 3 4 5 6 
#
# 1 156.9145 20.9079 -0.2179 -2.4773 4.1809 36.8499
# 2 20.9079 97.1149 10.5748 2.7918 1.4557 0.7511
# 3 -0.2179 10.5748 42.6171 5.6483 17.8082 -3.6060
# 4 -2.4773 2.7918 5.6483 34.5298 4.4156 -1.8364
# 5 4.1809 1.4557 17.8082 4.4156 37.2865 3.6455
# 6 36.8499 0.7511 -3.6060 -1.8364 3.6455 49.7477
#
#
#
# Elastic Compliance Matrix: (Units=1/GPa)
#
#
# Indices 1 2 3 4 5 6 
#
# 1 0.007986 -0.001687 0.000046 0.000433 -0.000331 -0.005847
# 2 -0.001687 0.010992 -0.003112 -0.000621 0.001247 0.000743
# 3 0.000046 -0.003112 0.031014 -0.002768 -0.014684 0.003235
# 4 0.000433 -0.000621 -0.002768 0.029830 -0.002309 0.000758
# 5 -0.000331 0.001247 -0.014684 -0.002309 0.034431 -0.003446
# 6 -0.005847 0.000743 0.003235 0.000758 -0.003446 0.024936
#
#
# Mechanical properties :
#
#
# Convention : Reuss Voigt Hill
#
# Bulk Modulus (GPa) = 24.69971 39.90846 32.30408
# Shear Modulus (GPa) = 30.82747 42.00490 36.41619
#
# Velocity S-wave (km/s) = 3.53360 4.12476 3.84057
# Velocity P-wave (km/s) = 5.16264 6.23292 5.72286
#
# Compressibility (1/GPa) = 0.04048631
#
# Stress axis : x y z
#
# Youngs Moduli (GPa) = 125.21238 90.97127 32.24345
#
# Poissons Ratio (x) = 0.15343 -0.00147
# Poissons Ratio (y) = 0.21119 0.10035
# Poissons Ratio (z) = -0.00570 0.28312
#
# Static dielectric constant tensor:
#      x y z
#    x 2.164830 0.034050 0.138830 
#    y 0.034050 2.110310 0.069800 
#    z 0.138830 0.069800 2.101000 
# 
# From -- ./inp_files/471702.got.cif
#   From: 2010.05.17/outbox.cif.g08.bks.cpg/sg2_236_cif.got.tgz:471702.got - 2010.06.03 11:33:40.
