data_PCOD9100039
_publ_section_title
;
Structure prediction by ZEFSAII (Michael W. Deem and Ramdas Pophale) SiO2 
 PCOD9100039
Probable space group: P -1
;
_chemical_formula_sum "Si O2"
_cell_formula_units_Z 14
_cell_length_a 18.448934
_cell_length_b 15.997049
_cell_length_c 7.637830
_cell_angle_alpha 134.862507
_cell_angle_beta 48.409857
_cell_angle_gamma 158.516796
_cell_volume 584.899810
_symmetry_space_group_name_H-M "P -1"
_symmetry_group_IT_number 2
_symmetry_cell_setting 'triclinic'
loop_
_space_group_symop_operation_xyz
x,y,z
-x,-y,-z
loop_
_atom_site_type_symbol
_atom_site_label
_atom_site_fract_x
_atom_site_fract_y
_atom_site_fract_z
Si Si1 0.083274 0.425008 0.020252
Si Si2 0.425182 0.286811 0.826691
Si Si3 0.927381 0.030316 0.850521
Si Si4 0.713617 0.181166 0.197331
Si Si5 0.683061 0.609969 0.375621
Si Si6 0.392763 0.723767 0.277758
Si Si7 0.458264 0.757567 0.743040
O O1 0.211912 0.564408 0.200178
O O2 0.938638 0.380519 0.155625
O O3 0.237721 0.579781 0.841071
O O4 0.954531 0.168053 0.872889
O O5 0.549531 0.347027 0.862508
O O6 0.459077 0.240636 0.535587
O O7 0.500000 0.500000 0.000000
O O8 0.197288 0.054014 0.911761
O O9 0.150909 0.220414 0.790444
O O10 0.806555 0.793525 0.612772
O O11 0.659668 0.258981 0.436476
O O12 0.591036 0.987220 0.264226
O O13 0.617407 0.021613 0.942703
O O14 0.500000 0.500000 0.500000
O O15 0.586934 0.382774 0.233745
#
# Coordination Sequence:
#
# PCOD9100039 Si02
#       7
#     2   2   2   2   2   2   2
#     4  10  20  41  66  97 122 165 226 268 311 384
#     4  12  24  44  60  96 143 171 205 268 327 391
#     4  10  21  36  62  88 124 171 211 255 319 378
#     4  10  20  43  70  94 121 169 224 269 314 376
#     4  10  20  37  62  91 121 169 221 265 303 378
#     4  10  23  40  69  96 125 169 218 269 317 377
#     4  10  23  38  63  95 131 168 207 267 328 377
#
# _framework density 23.935724
#
# number of rings (size 3 to 8) (size 9 to 14) (size 15 to 20)
#    0.000    1.714    2.857    1.286    4.000    0.571 
#    2.571    2.143    0.000    0.000    0.000    0.000 
#    0.000    0.000    0.000    0.000    0.000    0.000 
#
# Total GULP energy -78142.056075 kJ/mol
# GULP energy per Si atom -5581.575434 kJ/mol
# Density = 2.388124 g / cm^3
# Si number density = 23.935724 Si / 1000 Ang^3
#
#
#
# Elastic Constant Matrix: (Units=GPa)
#
#
# Indices 1 2 3 4 5 6 
#
# 1 60.8642 50.3943 31.3354 -16.4107 -23.7963 2.8934
# 2 50.3943 122.5502 71.6578 -43.1582 -10.4737 17.1539
# 3 31.3354 71.6578 164.3318 -43.9567 -7.9471 10.3632
# 4 -16.4107 -43.1582 -43.9567 55.4036 1.5960 -12.6489
# 5 -23.7963 -10.4737 -7.9471 1.5960 52.4828 -10.1009
# 6 2.8934 17.1539 10.3632 -12.6489 -10.1009 37.6896
#
#
#
# Elastic Compliance Matrix: (Units=1/GPa)
#
#
# Indices 1 2 3 4 5 6 
#
# 1 0.032132 -0.012708 -0.000202 0.000716 0.013366 0.007195
# 2 -0.012708 0.018174 -0.003642 0.006434 -0.003878 -0.005175
# 3 -0.000202 -0.003642 0.008832 0.004284 0.000549 0.000829
# 4 0.000716 0.006434 0.004284 0.027946 0.002543 0.005899
# 5 0.013366 -0.003878 0.000549 0.002543 0.025962 0.008400
# 6 0.007195 -0.005175 0.000829 0.005899 0.008400 0.032338
#
#
# Mechanical properties :
#
#
# Convention : Reuss Voigt Hill
#
# Bulk Modulus (GPa) = 38.40950 72.72456 55.56703
# Shear Modulus (GPa) = 26.71433 42.07245 34.39339
#
# Velocity S-wave (km/s) = 3.34441 4.19707 3.79477
# Velocity P-wave (km/s) = 5.56734 7.34414 6.51658
#
# Compressibility (1/GPa) = 0.02603523
#
# Stress axis : x y z
#
# Youngs Moduli (GPa) = 31.12121 55.02452 113.22624
#
# Poissons Ratio (x) = 0.69925 0.02282
# Poissons Ratio (y) = 0.39549 0.41235
# Poissons Ratio (z) = 0.00627 0.20039
#
# Static dielectric constant tensor:
#      x y z
#    x 1.998290 0.019880 0.077920 
#    y 0.019880 1.907640 0.037290 
#    z 0.077920 0.037290 2.214370 
# 
# From -- ./inp_files/348914.got.cif
#   From: 2010.05.17/outbox.cif.g08.bks.cpg/sg2_175_cif.got.tgz:348914.got - 2010.06.03 11:33:40.
