data_PCOD9100297
_publ_section_title
;
Structure prediction by ZEFSAII (Michael W. Deem and Ramdas Pophale) SiO2 
 PCOD9100297
Probable space group: P -1
;
_chemical_formula_sum "Si O2"
_cell_formula_units_Z 16
_cell_length_a 11.922518
_cell_length_b 12.417226
_cell_length_c 9.233257
_cell_angle_alpha 62.538866
_cell_angle_beta 134.945700
_cell_angle_gamma 122.776688
_cell_volume 806.301719
_symmetry_space_group_name_H-M "P -1"
_symmetry_group_IT_number 2
_symmetry_cell_setting 'triclinic'
loop_
_space_group_symop_operation_xyz
x,y,z
-x,-y,-z
loop_
_atom_site_type_symbol
_atom_site_label
_atom_site_fract_x
_atom_site_fract_y
_atom_site_fract_z
Si Si1 0.224076 0.127781 0.540955
Si Si2 0.878394 0.146845 0.074368
Si Si3 0.141209 0.595785 0.667668
Si Si4 0.503138 0.370235 0.158601
Si Si5 0.596834 0.623188 0.606677
Si Si6 0.723350 0.140740 0.240253
Si Si7 0.341644 0.129961 0.969989
Si Si8 0.060654 0.419921 0.985852
O O1 0.373037 0.242919 0.530480
O O2 0.251605 0.148292 0.726698
O O3 0.045621 0.131587 0.314040
O O4 0.245138 0.991097 0.611774
O O5 0.762902 0.162628 0.092181
O O6 0.925137 0.274666 0.938630
O O7 0.772996 0.010759 0.989535
O O8 0.313627 0.629990 0.715355
O O9 0.144816 0.736169 0.634928
O O10 0.000000 0.500000 0.500000
O O11 0.124473 0.510516 0.849531
O O12 0.476865 0.375781 0.301870
O O13 0.500000 0.500000 0.000000
O O14 0.368731 0.245374 0.036903
O O15 0.500000 0.500000 0.500000
O O16 0.778695 0.610603 0.794760
O O17 0.530364 0.130586 0.101605
O O18 0.000000 0.500000 0.000000
#
# Coordination Sequence:
#
# PCOD9100297 Si02
#       8
#     2   2   2   2   2   2   2   2
#     4  10  21  37  61  93 120 159 211 246 304 371
#     4  10  20  37  63  92 121 161 204 253 302 365
#     4  11  25  42  61  94 125 167 204 253 318 361
#     4  11  23  43  63  88 128 160 206 257 311 369
#     4  11  25  41  65  93 121 165 209 257 307 369
#     4  10  20  38  61  89 123 159 207 246 303 367
#     4  10  21  38  62  90 122 163 200 254 310 360
#     4  11  23  42  64  93 125 158 213 254 302 373
#
# _framework density 19.843688
#
# number of rings (size 3 to 8) (size 9 to 14) (size 15 to 20)
#    0.000    1.500    2.500    3.750    3.500    3.000 
#    2.250    2.500    0.000    0.000    0.000    0.000 
#    0.000    0.000    0.000    0.000    0.000    0.000 
#
# Total GULP energy -89272.522747 kJ/mol
# GULP energy per Si atom -5579.532672 kJ/mol
# Density = 1.979852 g / cm^3
# Si number density = 19.843688 Si / 1000 Ang^3
#
#
#
# Elastic Constant Matrix: (Units=GPa)
#
#
# Indices 1 2 3 4 5 6 
#
# 1 76.4534 50.7825 12.3504 -0.1916 -9.5239 1.6855
# 2 50.7825 215.6519 49.0209 20.5540 -24.8492 6.9369
# 3 12.3504 49.0209 39.5444 9.9621 -5.6119 -3.1582
# 4 -0.1916 20.5540 9.9621 37.7999 1.9780 -3.8526
# 5 -9.5239 -24.8492 -5.6119 1.9780 18.7366 1.6337
# 6 1.6855 6.9369 -3.1582 -3.8526 1.6337 34.2554
#
#
#
# Elastic Compliance Matrix: (Units=1/GPa)
#
#
# Indices 1 2 3 4 5 6 
#
# 1 0.015847 -0.003362 -0.000836 0.001953 0.003150 -0.000107
# 2 -0.003362 0.008523 -0.007806 -0.003315 0.007872 -0.003029
# 3 -0.000836 -0.007806 0.036915 -0.005059 0.000427 0.004436
# 4 0.001953 -0.003315 -0.005059 0.030446 -0.008477 0.003937
# 5 0.003150 0.007872 0.000427 -0.008477 0.066946 -0.005856
# 6 -0.000107 -0.003029 0.004436 0.003937 -0.005856 0.030942
#
#
# Mechanical properties :
#
#
# Convention : Reuss Voigt Hill
#
# Bulk Modulus (GPa) = 26.82449 61.77304 44.29877
# Shear Modulus (GPa) = 22.11884 32.79144 27.45514
#
# Velocity S-wave (km/s) = 3.34227 4.06949 3.72367
# Velocity P-wave (km/s) = 5.33306 7.29920 6.39218
#
# Compressibility (1/GPa) = 0.03727936
#
# Stress axis : x y z
#
# Youngs Moduli (GPa) = 63.10207 117.32270 27.08942
#
# Poissons Ratio (x) = 0.39439 0.02264
# Poissons Ratio (y) = 0.21212 0.21146
# Poissons Ratio (z) = 0.05273 0.91581
#
# Static dielectric constant tensor:
#      x y z
#    x 1.688230 0.023010 0.011390 
#    y 0.023010 1.769260 -0.010910 
#    z 0.011390 -0.010910 1.699270 
# 
# From -- ./inp_files/185939.got.cif
#   From: 2010.05.17/outbox.cif.g08.bks.cpg/sg2_93_cif.got.tgz:185939.got - 2010.06.03 11:33:40.
