data_PCOD9100111
_publ_section_title
;
Structure prediction by ZEFSAII (Michael W. Deem and Ramdas Pophale) SiO2 
 PCOD9100111
Probable space group: P -1
;
_chemical_formula_sum "Si O2"
_cell_formula_units_Z 16
_cell_length_a 11.121725
_cell_length_b 11.041244
_cell_length_c 8.652180
_cell_angle_alpha 138.678747
_cell_angle_beta 72.251934
_cell_angle_gamma 115.964534
_cell_volume 630.203427
_symmetry_space_group_name_H-M "P -1"
_symmetry_group_IT_number 2
_symmetry_cell_setting 'triclinic'
loop_
_space_group_symop_operation_xyz
x,y,z
-x,-y,-z
loop_
_atom_site_type_symbol
_atom_site_label
_atom_site_fract_x
_atom_site_fract_y
_atom_site_fract_z
Si Si1 0.366572 0.001333 0.470504
Si Si2 0.352286 0.967257 0.087654
Si Si3 0.073591 0.769425 0.381109
Si Si4 0.660740 0.604839 0.530367
Si Si5 0.070388 0.086562 0.898986
Si Si6 0.918055 0.342881 0.091173
Si Si7 0.634291 0.556123 0.157051
Si Si8 0.321619 0.393441 0.137898
O O1 0.363496 0.221577 0.657189
O O2 0.500000 0.000000 0.500000
O O3 0.367884 0.932853 0.229144
O O4 0.229174 0.853432 0.450343
O O5 0.227311 0.783308 0.907535
O O6 0.316197 0.163919 0.261535
O O7 0.500000 0.000000 0.000000
O O8 0.075569 0.723741 0.154503
O O9 0.027438 0.944231 0.632587
O O10 0.974339 0.573566 0.304315
O O11 0.500000 0.500000 0.500000
O O12 0.702089 0.552147 0.292552
O O13 0.709591 0.548411 0.621739
O O14 0.027291 0.272009 0.064125
O O15 0.228604 0.171124 0.946096
O O16 0.000000 0.000000 0.000000
O O17 0.479664 0.424746 0.105694
O O18 0.693413 0.509290 0.928189
#
# Coordination Sequence:
#
# PCOD9100111 Si02
#       8
#     2   2   2   2   2   2   2   2
#     4  10  21  36  64  91 128 171 219 277 336 401
#     4  10  22  41  62  94 126 164 215 278 345 399
#     4  10  23  48  68  97 136 182 231 280 343 411
#     4   9  19  38  60  90 131 167 212 272 327 406
#     4  12  25  42  67 100 134 184 228 284 348 412
#     4  10  24  47  70  96 134 180 233 279 341 423
#     4   9  19  37  59  92 128 174 217 274 334 394
#     4  10  20  37  62  94 131 167 225 275 336 399
#
# _framework density 25.388628000000001
#
# number of rings (size 3 to 8) (size 9 to 14) (size 15 to 20)
#    0.000    2.000    1.250    1.125    3.500    1.500 
#   11.250    0.000    0.000    0.000    0.000    0.000 
#    0.000    0.000    0.000    0.000    0.000    0.000 
#
# Total GULP energy -89387.468425 kJ/mol
# GULP energy per Si atom -5586.716777 kJ/mol
# Density = 2.533084 g / cm^3
# Si number density = 25.388628 Si / 1000 Ang^3
#
#
#
# Elastic Constant Matrix: (Units=GPa)
#
#
# Indices 1 2 3 4 5 6 
#
# 1 79.6292 59.3521 26.8276 15.4096 13.3831 17.0190
# 2 59.3521 143.9298 54.3272 6.2378 18.2977 35.4876
# 3 26.8276 54.3272 110.4991 -9.5110 20.8450 1.1506
# 4 15.4096 6.2378 -9.5110 67.0767 -2.4107 14.6069
# 5 13.3831 18.2977 20.8450 -2.4107 31.2402 3.4060
# 6 17.0190 35.4876 1.1506 14.6069 3.4060 45.0851
#
#
#
# Elastic Compliance Matrix: (Units=1/GPa)
#
#
# Indices 1 2 3 4 5 6 
#
# 1 0.019583 -0.006985 -0.000918 -0.004067 -0.003971 -0.000253
# 2 -0.006985 0.013726 -0.004668 0.001476 -0.000896 -0.008459
# 3 -0.000918 -0.004668 0.012720 0.001450 -0.005646 0.003653
# 4 -0.004067 0.001476 0.001450 0.017142 0.001817 -0.005355
# 5 -0.003971 -0.000896 -0.005646 0.001817 0.038267 -0.001131
# 6 -0.000253 -0.008459 0.003653 -0.005355 -0.001131 0.030661
#
#
# Mechanical properties :
#
#
# Convention : Reuss Voigt Hill
#
# Bulk Modulus (GPa) = 47.88205 68.34134 58.11169
# Shear Modulus (GPa) = 30.45000 41.58380 36.01690
#
# Velocity S-wave (km/s) = 3.46693 4.05148 3.77055
# Velocity P-wave (km/s) = 5.90988 6.99017 6.47260
#
# Compressibility (1/GPa) = 0.02088465
#
# Stress axis : x y z
#
# Youngs Moduli (GPa) = 51.06591 72.85518 78.61694
#
# Poissons Ratio (x) = 0.50890 0.07220
# Poissons Ratio (y) = 0.35670 0.36701
# Poissons Ratio (z) = 0.04690 0.34011
#
# Static dielectric constant tensor:
#      x y z
#    x 2.018250 0.034490 0.003850 
#    y 0.034490 1.998380 -0.031000 
#    z 0.003850 -0.031000 2.064580 
# 
# From -- ./inp_files/263464.got.cif
#   From: 2010.05.17/outbox.cif.g08.bks.cpg/sg2_132_cif.got.tgz:263464.got - 2010.06.03 11:33:40.
