data_PCOD9100475
_publ_section_title
;
Structure prediction by ZEFSAII (Michael W. Deem and Ramdas Pophale) SiO2 
 PCOD9100475
Probable space group: P -1
;
_chemical_formula_sum "Si O2"
_cell_formula_units_Z 16
_cell_length_a 15.942564
_cell_length_b 10.239193
_cell_length_c 14.109477
_cell_angle_alpha 135.387174
_cell_angle_beta 152.597816
_cell_angle_gamma 63.970149
_cell_volume 596.914800
_symmetry_space_group_name_H-M "P -1"
_symmetry_group_IT_number 2
_symmetry_cell_setting 'triclinic'
loop_
_space_group_symop_operation_xyz
x,y,z
-x,-y,-z
loop_
_atom_site_type_symbol
_atom_site_label
_atom_site_fract_x
_atom_site_fract_y
_atom_site_fract_z
Si Si1 0.230361 0.487987 0.303912
Si Si2 0.721794 0.950563 0.257317
Si Si3 0.899905 0.986806 0.105934
Si Si4 0.393607 0.993982 0.043133
Si Si5 0.888988 0.514246 0.071050
Si Si6 0.584633 0.728118 0.262825
Si Si7 0.296923 0.838076 0.136774
Si Si8 0.501424 0.479993 0.732975
O O1 0.411018 0.750530 0.587310
O O2 0.323365 0.494900 0.506316
O O3 0.983641 0.425451 0.044366
O O4 0.222910 0.285584 0.141785
O O5 0.522165 0.878706 0.094664
O O6 0.941728 0.208088 0.630341
O O7 0.657819 0.977062 0.101074
O O8 0.709759 0.723451 0.115836
O O9 0.160553 0.086059 0.420184
O O10 0.822668 0.049291 0.965255
O O11 0.832820 0.095478 0.174223
O O12 0.876938 0.401669 0.103199
O O13 0.633408 0.432542 0.765834
O O14 0.411100 0.794733 0.140551
O O15 0.614079 0.687211 0.381555
O O16 0.500000 0.500000 0.000000
O O17 0.500000 0.000000 0.500000
#
# Coordination Sequence:
#
# PCOD9100475 Si02
#       8
#     2   2   2   2   2   2   2   2
#     4  10  21  41  63  96 121 167 222 262 311 394
#     4   9  19  39  62  91 123 166 218 258 316 395
#     4  12  24  41  69  89 134 181 202 269 342 362
#     4   9  21  37  63  95 126 163 217 264 318 389
#     4  10  20  37  64  90 122 165 211 262 311 376
#     4  11  27  43  60 102 137 166 221 273 315 396
#     4  11  25  44  67  97 132 172 225 264 317 403
#     4  10  21  39  65  88 127 167 214 262 319 377
#
# _framework density 26.804494999999999
#
# number of rings (size 3 to 8) (size 9 to 14) (size 15 to 20)
#    0.000    1.750    0.000    4.500    5.250    2.000 
#    0.000    0.000    0.000    7.500    0.000    0.000 
#    0.000    0.000    0.000    0.000    0.000    0.000 
#
# Total GULP energy -89450.388480 kJ/mol
# GULP energy per Si atom -5590.649280 kJ/mol
# Density = 2.674349 g / cm^3
# Si number density = 26.804495 Si / 1000 Ang^3
#
#
#
# Elastic Constant Matrix: (Units=GPa)
#
#
# Indices 1 2 3 4 5 6 
#
# 1 137.5739 25.5123 24.3811 -17.8930 12.1040 -28.0239
# 2 25.5123 80.9476 27.9742 1.6489 0.2179 -23.3928
# 3 24.3811 27.9742 72.9453 -6.4992 1.4076 -9.1551
# 4 -17.8930 1.6489 -6.4992 32.3063 -3.9732 5.5899
# 5 12.1040 0.2179 1.4076 -3.9732 44.1320 -8.5822
# 6 -28.0239 -23.3928 -9.1551 5.5899 -8.5822 47.0395
#
#
#
# Elastic Compliance Matrix: (Units=1/GPa)
#
#
# Indices 1 2 3 4 5 6 
#
# 1 0.009229 -0.001293 -0.001730 0.004005 -0.001372 0.003793
# 2 -0.001293 0.016819 -0.005471 -0.003743 0.001519 0.007251
# 3 -0.001730 -0.005471 0.016526 0.002801 0.000060 -0.000857
# 4 0.004005 -0.003743 0.002801 0.034581 0.001403 -0.002784
# 5 -0.001372 0.001519 0.000060 0.001403 0.023960 0.004155
# 6 0.003793 0.007251 -0.000857 -0.002784 0.004155 0.028046
#
#
# Mechanical properties :
#
#
# Convention : Reuss Voigt Hill
#
# Bulk Modulus (GPa) = 39.08088 49.68913 44.38501
# Shear Modulus (GPa) = 32.32525 38.93550 35.63037
#
# Velocity S-wave (km/s) = 3.47647 3.81540 3.64987
# Velocity P-wave (km/s) = 5.54311 6.16340 5.86147
#
# Compressibility (1/GPa) = 0.02558796
#
# Stress axis : x y z
#
# Youngs Moduli (GPa) = 108.35169 59.45495 60.51090
#
# Poissons Ratio (x) = 0.07687 0.10466
# Poissons Ratio (y) = 0.14009 0.33104
# Poissons Ratio (z) = 0.18741 0.32526
#
# Static dielectric constant tensor:
#      x y z
#    x 2.092890 0.037330 -0.025690 
#    y 0.037330 2.137040 0.019670 
#    z -0.025690 0.019670 2.098500 
# 
# From -- ./inp_files/532755.got.cif
#   From: 2010.05.17/outbox.cif.g08.bks.cpg/sg2_267_cif.got.tgz:532755.got - 2010.06.03 11:33:40.
