data_PCOD9100403
_publ_section_title
;
Structure prediction by ZEFSAII (Michael W. Deem and Ramdas Pophale) SiO2 
 PCOD9100403
Probable space group: P -1
;
_chemical_formula_sum "Si O2"
_cell_formula_units_Z 16
_cell_length_a 15.597242
_cell_length_b 8.787532
_cell_length_c 15.225853
_cell_angle_alpha 94.004430
_cell_angle_beta 26.642507
_cell_angle_gamma 111.968727
_cell_volume 669.612013
_symmetry_space_group_name_H-M "P -1"
_symmetry_group_IT_number 2
_symmetry_cell_setting 'triclinic'
loop_
_space_group_symop_operation_xyz
x,y,z
-x,-y,-z
loop_
_atom_site_type_symbol
_atom_site_label
_atom_site_fract_x
_atom_site_fract_y
_atom_site_fract_z
Si Si1 0.869670 0.811291 0.406576
Si Si2 0.223464 0.471358 0.392636
Si Si3 0.306793 0.565297 0.858534
Si Si4 0.670823 0.207768 0.793577
Si Si5 0.003830 0.897680 0.836365
Si Si6 0.590471 0.071379 0.136982
Si Si7 0.451161 0.795430 0.561118
Si Si8 0.446653 0.744767 0.374615
O O1 0.795472 0.717366 0.570228
O O2 0.588348 0.629522 0.605936
O O3 0.941821 0.019300 0.310815
O O4 0.136456 0.863364 0.139830
O O5 0.410134 0.664374 0.158372
O O6 0.287418 0.582597 0.432909
O O7 0.940583 0.361166 0.608154
O O8 0.344909 0.716734 0.902744
O O9 0.281114 0.637911 0.792417
O O10 0.074041 0.320873 0.087014
O O11 0.645342 0.102743 0.720909
O O12 0.500000 0.000000 0.000000
O O13 0.743461 0.842902 0.102799
O O14 0.249853 0.084438 0.678502
O O15 0.491807 0.946701 0.314602
O O16 0.345992 0.665242 0.561506
O O17 0.500000 0.000000 0.500000
#
# Coordination Sequence:
#
# PCOD9100403 Si02
#       8
#     2   2   2   2   2   2   2   2
#     4  10  21  41  65  91 128 172 208 258 314 377
#     4  10  20  37  67  92 123 169 211 252 322 377
#     4  11  23  43  62  97 129 168 214 261 313 376
#     4  10  20  37  64 102 125 156 214 264 307 382
#     4  10  23  40  61  91 128 166 219 260 306 382
#     4  10  21  40  67  91 131 168 207 262 322 373
#     4  11  23  41  60  92 130 163 215 267 309 374
#     4  10  20  41  64  87 124 172 208 257 320 373
#
# _framework density 23.894432999999999
#
# number of rings (size 3 to 8) (size 9 to 14) (size 15 to 20)
#    0.000    1.750    3.750    0.375    0.000    2.000 
#    6.750    0.625    0.000    1.500    0.000    0.000 
#    0.000    0.000    0.000    0.000    0.000    0.000 
#
# Total GULP energy -89094.087365 kJ/mol
# GULP energy per Si atom -5568.380460 kJ/mol
# Density = 2.384005 g / cm^3
# Si number density = 23.894433 Si / 1000 Ang^3
#
#
#
# Elastic Constant Matrix: (Units=GPa)
#
#
# Indices 1 2 3 4 5 6 
#
# 1 175.2709 46.6300 45.9227 -10.5894 1.9173 -22.5429
# 2 46.6300 68.9552 14.9526 -13.3814 6.5221 -20.4207
# 3 45.9227 14.9526 75.5474 -17.0492 -0.5535 -13.7530
# 4 -10.5894 -13.3814 -17.0492 28.1781 -11.3608 12.2305
# 5 1.9173 6.5221 -0.5535 -11.3608 44.5586 -27.8006
# 6 -22.5429 -20.4207 -13.7530 12.2305 -27.8006 45.6506
#
#
#
# Elastic Compliance Matrix: (Units=1/GPa)
#
#
# Indices 1 2 3 4 5 6 
#
# 1 0.008094 -0.004520 -0.004156 -0.002052 0.000859 0.001796
# 2 -0.004520 0.020586 0.001827 0.007339 0.004104 0.008059
# 3 -0.004156 0.001827 0.018889 0.010944 0.006269 0.005341
# 4 -0.002052 0.007339 0.010944 0.049760 0.011277 -0.000898
# 5 0.000859 0.004104 0.006269 0.011277 0.041063 0.026134
# 6 0.001796 0.008059 0.005341 -0.000898 0.026134 0.044163
#
#
# Mechanical properties :
#
#
# Convention : Reuss Voigt Hill
#
# Bulk Modulus (GPa) = 29.52361 59.42046 44.47203
# Shear Modulus (GPa) = 24.09128 37.82868 30.95998
#
# Velocity S-wave (km/s) = 3.17872 3.98321 3.60349
# Velocity P-wave (km/s) = 5.08478 6.78797 5.99715
#
# Compressibility (1/GPa) = 0.03387120
#
# Stress axis : x y z
#
# Youngs Moduli (GPa) = 123.54101 48.57774 52.94023
#
# Poissons Ratio (x) = 0.21958 0.21999
# Poissons Ratio (y) = 0.55843 -0.09671
# Poissons Ratio (z) = 0.51338 -0.08874
#
# Static dielectric constant tensor:
#      x y z
#    x 2.001420 0.001910 0.061950 
#    y 0.001910 2.110880 -0.032330 
#    z 0.061950 -0.032330 2.008130 
# 
# From -- ./inp_files/328406.got.cif
#   From: 2010.05.17/outbox.cif.g08.bks.cpg/sg2_165_cif.got.tgz:328406.got - 2010.06.03 11:33:40.
