data_PCOD9100682
_publ_section_title
;
Structure prediction by ZEFSAII (Michael W. Deem and Ramdas Pophale) SiO2 
 PCOD9100682
Probable space group: P -1
;
_chemical_formula_sum "Si O2"
_cell_formula_units_Z 16
_cell_length_a 14.825758
_cell_length_b 9.025795
_cell_length_c 9.424395
_cell_angle_alpha 98.100307
_cell_angle_beta 138.981496
_cell_angle_gamma 65.503505
_cell_volume 721.286480
_symmetry_space_group_name_H-M "P -1"
_symmetry_group_IT_number 2
_symmetry_cell_setting 'triclinic'
loop_
_space_group_symop_operation_xyz
x,y,z
-x,-y,-z
loop_
_atom_site_type_symbol
_atom_site_label
_atom_site_fract_x
_atom_site_fract_y
_atom_site_fract_z
Si Si1 0.242536 0.140565 0.174207
Si Si2 0.973028 0.859125 0.531283
Si Si3 0.717287 0.809895 0.093685
Si Si4 0.251656 0.518773 0.760872
Si Si5 0.505309 0.235294 0.548884
Si Si6 0.459071 0.488543 0.762390
Si Si7 0.592951 0.163073 0.332950
Si Si8 0.067054 0.099181 0.188686
O O1 0.368513 0.185312 0.401556
O O2 0.095768 0.209041 0.115685
O O3 0.332961 0.933142 0.242512
O O4 0.218684 0.201674 0.991993
O O5 0.084579 0.678958 0.567169
O O6 0.796184 0.895636 0.295821
O O7 0.014960 0.837222 0.747008
O O8 0.000000 0.000000 0.500000
O O9 0.760380 0.626198 0.183926
O O10 0.528166 0.898425 0.874711
O O11 0.347415 0.443994 0.720144
O O12 0.365876 0.578816 0.981958
O O13 0.472301 0.400709 0.617571
O O14 0.508262 0.263553 0.389471
O O15 0.391268 0.692570 0.717000
O O16 0.758879 0.023141 0.563718
O O17 0.000000 0.000000 0.000000
#
# Coordination Sequence:
#
# PCOD9100682 Si02
#       8
#     2   2   2   2   2   2   2   2
#     4   9  20  39  58  94 120 161 211 259 309 368
#     4  12  26  42  67  92 127 175 205 260 327 369
#     4  10  22  44  66  88 133 163 211 268 308 374
#     4  10  24  41  59  94 129 166 212 258 318 374
#     4   9  18  34  64  88 127 157 208 265 309 364
#     4  10  20  37  65  90 126 166 212 262 310 375
#     4   9  20  40  62  97 124 165 213 260 313 372
#     4  11  24  41  63  94 130 162 210 261 312 378
#
# _framework density 22.182587999999999
#
# number of rings (size 3 to 8) (size 9 to 14) (size 15 to 20)
#    0.000    2.000    0.000    3.000    7.000    0.500 
#    0.000    0.625    0.000    0.000    0.000    0.000 
#    0.000    0.000    0.000    0.000    0.000    0.000 
#
# Total GULP energy -89231.042324 kJ/mol
# GULP energy per Si atom -5576.940145 kJ/mol
# Density = 2.213210 g / cm^3
# Si number density = 22.182588 Si / 1000 Ang^3
#
#
#
# Elastic Constant Matrix: (Units=GPa)
#
#
# Indices 1 2 3 4 5 6 
#
# 1 120.9017 30.2530 29.2061 6.8950 -17.8792 24.1800
# 2 30.2530 35.8238 21.3886 7.8820 0.4373 18.3196
# 3 29.2061 21.3886 91.6785 17.5411 0.1894 0.9943
# 4 6.8950 7.8820 17.5411 31.8857 -3.0284 -11.9189
# 5 -17.8792 0.4373 0.1894 -3.0284 35.8346 -3.3598
# 6 24.1800 18.3196 0.9943 -11.9189 -3.3598 32.1417
#
#
#
# Elastic Compliance Matrix: (Units=1/GPa)
#
#
# Indices 1 2 3 4 5 6 
#
# 1 0.012365 -0.005676 -0.002215 -0.001803 0.005527 -0.006089
# 2 -0.005676 0.067336 -0.007789 -0.029236 -0.010377 -0.045794
# 3 -0.002215 -0.007789 0.014142 -0.003942 -0.001034 0.004099
# 4 -0.001803 -0.029236 -0.003942 0.056894 0.008044 0.040080
# 5 0.005527 -0.010377 -0.001034 0.008044 0.032239 0.008141
# 6 -0.006089 -0.045794 0.004099 0.040080 0.008141 0.077381
#
#
# Mechanical properties :
#
#
# Convention : Reuss Voigt Hill
#
# Bulk Modulus (GPa) = 16.00467 45.56659 30.78563
# Shear Modulus (GPa) = 15.99771 31.14283 23.57027
#
# Velocity S-wave (km/s) = 2.68840 3.75097 3.26323
# Velocity P-wave (km/s) = 4.10698 6.27263 5.30157
#
# Compressibility (1/GPa) = 0.06248176
#
# Stress axis : x y z
#
# Youngs Moduli (GPa) = 80.87640 14.85087 70.70917
#
# Poissons Ratio (x) = 0.08430 0.15663
# Poissons Ratio (y) = 0.45907 0.55078
# Poissons Ratio (z) = 0.17915 0.11568
#
# Static dielectric constant tensor:
#      x y z
#    x 1.902770 0.016410 -0.014390 
#    y 0.016410 1.817120 -0.020230 
#    z -0.014390 -0.020230 1.866240 
# 
# From -- ./inp_files/299001.got.cif
#   From: 2010.05.17/outbox.cif.g08.bks.cpg/sg2_150_cif.got.tgz:299001.got - 2010.06.03 11:33:40.
