data_PCOD9100261
_publ_section_title
;
Structure prediction by ZEFSAII (Michael W. Deem and Ramdas Pophale) SiO2 
 PCOD9100261
Probable space group: P -1
;
_chemical_formula_sum "Si O2"
_cell_formula_units_Z 12
_cell_length_a 6.041269
_cell_length_b 5.720339
_cell_length_c 16.995088
_cell_angle_alpha 74.402487
_cell_angle_beta 117.959018
_cell_angle_gamma 106.381750
_cell_volume 491.194864
_symmetry_space_group_name_H-M "P -1"
_symmetry_group_IT_number 2
_symmetry_cell_setting 'triclinic'
loop_
_space_group_symop_operation_xyz
x,y,z
-x,-y,-z
loop_
_atom_site_type_symbol
_atom_site_label
_atom_site_fract_x
_atom_site_fract_y
_atom_site_fract_z
Si Si1 0.176185 0.032124 0.308656
Si Si2 0.052075 0.741083 0.624169
Si Si3 0.385003 0.176098 0.554064
Si Si4 0.631212 0.788899 0.993562
Si Si5 0.451987 0.449262 0.706695
Si Si6 0.196478 0.885083 0.147529
O O1 0.939721 0.094990 0.310996
O O2 0.355288 0.295231 0.298013
O O3 0.332963 0.878769 0.405859
O O4 0.143286 0.919667 0.227481
O O5 0.764585 0.696484 0.547225
O O6 0.183512 0.510848 0.684467
O O7 0.215019 0.907121 0.569632
O O8 0.398529 0.321261 0.624946
O O9 0.918956 0.799239 0.071968
O O10 0.500000 0.500000 0.000000
O O11 0.500000 0.000000 0.000000
O O12 0.667938 0.878918 0.900874
O O13 0.601348 0.297981 0.803056
#
# Coordination Sequence:
#
# PCOD9100261 Si02
#       6
#     2   2   2   2   2   2
#     4  10  22  38  62  97 135 183 225 292 351 408
#     4  10  20  37  63  90 134 185 237 278 351 405
#     4   9  20  38  56  92 136 181 237 289 327 420
#     4  11  28  50  83 110 139 196 231 293 380 442
#     4  10  22  38  61  96 134 181 226 293 347 411
#     4  10  26  48  69 105 150 167 245 295 350 453
#
# _framework density 24.430226000000001
#
# number of rings (size 3 to 8) (size 9 to 14) (size 15 to 20)
#    0.000    2.000    0.000    1.000    4.667   10.000 
#    0.000    0.000    0.000    0.000    0.000    0.000 
#    0.000    0.000    0.000    0.000    0.000    0.000 
#
# Total GULP energy -67090.800837 kJ/mol
# GULP energy per Si atom -5590.900070 kJ/mol
# Density = 2.437462 g / cm^3
# Si number density = 24.430226 Si / 1000 Ang^3
#
#
#
# Elastic Constant Matrix: (Units=GPa)
#
#
# Indices 1 2 3 4 5 6 
#
# 1 112.8249 43.5315 65.9551 -20.3031 8.5907 -23.3962
# 2 43.5315 106.8093 51.2292 -29.1261 16.2891 -0.0215
# 3 65.9551 51.2292 148.1019 -35.5670 24.1289 -11.6353
# 4 -20.3031 -29.1261 -35.5670 31.1114 -6.5803 1.1017
# 5 8.5907 16.2891 24.1289 -6.5803 42.0123 -12.4305
# 6 -23.3962 -0.0215 -11.6353 1.1017 -12.4305 56.7892
#
#
#
# Elastic Compliance Matrix: (Units=1/GPa)
#
#
# Indices 1 2 3 4 5 6 
#
# 1 0.014220 -0.003727 -0.004985 0.000556 0.003117 0.005507
# 2 -0.003727 0.014365 -0.000593 0.009641 -0.003744 -0.002658
# 3 -0.004985 -0.000593 0.012007 0.009002 -0.004457 -0.000744
# 4 0.000556 0.009641 0.009002 0.051650 -0.000656 0.000931
# 5 0.003117 -0.003744 -0.004457 -0.000656 0.029069 0.006745
# 6 0.005507 -0.002658 -0.000744 0.000931 0.006745 0.021183
#
#
# Mechanical properties :
#
#
# Convention : Reuss Voigt Hill
#
# Bulk Modulus (GPa) = 45.49256 76.57419 61.03338
# Shear Modulus (GPa) = 29.68553 39.78393 34.73473
#
# Velocity S-wave (km/s) = 3.48963 4.03981 3.77476
# Velocity P-wave (km/s) = 5.90750 7.29193 6.63591
#
# Compressibility (1/GPa) = 0.02198162
#
# Stress axis : x y z
#
# Youngs Moduli (GPa) = 70.32159 69.61230 83.28711
#
# Poissons Ratio (x) = 0.25947 0.41521
# Poissons Ratio (y) = 0.26211 0.04937
# Poissons Ratio (z) = 0.35057 0.04126
#
# Static dielectric constant tensor:
#      x y z
#    x 1.994820 0.006250 0.031440 
#    y 0.006250 2.014560 -0.012540 
#    z 0.031440 -0.012540 1.909960 
# 
# From -- ./inp_files/3344.got.cif
#   From: 2010.05.17/outbox.cif.g08.bks.cpg/sg2_2_cif.got.tgz:3344.got - 2010.06.03 11:33:40.
