data_PCOD9100514
_publ_section_title
;
Structure prediction by ZEFSAII (Michael W. Deem and Ramdas Pophale) SiO2 
 PCOD9100514
Probable space group: P -1
;
_chemical_formula_sum "Si O2"
_cell_formula_units_Z 16
_cell_length_a 11.062574
_cell_length_b 7.703487
_cell_length_c 25.131721
_cell_angle_alpha 126.750048
_cell_angle_beta 21.465176
_cell_angle_gamma 124.812268
_cell_volume 627.249284
_symmetry_space_group_name_H-M "P -1"
_symmetry_group_IT_number 2
_symmetry_cell_setting 'triclinic'
loop_
_space_group_symop_operation_xyz
x,y,z
-x,-y,-z
loop_
_atom_site_type_symbol
_atom_site_label
_atom_site_fract_x
_atom_site_fract_y
_atom_site_fract_z
Si Si1 0.225358 0.743309 0.828493
Si Si2 0.593595 0.441670 0.025168
Si Si3 0.319933 0.261496 0.523440
Si Si4 0.748021 0.450036 0.546492
Si Si5 0.208368 0.792141 0.189999
Si Si6 0.767117 0.411552 0.701717
Si Si7 0.366380 0.152915 0.724628
Si Si8 0.823540 0.112775 0.016410
O O1 0.557652 0.667587 0.652848
O O2 0.246144 0.711509 0.877974
O O3 0.122484 0.978879 0.895971
O O4 0.916431 0.594344 0.910676
O O5 0.301557 0.558266 0.134170
O O6 0.485039 0.469104 0.135388
O O7 0.696258 0.224782 0.914323
O O8 0.500000 0.500000 0.500000
O O9 0.156036 0.179452 0.631929
O O10 0.996754 0.270950 0.619431
O O11 0.555272 0.091988 0.368349
O O12 0.473537 0.282805 0.651191
O O13 0.000000 0.500000 0.500000
O O14 0.978974 0.406632 0.394479
O O15 0.484121 0.969035 0.129452
O O16 0.592002 0.265737 0.700446
O O17 0.993232 0.170423 0.901688
#
# Coordination Sequence:
#
# PCOD9100514 Si02
#       8
#     2   2   2   2   2   2   2   2
#     4  10  20  37  64  92 123 160 211 263 317 363
#     4   9  18  37  60  89 123 156 209 257 317 365
#     4  11  25  39  66  94 126 166 210 265 317 372
#     4  10  24  40  61  90 133 174 203 259 317 379
#     4   9  21  35  59  94 126 157 199 263 320 369
#     4  10  21  41  64  93 123 166 209 267 312 370
#     4  11  23  41  60  97 123 165 217 255 319 374
#     4  10  21  36  66  98 120 159 212 272 306 365
#
# _framework density 25.508198
#
# number of rings (size 3 to 8) (size 9 to 14) (size 15 to 20)
#    0.000    2.000    1.250    1.125   14.000    0.500 
#    0.000    0.625    0.000    1.500    0.000    0.000 
#    0.000    0.000    0.000    0.000    0.000    0.000 
#
# Total GULP energy -89355.946311 kJ/mol
# GULP energy per Si atom -5584.746644 kJ/mol
# Density = 2.545014 g / cm^3
# Si number density = 25.508198 Si / 1000 Ang^3
#
#
#
# Elastic Constant Matrix: (Units=GPa)
#
#
# Indices 1 2 3 4 5 6 
#
# 1 57.8815 24.9162 30.3331 8.3733 25.1440 14.6506
# 2 24.9162 76.2945 40.6503 -4.2952 11.4399 10.9151
# 3 30.3331 40.6503 140.8521 -6.0186 23.5542 1.1854
# 4 8.3733 -4.2952 -6.0186 44.4550 -6.9734 7.3029
# 5 25.1440 11.4399 23.5542 -6.9734 40.4829 3.8699
# 6 14.6506 10.9151 1.1854 7.3029 3.8699 34.4070
#
#
#
# Elastic Compliance Matrix: (Units=1/GPa)
#
#
# Indices 1 2 3 4 5 6 
#
# 1 0.031848 -0.005758 -0.002589 -0.008320 -0.017322 -0.007931
# 2 -0.005758 0.017556 -0.003966 0.003166 0.001837 -0.003860
# 3 -0.002589 -0.003966 0.009272 0.000556 -0.002784 0.002236
# 4 -0.008320 0.003166 0.000556 0.026516 0.008910 -0.004111
# 5 -0.017322 0.001837 -0.002784 0.008910 0.038027 0.000721
# 6 -0.007931 -0.003860 0.002236 -0.004111 0.000721 0.034380
#
#
# Mechanical properties :
#
#
# Convention : Reuss Voigt Hill
#
# Bulk Modulus (GPa) = 29.36840 51.86971 40.61905
# Shear Modulus (GPa) = 25.82988 35.81090 30.82039
#
# Velocity S-wave (km/s) = 3.18561 3.75093 3.47977
# Velocity P-wave (km/s) = 5.00691 6.25603 5.66600
#
# Compressibility (1/GPa) = 0.03405020
#
# Stress axis : x y z
#
# Youngs Moduli (GPa) = 31.39930 56.96192 107.84801
#
# Poissons Ratio (x) = 0.32798 0.27920
# Poissons Ratio (y) = 0.18079 0.42773
# Poissons Ratio (z) = 0.08129 0.22591
#
# Static dielectric constant tensor:
#      x y z
#    x 2.143110 -0.086300 0.087100 
#    y -0.086300 2.052480 0.031250 
#    z 0.087100 0.031250 2.029380 
# 
# From -- ./inp_files/618225.got.cif
#   From: 2010.05.17/outbox.cif.g08.bks.cpg/sg2_310_cif.got.tgz:618225.got - 2010.06.03 11:33:40.
