data_PCOD9100003
_publ_section_title
;
Structure prediction by ZEFSAII (Michael W. Deem and Ramdas Pophale) SiO2 
 PCOD9100003
Probable space group: P -1
;
_chemical_formula_sum "Si O2"
_cell_formula_units_Z 15
_cell_length_a 9.892533
_cell_length_b 9.464145
_cell_length_c 20.679977
_cell_angle_alpha 116.125036
_cell_angle_beta 148.469810
_cell_angle_gamma 42.328845
_cell_volume 574.277796
_symmetry_space_group_name_H-M "P -1"
_symmetry_group_IT_number 2
_symmetry_cell_setting 'triclinic'
loop_
_space_group_symop_operation_xyz
x,y,z
-x,-y,-z
loop_
_atom_site_type_symbol
_atom_site_label
_atom_site_fract_x
_atom_site_fract_y
_atom_site_fract_z
Si Si1 0.000000 0.000000 0.000000
Si Si2 0.963782 0.782209 0.041859
Si Si3 0.447031 0.758398 0.865788
Si Si4 0.653756 0.146145 0.702112
Si Si5 0.673742 0.486270 0.462400
Si Si6 0.758973 0.833345 0.778991
Si Si7 0.139708 0.911279 0.624670
Si Si8 0.802177 0.524043 0.659336
O O1 0.243077 0.995789 0.044727
O O2 0.007520 0.844661 0.922502
O O3 0.209290 0.537003 0.051327
O O4 0.293058 0.729449 0.204391
O O5 0.668359 0.821703 0.974129
O O6 0.261916 0.836892 0.733934
O O7 0.097119 0.901909 0.803682
O O8 0.385686 0.333059 0.570413
O O9 0.546893 0.046351 0.681067
O O10 0.790486 0.285261 0.423851
O O11 0.928009 0.422687 0.616799
O O12 0.257279 0.606176 0.348814
O O13 0.441497 0.891513 0.707922
O O14 0.992165 0.582146 0.785892
O O15 0.672622 0.189441 0.484277
#
# Coordination Sequence:
#
# PCOD9100003 Si02
#       8
#     1   2   2   2   2   2   2   2
#     4  10  20  40  64  88 124 156 200 252 310 358
#     4  10  22  40  64  88 124 162 205 257 300 368
#     4  11  21  38  65  88 120 166 207 249 307 361
#     4  11  22  39  59  94 126 155 205 255 309 363
#     4  10  20  37  62  90 121 158 208 254 294 369
#     4  10  22  39  62  89 128 163 193 263 309 354
#     4  11  20  42  64  90 121 167 210 252 303 369
#     4  10  22  40  64  90 124 167 209 248 309 365
#
# _framework density 26.119764
#
# number of rings (size 3 to 8) (size 9 to 14) (size 15 to 20)
#    0.000    1.600    4.000    2.000    0.000    0.533 
#    0.000   18.667    0.000    0.000    0.000    0.000 
#    0.000    0.000    0.000    0.000    0.000    0.000 
#
# Total GULP energy -83669.418504 kJ/mol
# GULP energy per Si atom -5577.961234 kJ/mol
# Density = 2.606031 g / cm^3
# Si number density = 26.119764 Si / 1000 Ang^3
#
#
#
# Elastic Constant Matrix: (Units=GPa)
#
#
# Indices 1 2 3 4 5 6 
#
# 1 127.9353 55.6415 10.9501 13.7398 18.9647 40.8320
# 2 55.6415 134.1470 56.8097 41.8470 -10.2984 -40.2573
# 3 10.9501 56.8097 19.0017 22.4669 29.6231 52.5422
# 4 13.7398 41.8470 22.4669 56.5883 2.7016 3.3849
# 5 18.9647 -10.2984 29.6231 2.7016 20.7353 -37.2101
# 6 40.8320 -40.2573 52.5422 3.3849 -37.2101 -37.8058
#
#
#
# Elastic Compliance Matrix: (Units=1/GPa)
#
#
# Indices 1 2 3 4 5 6 
#
# 1 0.008345 -0.000975 -0.006145 0.001052 0.001231 0.000393
# 2 -0.000975 0.007502 0.001355 -0.005433 -0.003734 -0.003970
# 3 -0.006145 0.001355 0.018711 -0.007922 0.004153 0.013128
# 4 0.001052 -0.005433 -0.007922 0.024696 0.000387 -0.002258
# 5 0.001231 -0.003734 0.004153 0.000387 0.021402 -0.009953
# 6 0.000393 -0.003970 0.013128 -0.002258 -0.009953 0.006040
#
#
# Mechanical properties :
#
#
# Convention : Reuss Voigt Hill
#
# Bulk Modulus (GPa) = 43.42616 58.65407 51.04012
# Shear Modulus (GPa) = 47.21348 18.41576 32.81462
#
# Velocity S-wave (km/s) = 4.25617 2.65816 3.54830
# Velocity P-wave (km/s) = 6.38868 5.65028 6.03079
#
# Compressibility (1/GPa) = 0.02302760
#
# Stress axis : x y z
#
# Youngs Moduli (GPa) = 119.82652 133.29791 53.44524
#
# Poissons Ratio (x) = 0.12993 0.32844
# Poissons Ratio (y) = 0.11680 -0.07241
# Poissons Ratio (z) = 0.73637 -0.18059
#
# Static dielectric constant tensor:
#      x y z
#    x 2.018890 -0.011440 -0.048350 
#    y -0.011440 2.043430 -0.073360 
#    z -0.048350 -0.073360 2.086320 
# 
# From -- ./inp_files/586793.got.cif
#   From: 2010.05.17/outbox.cif.g08.bks.cpg/sg2_294_cif.got.tgz:586793.got - 2010.06.03 11:33:40.
