data_PCOD9100841
_publ_section_title
;
Structure prediction by ZEFSAII (Michael W. Deem and Ramdas Pophale) SiO2 
 PCOD9100841
Probable space group: P -1
;
_chemical_formula_sum "Si O2"
_cell_formula_units_Z 16
_cell_length_a 7.971049
_cell_length_b 11.336326
_cell_length_c 14.429623
_cell_angle_alpha 54.079225
_cell_angle_beta 139.615279
_cell_angle_gamma 128.028199
_cell_volume 647.617972
_symmetry_space_group_name_H-M "P -1"
_symmetry_group_IT_number 2
_symmetry_cell_setting 'triclinic'
loop_
_space_group_symop_operation_xyz
x,y,z
-x,-y,-z
loop_
_atom_site_type_symbol
_atom_site_label
_atom_site_fract_x
_atom_site_fract_y
_atom_site_fract_z
Si Si1 0.947569 0.764668 0.446456
Si Si2 0.277754 0.812196 0.027873
Si Si3 0.680849 0.453362 0.419481
Si Si4 0.443738 0.839901 0.749611
Si Si5 0.465930 0.401142 0.880565
Si Si6 0.340832 0.876484 0.410478
Si Si7 0.832728 0.643192 0.052274
Si Si8 0.223593 0.952880 0.772853
O O1 0.709457 0.602014 0.428182
O O2 0.886040 0.918808 0.378010
O O3 0.218330 0.758666 0.615071
O O4 0.035913 0.808697 0.355732
O O5 0.449063 0.730578 0.074486
O O6 0.481007 0.953222 0.103915
O O7 0.116102 0.702874 0.091194
O O8 0.085450 0.863018 0.849317
O O9 0.521451 0.476118 0.250868
O O10 0.575376 0.278428 0.491313
O O11 0.000000 0.500000 0.500000
O O12 0.664629 0.757169 0.899834
O O13 0.600972 0.016221 0.703884
O O14 0.263745 0.842443 0.762278
O O15 0.681376 0.480611 0.014987
O O16 0.186789 0.361441 0.842282
O O17 0.500000 0.000000 0.500000
#
# Coordination Sequence:
#
# PCOD9100841 Si02
#       8
#     2   2   2   2   2   2   2   2
#     4  10  20  38  63  90 129 175 216 275 331 389
#     4  11  24  43  65  98 135 175 221 272 333 396
#     4  10  20  37  66  91 130 173 215 270 332 391
#     4  11  22  41  64  99 129 173 228 270 332 397
#     4  11  22  44  68  98 132 173 222 274 334 399
#     4   9  19  35  61  91 124 168 220 262 325 391
#     4  11  24  41  71  98 131 174 222 274 333 398
#     4  11  23  41  63  94 138 175 219 278 332 391
#
# _framework density 24.705924
#
# number of rings (size 3 to 8) (size 9 to 14) (size 15 to 20)
#    0.000    1.500    2.500    3.750    0.000    3.500 
#    0.000    0.625    5.500    0.000    0.000    0.000 
#    0.000    0.000    0.000    0.000    0.000    0.000 
#
# Total GULP energy -89323.940760 kJ/mol
# GULP energy per Si atom -5582.746297 kJ/mol
# Density = 2.464969 g / cm^3
# Si number density = 24.705924 Si / 1000 Ang^3
#
#
#
# Elastic Constant Matrix: (Units=GPa)
#
#
# Indices 1 2 3 4 5 6 
#
# 1 67.9239 24.9222 -1.6096 -2.2396 -11.3030 -7.5612
# 2 24.9222 123.0350 28.1982 -30.5655 -9.0956 -5.1457
# 3 -1.6096 28.1982 66.3827 -19.6181 -5.4896 -9.5616
# 4 -2.2396 -30.5655 -19.6181 41.8703 -4.2224 -1.5898
# 5 -11.3030 -9.0956 -5.4896 -4.2224 28.0591 -10.5849
# 6 -7.5612 -5.1457 -9.5616 -1.5898 -10.5849 37.2328
#
#
#
# Elastic Compliance Matrix: (Units=1/GPa)
#
#
# Indices 1 2 3 4 5 6 
#
# 1 0.018643 -0.003171 0.004365 0.002072 0.010492 0.007540
# 2 -0.003171 0.011541 -0.002102 0.007736 0.003916 0.001855
# 3 0.004365 -0.002102 0.021237 0.010044 0.010291 0.009404
# 4 0.002072 0.007736 0.010044 0.036170 0.014413 0.009711
# 5 0.010492 0.003916 0.010291 0.014413 0.053267 0.021073
# 6 0.007540 0.001855 0.009404 0.009711 0.021073 0.037466
#
#
# Mechanical properties :
#
#
# Convention : Reuss Voigt Hill
#
# Bulk Modulus (GPa) = 20.15957 40.04034 30.09995
# Shear Modulus (GPa) = 25.42280 35.15449 30.28864
#
# Velocity S-wave (km/s) = 3.21131 3.77625 3.50518
# Velocity P-wave (km/s) = 4.68268 5.93762 5.34710
#
# Compressibility (1/GPa) = 0.04960424
#
# Stress axis : x y z
#
# Youngs Moduli (GPa) = 53.63977 86.64972 47.08792
#
# Poissons Ratio (x) = 0.27477 -0.20554
# Poissons Ratio (y) = 0.17010 0.09898
# Poissons Ratio (z) = -0.23414 0.18214
#
# Static dielectric constant tensor:
#      x y z
#    x 2.021520 0.033090 0.001170 
#    y 0.033090 2.051200 -0.059490 
#    z 0.001170 -0.059490 2.036560 
# 
# From -- ./inp_files/500124.got.cif
#   From: 2010.05.17/outbox.cif.g08.bks.cpg/sg2_251_cif.got.tgz:500124.got - 2010.06.03 11:33:40.
