data_PCOD9100600
_publ_section_title
;
Structure prediction by ZEFSAII (Michael W. Deem and Ramdas Pophale) SiO2 
 PCOD9100600
Probable space group: P -1
;
_chemical_formula_sum "Si O2"
_cell_formula_units_Z 14
_cell_length_a 21.710622
_cell_length_b 19.026528
_cell_length_c 12.443055
_cell_angle_alpha 152.080538
_cell_angle_beta 153.166199
_cell_angle_gamma 17.487706
_cell_volume 676.877081
_symmetry_space_group_name_H-M "P -1"
_symmetry_group_IT_number 2
_symmetry_cell_setting 'triclinic'
loop_
_space_group_symop_operation_xyz
x,y,z
-x,-y,-z
loop_
_atom_site_type_symbol
_atom_site_label
_atom_site_fract_x
_atom_site_fract_y
_atom_site_fract_z
Si Si1 0.861894 0.660488 0.898372
Si Si2 0.011563 0.968786 0.347728
Si Si3 0.389459 0.369243 0.643828
Si Si4 0.460040 0.571427 0.857917
Si Si5 0.629108 0.945934 0.307531
Si Si6 0.354458 0.830688 0.553668
Si Si7 0.199323 0.511438 0.077775
O O1 0.814004 0.560470 0.609719
O O2 0.618069 0.906809 0.890191
O O3 0.000000 0.500000 0.000000
O O4 0.993892 0.669751 0.051562
O O5 0.150476 0.975322 0.509517
O O6 0.144333 0.699484 0.172651
O O7 0.000000 0.000000 0.500000
O O8 0.762415 0.178254 0.203131
O O9 0.384459 0.515843 0.755278
O O10 0.598189 0.089340 0.551359
O O11 0.412827 0.407894 0.852455
O O12 0.605846 0.349606 0.703531
O O13 0.676036 0.002750 0.350386
O O14 0.772852 0.676025 0.185049
O O15 0.582024 0.649041 0.728463
#
# Coordination Sequence:
#
# PCOD9100600 Si02
#       7
#     2   2   2   2   2   2   2
#     4  10  20  37  64  97 121 161 207 260 319 356
#     4  12  28  39  62  93 132 172 209 251 321 379
#     4   8  20  41  67  93 123 165 204 269 308 361
#     4  10  20  45  62  90 132 161 214 254 314 373
#     4   9  22  37  64  95 128 152 210 263 310 363
#     4  11  23  40  65  96 122 168 212 264 307 367
#     4  12  23  37  61  95 128 162 204 262 315 372
#
# _framework density 20.683223000000002
#
# number of rings (size 3 to 8) (size 9 to 14) (size 15 to 20)
#    0.857    0.857    2.857    0.857    4.000    0.000 
#    2.571    3.571    0.000    0.000    0.000    0.000 
#    0.000    0.000    0.000    0.000    0.000    0.000 
#
# Total GULP energy -78099.235729 kJ/mol
# GULP energy per Si atom -5578.516838 kJ/mol
# Density = 2.063615 g / cm^3
# Si number density = 20.683223 Si / 1000 Ang^3
#
#
#
# Elastic Constant Matrix: (Units=GPa)
#
#
# Indices 1 2 3 4 5 6 
#
# 1 52.4273 10.7848 16.4829 -10.8564 3.9574 -13.5163
# 2 10.7848 74.9691 33.3262 16.1576 -6.8928 3.1306
# 3 16.4829 33.3262 111.7928 -0.5357 -19.4365 5.6958
# 4 -10.8564 16.1576 -0.5357 38.7118 0.3001 8.5381
# 5 3.9574 -6.8928 -19.4365 0.3001 34.9946 -2.3845
# 6 -13.5163 3.1306 5.6958 8.5381 -2.3845 24.3057
#
#
#
# Elastic Compliance Matrix: (Units=1/GPa)
#
#
# Indices 1 2 3 4 5 6 
#
# 1 0.026469 -0.004341 -0.004192 0.006229 -0.005307 0.013552
# 2 -0.004341 0.017987 -0.004462 -0.008694 0.001598 -0.000474
# 3 -0.004192 -0.004462 0.012188 0.001838 0.006031 -0.004667
# 4 0.006229 -0.008694 0.001838 0.032933 -0.002199 -0.007631
# 5 -0.005307 0.001598 0.006031 -0.002199 0.032820 -0.000578
# 6 0.013552 -0.000474 -0.004667 -0.007631 -0.000578 0.052457
#
#
# Mechanical properties :
#
#
# Convention : Reuss Voigt Hill
#
# Bulk Modulus (GPa) = 32.61995 40.04190 36.33092
# Shear Modulus (GPa) = 23.68963 31.50879 27.59921
#
# Velocity S-wave (km/s) = 3.38798 3.90731 3.65688
# Velocity P-wave (km/s) = 5.57763 6.30537 5.95263
#
# Compressibility (1/GPa) = 0.03065609
#
# Stress axis : x y z
#
# Youngs Moduli (GPa) = 37.77989 55.59490 82.04503
#
# Poissons Ratio (x) = 0.24132 0.34393
# Poissons Ratio (y) = 0.16399 0.36607
# Poissons Ratio (z) = 0.15837 0.24806
#
# Static dielectric constant tensor:
#      x y z
#    x 1.738030 -0.036740 -0.001860 
#    y -0.036740 1.749200 0.056560 
#    z -0.001860 0.056560 1.812620 
# 
# From -- ./inp_files/472515.got.cif
#   From: 2010.05.17/outbox.cif.g08.bks.cpg/sg2_237_cif.got.tgz:472515.got - 2010.06.03 11:33:40.
