data_PCOD9100159
_publ_section_title
;
Structure prediction by ZEFSAII (Michael W. Deem and Ramdas Pophale) SiO2 
 PCOD9100159
Probable space group: P -1
;
_chemical_formula_sum "Si O2"
_cell_formula_units_Z 16
_cell_length_a 5.096300
_cell_length_b 23.398981
_cell_length_c 12.328959
_cell_angle_alpha 36.978894
_cell_angle_beta 68.941201
_cell_angle_gamma 80.861713
_cell_volume 803.473472
_symmetry_space_group_name_H-M "P -1"
_symmetry_group_IT_number 2
_symmetry_cell_setting 'triclinic'
loop_
_space_group_symop_operation_xyz
x,y,z
-x,-y,-z
loop_
_atom_site_type_symbol
_atom_site_label
_atom_site_fract_x
_atom_site_fract_y
_atom_site_fract_z
Si Si1 0.249382 0.941895 0.552502
Si Si2 0.875962 0.754189 0.959125
Si Si3 0.357081 0.815942 0.540392
Si Si4 0.303147 0.071770 0.882021
Si Si5 0.787116 0.412838 0.801415
Si Si6 0.702658 0.716139 0.810437
Si Si7 0.313551 0.245965 0.780192
Si Si8 0.847893 0.371157 0.607819
O O1 0.316124 0.911393 0.467728
O O2 0.157988 0.839134 0.782431
O O3 0.500000 0.000000 0.500000
O O4 0.000000 0.000000 0.500000
O O5 0.723123 0.765395 0.851692
O O6 0.710810 0.776435 0.054507
O O7 0.987663 0.654462 0.100258
O O8 0.533405 0.857806 0.344424
O O9 0.544412 0.762719 0.670799
O O10 0.042249 0.740667 0.688728
O O11 0.281403 0.148614 0.863604
O O12 0.500000 0.000000 0.000000
O O13 0.000000 0.000000 0.000000
O O14 0.712547 0.389674 0.718907
O O15 0.955679 0.524507 0.612599
O O16 0.513362 0.385843 0.964855
O O17 0.617236 0.326474 0.616869
O O18 0.056757 0.297957 0.708607
#
# Coordination Sequence:
#
# PCOD9100159 Si02
#       8
#     2   2   2   2   2   2   2   2
#     4  11  23  34  56  89 123 154 196 258 311 375
#     4  10  22  36  62  95 130 163 203 255 325 377
#     4  11  25  41  62  90 123 166 209 257 319 370
#     4  12  28  49  70  88 121 177 225 263 307 371
#     4  10  20  37  63 100 136 167 203 247 335 391
#     4  11  19  39  63  94 128 161 198 254 317 386
#     4  11  24  42  63  92 129 165 215 272 306 370
#     4  10  23  36  65  97 135 166 204 261 319 388
#
# _framework density 19.913540000000001
#
# number of rings (size 3 to 8) (size 9 to 14) (size 15 to 20)
#    0.000    1.250    3.750    3.000    5.250    1.500 
#    0.000    0.000    0.000    4.500    0.000    0.000 
#    0.000    0.000    0.000    0.000    0.000    0.000 
#
# Total GULP energy -89189.181510 kJ/mol
# GULP energy per Si atom -5574.323844 kJ/mol
# Density = 1.986822 g / cm^3
# Si number density = 19.913540 Si / 1000 Ang^3
#
#
#
# Elastic Constant Matrix: (Units=GPa)
#
#
# Indices 1 2 3 4 5 6 
#
# 1 105.3794 11.2581 31.6259 -0.8346 -17.8404 11.0939
# 2 11.2581 69.2549 40.2293 -8.9277 -13.4712 2.6429
# 3 31.6259 40.2293 122.0564 16.2695 -10.8743 5.2890
# 4 -0.8346 -8.9277 16.2695 32.4858 -0.5137 -1.1218
# 5 -17.8404 -13.4712 -10.8743 -0.5137 29.8558 -5.7687
# 6 11.0939 2.6429 5.2890 -1.1218 -5.7687 20.1135
#
#
#
# Elastic Compliance Matrix: (Units=1/GPa)
#
#
# Indices 1 2 3 4 5 6 
#
# 1 0.011689 0.001477 -0.003122 0.002222 0.005771 -0.004041
# 2 0.001477 0.021917 -0.008326 0.010410 0.008194 0.001426
# 3 -0.003122 -0.008326 0.012872 -0.008887 -0.001368 -0.001457
# 4 0.002222 0.010410 -0.008887 0.038320 0.004034 0.003038
# 5 0.005771 0.008194 -0.001368 0.004034 0.041818 0.008319
# 6 -0.004041 0.001426 -0.001457 0.003038 0.008319 0.054698
#
#
# Mechanical properties :
#
#
# Convention : Reuss Voigt Hill
#
# Bulk Modulus (GPa) = 37.68583 51.43524 44.56054
# Shear Modulus (GPa) = 23.79808 30.72953 27.26380
#
# Velocity S-wave (km/s) = 3.46073 3.93255 3.70416
# Velocity P-wave (km/s) = 5.91056 6.81948 6.38122
#
# Compressibility (1/GPa) = 0.02653517
#
# Stress axis : x y z
#
# Youngs Moduli (GPa) = 85.55164 45.62675 77.68926
#
# Poissons Ratio (x) = -0.06738 0.24256
# Poissons Ratio (y) = -0.12634 0.64682
# Poissons Ratio (z) = 0.26711 0.37987
#
# Static dielectric constant tensor:
#      x y z
#    x 1.778600 0.042180 -0.119680 
#    y 0.042180 1.623120 0.084650 
#    z -0.119680 0.084650 1.728620 
# 
# From -- ./inp_files/370011.got.cif
#   From: 2010.05.17/outbox.cif.g08.bks.cpg/sg2_186_cif.got.tgz:370011.got - 2010.06.03 11:33:40.
