data_PCOD9100980
_publ_section_title
;
Structure prediction by ZEFSAII (Michael W. Deem and Ramdas Pophale) SiO2 
 PCOD9100980
Probable space group: P -1
;
_chemical_formula_sum "Si O2"
_cell_formula_units_Z 14
_cell_length_a 11.984672
_cell_length_b 11.331727
_cell_length_c 9.067639
_cell_angle_alpha 67.635303
_cell_angle_beta 39.060719
_cell_angle_gamma 84.340577
_cell_volume 675.444015
_symmetry_space_group_name_H-M "P -1"
_symmetry_group_IT_number 2
_symmetry_cell_setting 'triclinic'
loop_
_space_group_symop_operation_xyz
x,y,z
-x,-y,-z
loop_
_atom_site_type_symbol
_atom_site_label
_atom_site_fract_x
_atom_site_fract_y
_atom_site_fract_z
Si Si1 0.571186 0.211897 0.743650
Si Si2 0.781225 0.445636 0.200751
Si Si3 0.359584 0.000503 0.455489
Si Si4 0.715792 0.221800 0.125110
Si Si5 0.125879 0.777028 0.325309
Si Si6 0.005043 0.012523 0.312085
Si Si7 0.793335 0.716947 0.926763
O O1 0.674896 0.353685 0.488400
O O2 0.566022 0.089412 0.694663
O O3 0.699505 0.202404 0.754266
O O4 0.370002 0.224582 0.981311
O O5 0.729737 0.341879 0.166068
O O6 0.726263 0.573655 0.144584
O O7 0.000000 0.500000 0.000000
O O8 0.258941 0.895919 0.739430
O O9 0.517674 0.132917 0.294727
O O10 0.198964 0.041388 0.521048
O O11 0.851939 0.292375 0.816181
O O12 0.127614 0.921428 0.189099
O O13 0.937225 0.716595 0.646043
O O14 0.000000 0.000000 0.500000
O O15 0.089702 0.172481 0.125311
#
# Coordination Sequence:
#
# PCOD9100980 Si02
#       7
#     2   2   2   2   2   2   2
#     4  11  22  40  72  92 129 174 211 271 314 385
#     4  11  22  47  67  89 127 176 225 262 316 391
#     4  10  20  43  64  98 134 167 217 265 322 382
#     4  10  24  38  66  96 133 171 209 274 325 374
#     4  11  23  40  62 105 127 167 213 267 329 372
#     4  10  20  37  67  99 125 166 214 262 320 382
#     4  11  22  39  66  97 127 170 221 253 320 387
#
# _framework density 20.727104000000001
#
# number of rings (size 3 to 8) (size 9 to 14) (size 15 to 20)
#    0.000    1.429    4.286    2.143    4.000    2.286 
#    0.000    6.429    0.000    0.000    0.000    0.000 
#    0.000    0.000    0.000    0.000    0.000    0.000 
#
# Total GULP energy -78058.859062 kJ/mol
# GULP energy per Si atom -5575.632790 kJ/mol
# Density = 2.067993 g / cm^3
# Si number density = 20.727104 Si / 1000 Ang^3
#
#
#
# Elastic Constant Matrix: (Units=GPa)
#
#
# Indices 1 2 3 4 5 6 
#
# 1 151.4620 47.3285 47.9992 13.2999 -10.5237 -7.8712
# 2 47.3285 74.1522 21.8147 -19.7088 2.7956 -7.1849
# 3 47.9992 21.8147 91.8727 -5.0022 -1.6148 -5.0828
# 4 13.2999 -19.7088 -5.0022 28.4031 -4.2395 -1.9696
# 5 -10.5237 2.7956 -1.6148 -4.2395 33.3493 3.6053
# 6 -7.8712 -7.1849 -5.0828 -1.9696 3.6053 24.8952
#
#
#
# Elastic Compliance Matrix: (Units=1/GPa)
#
#
# Indices 1 2 3 4 5 6 
#
# 1 0.012926 -0.010795 -0.004990 -0.014067 0.003128 -0.001614
# 2 -0.010795 0.027381 0.000786 0.024181 -0.003352 0.007048
# 3 -0.004990 0.000786 0.013695 0.005353 -0.000507 0.001942
# 4 -0.014067 0.024181 0.005353 0.060174 0.000545 0.008306
# 5 0.003128 -0.003352 -0.000507 0.000545 0.031801 -0.004644
# 6 -0.001614 0.007048 0.001942 0.008306 -0.004644 0.043419
#
#
# Mechanical properties :
#
#
# Convention : Reuss Voigt Hill
#
# Bulk Modulus (GPa) = 41.66030 61.30797 51.48413
# Shear Modulus (GPa) = 21.98835 30.68582 26.33708
#
# Velocity S-wave (km/s) = 3.26060 3.85186 3.56850
# Velocity P-wave (km/s) = 5.85819 7.03031 6.47085
#
# Compressibility (1/GPa) = 0.02400367
#
# Stress axis : x y z
#
# Youngs Moduli (GPa) = 77.36608 36.52183 73.01931
#
# Poissons Ratio (x) = 0.39425 0.36436
# Poissons Ratio (y) = 0.83516 -0.05740
# Poissons Ratio (z) = 0.38605 -0.02871
#
# Static dielectric constant tensor:
#      x y z
#    x 1.727870 -0.009240 -0.007250 
#    y -0.009240 1.853150 0.002770 
#    z -0.007250 0.002770 1.825340 
# 
# From -- ./inp_files/257333.got.cif
#   From: 2010.05.17/outbox.cif.g08.bks.cpg/sg2_129_cif.got.tgz:257333.got - 2010.06.03 11:33:40.
