data_PCOD9100469
_publ_section_title
;
Structure prediction by ZEFSAII (Michael W. Deem and Ramdas Pophale) SiO2 
 PCOD9100469
Probable space group: P -1
;
_chemical_formula_sum "Si O2"
_cell_formula_units_Z 14
_cell_length_a 20.828259
_cell_length_b 12.351202
_cell_length_c 10.950109
_cell_angle_alpha 41.512714
_cell_angle_beta 20.308124
_cell_angle_gamma 35.856789
_cell_volume 571.801557
_symmetry_space_group_name_H-M "P -1"
_symmetry_group_IT_number 2
_symmetry_cell_setting 'triclinic'
loop_
_space_group_symop_operation_xyz
x,y,z
-x,-y,-z
loop_
_atom_site_type_symbol
_atom_site_label
_atom_site_fract_x
_atom_site_fract_y
_atom_site_fract_z
Si Si1 0.280107 0.320660 0.600293
Si Si2 0.959970 0.017449 0.699956
Si Si3 0.003484 0.251157 0.624189
Si Si4 0.287303 0.458113 0.918000
Si Si5 0.552403 0.023210 0.539265
Si Si6 0.179603 0.610533 0.709785
Si Si7 0.364001 0.922125 0.378418
O O1 0.339112 0.186321 0.728512
O O2 0.305463 0.489522 0.469534
O O3 0.426567 0.178646 0.355167
O O4 0.047990 0.382012 0.911857
O O5 0.965800 0.188485 0.612334
O O6 0.738200 0.032021 0.123085
O O7 0.000000 0.000000 0.500000
O O8 0.135269 0.820825 0.606129
O O9 0.142263 0.355604 0.274225
O O10 0.803895 0.384854 0.947846
O O11 0.131349 0.060148 0.632868
O O12 0.261752 0.524085 0.767928
O O13 0.521429 0.297149 0.663015
O O14 0.602199 0.049527 0.564687
O O15 0.500000 0.000000 0.000000
#
# Coordination Sequence:
#
# PCOD9100469 Si02
#       7
#     2   2   2   2   2   2   2
#     4   9  19  33  64  91 119 163 213 257 302 379
#     4  11  26  43  60  90 133 170 203 266 330 374
#     4  10  23  41  63  94 130 166 211 264 319 381
#     4  10  21  41  69  93 120 167 222 263 310 376
#     4  10  20  38  61  94 127 166 210 259 318 374
#     4  10  20  37  64  90 119 167 212 259 319 368
#     4  10  21  39  65  98 124 158 217 268 315 368
#
# _framework density 24.484017999999999
#
# number of rings (size 3 to 8) (size 9 to 14) (size 15 to 20)
#    0.000    2.000    1.429    1.714    6.000    3.429 
#    2.571    2.143    0.000    0.000    0.000    0.000 
#    0.000    0.000    0.000    0.000    0.000    0.000 
#
# Total GULP energy -78251.300807 kJ/mol
# GULP energy per Si atom -5589.378629 kJ/mol
# Density = 2.442829 g / cm^3
# Si number density = 24.484018 Si / 1000 Ang^3
#
#
#
# Elastic Constant Matrix: (Units=GPa)
#
#
# Indices 1 2 3 4 5 6 
#
# 1 162.4263 66.6710 42.7599 14.2508 30.2160 20.4687
# 2 66.6710 145.1627 27.8324 35.7701 13.7859 17.2676
# 3 42.7599 27.8324 96.1750 -3.6978 17.4635 6.0139
# 4 14.2508 35.7701 -3.6978 25.4742 8.7628 10.4214
# 5 30.2160 13.7859 17.4635 8.7628 27.8803 0.5073
# 6 20.4687 17.2676 6.0139 10.4214 0.5073 59.0273
#
#
#
# Elastic Compliance Matrix: (Units=1/GPa)
#
#
# Indices 1 2 3 4 5 6 
#
# 1 0.009869 -0.004238 -0.001121 0.004612 -0.009297 -0.002803
# 2 -0.004238 0.013965 -0.004301 -0.020826 0.006901 0.001440
# 3 -0.001121 -0.004301 0.014551 0.012993 -0.009820 -0.002045
# 4 0.004612 -0.020826 0.012993 0.082126 -0.028449 -0.011086
# 5 -0.009297 0.006901 -0.009820 -0.028449 0.057501 0.006734
# 6 -0.002803 0.001440 -0.002045 -0.011086 0.006734 0.019600
#
#
# Mechanical properties :
#
#
# Convention : Reuss Voigt Hill
#
# Bulk Modulus (GPa) = 52.44968 75.36564 63.90766
# Shear Modulus (GPa) = 22.39268 40.24306 31.31787
#
# Velocity S-wave (km/s) = 3.02749 4.05859 3.58035
# Velocity P-wave (km/s) = 5.80426 7.26713 6.57650
#
# Compressibility (1/GPa) = 0.01906589
#
# Stress axis : x y z
#
# Youngs Moduli (GPa) = 101.32341 71.60751 68.72270
#
# Poissons Ratio (x) = 0.30348 0.07702
# Poissons Ratio (y) = 0.42941 0.29558
# Poissons Ratio (z) = 0.11356 0.30799
#
# Static dielectric constant tensor:
#      x y z
#    x 1.900470 0.027560 -0.023890 
#    y 0.027560 2.048500 0.029500 
#    z -0.023890 0.029500 1.945980 
# 
# From -- ./inp_files/153823.got.cif
#   From: 2010.05.17/outbox.cif.g08.bks.cpg/sg2_77_cif.got.tgz:153823.got - 2010.06.03 11:33:40.
