data_PCOD9100118
_publ_section_title
;
Structure prediction by ZEFSAII (Michael W. Deem and Ramdas Pophale) SiO2 
 PCOD9100118
Probable space group: P -1
;
_chemical_formula_sum "Si O2"
_cell_formula_units_Z 16
_cell_length_a 12.794625
_cell_length_b 25.422885
_cell_length_c 6.844804
_cell_angle_alpha 135.368862
_cell_angle_beta 59.474488
_cell_angle_gamma 148.670427
_cell_volume 782.265143
_symmetry_space_group_name_H-M "P -1"
_symmetry_group_IT_number 2
_symmetry_cell_setting 'triclinic'
loop_
_space_group_symop_operation_xyz
x,y,z
-x,-y,-z
loop_
_atom_site_type_symbol
_atom_site_label
_atom_site_fract_x
_atom_site_fract_y
_atom_site_fract_z
Si Si1 0.080729 0.349156 0.990221
Si Si2 0.233843 0.591904 0.470141
Si Si3 0.861062 0.760011 0.594427
Si Si4 0.759405 0.360459 0.828217
Si Si5 0.432026 0.246579 0.093134
Si Si6 0.241220 0.990630 0.566410
Si Si7 0.927964 0.194351 0.107990
Si Si8 0.692810 0.167343 0.581531
O O1 0.200970 0.340403 0.751688
O O2 0.862879 0.244567 0.796955
O O3 0.206419 0.488633 0.207819
O O4 0.024738 0.302629 0.146434
O O5 0.286835 0.664337 0.419412
O O6 0.416707 0.699588 0.731111
O O7 0.000000 0.500000 0.500000
O O8 0.700302 0.747056 0.719284
O O9 0.074370 0.895696 0.646304
O O10 0.907573 0.754113 0.753226
O O11 0.722694 0.264312 0.715456
O O12 0.602599 0.343460 0.017648
O O13 0.000000 0.500000 0.000000
O O14 0.291923 0.103974 0.798860
O O15 0.452951 0.050308 0.567293
O O16 0.155043 0.912370 0.239136
O O17 0.751598 0.141115 0.278029
#
# Coordination Sequence:
#
# PCOD9100118 Si02
#       8
#     2   2   2   2   2   2   2   2
#     4  10  22  39  61  90 127 157 202 247 297 367
#     4  12  22  39  67  91 123 157 194 251 313 352
#     4  10  24  43  59  85 124 164 206 245 294 358
#     4  11  21  38  63  93 121 149 198 247 300 364
#     4  11  25  40  63  91 121 160 200 249 302 359
#     4  10  22  40  61  90 121 154 209 251 295 358
#     4  10  22  37  63  86 124 163 202 245 305 345
#     4  10  20  37  62  95 123 152 196 254 307 353
#
# _framework density 20.453423000000001
#
# number of rings (size 3 to 8) (size 9 to 14) (size 15 to 20)
#    0.000    1.500    2.500    2.250    0.000   10.500 
#    0.000    1.250    0.000    0.000    0.000    0.000 
#    0.000    0.000    0.000    0.000    0.000    0.000 
#
# Total GULP energy -89325.084328 kJ/mol
# GULP energy per Si atom -5582.817770 kJ/mol
# Density = 2.040687 g / cm^3
# Si number density = 20.453423 Si / 1000 Ang^3
#
#
#
# Elastic Constant Matrix: (Units=GPa)
#
#
# Indices 1 2 3 4 5 6 
#
# 1 96.1360 37.1169 30.9172 -25.5221 -8.1712 9.9224
# 2 37.1169 69.8601 19.0453 -16.0997 -1.8530 3.4494
# 3 30.9172 19.0453 66.3167 -11.0934 1.0717 2.9545
# 4 -25.5221 -16.0997 -11.0934 35.8692 -11.1830 -7.6537
# 5 -8.1712 -1.8530 1.0717 -11.1830 48.0964 -7.2453
# 6 9.9224 3.4494 2.9545 -7.6537 -7.2453 22.4586
#
#
#
# Elastic Compliance Matrix: (Units=1/GPa)
#
#
# Indices 1 2 3 4 5 6 
#
# 1 0.017103 -0.005387 -0.004862 0.009468 0.004810 -0.001311
# 2 -0.005387 0.018800 -0.002203 0.004679 0.001213 0.001768
# 3 -0.004862 -0.002203 0.018132 0.000812 -0.001124 0.000015
# 4 0.009468 0.004679 0.000812 0.044615 0.014379 0.014835
# 5 0.004810 0.001213 -0.001124 0.014379 0.026735 0.011362
# 6 -0.001311 0.001768 0.000015 0.014835 0.011362 0.053553
#
#
# Mechanical properties :
#
#
# Convention : Reuss Voigt Hill
#
# Bulk Modulus (GPa) = 34.32840 45.16350 39.74595
# Shear Modulus (GPa) = 23.41320 30.96705 27.19013
#
# Velocity S-wave (km/s) = 3.38702 3.89527 3.65001
# Velocity P-wave (km/s) = 5.66710 6.50845 6.10229
#
# Compressibility (1/GPa) = 0.02913040
#
# Stress axis : x y z
#
# Youngs Moduli (GPa) = 58.46885 53.19015 55.15117
#
# Poissons Ratio (x) = 0.28655 0.26814
# Poissons Ratio (y) = 0.31499 0.12152
# Poissons Ratio (z) = 0.28428 0.11720
#
# Static dielectric constant tensor:
#      x y z
#    x 1.717280 0.002550 -0.034580 
#    y 0.002550 1.762920 0.003360 
#    z -0.034580 0.003360 1.728110 
# 
# From -- ./inp_files/84514.got.cif
#   From: 2010.05.17/outbox.cif.g08.bks.cpg/sg2_43_cif.got.tgz:84514.got - 2010.06.03 11:33:40.
