data_PCOD9100141
_publ_section_title
;
Structure prediction by ZEFSAII (Michael W. Deem and Ramdas Pophale) SiO2 
 PCOD9100141
Probable space group: P -1
;
_chemical_formula_sum "Si O2"
_cell_formula_units_Z 16
_cell_length_a 11.831440
_cell_length_b 24.308727
_cell_length_c 6.550756
_cell_angle_alpha 121.278633
_cell_angle_beta 54.628976
_cell_angle_gamma 152.709803
_cell_volume 704.327585
_symmetry_space_group_name_H-M "P -1"
_symmetry_group_IT_number 2
_symmetry_cell_setting 'triclinic'
loop_
_space_group_symop_operation_xyz
x,y,z
-x,-y,-z
loop_
_atom_site_type_symbol
_atom_site_label
_atom_site_fract_x
_atom_site_fract_y
_atom_site_fract_z
Si Si1 0.007080 0.792524 0.865559
Si Si2 0.270697 0.884939 0.160881
Si Si3 0.486745 0.565219 0.742639
Si Si4 0.216173 0.637381 0.085858
Si Si5 0.124559 0.940299 0.713949
Si Si6 0.676466 0.186233 0.677093
Si Si7 0.277578 0.581861 0.281948
Si Si8 0.395031 0.273112 0.388080
O O1 0.738211 0.665134 0.812983
O O2 0.051919 0.882215 0.900423
O O3 0.216015 0.825294 0.612379
O O4 0.027914 0.793470 0.087786
O O5 0.233987 0.920694 0.447538
O O6 0.312096 0.835738 0.145575
O O7 0.500000 0.000000 0.000000
O O8 0.500000 0.500000 0.500000
O O9 0.532451 0.636845 0.656519
O O10 0.271802 0.512604 0.021581
O O11 0.138754 0.679916 0.280584
O O12 0.354653 0.666021 0.198745
O O13 0.413178 0.710095 0.835318
O O14 0.000000 0.500000 0.000000
O O15 0.881602 0.859745 0.665758
O O16 0.375584 0.083785 0.744770
O O17 0.503306 0.667806 0.380413
O O18 0.000000 0.500000 0.500000
#
# Coordination Sequence:
#
# PCOD9100141 Si02
#       8
#     2   2   2   2   2   2   2   2
#     4  10  20  37  62  97 132 161 205 268 333 393
#     4  11  18  37  65  97 128 160 205 263 333 395
#     4  10  24  40  64  98 132 165 217 282 336 387
#     4  11  25  45  62  87 130 176 229 275 318 387
#     4  10  20  39  61  95 132 160 207 267 337 393
#     4  11  23  37  66  95 127 175 214 264 330 396
#     4  11  23  44  69  88 124 182 227 269 330 390
#     4  10  23  43  64  89 129 173 213 280 331 385
#
# _framework density 22.716702999999999
#
# number of rings (size 3 to 8) (size 9 to 14) (size 15 to 20)
#    0.000    1.500    3.750    1.500    3.500    2.000 
#    2.250    0.625    0.000    0.000    0.000    0.000 
#    0.000    0.000    0.000    0.000    0.000    0.000 
#
# Total GULP energy -89133.333626 kJ/mol
# GULP energy per Si atom -5570.833352 kJ/mol
# Density = 2.266500 g / cm^3
# Si number density = 22.716703 Si / 1000 Ang^3
#
#
#
# Elastic Constant Matrix: (Units=GPa)
#
#
# Indices 1 2 3 4 5 6 
#
# 1 93.1560 31.3978 34.5105 16.7183 21.4360 15.5642
# 2 31.3978 72.9568 16.9156 14.9533 -0.3136 20.3259
# 3 34.5105 16.9156 93.2026 8.8573 10.4499 -0.9980
# 4 16.7183 14.9533 8.8573 26.6660 13.4191 1.2643
# 5 21.4360 -0.3136 10.4499 13.4191 46.3348 -0.5390
# 6 15.5642 20.3259 -0.9980 1.2643 -0.5390 34.5293
#
#
#
# Elastic Compliance Matrix: (Units=1/GPa)
#
#
# Indices 1 2 3 4 5 6 
#
# 1 0.016545 -0.003909 -0.004495 -0.003575 -0.005693 -0.005245
# 2 -0.003909 0.020938 -0.002038 -0.010870 0.005440 -0.010139
# 3 -0.004495 -0.002038 0.012899 -0.000106 -0.000771 0.003591
# 4 -0.003575 -0.010870 -0.000106 0.052387 -0.013500 0.005878
# 5 -0.005693 0.005440 -0.000771 -0.013500 0.028339 0.000278
# 6 -0.005245 -0.010139 0.003591 0.005878 0.000278 0.037186
#
#
# Mechanical properties :
#
#
# Convention : Reuss Voigt Hill
#
# Bulk Modulus (GPa) = 33.90134 47.21813 40.55973
# Shear Modulus (GPa) = 25.12429 33.27213 29.19821
#
# Velocity S-wave (km/s) = 3.32924 3.83123 3.58902
# Velocity P-wave (km/s) = 5.45292 6.35625 5.92184
#
# Compressibility (1/GPa) = 0.02949736
#
# Stress axis : x y z
#
# Youngs Moduli (GPa) = 60.44097 47.76087 77.52829
#
# Poissons Ratio (x) = 0.18669 0.34849
# Poissons Ratio (y) = 0.23625 0.15801
# Poissons Ratio (z) = 0.27168 0.09734
#
# Static dielectric constant tensor:
#      x y z
#    x 1.926240 0.055520 -0.029750 
#    y 0.055520 1.929310 -0.029380 
#    z -0.029750 -0.029380 1.936030 
# 
# From -- ./inp_files/84494.got.cif
#   From: 2010.05.17/outbox.cif.g08.bks.cpg/sg2_43_cif.got.tgz:84494.got - 2010.06.03 11:33:40.
