data_PCOD9100047
_publ_section_title
;
Structure prediction by ZEFSAII (Michael W. Deem and Ramdas Pophale) SiO2 
 PCOD9100047
Probable space group: P -1
;
_chemical_formula_sum "Si O2"
_cell_formula_units_Z 16
_cell_length_a 13.614095
_cell_length_b 11.510588
_cell_length_c 8.573384
_cell_angle_alpha 58.625849
_cell_angle_beta 93.352611
_cell_angle_gamma 133.539234
_cell_volume 727.181921
_symmetry_space_group_name_H-M "P -1"
_symmetry_group_IT_number 2
_symmetry_cell_setting 'triclinic'
loop_
_space_group_symop_operation_xyz
x,y,z
-x,-y,-z
loop_
_atom_site_type_symbol
_atom_site_label
_atom_site_fract_x
_atom_site_fract_y
_atom_site_fract_z
Si Si1 0.660482 0.251541 0.852692
Si Si2 0.449708 0.269342 0.805594
Si Si3 0.639642 0.721041 0.542784
Si Si4 0.072890 0.301111 0.856595
Si Si5 0.816675 0.194480 0.735861
Si Si6 0.090544 0.134419 0.704166
Si Si7 0.870943 0.092884 0.522071
Si Si8 0.893615 0.519692 0.957321
O O1 0.604904 0.345250 0.765724
O O2 0.770856 0.298440 0.703406
O O3 0.747326 0.327249 0.971522
O O4 0.500000 0.000000 0.000000
O O5 0.493695 0.466249 0.733784
O O6 0.393645 0.226482 0.651994
O O7 0.322277 0.054335 0.045695
O O8 0.783483 0.778380 0.468382
O O9 0.707308 0.877823 0.582202
O O10 0.156415 0.309943 0.717542
O O11 0.962711 0.298037 0.774789
O O12 0.153873 0.458979 0.900403
O O13 0.966737 0.065288 0.080069
O O14 0.848221 0.198911 0.556044
O O15 0.946766 0.057257 0.662548
O O16 0.996539 0.260042 0.283957
O O17 0.000000 0.500000 0.000000
#
# Coordination Sequence:
#
# PCOD9100047 Si02
#       8
#     2   2   2   2   2   2   2   2
#     4  10  23  41  65  86 123 171 204 251 308 373
#     4  10  22  39  63  83 124 172 207 244 319 376
#     4  11  21  39  61  91 123 164 207 258 306 373
#     4  10  20  37  64  91 122 157 201 257 317 353
#     4  10  20  43  59  90 126 164 203 259 309 362
#     4  10  20  37  62  91 125 154 193 269 309 361
#     4  11  24  36  65  92 123 155 214 266 307 362
#     4  12  23  41  67  93 122 163 213 258 307 370
#
# _framework density 22.002748
#
# number of rings (size 3 to 8) (size 9 to 14) (size 15 to 20)
#    0.000    1.500    3.750    1.125    3.500    1.000 
#    2.250    5.625    0.000    0.000    0.000    0.000 
#    0.000    0.000    0.000    0.000    0.000    0.000 
#
# Total GULP energy -89406.171436 kJ/mol
# GULP energy per Si atom -5587.885715 kJ/mol
# Density = 2.195267 g / cm^3
# Si number density = 22.002748 Si / 1000 Ang^3
#
#
#
# Elastic Constant Matrix: (Units=GPa)
#
#
# Indices 1 2 3 4 5 6 
#
# 1 78.5512 33.1747 -9.4970 12.5965 9.4589 5.1879
# 2 33.1747 156.7293 17.0364 27.8666 2.6336 3.3637
# 3 -9.4970 17.0364 51.3086 -11.2046 1.9001 1.9241
# 4 12.5965 27.8666 -11.2046 30.3292 -3.8027 -2.8182
# 5 9.4589 2.6336 1.9001 -3.8027 24.4107 7.5506
# 6 5.1879 3.3637 1.9241 -2.8182 7.5506 28.5124
#
#
#
# Elastic Compliance Matrix: (Units=1/GPa)
#
#
# Indices 1 2 3 4 5 6 
#
# 1 0.015792 -0.002962 0.003430 -0.003478 -0.006154 -0.001470
# 2 -0.002962 0.009378 -0.005714 -0.009666 -0.000624 -0.000972
# 3 0.003430 -0.005714 0.024873 0.012923 -0.000574 -0.000199
# 4 -0.003478 -0.009666 0.012923 0.049410 0.007943 0.003681
# 5 -0.006154 -0.000624 -0.000574 0.007943 0.048008 -0.010696
# 6 -0.001470 -0.000972 -0.000199 0.003681 -0.010696 0.038664
#
#
# Mechanical properties :
#
#
# Convention : Reuss Voigt Hill
#
# Bulk Modulus (GPa) = 25.28311 40.89079 33.08695
# Shear Modulus (GPa) = 23.83211 33.04213 28.43712
#
# Velocity S-wave (km/s) = 3.29468 3.87942 3.59895
# Velocity P-wave (km/s) = 5.09795 6.22023 5.68684
#
# Compressibility (1/GPa) = 0.03955210
#
# Stress axis : x y z
#
# Youngs Moduli (GPa) = 63.32262 106.62713 40.20451
#
# Poissons Ratio (x) = 0.31585 -0.13790
# Poissons Ratio (y) = 0.18757 0.22971
# Poissons Ratio (z) = -0.21720 0.60922
#
# Static dielectric constant tensor:
#      x y z
#    x 1.801580 -0.020010 0.002990 
#    y -0.020010 1.817610 -0.022890 
#    z 0.002990 -0.022890 1.827940 
# 
# From -- ./inp_files/306741.got.cif
#   From: 2010.05.17/outbox.cif.g08.bks.cpg/sg2_154_cif.got.tgz:306741.got - 2010.06.03 11:33:40.
