data_PCOD9100006
_publ_section_title
;
Structure prediction by ZEFSAII (Michael W. Deem and Ramdas Pophale) SiO2 
 PCOD9100006
Probable space group: P -1
;
_chemical_formula_sum "Si O2"
_cell_formula_units_Z 14
_cell_length_a 8.991982
_cell_length_b 14.878657
_cell_length_c 7.644133
_cell_angle_alpha 111.111579
_cell_angle_beta 46.961819
_cell_angle_gamma 135.432214
_cell_volume 508.470235
_symmetry_space_group_name_H-M "P -1"
_symmetry_group_IT_number 2
_symmetry_cell_setting 'triclinic'
loop_
_space_group_symop_operation_xyz
x,y,z
-x,-y,-z
loop_
_atom_site_type_symbol
_atom_site_label
_atom_site_fract_x
_atom_site_fract_y
_atom_site_fract_z
Si Si1 0.800711 0.662815 0.566332
Si Si2 0.595960 0.098256 0.654463
Si Si3 0.307142 0.062168 0.348715
Si Si4 0.907670 0.435266 0.279581
Si Si5 0.607244 0.305718 0.078274
Si Si6 0.407524 0.216768 0.727848
Si Si7 0.750782 0.638397 0.170200
O O1 0.653001 0.714541 0.781147
O O2 0.828652 0.674274 0.338956
O O3 0.567357 0.506117 0.684572
O O4 0.090315 0.758566 0.502775
O O5 0.405398 0.134246 0.821636
O O6 0.500000 0.000000 0.500000
O O7 0.630505 0.028505 0.728069
O O8 0.520005 0.172243 0.111591
O O9 0.361670 0.138006 0.536439
O O10 0.000000 0.000000 0.500000
O O11 0.707455 0.386268 0.237887
O O12 0.715346 0.361209 0.548862
O O13 0.135365 0.591875 0.182454
O O14 0.063524 0.385163 0.079928
O O15 0.217890 0.250284 0.879659
#
# Coordination Sequence:
#
# PCOD9100006 Si02
#       7
#     2   2   2   2   2   2   2
#     4  10  18  33  56  90 107 148 198 229 293 327
#     4  10  21  34  58  84 115 159 197 224 278 361
#     4  10  16  31  59  80 103 149 200 231 263 330
#     4   9  18  32  56  90 117 141 185 239 300 340
#     4   9  16  30  54  85 111 134 193 239 276 331
#     4  10  20  36  55  86 117 156 181 230 302 343
#     4  10  19  33  61  86 118 142 188 253 282 340
#
# _framework density 27.533569
#
# number of rings (size 3 to 8) (size 9 to 14) (size 15 to 20)
#    0.000    2.286    4.286    0.000    2.000    0.571 
#    0.000    2.857    3.143   35.143    0.000    0.000 
#    0.000    0.000    0.000    0.000    0.000    0.000 
#
# Total GULP energy -78366.364390 kJ/mol
# GULP energy per Si atom -5597.597456 kJ/mol
# Density = 2.747090 g / cm^3
# Si number density = 27.533569 Si / 1000 Ang^3
#
#
#
# Elastic Constant Matrix: (Units=GPa)
#
#
# Indices 1 2 3 4 5 6 
#
# 1 165.0173 62.9996 29.7762 10.9064 -12.9179 -20.2322
# 2 62.9996 143.2824 36.0689 25.9676 -25.1762 -29.0176
# 3 29.7762 36.0689 43.9456 13.4899 -20.6964 -0.4836
# 4 10.9064 25.9676 13.4899 35.9762 -11.6789 -22.2547
# 5 -12.9179 -25.1762 -20.6964 -11.6789 40.8139 13.6131
# 6 -20.2322 -29.0176 -0.4836 -22.2547 13.6131 64.5092
#
#
#
# Elastic Compliance Matrix: (Units=1/GPa)
#
#
# Indices 1 2 3 4 5 6 
#
# 1 0.007874 -0.002460 -0.004690 0.002108 -0.001598 0.002392
# 2 -0.002460 0.010793 -0.005735 -0.002738 0.001242 0.002834
# 3 -0.004690 -0.005735 0.041979 -0.011766 0.016672 -0.011313
# 4 0.002108 -0.002738 -0.011766 0.042250 0.000495 0.013813
# 5 -0.001598 0.001242 0.016672 0.000495 0.035757 -0.007192
# 6 0.002392 0.002834 -0.011313 0.013813 -0.007192 0.023725
#
#
# Mechanical properties :
#
#
# Convention : Reuss Voigt Hill
#
# Bulk Modulus (GPa) = 28.67229 67.77053 48.22141
# Shear Modulus (GPa) = 25.02852 43.15323 34.09087
#
# Velocity S-wave (km/s) = 3.01826 3.96320 3.52256
# Velocity P-wave (km/s) = 4.75213 6.75351 5.83920
#
# Compressibility (1/GPa) = 0.03487688
#
# Stress axis : x y z
#
# Youngs Moduli (GPa) = 126.99605 92.65372 23.82155
#
# Poissons Ratio (x) = 0.22793 0.11172
# Poissons Ratio (y) = 0.31241 0.13661
# Poissons Ratio (z) = 0.59557 0.53135
#
# Static dielectric constant tensor:
#      x y z
#    x 2.209190 0.026690 -0.022110 
#    y 0.026690 2.195760 -0.063640 
#    z -0.022110 -0.063640 2.243640 
# 
# From -- ./inp_files/399243.got.cif
#   From: 2010.05.17/outbox.cif.g08.bks.cpg/sg2_200_cif.got.tgz:399243.got - 2010.06.03 11:33:40.
