data_PCOD9100948
_publ_section_title
;
Structure prediction by ZEFSAII (Michael W. Deem and Ramdas Pophale) SiO2 
 PCOD9100948
Probable space group: P -1
;
_chemical_formula_sum "Si O2"
_cell_formula_units_Z 15
_cell_length_a 12.941668
_cell_length_b 11.973807
_cell_length_c 12.992822
_cell_angle_alpha 34.834093
_cell_angle_beta 145.641627
_cell_angle_gamma 132.102728
_cell_volume 648.890269
_symmetry_space_group_name_H-M "P -1"
_symmetry_group_IT_number 2
_symmetry_cell_setting 'triclinic'
loop_
_space_group_symop_operation_xyz
x,y,z
-x,-y,-z
loop_
_atom_site_type_symbol
_atom_site_label
_atom_site_fract_x
_atom_site_fract_y
_atom_site_fract_z
Si Si1 0.660938 0.290210 0.540242
Si Si2 0.610985 0.241467 0.865739
Si Si3 0.458030 0.915881 0.855719
Si Si4 0.000000 0.500000 0.000000
Si Si5 0.345347 0.422353 0.856370
Si Si6 0.778416 0.529217 0.641917
Si Si7 0.187056 0.103572 0.099148
Si Si8 0.266204 0.200926 0.325368
O O1 0.719009 0.396498 0.403274
O O2 0.779896 0.382697 0.658958
O O3 0.448906 0.331781 0.363816
O O4 0.669347 0.058117 0.705392
O O5 0.757888 0.400880 0.830359
O O6 0.406643 0.341564 0.617298
O O7 0.601760 0.074511 0.897598
O O8 0.638199 0.154283 0.065837
O O9 0.327395 0.024619 0.584782
O O10 0.564588 0.734667 0.029276
O O11 0.956926 0.628692 0.752218
O O12 0.894474 0.675493 0.849120
O O13 0.500000 0.500000 0.000000
O O14 0.205464 0.304867 0.900330
O O15 0.217796 0.132648 0.222778
O O16 0.000000 0.000000 0.000000
#
# Coordination Sequence:
#
# PCOD9100948 Si02
#       8
#     2   2   2   1   2   2   2   2
#     4  12  23  45  76 104 137 196 250 297 357 439
#     4  10  20  37  67  92 132 182 239 290 345 426
#     4  11  21  38  68 102 130 179 249 297 339 425
#     4  12  26  38  64 102 140 186 232 292 368 422
#     4  12  24  41  75 109 135 188 249 295 354 439
#     4  11  20  40  62  96 137 184 232 291 357 427
#     4  12  27  48  72 109 153 186 236 312 373 424
#     4  12  23  45  70 100 143 192 244 294 363 433
#
# _framework density 23.116389000000002
#
# number of rings (size 3 to 8) (size 9 to 14) (size 15 to 20)
#    0.000    0.533    6.667    2.800    0.000    0.533 
#    0.000    2.000    0.000    0.000    0.000    0.000 
#    0.000    0.000    0.000    0.000    0.000    0.000 
#
# Total GULP energy -83732.711951 kJ/mol
# GULP energy per Si atom -5582.180797 kJ/mol
# Density = 2.306378 g / cm^3
# Si number density = 23.116389 Si / 1000 Ang^3
#
#
#
# Elastic Constant Matrix: (Units=GPa)
#
#
# Indices 1 2 3 4 5 6 
#
# 1 69.2942 20.4356 39.3527 13.8405 -24.7704 -6.5502
# 2 20.4356 103.1172 4.8215 23.4919 -14.2577 -19.6887
# 3 39.3527 4.8215 87.1666 16.5853 -16.5434 9.8236
# 4 13.8405 23.4919 16.5853 43.3727 -8.1067 -10.7475
# 5 -24.7704 -14.2577 -16.5434 -8.1067 57.6235 -6.5155
# 6 -6.5502 -19.6887 9.8236 -10.7475 -6.5155 56.9452
#
#
#
# Elastic Compliance Matrix: (Units=1/GPa)
#
#
# Indices 1 2 3 4 5 6 
#
# 1 0.023640 -0.002361 -0.009625 -0.000139 0.007289 0.004371
# 2 -0.002361 0.012130 0.001450 -0.005280 0.001988 0.002903
# 3 -0.009625 0.001450 0.017284 -0.005493 -0.000114 -0.004637
# 4 -0.000139 -0.005280 -0.005493 0.029606 0.001776 0.004897
# 5 0.007289 0.001988 -0.000114 0.001776 0.021690 0.004362
# 6 0.004371 0.002903 -0.004637 0.004897 0.004362 0.021291
#
#
# Mechanical properties :
#
#
# Convention : Reuss Voigt Hill
#
# Bulk Modulus (GPa) = 31.26799 43.19972 37.23385
# Shear Modulus (GPa) = 31.77178 44.58618 38.17898
#
# Velocity S-wave (km/s) = 3.71135 4.39654 4.06839
# Velocity P-wave (km/s) = 5.64988 6.67092 6.18152
#
# Compressibility (1/GPa) = 0.03198159
#
# Stress axis : x y z
#
# Youngs Moduli (GPa) = 42.30095 82.44137 57.85837
#
# Poissons Ratio (x) = 0.19462 0.55688
# Poissons Ratio (y) = 0.09986 -0.08387
# Poissons Ratio (z) = 0.40714 -0.11951
#
# Static dielectric constant tensor:
#      x y z
#    x 1.974510 0.121380 0.124290 
#    y 0.121380 2.150600 0.166090 
#    z 0.124290 0.166090 2.150470 
# 
# From -- ./inp_files/425184.got.cif
#   From: 2010.05.17/outbox.cif.g08.bks.cpg/sg2_213_cif.got.tgz:425184.got - 2010.06.03 11:33:40.
