data_PCOD9100416
_publ_section_title
;
Structure prediction by ZEFSAII (Michael W. Deem and Ramdas Pophale) SiO2 
 PCOD9100416
Probable space group: P -1
;
_chemical_formula_sum "Si O2"
_cell_formula_units_Z 16
_cell_length_a 9.159602
_cell_length_b 14.198533
_cell_length_c 9.435999
_cell_angle_alpha 125.587379
_cell_angle_beta 115.936049
_cell_angle_gamma 58.821139
_cell_volume 837.332974
_symmetry_space_group_name_H-M "P -1"
_symmetry_group_IT_number 2
_symmetry_cell_setting 'triclinic'
loop_
_space_group_symop_operation_xyz
x,y,z
-x,-y,-z
loop_
_atom_site_type_symbol
_atom_site_label
_atom_site_fract_x
_atom_site_fract_y
_atom_site_fract_z
Si Si1 0.912158 0.715577 0.534127
Si Si2 0.547867 0.690980 0.424281
Si Si3 0.979462 0.878885 0.953711
Si Si4 0.809112 0.149487 0.713063
Si Si5 0.283639 0.548498 0.565663
Si Si6 0.662681 0.890571 0.037981
Si Si7 0.480763 0.315324 0.277816
Si Si8 0.880736 0.877276 0.392060
O O1 0.723344 0.713947 0.485823
O O2 0.958219 0.799511 0.743921
O O3 0.902867 0.770333 0.421200
O O4 0.077292 0.588832 0.510229
O O5 0.387095 0.759969 0.317594
O O6 0.615684 0.541739 0.342833
O O7 0.481654 0.741435 0.597986
O O8 0.816402 0.890630 0.997032
O O9 0.136364 0.825915 0.085356
O O10 0.000000 0.000000 0.000000
O O11 0.942622 0.163417 0.662305
O O12 0.840751 0.003879 0.575777
O O13 0.352670 0.457336 0.378965
O O14 0.347405 0.665077 0.689248
O O15 0.726865 0.905158 0.235738
O O16 0.611697 0.767325 0.909930
O O17 0.500000 0.000000 0.000000
#
# Coordination Sequence:
#
# PCOD9100416 Si02
#       8
#     2   2   2   2   2   2   2   2
#     4  12  22  39  62  92 126 156 204 256 307 359
#     4  10  20  37  64  85 117 159 203 250 300 354
#     4  11  23  39  59  92 126 160 195 252 313 356
#     4  10  21  41  59  86 124 163 205 243 302 371
#     4   9  21  38  66  87 118 170 204 245 302 366
#     4  11  23  39  62  92 124 160 205 252 299 369
#     4   9  19  39  62  89 116 161 211 237 302 358
#     4  10  23  36  61  89 121 165 200 247 308 360
#
# _framework density 19.10829
#
# number of rings (size 3 to 8) (size 9 to 14) (size 15 to 20)
#    0.750    1.000    2.500    1.875    1.750    1.500 
#    0.000    1.250    2.750    0.000    0.000    0.000 
#    0.000    0.000    0.000    0.000    0.000    0.000 
#
# Total GULP energy -89080.086912 kJ/mol
# GULP energy per Si atom -5567.505432 kJ/mol
# Density = 1.906480 g / cm^3
# Si number density = 19.108290 Si / 1000 Ang^3
#
#
#
# Elastic Constant Matrix: (Units=GPa)
#
#
# Indices 1 2 3 4 5 6 
#
# 1 95.0051 62.9041 40.0053 -7.8806 30.8000 -2.3579
# 2 62.9041 77.7820 20.3326 -19.5834 12.7570 -11.5223
# 3 40.0053 20.3326 75.4896 -15.9734 13.1566 -4.4112
# 4 -7.8806 -19.5834 -15.9734 24.1315 -0.1595 16.0345
# 5 30.8000 12.7570 13.1566 -0.1595 26.3371 -5.7869
# 6 -2.3579 -11.5223 -4.4112 16.0345 -5.7869 33.6010
#
#
#
# Elastic Compliance Matrix: (Units=1/GPa)
#
#
# Indices 1 2 3 4 5 6 
#
# 1 0.053524 -0.039020 -0.015721 -0.018637 -0.038006 -0.009340
# 2 -0.039020 0.046624 0.011672 0.030817 0.018106 0.003194
# 3 -0.015721 0.011672 0.022900 0.022747 0.000355 -0.004888
# 4 -0.018637 0.030817 0.022747 0.100446 -0.012190 -0.037787
# 5 -0.038006 0.018106 0.000355 -0.012190 0.078429 0.022913
# 6 -0.009340 0.003194 -0.004888 -0.037787 0.022913 0.051537
#
#
# Mechanical properties :
#
#
# Convention : Reuss Voigt Hill
#
# Bulk Modulus (GPa) = 27.09135 54.97339 41.03237
# Shear Modulus (GPa) = 11.06437 25.14957 18.10697
#
# Velocity S-wave (km/s) = 2.40893 3.63183 3.08165
# Velocity P-wave (km/s) = 4.68464 6.81313 5.84656
#
# Compressibility (1/GPa) = 0.03691215
#
# Stress axis : x y z
#
# Youngs Moduli (GPa) = 18.68304 21.44821 43.66864
#
# Poissons Ratio (x) = 0.83690 0.68651
# Poissons Ratio (y) = 0.72900 -0.50971
# Poissons Ratio (z) = 0.29371 -0.25035
#
# Static dielectric constant tensor:
#      x y z
#    x 1.714250 0.002710 0.005950 
#    y 0.002710 1.687400 0.021670 
#    z 0.005950 0.021670 1.666110 
# 
# From -- ./inp_files/205823.got.cif
#   From: 2010.05.17/outbox.cif.g08.bks.cpg/sg2_103_cif.got.tgz:205823.got - 2010.06.03 11:33:40.
