data_PCOD9100931
_publ_section_title
;
Structure prediction by ZEFSAII (Michael W. Deem and Ramdas Pophale) SiO2 
 PCOD9100931
Probable space group: P -1
;
_chemical_formula_sum "Si O2"
_cell_formula_units_Z 16
_cell_length_a 11.793666
_cell_length_b 17.467888
_cell_length_c 15.266544
_cell_angle_alpha 33.087420
_cell_angle_beta 151.574447
_cell_angle_gamma 128.761237
_cell_volume 739.357849
_symmetry_space_group_name_H-M "P -1"
_symmetry_group_IT_number 2
_symmetry_cell_setting 'triclinic'
loop_
_space_group_symop_operation_xyz
x,y,z
-x,-y,-z
loop_
_atom_site_type_symbol
_atom_site_label
_atom_site_fract_x
_atom_site_fract_y
_atom_site_fract_z
Si Si1 0.990758 0.332304 0.153843
Si Si2 0.641894 0.016996 0.288480
Si Si3 0.590744 0.830532 0.190667
Si Si4 0.159396 0.771873 0.685710
Si Si5 0.093934 0.126979 0.907337
Si Si6 0.311841 0.827904 0.552688
Si Si7 0.864025 0.803887 0.937975
Si Si8 0.274567 0.665289 0.207338
O O1 0.788509 0.337223 0.088924
O O2 0.232254 0.158403 0.496304
O O3 0.000000 0.500000 0.000000
O O4 0.919373 0.306860 0.031721
O O5 0.847763 0.067480 0.431272
O O6 0.514389 0.146143 0.002075
O O7 0.391938 0.044156 0.153715
O O8 0.433828 0.766584 0.207342
O O9 0.902542 0.758998 0.483197
O O10 0.500000 0.000000 0.000000
O O11 0.331946 0.753931 0.733325
O O12 0.886026 0.208008 0.610476
O O13 0.093677 0.218564 0.907496
O O14 0.000000 0.000000 0.000000
O O15 0.602633 0.782599 0.756082
O O16 0.191262 0.017625 0.295449
O O17 0.117178 0.692716 0.163231
O O18 0.500000 0.500000 0.500000
#
# Coordination Sequence:
#
# PCOD9100931 Si02
#       8
#     2   2   2   2   2   2   2   2
#     4  12  27  43  65 102 144 189 228 289 356 420
#     4  12  23  42  69 105 141 175 236 292 346 408
#     4  12  23  40  70 102 134 181 232 289 340 409
#     4  12  22  41  71 103 141 175 233 292 347 408
#     4  10  22  35  65 106 135 176 225 289 340 404
#     4  10  20  37  67 106 132 175 227 288 339 401
#     4  10  22  41  64  99 141 175 228 287 340 400
#     4  12  28  47  67 100 145 187 229 283 353 423
#
# _framework density 21.6404
#
# number of rings (size 3 to 8) (size 9 to 14) (size 15 to 20)
#    0.000    0.750    5.000    3.375    5.250    0.000 
#    0.000    0.000    0.000    7.500    0.000    0.000 
#    0.000    0.000    0.000    0.000    0.000    0.000 
#
# Total GULP energy -89165.588739 kJ/mol
# GULP energy per Si atom -5572.849296 kJ/mol
# Density = 2.159115 g / cm^3
# Si number density = 21.640400 Si / 1000 Ang^3
#
#
#
# Elastic Constant Matrix: (Units=GPa)
#
#
# Indices 1 2 3 4 5 6 
#
# 1 139.4512 33.0226 29.4250 -3.5646 20.7785 -5.7802
# 2 33.0226 104.2290 34.4850 14.7974 3.0307 10.6778
# 3 29.4250 34.4850 49.2594 2.9493 18.3565 -5.7717
# 4 -3.5646 14.7974 2.9493 28.6075 0.0666 -5.8543
# 5 20.7785 3.0307 18.3565 0.0666 34.8851 6.3236
# 6 -5.7802 10.6778 -5.7717 -5.8543 6.3236 29.6274
#
#
#
# Elastic Compliance Matrix: (Units=1/GPa)
#
#
# Indices 1 2 3 4 5 6 
#
# 1 0.009378 -0.003860 -0.000268 0.004294 -0.006081 0.005315
# 2 -0.003860 0.019570 -0.017298 -0.012183 0.012677 -0.016289
# 3 -0.000268 -0.017298 0.044143 0.008925 -0.025571 0.022003
# 4 0.004294 -0.012183 0.008925 0.044537 -0.009507 0.017797
# 5 -0.006081 0.012677 -0.025571 -0.009507 0.048836 -0.023039
# 6 0.005315 -0.016289 0.022003 0.017797 -0.023039 0.053380
#
#
# Mechanical properties :
#
#
# Convention : Reuss Voigt Hill
#
# Bulk Modulus (GPa) = 33.06911 54.08943 43.57927
# Shear Modulus (GPa) = 18.33008 31.69114 25.01061
#
# Velocity S-wave (km/s) = 2.91354 3.83096 3.40330
# Velocity P-wave (km/s) = 5.16068 6.67961 5.96866
#
# Compressibility (1/GPa) = 0.03023970
#
# Stress axis : x y z
#
# Youngs Moduli (GPa) = 106.63652 51.09829 22.65345
#
# Poissons Ratio (x) = 0.19723 0.00607
# Poissons Ratio (y) = 0.41160 0.39186
# Poissons Ratio (z) = 0.02857 0.88390
#
# Static dielectric constant tensor:
#      x y z
#    x 1.671230 -0.102950 0.170350 
#    y -0.102950 1.769860 0.149550 
#    z 0.170350 0.149550 1.512480 
# 
# From -- ./inp_files/522308.got.cif
#   From: 2010.05.17/outbox.cif.g08.bks.cpg/sg2_262_cif.got.tgz:522308.got - 2010.06.03 11:33:40.
