data_PCOD9100065
_publ_section_title
;
Structure prediction by ZEFSAII (Michael W. Deem and Ramdas Pophale) SiO2 
 PCOD9100065
Probable space group: P -1
;
_chemical_formula_sum "Si O2"
_cell_formula_units_Z 16
_cell_length_a 12.525113
_cell_length_b 14.032386
_cell_length_c 5.160092
_cell_angle_alpha 118.364303
_cell_angle_beta 58.397715
_cell_angle_gamma 131.346112
_cell_volume 567.983454
_symmetry_space_group_name_H-M "P -1"
_symmetry_group_IT_number 2
_symmetry_cell_setting 'triclinic'
loop_
_space_group_symop_operation_xyz
x,y,z
-x,-y,-z
loop_
_atom_site_type_symbol
_atom_site_label
_atom_site_fract_x
_atom_site_fract_y
_atom_site_fract_z
Si Si1 0.893200 0.846230 0.173593
Si Si2 0.441615 0.801052 0.624745
Si Si3 0.673263 0.083659 0.732686
Si Si4 0.860591 0.301178 0.439601
Si Si5 0.354874 0.532844 0.345789
Si Si6 0.844240 0.522953 0.975746
Si Si7 0.223741 0.033050 0.183686
Si Si8 0.280290 0.280426 0.273585
O O1 0.826053 0.933668 0.437259
O O2 0.999553 0.653123 0.864569
O O3 0.838818 0.777632 0.882144
O O4 0.068959 0.944495 0.116813
O O5 0.288637 0.739083 0.580367
O O6 0.472085 0.686667 0.444205
O O7 0.568072 0.944551 0.552050
O O8 0.403850 0.837961 0.999649
O O9 0.819420 0.180831 0.514335
O O10 0.709387 0.047442 0.917258
O O11 0.887626 0.417029 0.740079
O O12 0.223073 0.494324 0.676266
O O13 0.396420 0.429433 0.243907
O O14 0.280624 0.507359 0.124048
O O15 0.810225 0.740792 0.373730
O O16 0.325982 0.176288 0.115762
#
# Coordination Sequence:
#
# PCOD9100065 Si02
#       8
#     2   2   2   2   2   2   2   2
#     4   9  20  38  61  93 126 163 204 260 322 377
#     4  10  24  40  64  88 129 173 225 254 317 373
#     4  11  22  43  62  91 125 177 217 265 307 381
#     4  10  22  38  61  89 130 161 218 262 318 379
#     4  11  22  41  63  96 132 166 208 264 321 385
#     4  10  23  36  66  94 126 166 205 261 331 378
#     4   9  22  35  63  90 129 163 213 255 320 373
#     4  10  20  37  62  92 127 163 201 257 324 379
#
# _framework density 28.169837000000001
#
# number of rings (size 3 to 8) (size 9 to 14) (size 15 to 20)
#    0.750    1.250    1.250    1.500    3.500    3.500 
#    0.000    0.625    0.000    0.750    0.000    0.000 
#    0.000    0.000    0.000    0.000    0.000    0.000 
#
# Total GULP energy -89628.381822 kJ/mol
# GULP energy per Si atom -5601.773864 kJ/mol
# Density = 2.810572 g / cm^3
# Si number density = 28.169837 Si / 1000 Ang^3
#
#
#
# Elastic Constant Matrix: (Units=GPa)
#
#
# Indices 1 2 3 4 5 6 
#
# 1 79.9259 32.8508 23.1041 4.6908 12.9288 -5.5723
# 2 32.8508 233.9068 31.0590 11.0952 0.5712 -8.1218
# 3 23.1041 31.0590 119.7721 4.2879 8.1163 -6.2523
# 4 4.6908 11.0952 4.2879 55.4249 -8.6216 -3.6470
# 5 12.9288 0.5712 8.1163 -8.6216 39.6891 7.8876
# 6 -5.5723 -8.1218 -6.2523 -3.6470 7.8876 31.6484
#
#
#
# Elastic Compliance Matrix: (Units=1/GPa)
#
#
# Indices 1 2 3 4 5 6 
#
# 1 0.014892 -0.001658 -0.001873 -0.001418 -0.005348 0.002996
# 2 -0.001658 0.004672 -0.000867 -0.000628 0.000402 0.000563
# 3 -0.001873 -0.000867 0.009153 -0.000532 -0.001686 0.001615
# 4 -0.001418 -0.000628 -0.000532 0.019083 0.004619 0.000532
# 5 -0.005348 0.000402 -0.001686 0.004619 0.029887 -0.008088
# 6 0.002996 0.000563 0.001615 0.000532 -0.008088 0.034665
#
#
# Mechanical properties :
#
#
# Convention : Reuss Voigt Hill
#
# Bulk Modulus (GPa) = 50.20196 67.51472 58.85834
# Shear Modulus (GPa) = 39.12726 48.45856 43.79291
#
# Velocity S-wave (km/s) = 3.73094 4.15206 3.94712
# Velocity P-wave (km/s) = 6.03488 6.85604 6.45852
#
# Compressibility (1/GPa) = 0.01991954
#
# Stress axis : x y z
#
# Youngs Moduli (GPa) = 67.15124 214.05978 109.25555
#
# Poissons Ratio (x) = 0.35500 0.20464
# Poissons Ratio (y) = 0.11136 0.09471
# Poissons Ratio (z) = 0.12578 0.18556
#
# Static dielectric constant tensor:
#      x y z
#    x 2.140770 -0.062980 -0.056990 
#    y -0.062980 2.254160 0.056840 
#    z -0.056990 0.056840 2.206990 
# 
# From -- ./inp_files/78607.got.cif
#   From: 2010.05.17/outbox.cif.g08.bks.cpg/sg2_40_cif.got.tgz:78607.got - 2010.06.03 11:33:40.
