data_PCOD9100229
_publ_section_title
;
Structure prediction by ZEFSAII (Michael W. Deem and Ramdas Pophale) SiO2 
 PCOD9100229
Probable space group: P -1
;
_chemical_formula_sum "Si O2"
_cell_formula_units_Z 16
_cell_length_a 6.494225
_cell_length_b 12.971675
_cell_length_c 11.870577
_cell_angle_alpha 99.348024
_cell_angle_beta 76.042302
_cell_angle_gamma 129.460567
_cell_volume 749.202405
_symmetry_space_group_name_H-M "P -1"
_symmetry_group_IT_number 2
_symmetry_cell_setting 'triclinic'
loop_
_space_group_symop_operation_xyz
x,y,z
-x,-y,-z
loop_
_atom_site_type_symbol
_atom_site_label
_atom_site_fract_x
_atom_site_fract_y
_atom_site_fract_z
Si Si1 0.188546 0.202639 0.650734
Si Si2 0.041761 0.505075 0.816798
Si Si3 0.334219 0.780684 0.498265
Si Si4 0.408801 0.986831 0.342275
Si Si5 0.439053 0.894285 0.079695
Si Si6 0.884417 0.626984 0.021811
Si Si7 0.580794 0.734024 0.123562
Si Si8 0.786403 0.566806 0.415717
O O1 0.439295 0.238056 0.550767
O O2 0.253669 0.200421 0.771673
O O3 0.166404 0.319991 0.654046
O O4 0.901226 0.066594 0.628140
O O5 0.989767 0.604508 0.889965
O O6 0.735672 0.367021 0.817487
O O7 0.193548 0.528445 0.684287
O O8 0.180481 0.483884 0.898041
O O9 0.408346 0.890650 0.413133
O O10 0.034618 0.647512 0.486038
O O11 0.383453 0.860099 0.619971
O O12 0.462190 0.954738 0.208505
O O13 0.614194 0.841589 0.054478
O O14 0.138310 0.764186 0.067380
O O15 0.500000 0.000000 0.000000
O O16 0.658096 0.646297 0.044831
O O17 0.500000 0.500000 0.500000
#
# Coordination Sequence:
#
# PCOD9100229 Si02
#       8
#     2   2   2   2   2   2   2   2
#     4  11  18  37  64  89 118 164 213 256 308 370
#     4  10  20  37  64  90 122 161 209 263 303 372
#     4  10  20  38  64  90 118 164 210 259 300 367
#     4  10  20  37  63  89 120 157 214 259 303 367
#     4  11  23  39  58  88 131 164 199 263 321 372
#     4  10  20  38  63  88 119 164 215 257 304 372
#     4  11  18  37  66  92 118 163 215 258 312 373
#     4  11  23  39  58  92 134 164 200 255 323 381
#
# _framework density 21.356044000000001
#
# number of rings (size 3 to 8) (size 9 to 14) (size 15 to 20)
#    0.000    1.500    5.000    2.250    0.000    1.000 
#    2.250    0.000    0.000    0.000    0.000    0.000 
#    0.000    0.000    0.000    0.000    0.000    0.000 
#
# Total GULP energy -89358.137766 kJ/mol
# GULP energy per Si atom -5584.883610 kJ/mol
# Density = 2.130744 g / cm^3
# Si number density = 21.356044 Si / 1000 Ang^3
#
#
#
# Elastic Constant Matrix: (Units=GPa)
#
#
# Indices 1 2 3 4 5 6 
#
# 1 115.6480 26.3806 29.8222 7.6610 -15.3635 -6.4310
# 2 26.3806 41.0747 39.9426 11.3127 -6.9070 -7.5134
# 3 29.8222 39.9426 106.1000 26.9940 -20.6975 3.4116
# 4 7.6610 11.3127 26.9940 31.4305 -7.4788 5.1219
# 5 -15.3635 -6.9070 -20.6975 -7.4788 40.7591 3.5617
# 6 -6.4310 -7.5134 3.4116 5.1219 3.5617 25.3328
#
#
#
# Elastic Compliance Matrix: (Units=1/GPa)
#
#
# Indices 1 2 3 4 5 6 
#
# 1 0.010461 -0.006070 -0.000225 0.000441 0.002846 0.000396
# 2 -0.006070 0.048014 -0.016463 -0.005582 -0.004999 0.016748
# 3 -0.000225 -0.016463 0.019069 -0.007881 0.005953 -0.006751
# 4 0.000441 -0.005582 -0.007881 0.043016 0.003962 -0.009736
# 5 0.002846 -0.004999 0.005953 0.003962 0.029074 -0.006450
# 6 0.000396 0.016748 -0.006751 -0.009736 -0.006450 0.048327
#
#
# Mechanical properties :
#
#
# Convention : Reuss Voigt Hill
#
# Bulk Modulus (GPa) = 31.22254 50.56815 40.89534
# Shear Modulus (GPa) = 19.67336 30.61629 25.14482
#
# Velocity S-wave (km/s) = 3.03843 3.79042 3.43506
# Velocity P-wave (km/s) = 5.19242 6.54877 5.90963
#
# Compressibility (1/GPa) = 0.03202815
#
# Stress axis : x y z
#
# Youngs Moduli (GPa) = 95.59768 20.82737 52.44069
#
# Poissons Ratio (x) = 0.12643 0.01178
# Poissons Ratio (y) = 0.58030 0.86332
# Poissons Ratio (z) = 0.02147 0.34288
#
# Static dielectric constant tensor:
#      x y z
#    x 1.873870 0.078440 -0.063130 
#    y 0.078440 1.945080 -0.078740 
#    z -0.063130 -0.078740 1.840780 
# 
# From -- ./inp_files/364749.got.cif
#   From: 2010.05.17/outbox.cif.g08.bks.cpg/sg2_183_cif.got.tgz:364749.got - 2010.06.03 11:33:40.
