data_PCOD9100007
_publ_section_title
;
Structure prediction by ZEFSAII (Michael W. Deem and Ramdas Pophale) SiO2 
 PCOD9100007
Probable space group: P -1
;
_chemical_formula_sum "Si O2"
_cell_formula_units_Z 14
_cell_length_a 10.695690
_cell_length_b 10.493194
_cell_length_c 15.618059
_cell_angle_alpha 65.784170
_cell_angle_beta 118.363195
_cell_angle_gamma 152.881568
_cell_volume 702.734402
_symmetry_space_group_name_H-M "P -1"
_symmetry_group_IT_number 2
_symmetry_cell_setting 'triclinic'
loop_
_space_group_symop_operation_xyz
x,y,z
-x,-y,-z
loop_
_atom_site_type_symbol
_atom_site_label
_atom_site_fract_x
_atom_site_fract_y
_atom_site_fract_z
Si Si1 0.440593 0.878319 0.207375
Si Si2 0.525115 0.461730 0.114143
Si Si3 0.183087 0.543417 0.867687
Si Si4 0.995083 0.942984 0.827170
Si Si5 0.684890 0.858937 0.403952
Si Si6 0.243797 0.252611 0.384422
Si Si7 0.818334 0.486674 0.933503
O O1 0.514334 0.849275 0.321839
O O2 0.390499 0.729310 0.152694
O O3 0.156763 0.729635 0.166241
O O4 0.693769 0.198404 0.179874
O O5 0.696688 0.463579 0.159302
O O6 0.218271 0.182247 0.134291
O O7 0.500000 0.500000 0.000000
O O8 0.706237 0.725620 0.156358
O O9 0.290754 0.587465 0.984800
O O10 0.860657 0.859315 0.714332
O O11 0.994515 0.774826 0.886908
O O12 0.522668 0.586176 0.386821
O O13 0.707163 0.843506 0.515853
O O14 0.995944 0.125701 0.389201
O O15 0.000000 0.500000 0.000000
#
# Coordination Sequence:
#
# PCOD9100007 Si02
#       7
#     2   2   2   2   2   2   2
#     4  11  22  38  61  87 121 154 188 249 304 358
#     4  12  26  41  61  82 119 171 209 241 278 341
#     4  11  24  39  56  84 121 159 206 234 287 354
#     4  12  24  40  63  86 124 157 201 248 293 345
#     4  10  20  37  62  90 123 150 190 240 314 360
#     4  10  21  37  60  93 120 152 191 247 298 365
#     4  10  23  35  58  90 122 155 187 245 298 365
#
# _framework density 19.922180000000001
#
# number of rings (size 3 to 8) (size 9 to 14) (size 15 to 20)
#    0.000    1.143    2.857    3.429    6.000    0.000 
#    0.000    0.000    0.000    5.143    0.000    0.000 
#    0.000    0.000    0.000    0.000    0.000    0.000 
#
# Total GULP energy -78264.052444 kJ/mol
# GULP energy per Si atom -5590.289460 kJ/mol
# Density = 1.987684 g / cm^3
# Si number density = 19.922180 Si / 1000 Ang^3
#
#
#
# Elastic Constant Matrix: (Units=GPa)
#
#
# Indices 1 2 3 4 5 6 
#
# 1 67.5819 -12.8059 13.8905 -0.3501 5.4872 -3.1919
# 2 -12.8059 45.8014 -4.0834 -0.4070 0.6652 -5.7883
# 3 13.8905 -4.0834 115.2812 8.4921 17.4856 -1.6066
# 4 -0.3501 -0.4070 8.4921 23.4409 0.5392 -1.8740
# 5 5.4872 0.6652 17.4856 0.5392 16.7283 -3.4153
# 6 -3.1919 -5.7883 -1.6066 -1.8740 -3.4153 33.5256
#
#
#
# Elastic Compliance Matrix: (Units=1/GPa)
#
#
# Indices 1 2 3 4 5 6 
#
# 1 0.016376 0.004783 -0.001266 0.001034 -0.003866 0.001988
# 2 0.004783 0.023822 0.000628 0.000662 -0.002295 0.004402
# 3 -0.001266 0.000628 0.010767 -0.003723 -0.010911 -0.000816
# 4 0.001034 0.000662 -0.003723 0.044197 0.002668 0.002777
# 5 -0.003866 -0.002295 -0.010911 0.002668 0.073759 0.006376
# 6 0.001988 0.004402 -0.000816 0.002777 0.006376 0.031543
#
#
# Mechanical properties :
#
#
# Convention : Reuss Voigt Hill
#
# Bulk Modulus (GPa) = 16.87610 24.74077 20.80843
# Shear Modulus (GPa) = 23.59315 30.18318 26.88816
#
# Velocity S-wave (km/s) = 3.44505 3.89659 3.67776
# Velocity P-wave (km/s) = 4.93091 5.71754 5.33873
#
# Compressibility (1/GPa) = 0.05925539
#
# Stress axis : x y z
#
# Youngs Moduli (GPa) = 61.06335 41.97789 92.87622
#
# Poissons Ratio (x) = -0.20076 0.11757
# Poissons Ratio (y) = -0.29204 -0.05835
# Poissons Ratio (z) = 0.07730 -0.02637
#
# Static dielectric constant tensor:
#      x y z
#    x 1.740260 0.018860 0.006310 
#    y 0.018860 1.688270 0.010290 
#    z 0.006310 0.010290 1.704920 
# 
# From -- ./inp_files/92068.got.cif
#   From: 2010.05.17/outbox.cif.g08.bks.cpg/sg2_47_cif.got.tgz:92068.got - 2010.06.03 11:33:40.
