data_PCOD9100456
_publ_section_title
;
Structure prediction by ZEFSAII (Michael W. Deem and Ramdas Pophale) SiO2 
 PCOD9100456
Probable space group: P -1
;
_chemical_formula_sum "Si O2"
_cell_formula_units_Z 12
_cell_length_a 11.352383
_cell_length_b 6.481721
_cell_length_c 11.085053
_cell_angle_alpha 117.358730
_cell_angle_beta 128.873629
_cell_angle_gamma 51.290311
_cell_volume 492.497300
_symmetry_space_group_name_H-M "P -1"
_symmetry_group_IT_number 2
_symmetry_cell_setting 'triclinic'
loop_
_space_group_symop_operation_xyz
x,y,z
-x,-y,-z
loop_
_atom_site_type_symbol
_atom_site_label
_atom_site_fract_x
_atom_site_fract_y
_atom_site_fract_z
Si Si1 0.433580 0.703124 0.666896
Si Si2 0.956508 0.604474 0.635953
Si Si3 0.771468 0.470440 0.662085
Si Si4 0.387689 0.595600 0.078307
Si Si5 0.084054 0.027326 0.881975
Si Si6 0.731303 0.829383 0.148810
O O1 0.592423 0.627366 0.660310
O O2 0.264542 0.734472 0.496758
O O3 0.491102 0.473182 0.744921
O O4 0.394217 0.974730 0.779665
O O5 0.790884 0.660888 0.625917
O O6 0.000000 0.500000 0.500000
O O7 0.085871 0.338455 0.717472
O O8 0.012240 0.827472 0.750370
O O9 0.921591 0.318343 0.821240
O O10 0.500000 0.500000 0.000000
O O11 0.318885 0.382939 0.988078
O O12 0.211363 0.886010 0.041440
O O13 0.234158 0.005386 0.883975
#
# Coordination Sequence:
#
# PCOD9100456 Si02
#       6
#     2   2   2   2   2   2
#     4  11  22  42  62  92 132 158 198 260 308 360
#     4  10  20  37  64  89 119 164 212 247 293 371
#     4  10  24  42  60  93 130 163 196 251 317 359
#     4  11  23  39  66  96 117 160 214 252 302 361
#     4  10  21  42  61  91 120 162 212 242 305 363
#     4  10  21  39  65  90 121 160 208 257 299 357
#
# _framework density 24.365617
#
# number of rings (size 3 to 8) (size 9 to 14) (size 15 to 20)
#    0.000    1.667    1.667    2.500    2.333    3.333 
#    3.000   10.000    0.000    0.000    0.000    0.000 
#    0.000    0.000    0.000    0.000    0.000    0.000 
#
# Total GULP energy -66845.812398 kJ/mol
# GULP energy per Si atom -5570.484367 kJ/mol
# Density = 2.431016 g / cm^3
# Si number density = 24.365617 Si / 1000 Ang^3
#
#
#
# Elastic Constant Matrix: (Units=GPa)
#
#
# Indices 1 2 3 4 5 6 
#
# 1 119.9133 11.5964 8.5991 17.0241 2.1954 23.3646
# 2 11.5964 34.4565 7.6795 -1.0478 6.4558 15.3467
# 3 8.5991 7.6795 63.4588 -17.4002 -0.4874 0.6937
# 4 17.0241 -1.0478 -17.4002 25.2097 -6.7928 0.4821
# 5 2.1954 6.4558 -0.4874 -6.7928 18.7896 -7.2670
# 6 23.3646 15.3467 0.6937 0.4821 -7.2670 27.5392
#
#
#
# Elastic Compliance Matrix: (Units=1/GPa)
#
#
# Indices 1 2 3 4 5 6 
#
# 1 0.017809 0.014274 -0.011224 -0.026230 -0.028278 -0.029783
# 2 0.014274 0.069836 -0.020348 -0.037176 -0.065611 -0.067178
# 3 -0.011224 -0.020348 0.029355 0.035267 0.032695 0.028133
# 4 -0.026230 -0.037176 0.035267 0.099527 0.076102 0.060421
# 5 -0.028278 -0.065611 0.032695 0.076102 0.144791 0.096606
# 6 -0.029783 -0.067178 0.028133 0.060421 0.096606 0.122742
#
#
# Mechanical properties :
#
#
# Convention : Reuss Voigt Hill
#
# Bulk Modulus (GPa) = 12.13554 30.39760 21.26657
# Shear Modulus (GPa) = 9.15540 26.97127 18.06333
#
# Velocity S-wave (km/s) = 1.94053 3.33068 2.72572
# Velocity P-wave (km/s) = 3.16422 5.22436 4.31893
#
# Compressibility (1/GPa) = 0.08240259
#
# Stress axis : x y z
#
# Youngs Moduli (GPa) = 56.15264 14.31920 34.06527
#
# Poissons Ratio (x) = -0.20439 0.38236
# Poissons Ratio (y) = -0.80152 0.69318
# Poissons Ratio (z) = 0.63027 0.29137
#
# Static dielectric constant tensor:
#      x y z
#    x 2.255090 -0.007230 -0.057960 
#    y -0.007230 1.969400 -0.098770 
#    z -0.057960 -0.098770 2.017900 
# 
# From -- ./inp_files/22682.got.cif
#   From: 2010.05.17/outbox.cif.g08.bks.cpg/sg2_12_cif.got.tgz:22682.got - 2010.06.03 11:33:40.
