data_PCOD9100652
_publ_section_title
;
Structure prediction by ZEFSAII (Michael W. Deem and Ramdas Pophale) SiO2 
 PCOD9100652
Probable space group: P -1
;
_chemical_formula_sum "Si O2"
_cell_formula_units_Z 12
_cell_length_a 29.609741
_cell_length_b 8.013351
_cell_length_c 14.828933
_cell_angle_alpha 135.511640
_cell_angle_beta 163.212210
_cell_angle_gamma 34.092101
_cell_volume 496.317645
_symmetry_space_group_name_H-M "P -1"
_symmetry_group_IT_number 2
_symmetry_cell_setting 'triclinic'
loop_
_space_group_symop_operation_xyz
x,y,z
-x,-y,-z
loop_
_atom_site_type_symbol
_atom_site_label
_atom_site_fract_x
_atom_site_fract_y
_atom_site_fract_z
Si Si1 0.158031 0.262877 0.494694
Si Si2 0.105230 0.142659 0.158943
Si Si3 0.347027 0.065269 0.155520
Si Si4 0.797384 0.262622 0.283542
Si Si5 0.357849 0.184570 0.532370
Si Si6 0.176499 0.859668 0.505047
O O1 0.151697 0.082839 0.330318
O O2 0.266061 0.391525 0.715404
O O3 0.248469 0.031351 0.666418
O O4 0.906744 0.606336 0.177023
O O5 0.311889 0.049638 0.471030
O O6 0.879791 0.557399 0.879471
O O7 0.037189 0.994836 0.908770
O O8 0.431000 0.088248 0.231796
O O9 0.500000 0.000000 0.500000
O O10 0.381301 0.743355 0.087298
O O11 0.867139 0.117812 0.463494
O O12 0.000000 0.000000 0.500000
O O13 0.352028 0.460923 0.662728
#
# Coordination Sequence:
#
# PCOD9100652 Si02
#       6
#     2   2   2   2   2   2
#     4  11  20  40  66  86 119 159 197 239 291 358
#     4   9  17  35  63  86 115 160 190 231 293 358
#     4  11  22  37  62  89 117 156 198 249 299 340
#     4  10  23  38  62  84 123 159 193 244 299 349
#     4   9  18  35  63  83 120 152 196 238 295 341
#     4  10  20  37  65  88 114 160 205 229 289 365
#
# _framework density 24.178063999999999
#
# number of rings (size 3 to 8) (size 9 to 14) (size 15 to 20)
#    1.000    1.000    3.333    0.500    2.333    3.333 
#    0.000    1.667   11.000    0.000    0.000    0.000 
#    0.000    0.000    0.000    0.000    0.000    0.000 
#
# Total GULP energy -67009.059814 kJ/mol
# GULP energy per Si atom -5584.088318 kJ/mol
# Density = 2.412303 g / cm^3
# Si number density = 24.178064 Si / 1000 Ang^3
#
#
#
# Elastic Constant Matrix: (Units=GPa)
#
#
# Indices 1 2 3 4 5 6 
#
# 1 219.4421 58.8175 49.1490 20.7641 5.9132 -3.3475
# 2 58.8175 74.0244 46.3090 26.8600 -9.2334 4.4213
# 3 49.1490 46.3090 84.2755 19.2845 1.0373 4.6103
# 4 20.7641 26.8600 19.2845 36.8550 -2.3847 7.3732
# 5 5.9132 -9.2334 1.0373 -2.3847 32.5105 2.2631
# 6 -3.3475 4.4213 4.6103 7.3732 2.2631 47.1117
#
#
#
# Elastic Compliance Matrix: (Units=1/GPa)
#
#
# Indices 1 2 3 4 5 6 
#
# 1 0.006099 -0.004557 -0.001102 0.000090 -0.002436 0.001072
# 2 -0.004557 0.029593 -0.010777 -0.012704 0.008679 -0.000475
# 3 -0.001102 -0.010777 0.018848 -0.001515 -0.003538 -0.000504
# 4 0.000090 -0.012704 -0.001515 0.038021 -0.000468 -0.004581
# 5 -0.002436 0.008679 -0.003538 -0.000468 0.033899 -0.002196
# 6 0.001072 -0.000475 -0.000504 -0.004581 -0.002196 0.022219
#
#
# Mechanical properties :
#
#
# Convention : Reuss Voigt Hill
#
# Bulk Modulus (GPa) = 46.15193 76.25476 61.20334
# Shear Modulus (GPa) = 26.48695 38.19321 32.34008
#
# Velocity S-wave (km/s) = 3.31342 3.97881 3.66126
# Velocity P-wave (km/s) = 5.81103 7.26052 6.57584
#
# Compressibility (1/GPa) = 0.02166757
#
# Stress axis : x y z
#
# Youngs Moduli (GPa) = 163.96822 33.79227 53.05509
#
# Poissons Ratio (x) = 0.15399 0.05846
# Poissons Ratio (y) = 0.74720 0.57179
# Poissons Ratio (z) = 0.18067 0.36419
#
# Static dielectric constant tensor:
#      x y z
#    x 1.949570 0.048690 -0.025430 
#    y 0.048690 1.941680 0.030330 
#    z -0.025430 0.030330 2.021810 
# 
# From -- ./inp_files/544743.got.cif
#   From: 2010.05.17/outbox.cif.g08.bks.cpg/sg2_273_cif.got.tgz:544743.got - 2010.06.03 11:33:40.
