data_PCOD9100103
_publ_section_title
;
Structure prediction by ZEFSAII (Michael W. Deem and Ramdas Pophale) SiO2 
 PCOD9100103
Probable space group: P -1
;
_chemical_formula_sum "Si O2"
_cell_formula_units_Z 16
_cell_length_a 7.771619
_cell_length_b 13.972728
_cell_length_c 14.469398
_cell_angle_alpha 41.551597
_cell_angle_beta 41.947112
_cell_angle_gamma 48.704176
_cell_volume 677.461029
_symmetry_space_group_name_H-M "P -1"
_symmetry_group_IT_number 2
_symmetry_cell_setting 'triclinic'
loop_
_space_group_symop_operation_xyz
x,y,z
-x,-y,-z
loop_
_atom_site_type_symbol
_atom_site_label
_atom_site_fract_x
_atom_site_fract_y
_atom_site_fract_z
Si Si1 0.234780 0.891790 0.929478
Si Si2 0.465483 0.858050 0.673380
Si Si3 0.768291 0.639837 0.578471
Si Si4 0.188892 0.684475 0.252582
Si Si5 0.636595 0.999491 0.811145
Si Si6 0.984471 0.149395 0.458522
Si Si7 0.325827 0.233705 0.899810
Si Si8 0.787735 0.459041 0.366725
O O1 0.238412 0.881386 0.824819
O O2 0.490461 0.950379 0.817278
O O3 0.224677 0.738630 0.095332
O O4 0.000000 0.000000 0.000000
O O5 0.511335 0.730897 0.668990
O O6 0.731664 0.822596 0.653990
O O7 0.500000 0.000000 0.500000
O O8 0.727139 0.492564 0.653335
O O9 0.898140 0.727137 0.385255
O O10 0.998496 0.586762 0.602716
O O11 0.392159 0.747103 0.187735
O O12 0.845507 0.097712 0.640607
O O13 0.400448 0.106454 0.884928
O O14 0.778022 0.847730 0.914960
O O15 0.811582 0.317174 0.391101
O O16 0.000000 0.000000 0.500000
O O17 0.176954 0.392603 0.806418
O O18 0.500000 0.500000 0.500000
#
# Coordination Sequence:
#
# PCOD9100103 Si02
#       8
#     2   2   2   2   2   2   2   2
#     4  11  24  39  64  96 127 167 217 266 319 388
#     4  11  24  43  64  93 131 169 216 266 326 384
#     4  10  22  39  64  90 127 171 212 266 318 384
#     4  10  21  39  60  90 126 164 213 256 318 377
#     4  10  21  39  66  92 130 164 214 267 328 380
#     4  11  22  41  66  92 127 170 211 265 324 388
#     4  10  20  37  62  94 124 163 208 271 313 382
#     4  11  20  36  63  95 123 163 219 264 315 389
#
# _framework density 23.617595000000001
#
# number of rings (size 3 to 8) (size 9 to 14) (size 15 to 20)
#    0.000    1.500    3.750    1.500    1.750    3.500 
#    0.000    0.625    0.000    0.000    0.000    0.000 
#    0.000    0.000    0.000    0.000    0.000    0.000 
#
# Total GULP energy -89261.407633 kJ/mol
# GULP energy per Si atom -5578.837977 kJ/mol
# Density = 2.356384 g / cm^3
# Si number density = 23.617595 Si / 1000 Ang^3
#
#
#
# Elastic Constant Matrix: (Units=GPa)
#
#
# Indices 1 2 3 4 5 6 
#
# 1 44.3393 25.6468 12.1656 3.4465 -3.4539 18.0341
# 2 25.6468 141.8954 32.3691 -0.2724 18.3926 18.6027
# 3 12.1656 32.3691 101.1516 -3.6496 17.1752 -2.0089
# 4 3.4465 -0.2724 -3.6496 48.7474 3.1075 3.0493
# 5 -3.4539 18.3926 17.1752 3.1075 32.2131 -2.0637
# 6 18.0341 18.6027 -2.0089 3.0493 -2.0637 32.2219
#
#
#
# Elastic Compliance Matrix: (Units=1/GPa)
#
#
# Indices 1 2 3 4 5 6 
#
# 1 0.033222 -0.003858 -0.004395 -0.002166 0.007294 -0.015968
# 2 -0.003858 0.009280 -0.001681 0.000757 -0.005126 -0.003703
# 3 -0.004395 -0.001681 0.012066 0.001347 -0.005838 0.003681
# 4 -0.002166 0.000757 0.001347 0.021080 -0.003503 -0.001360
# 5 0.007294 -0.005126 -0.005838 -0.003503 0.038286 0.001296
# 6 -0.015968 -0.003703 0.003681 -0.001360 0.001296 0.042551
#
#
# Mechanical properties :
#
#
# Convention : Reuss Voigt Hill
#
# Bulk Modulus (GPa) = 28.81950 47.52770 38.17360
# Shear Modulus (GPa) = 26.60700 37.11680 31.86190
#
# Velocity S-wave (km/s) = 3.36009 3.96861 3.67696
# Velocity P-wave (km/s) = 5.22328 6.41618 5.85021
#
# Compressibility (1/GPa) = 0.03469873
#
# Stress axis : x y z
#
# Youngs Moduli (GPa) = 30.10029 107.76223 82.87884
#
# Poissons Ratio (x) = 0.41579 0.36423
# Poissons Ratio (y) = 0.11614 0.13935
# Poissons Ratio (z) = 0.13228 0.18119
#
# Static dielectric constant tensor:
#      x y z
#    x 1.957320 -0.079560 0.042260 
#    y -0.079560 1.899850 -0.011910 
#    z 0.042260 -0.011910 2.077190 
# 
# From -- ./inp_files/503747.got.cif
#   From: 2010.05.17/outbox.cif.g08.bks.cpg/sg2_252_cif.got.tgz:503747.got - 2010.06.03 11:33:40.
