data_PCOD9100819
_publ_section_title
;
Structure prediction by ZEFSAII (Michael W. Deem and Ramdas Pophale) SiO2 
 PCOD9100819
Probable space group: P -1
;
_chemical_formula_sum "Si O2"
_cell_formula_units_Z 14
_cell_length_a 15.666372
_cell_length_b 9.576068
_cell_length_c 13.953396
_cell_angle_alpha 113.607421
_cell_angle_beta 33.190963
_cell_angle_gamma 137.872764
_cell_volume 615.154408
_symmetry_space_group_name_H-M "P -1"
_symmetry_group_IT_number 2
_symmetry_cell_setting 'triclinic'
loop_
_space_group_symop_operation_xyz
x,y,z
-x,-y,-z
loop_
_atom_site_type_symbol
_atom_site_label
_atom_site_fract_x
_atom_site_fract_y
_atom_site_fract_z
Si Si1 0.240132 0.640715 0.095773
Si Si2 0.896119 0.586492 0.653020
Si Si3 0.451033 0.166349 0.335757
Si Si4 0.070052 0.862485 0.846604
Si Si5 0.548750 0.584434 0.325825
Si Si6 0.178420 0.449721 0.494556
Si Si7 0.597735 0.037196 0.309823
O O1 0.312784 0.620887 0.123799
O O2 0.999693 0.341872 0.203577
O O3 0.107677 0.701092 0.253946
O O4 0.445213 0.794469 0.858422
O O5 0.000000 0.500000 0.500000
O O6 0.813715 0.601780 0.635963
O O7 0.141905 0.876160 0.544383
O O8 0.494664 0.380302 0.368839
O O9 0.608106 0.187174 0.270437
O O10 0.132935 0.842629 0.887571
O O11 0.320966 0.169615 0.672518
O O12 0.801026 0.746914 0.064282
O O13 0.291736 0.429191 0.464010
O O14 0.392723 0.756426 0.379676
O O15 0.500000 0.000000 0.500000
#
# Coordination Sequence:
#
# PCOD9100819 Si02
#       7
#     2   2   2   2   2   2   2
#     4  10  20  37  66  88 116 158 208 239 285 357
#     4  10  20  39  61  87 121 159 196 250 291 342
#     4  11  22  38  64  91 116 155 205 246 290 353
#     4   9  18  38  58  84 123 155 192 243 298 352
#     4   9  21  35  60  88 123 155 190 250 304 348
#     4  10  20  39  61  85 122 160 192 245 301 345
#     4  11  19  37  66  83 115 160 197 237 297 357
#
# _framework density 22.758514000000002
#
# number of rings (size 3 to 8) (size 9 to 14) (size 15 to 20)
#    0.000    2.000    4.286    0.000    0.000    5.143 
#    0.000    9.286   18.857    0.000    0.000    0.000 
#    0.000    0.000    0.000    0.000    0.000    0.000 
#
# Total GULP energy -78026.759500 kJ/mol
# GULP energy per Si atom -5573.339964 kJ/mol
# Density = 2.270671 g / cm^3
# Si number density = 22.758514 Si / 1000 Ang^3
#
#
#
# Elastic Constant Matrix: (Units=GPa)
#
#
# Indices 1 2 3 4 5 6 
#
# 1 79.9850 22.4811 27.9423 -6.4200 19.2527 -22.3766
# 2 22.4811 79.8656 -7.2064 -20.2264 -2.2663 -24.0608
# 3 27.9423 -7.2064 62.9522 0.1354 19.4388 -7.9236
# 4 -6.4200 -20.2264 0.1354 27.4084 -2.6955 -1.6733
# 5 19.2527 -2.2663 19.4388 -2.6955 31.7006 -4.7306
# 6 -22.3766 -24.0608 -7.9236 -1.6733 -4.7306 40.0358
#
#
#
# Elastic Compliance Matrix: (Units=1/GPa)
#
#
# Indices 1 2 3 4 5 6 
#
# 1 0.019367 -0.003892 -0.005976 0.001374 -0.007289 0.006499
# 2 -0.003892 0.022531 0.004535 0.016977 0.004655 0.013523
# 3 -0.005976 0.004535 0.022234 0.001102 -0.009176 0.002747
# 4 0.001374 0.016977 0.001102 0.050788 0.006116 0.014034
# 5 -0.007289 0.004655 -0.009176 0.006116 0.042783 0.002218
# 6 0.006499 0.013523 0.002747 0.014034 0.002218 0.038129
#
#
# Mechanical properties :
#
#
# Convention : Reuss Voigt Hill
#
# Bulk Modulus (GPa) = 18.70351 34.35963 26.53157
# Shear Modulus (GPa) = 22.28964 31.80135 27.04549
#
# Velocity S-wave (km/s) = 3.13293 3.74215 3.45101
# Velocity P-wave (km/s) = 4.61769 5.81394 5.25000
#
# Compressibility (1/GPa) = 0.05346591
#
# Stress axis : x y z
#
# Youngs Moduli (GPa) = 51.63493 44.38302 44.97684
#
# Poissons Ratio (x) = 0.17272 0.26878
# Poissons Ratio (y) = 0.20095 -0.20396
# Poissons Ratio (z) = 0.30856 -0.20127
#
# Static dielectric constant tensor:
#      x y z
#    x 1.928350 -0.007860 -0.002600 
#    y -0.007860 1.898680 0.062970 
#    z -0.002600 0.062970 1.950910 
# 
# From -- ./inp_files/524509.got.cif
#   From: 2010.05.17/outbox.cif.g08.bks.cpg/sg2_263_cif.got.tgz:524509.got - 2010.06.03 11:33:40.
