data_PCOD9101191
_publ_section_title
;
Structure prediction by ZEFSAII (Michael W. Deem and Ramdas Pophale) SiO2 
 PCOD9101191
Probable space group: P -1
;
_chemical_formula_sum "Si O2"
_cell_formula_units_Z 16
_cell_length_a 17.139418
_cell_length_b 27.733825
_cell_length_c 5.139625
_cell_angle_alpha 91.690508
_cell_angle_beta 95.153296
_cell_angle_gamma 16.007580
_cell_volume 656.465780
_symmetry_space_group_name_H-M "P -1"
_symmetry_group_IT_number 2
_symmetry_cell_setting 'triclinic'
loop_
_space_group_symop_operation_xyz
x,y,z
-x,-y,-z
loop_
_atom_site_type_symbol
_atom_site_label
_atom_site_fract_x
_atom_site_fract_y
_atom_site_fract_z
Si Si1 0.154833 0.854241 0.226942
Si Si2 0.314226 0.284855 0.754446
Si Si3 0.906638 0.400374 0.979275
Si Si4 0.230809 0.910155 0.355606
Si Si5 0.876045 0.630875 0.791268
Si Si6 0.423592 0.621695 0.965180
Si Si7 0.171854 0.194747 0.534938
Si Si8 0.772125 0.345154 0.359550
O O1 0.350738 0.784373 0.345213
O O2 0.313781 0.709738 0.215179
O O3 0.901350 0.004451 0.386540
O O4 0.023128 0.938559 0.911580
O O5 0.549910 0.179196 0.678289
O O6 0.237222 0.290284 0.518270
O O7 0.047472 0.479582 0.764765
O O8 0.376666 0.227058 0.049035
O O9 0.922364 0.448406 0.028544
O O10 0.997755 0.325679 0.276023
O O11 0.591297 0.564518 0.854654
O O12 0.119622 0.253731 0.798739
O O13 0.665364 0.439712 0.093739
O O14 0.179888 0.737013 0.752978
O O15 0.033146 0.222972 0.527836
O O16 0.500000 0.000000 0.500000
O O17 0.500000 0.500000 0.500000
#
# Coordination Sequence:
#
# PCOD9101191 Si02
#       8
#     2   2   2   2   2   2   2   2
#     4  10  22  37  60  89 118 159 201 243 301 361
#     4  10  20  38  57  82 125 157 194 247 299 348
#     4  11  22  41  65  88 118 156 211 250 292 370
#     4  10  21  39  56  85 129 157 193 247 303 362
#     4  10  21  36  60  87 111 157 206 244 290 349
#     4  10  22  39  65  91 117 158 212 253 301 360
#     4  11  24  43  63  89 126 160 194 254 319 365
#     4  10  21  42  64  90 123 157 205 264 304 361
#
# _framework density 24.372938000000001
#
# number of rings (size 3 to 8) (size 9 to 14) (size 15 to 20)
#    0.000    1.750    1.250    2.625    1.750    0.000 
#    6.750    5.000    0.000    0.000    0.000    0.000 
#    0.000    0.000    0.000    0.000    0.000    0.000 
#
# Total GULP energy -89343.168847 kJ/mol
# GULP energy per Si atom -5583.948053 kJ/mol
# Density = 2.431746 g / cm^3
# Si number density = 24.372938 Si / 1000 Ang^3
#
#
#
# Elastic Constant Matrix: (Units=GPa)
#
#
# Indices 1 2 3 4 5 6 
#
# 1 135.3505 20.4066 60.8870 25.4096 29.0231 -22.3021
# 2 20.4066 39.4936 29.3652 25.3440 7.7526 -15.3540
# 3 60.8870 29.3652 119.8075 40.0199 15.3085 2.4560
# 4 25.4096 25.3440 40.0199 37.7459 5.2447 -5.2403
# 5 29.0231 7.7526 15.3085 5.2447 47.4296 4.0410
# 6 -22.3021 -15.3540 2.4560 -5.2403 4.0410 30.3960
#
#
#
# Elastic Compliance Matrix: (Units=1/GPa)
#
#
# Indices 1 2 3 4 5 6 
#
# 1 0.014895 0.008982 -0.007385 -0.004680 -0.009085 0.016464
# 2 0.008982 0.065462 -0.008171 -0.034550 -0.012811 0.036064
# 3 -0.007385 -0.008171 0.017468 -0.010216 0.002457 -0.013045
# 4 -0.004680 -0.034550 -0.010216 0.061431 0.005889 -0.010253
# 5 -0.009085 -0.012811 0.002457 0.005889 0.028667 -0.016131
# 6 0.016464 0.036064 -0.013045 -0.010253 -0.016131 0.064627
#
#
# Mechanical properties :
#
#
# Convention : Reuss Voigt Hill
#
# Bulk Modulus (GPa) = 11.80947 57.32989 34.56968
# Shear Modulus (GPa) = 17.01115 35.38048 26.19582
#
# Velocity S-wave (km/s) = 2.64474 3.81416 3.28196
# Velocity P-wave (km/s) = 3.76591 6.55516 5.34566
#
# Compressibility (1/GPa) = 0.08467779
#
# Stress axis : x y z
#
# Youngs Moduli (GPa) = 67.13447 15.27598 57.24687
#
# Poissons Ratio (x) = -0.13720 0.42275
# Poissons Ratio (y) = -0.60298 0.46776
# Poissons Ratio (z) = 0.49577 0.12482
#
# Static dielectric constant tensor:
#      x y z
#    x 2.054300 0.054200 -0.000300 
#    y 0.054200 2.007820 -0.046900 
#    z -0.000300 -0.046900 2.005680 
# 
# From -- ./inp_files/71669.got.cif
#   From: 2010.05.17/outbox.cif.g08.bks.cpg/sg2_36_cif.got.tgz:71669.got - 2010.06.03 11:33:40.
