data_PCOD9101720
_publ_section_title
;
Structure prediction by ZEFSAII (Michael W. Deem and Ramdas Pophale) SiO2 
 PCOD9101720
Probable space group: P -1
;
_chemical_formula_sum "Si O2"
_cell_formula_units_Z 14
_cell_length_a 7.971362
_cell_length_b 15.452737
_cell_length_c 9.156104
_cell_angle_alpha 137.689943
_cell_angle_beta 74.023839
_cell_angle_gamma 81.536059
_cell_volume 613.388658
_symmetry_space_group_name_H-M "P -1"
_symmetry_group_IT_number 2
_symmetry_cell_setting 'triclinic'
loop_
_space_group_symop_operation_xyz
x,y,z
-x,-y,-z
loop_
_atom_site_type_symbol
_atom_site_label
_atom_site_fract_x
_atom_site_fract_y
_atom_site_fract_z
Si Si1 0.803488 0.334080 0.300522
Si Si2 0.398486 0.680378 0.238517
Si Si3 0.016880 0.126757 0.242336
Si Si4 0.387017 0.332915 0.104869
Si Si5 0.719778 0.708333 0.393554
Si Si6 0.022278 0.369823 0.031399
Si Si7 0.576260 0.149342 0.100702
O O1 0.983294 0.243731 0.267593
O O2 0.678667 0.510102 0.600583
O O3 0.662755 0.261898 0.245586
O O4 0.898872 0.319892 0.100351
O O5 0.171935 0.775101 0.479425
O O6 0.545785 0.710553 0.338373
O O7 0.500000 0.500000 0.000000
O O8 0.423558 0.714035 0.108448
O O9 0.000000 0.000000 0.000000
O O10 0.226305 0.021055 0.148092
O O11 0.194280 0.363883 0.090440
O O12 0.458452 0.200425 0.039761
O O13 0.584205 0.819208 0.694316
O O14 0.867279 0.542822 0.227933
O O15 0.862965 0.724796 0.261305
#
# Coordination Sequence:
#
# PCOD9101720 Si02
#       7
#     2   2   2   2   2   2   2
#     4  11  20  37  62  94 117 162 209 256 291 370
#     4  11  20  36  63  96 120 150 211 258 297 349
#     4  10  21  39  61  92 126 161 197 258 309 364
#     4  11  22  36  63  92 124 157 205 261 299 361
#     4  10  20  38  60  89 123 164 196 250 310 361
#     4  10  23  36  60  91 129 155 209 252 306 354
#     4  11  22  38  66  86 125 162 209 246 317 355
#
# _framework density 22.824026
#
# number of rings (size 3 to 8) (size 9 to 14) (size 15 to 20)
#    0.000    1.429    5.714    0.857    2.000    0.571 
#    0.000    1.429    0.000    0.000    0.000    0.000 
#    0.000    0.000    0.000    0.000    0.000    0.000 
#
# Total GULP energy -78290.010664 kJ/mol
# GULP energy per Si atom -5592.143619 kJ/mol
# Density = 2.277208 g / cm^3
# Si number density = 22.824026 Si / 1000 Ang^3
#
#
#
# Elastic Constant Matrix: (Units=GPa)
#
#
# Indices 1 2 3 4 5 6 
#
# 1 70.8369 60.7821 48.6446 -3.7295 -12.8625 4.7962
# 2 60.7821 138.9561 79.0482 -27.6060 -26.0265 -21.3119
# 3 48.6446 79.0482 165.0722 -25.2909 -45.5476 -0.1808
# 4 -3.7295 -27.6060 -25.2909 43.3520 0.9450 -15.4434
# 5 -12.8625 -26.0265 -45.5476 0.9450 30.3226 9.0831
# 6 4.7962 -21.3119 -0.1808 -15.4434 9.0831 42.0927
#
#
#
# Elastic Compliance Matrix: (Units=1/GPa)
#
#
# Indices 1 2 3 4 5 6 
#
# 1 0.034158 -0.020132 -0.003972 -0.019597 -0.001890 -0.020885
# 2 -0.020132 0.025345 -0.002298 0.020949 0.002437 0.022277
# 3 -0.003972 -0.002298 0.014133 0.005073 0.018230 -0.002723
# 4 -0.019597 0.020949 0.005073 0.047805 0.007155 0.028857
# 5 -0.001890 0.002437 0.018230 0.007155 0.064343 -0.009732
# 6 -0.020885 0.022277 -0.002723 0.028857 -0.009732 0.050091
#
#
# Mechanical properties :
#
#
# Convention : Reuss Voigt Hill
#
# Bulk Modulus (GPa) = 48.00358 83.53500 65.76929
# Shear Modulus (GPa) = 16.91335 35.57949 26.24642
#
# Velocity S-wave (km/s) = 2.72515 3.95252 3.39477
# Velocity P-wave (km/s) = 5.56593 7.58347 6.65164
#
# Compressibility (1/GPa) = 0.02083178
#
# Stress axis : x y z
#
# Youngs Moduli (GPa) = 29.27535 39.45561 70.75596
#
# Poissons Ratio (x) = 0.79433 0.28106
# Poissons Ratio (y) = 0.58938 0.16258
# Poissons Ratio (z) = 0.11629 0.09066
#
# Static dielectric constant tensor:
#      x y z
#    x 1.892510 -0.007980 -0.030800 
#    y -0.007980 1.833550 -0.023210 
#    z -0.030800 -0.023210 1.747960 
# 
# From -- ./inp_files/204067.got.cif
#   From: 2010.05.17/outbox.cif.g08.bks.cpg/sg2_103_cif.got.tgz:204067.got - 2010.06.03 11:33:40.
