data_PCOD9101856
_publ_section_title
;
Structure prediction by ZEFSAII (Michael W. Deem and Ramdas Pophale) SiO2 
 PCOD9101856
Probable space group: P -1
;
_chemical_formula_sum "Si O2"
_cell_formula_units_Z 16
_cell_length_a 12.816451
_cell_length_b 7.921569
_cell_length_c 12.571467
_cell_angle_alpha 109.480960
_cell_angle_beta 143.318708
_cell_angle_gamma 79.789747
_cell_volume 709.510846
_symmetry_space_group_name_H-M "P -1"
_symmetry_group_IT_number 2
_symmetry_cell_setting 'triclinic'
loop_
_space_group_symop_operation_xyz
x,y,z
-x,-y,-z
loop_
_atom_site_type_symbol
_atom_site_label
_atom_site_fract_x
_atom_site_fract_y
_atom_site_fract_z
Si Si1 0.825719 0.364209 0.512186
Si Si2 0.834718 0.403875 0.781194
Si Si3 0.192485 0.239482 0.412838
Si Si4 0.621603 0.068051 0.516763
Si Si5 0.437311 0.016609 0.831369
Si Si6 0.868743 0.827035 0.311748
Si Si7 0.313447 0.263228 0.268965
Si Si8 0.819431 0.992619 0.075875
O O1 0.857728 0.392092 0.670939
O O2 0.770853 0.554817 0.471949
O O3 0.016302 0.333199 0.616445
O O4 0.685364 0.179522 0.337783
O O5 0.786702 0.196083 0.729624
O O6 0.686728 0.527351 0.714827
O O7 0.000000 0.500000 0.000000
O O8 0.243406 0.242889 0.328939
O O9 0.987751 0.151782 0.243267
O O10 0.310794 0.093648 0.523836
O O11 0.503524 0.202292 0.394566
O O12 0.500000 0.000000 0.500000
O O13 0.311389 0.170409 0.770461
O O14 0.626032 0.056184 0.933970
O O15 0.500000 0.000000 0.000000
O O16 0.836913 0.872745 0.171174
O O17 0.000000 0.000000 0.500000
O O18 0.186766 0.134237 0.059157
#
# Coordination Sequence:
#
# PCOD9101856 Si02
#       8
#     2   2   2   2   2   2   2   2
#     4  10  20  38  61  84 118 155 193 243 298 355
#     4  11  21  35  58  89 119 158 200 233 285 360
#     4  10  22  37  55  89 123 155 191 236 297 362
#     4  10  21  36  52  78 121 163 196 237 280 333
#     4   9  20  38  60  84 108 146 201 249 289 343
#     4   9  19  38  61  84 110 148 199 247 291 350
#     4  10  21  36  58  87 122 159 200 237 281 358
#     4  11  20  36  62  87 117 156 194 244 301 345
#
# _framework density 22.550749
#
# number of rings (size 3 to 8) (size 9 to 14) (size 15 to 20)
#    0.000    2.000    0.000    3.750    0.000    6.000 
#    0.000    8.750    0.000    0.000    0.000    0.000 
#    0.000    0.000    0.000    0.000    0.000    0.000 
#
# Total GULP energy -89221.647184 kJ/mol
# GULP energy per Si atom -5576.352949 kJ/mol
# Density = 2.249942 g / cm^3
# Si number density = 22.550749 Si / 1000 Ang^3
#
#
#
# Elastic Constant Matrix: (Units=GPa)
#
#
# Indices 1 2 3 4 5 6 
#
# 1 87.7309 36.2937 20.9553 -6.8026 13.6351 -29.2020
# 2 36.2937 149.5129 36.3492 -3.5433 23.0368 -43.3295
# 3 20.9553 36.3492 90.4538 -6.5479 4.1344 -20.3037
# 4 -6.8026 -3.5433 -6.5479 28.6401 -12.5423 11.8674
# 5 13.6351 23.0368 4.1344 -12.5423 46.1951 -8.1203
# 6 -29.2020 -43.3295 -20.3037 11.8674 -8.1203 36.2660
#
#
#
# Elastic Compliance Matrix: (Units=1/GPa)
#
#
# Indices 1 2 3 4 5 6 
#
# 1 0.016188 0.000787 -0.001078 -0.003585 -0.003633 0.013730
# 2 0.000787 0.011994 -0.001899 -0.007386 -0.005393 0.015110
# 3 -0.001078 -0.001899 0.013002 0.001350 0.001164 0.003962
# 4 -0.003585 -0.007386 0.001350 0.049480 0.013827 -0.024051
# 5 -0.003633 -0.005393 0.001164 0.013827 0.027827 -0.007011
# 6 0.013730 0.015110 0.003962 -0.024051 -0.007011 0.065201
#
#
# Mechanical properties :
#
#
# Convention : Reuss Voigt Hill
#
# Bulk Modulus (GPa) = 27.17121 57.21044 42.19082
# Shear Modulus (GPa) = 24.95782 37.82687 31.39235
#
# Velocity S-wave (km/s) = 3.33038 4.10006 3.73510
# Velocity P-wave (km/s) = 5.18302 6.91656 6.11156
#
# Compressibility (1/GPa) = 0.03680366
#
# Stress axis : x y z
#
# Youngs Moduli (GPa) = 61.77598 83.37726 76.91244
#
# Poissons Ratio (x) = -0.06558 0.08289
# Poissons Ratio (y) = -0.04859 0.14602
# Poissons Ratio (z) = 0.06657 0.15829
#
# Static dielectric constant tensor:
#      x y z
#    x 1.948390 0.118760 -0.053870 
#    y 0.118760 2.031550 -0.112490 
#    z -0.053870 -0.112490 1.902580 
# 
# From -- ./inp_files/530073.got.cif
#   From: 2010.05.17/outbox.cif.g08.bks.cpg/sg2_266_cif.got.tgz:530073.got - 2010.06.03 11:33:40.
