data_PCOD9101698
_publ_section_title
;
Structure prediction by ZEFSAII (Michael W. Deem and Ramdas Pophale) SiO2 
 PCOD9101698
Probable space group: P -1
;
_chemical_formula_sum "Si O2"
_cell_formula_units_Z 16
_cell_length_a 5.218827
_cell_length_b 23.058199
_cell_length_c 23.605448
_cell_angle_alpha 21.008809
_cell_angle_beta 140.353369
_cell_angle_gamma 141.621401
_cell_volume 622.900694
_symmetry_space_group_name_H-M "P -1"
_symmetry_group_IT_number 2
_symmetry_cell_setting 'triclinic'
loop_
_space_group_symop_operation_xyz
x,y,z
-x,-y,-z
loop_
_atom_site_type_symbol
_atom_site_label
_atom_site_fract_x
_atom_site_fract_y
_atom_site_fract_z
Si Si1 0.820886 0.233510 0.935846
Si Si2 0.087342 0.016654 0.565378
Si Si3 0.249067 0.782054 0.378872
Si Si4 0.277604 0.387620 0.990346
Si Si5 0.694180 0.275793 0.258578
Si Si6 0.392631 0.852929 0.211018
Si Si7 0.852494 0.432505 0.653780
Si Si8 0.430135 0.880237 0.834024
O O1 0.740752 0.372152 0.753813
O O2 0.061088 0.313192 0.962057
O O3 0.182749 0.165493 0.030804
O O4 0.460525 0.054936 0.040295
O O5 0.092238 0.208985 0.400794
O O6 0.700874 0.888396 0.649451
O O7 0.000000 0.000000 0.500000
O O8 0.468526 0.950066 0.712568
O O9 0.209148 0.778616 0.307666
O O10 0.854643 0.824461 0.304559
O O11 0.250076 0.597160 0.567902
O O12 0.627296 0.951627 0.299392
O O13 0.671713 0.343843 0.128393
O O14 0.922263 0.293611 0.060523
O O15 0.339517 0.583760 0.830598
O O16 0.126923 0.732989 0.226350
O O17 0.500000 0.500000 0.500000
#
# Coordination Sequence:
#
# PCOD9101698 Si02
#       8
#     2   2   2   2   2   2   2   2
#     4  11  22  41  65  91 125 173 217 266 337 391
#     4  10  20  38  60  88 125 164 209 258 333 376
#     4  10  21  42  64  96 129 173 215 275 336 390
#     4  10  20  40  60  88 127 163 215 262 325 387
#     4   9  21  37  60  91 122 165 209 264 314 395
#     4  10  21  43  67  92 129 174 220 271 334 401
#     4  10  23  43  61  96 129 166 222 273 332 398
#     4  10  22  38  59  92 123 164 218 267 324 394
#
# _framework density 25.686277
#
# number of rings (size 3 to 8) (size 9 to 14) (size 15 to 20)
#    0.000    2.000    1.250    1.500    0.000    3.000 
#   13.500    7.500    0.000    0.000    0.000    0.000 
#    0.000    0.000    0.000    0.000    0.000    0.000 
#
# Total GULP energy -89181.356241 kJ/mol
# GULP energy per Si atom -5573.834765 kJ/mol
# Density = 2.562781 g / cm^3
# Si number density = 25.686277 Si / 1000 Ang^3
#
#
#
# Elastic Constant Matrix: (Units=GPa)
#
#
# Indices 1 2 3 4 5 6 
#
# 1 57.7235 19.9890 38.1931 8.4029 -13.2658 -13.0306
# 2 19.9890 131.9438 57.6003 -19.0336 -2.8319 -29.7103
# 3 38.1931 57.6003 168.5690 1.7834 -12.5562 -16.7968
# 4 8.4029 -19.0336 1.7834 52.7955 -12.2222 -3.8413
# 5 -13.2658 -2.8319 -12.5562 -12.2222 32.5742 2.1863
# 6 -13.0306 -29.7103 -16.7968 -3.8413 2.1863 41.8180
#
#
#
# Elastic Compliance Matrix: (Units=1/GPa)
#
#
# Indices 1 2 3 4 5 6 
#
# 1 0.023100 -0.000920 -0.003955 -0.001988 0.006761 0.004420
# 2 -0.000920 0.011329 -0.002953 0.005047 0.000897 0.006993
# 3 -0.003955 -0.002953 0.007892 -0.000487 0.001010 -0.000258
# 4 -0.001988 0.005047 -0.000487 0.023240 0.007860 0.004495
# 5 0.006761 0.000897 0.001010 0.007860 0.036738 0.001950
# 6 0.004420 0.006993 -0.000258 0.004495 0.001950 0.030466
#
#
# Mechanical properties :
#
#
# Convention : Reuss Voigt Hill
#
# Bulk Modulus (GPa) = 37.49878 65.53345 51.51612
# Shear Modulus (GPa) = 31.78488 41.60113 36.69301
#
# Velocity S-wave (km/s) = 3.52152 4.02877 3.78366
# Velocity P-wave (km/s) = 5.58259 6.87094 6.25999
#
# Compressibility (1/GPa) = 0.02666753
#
# Stress axis : x y z
#
# Youngs Moduli (GPa) = 43.29042 88.26705 126.71247
#
# Poissons Ratio (x) = 0.08116 0.50109
# Poissons Ratio (y) = 0.03981 0.37414
# Poissons Ratio (z) = 0.17119 0.26062
#
# Static dielectric constant tensor:
#      x y z
#    x 2.129550 0.080690 0.090730 
#    y 0.080690 2.260340 0.063010 
#    z 0.090730 0.063010 2.044230 
# 
# From -- ./inp_files/56755.got.cif
#   From: 2010.05.17/outbox.cif.g08.bks.cpg/sg2_29_cif.got.tgz:56755.got - 2010.06.03 11:33:40.
