data_PCOD9101497
_publ_section_title
;
Structure prediction by ZEFSAII (Michael W. Deem and Ramdas Pophale) SiO2 
 PCOD9101497
Probable space group: P -1
;
_chemical_formula_sum "Si O2"
_cell_formula_units_Z 16
_cell_length_a 12.173506
_cell_length_b 8.835787
_cell_length_c 9.132086
_cell_angle_alpha 122.253380
_cell_angle_beta 66.387616
_cell_angle_gamma 130.196110
_cell_volume 632.124636
_symmetry_space_group_name_H-M "P -1"
_symmetry_group_IT_number 2
_symmetry_cell_setting 'triclinic'
loop_
_space_group_symop_operation_xyz
x,y,z
-x,-y,-z
loop_
_atom_site_type_symbol
_atom_site_label
_atom_site_fract_x
_atom_site_fract_y
_atom_site_fract_z
Si Si1 0.715734 0.190486 0.630973
Si Si2 0.891777 0.019542 0.396072
Si Si3 0.388576 0.218544 0.048664
Si Si4 0.580227 0.676261 0.256570
Si Si5 0.589001 0.183829 0.395699
Si Si6 0.857094 0.697816 0.811852
Si Si7 0.768136 0.262000 0.073806
Si Si8 0.061612 0.286810 0.908470
O O1 0.665846 0.131818 0.455722
O O2 0.779526 0.441111 0.733782
O O3 0.834097 0.139806 0.585554
O O4 0.559062 0.023267 0.698536
O O5 0.736549 0.828109 0.318561
O O6 0.956309 0.869660 0.297851
O O7 0.007393 0.202467 0.317784
O O8 0.526235 0.427922 0.152653
O O9 0.254504 0.244625 0.153268
O O10 0.416373 0.248812 0.873708
O O11 0.346731 0.992821 0.019925
O O12 0.467307 0.687469 0.424922
O O13 0.709735 0.307256 0.274538
O O14 0.903593 0.785262 0.996605
O O15 0.814598 0.462473 0.050156
O O16 0.915996 0.273230 0.013730
#
# Coordination Sequence:
#
# PCOD9101497 Si02
#       8
#     2   2   2   2   2   2   2   2
#     4  10  21  35  63  95 121 147 204 256 299 352
#     4  11  21  38  61  90 122 156 200 256 301 349
#     4  11  20  36  64  94 119 155 202 254 296 355
#     4  10  21  36  63  94 123 151 205 251 298 356
#     4  10  20  38  59  90 123 163 192 242 304 363
#     4  12  21  37  64  96 119 151 207 256 298 348
#     4  11  24  41  61  85 126 168 200 242 308 368
#     4  11  24  41  59  90 123 163 204 248 302 361
#
# _framework density 25.311464000000001
#
# number of rings (size 3 to 8) (size 9 to 14) (size 15 to 20)
#    0.000    1.250    3.750    4.500    1.750    0.000 
#    0.000    6.250    0.000    3.750    0.000    0.000 
#    0.000    0.000    0.000    0.000    0.000    0.000 
#
# Total GULP energy -89354.615179 kJ/mol
# GULP energy per Si atom -5584.663449 kJ/mol
# Density = 2.525385 g / cm^3
# Si number density = 25.311464 Si / 1000 Ang^3
#
#
#
# Elastic Constant Matrix: (Units=GPa)
#
#
# Indices 1 2 3 4 5 6 
#
# 1 76.0898 13.7280 22.9039 -17.5803 -30.5452 7.2925
# 2 13.7280 170.5945 44.5414 11.6903 -4.5585 -0.0214
# 3 22.9039 44.5414 82.5956 -3.2823 -42.7081 12.0234
# 4 -17.5803 11.6903 -3.2823 47.9984 10.3352 -8.9056
# 5 -30.5452 -4.5585 -42.7081 10.3352 32.5391 -7.9002
# 6 7.2925 -0.0214 12.0234 -8.9056 -7.9002 14.5611
#
#
#
# Elastic Compliance Matrix: (Units=1/GPa)
#
#
# Indices 1 2 3 4 5 6 
#
# 1 0.039129 -0.012034 0.043431 -0.000506 0.090600 -0.006630
# 2 -0.012034 0.012585 -0.026806 0.001069 -0.043829 0.005054
# 3 0.043431 -0.026806 0.111405 -0.013429 0.181834 -0.023337
# 4 -0.000506 0.001069 -0.013429 0.027287 -0.022818 0.015653
# 5 0.090600 -0.043829 0.181834 -0.022818 0.350897 -0.019156
# 6 -0.006630 0.005054 -0.023337 0.015653 -0.019156 0.090453
#
#
# Mechanical properties :
#
#
# Convention : Reuss Voigt Hill
#
# Bulk Modulus (GPa) = 5.80378 54.62517 30.21448
# Shear Modulus (GPa) = 7.35286 35.56016 21.45651
#
# Velocity S-wave (km/s) = 1.70624 3.75227 2.91469
# Velocity P-wave (km/s) = 2.48588 6.35616 4.82599
#
# Compressibility (1/GPa) = 0.17230139
#
# Stress axis : x y z
#
# Youngs Moduli (GPa) = 25.55656 79.45775 8.97629
#
# Poissons Ratio (x) = 0.95616 -0.38985
# Poissons Ratio (y) = 0.30754 0.24062
# Poissons Ratio (z) = -1.10994 2.12994
#
# Static dielectric constant tensor:
#      x y z
#    x 2.075310 -0.009440 -0.032910 
#    y -0.009440 1.992230 0.070740 
#    z -0.032910 0.070740 2.068820 
# 
# From -- ./inp_files/448185.got.cif
#   From: 2010.05.17/outbox.cif.g08.bks.cpg/sg2_225_cif.got.tgz:448185.got - 2010.06.03 11:33:40.
