data_PCOD9101269
_publ_section_title
;
Structure prediction by ZEFSAII (Michael W. Deem and Ramdas Pophale) SiO2 
 PCOD9101269
Probable space group: P -1
;
_chemical_formula_sum "Si O2"
_cell_formula_units_Z 16
_cell_length_a 13.758504
_cell_length_b 10.519018
_cell_length_c 14.250925
_cell_angle_alpha 149.597065
_cell_angle_beta 42.919835
_cell_angle_gamma 118.376562
_cell_volume 633.434387
_symmetry_space_group_name_H-M "P -1"
_symmetry_group_IT_number 2
_symmetry_cell_setting 'triclinic'
loop_
_space_group_symop_operation_xyz
x,y,z
-x,-y,-z
loop_
_atom_site_type_symbol
_atom_site_label
_atom_site_fract_x
_atom_site_fract_y
_atom_site_fract_z
Si Si1 0.086252 0.430233 0.495946
Si Si2 0.204562 0.526986 0.144537
Si Si3 0.696002 0.479902 0.240665
Si Si4 0.574289 0.962068 0.216115
Si Si5 0.804990 0.260785 0.233574
Si Si6 0.079229 0.255101 0.928673
Si Si7 0.040703 0.147963 0.688170
Si Si8 0.415087 0.938757 0.936896
O O1 0.178520 0.580453 0.583591
O O2 0.000000 0.500000 0.500000
O O3 0.950234 0.442359 0.668847
O O4 0.224511 0.117540 0.188197
O O5 0.214603 0.309749 0.917924
O O6 0.358991 0.346313 0.982882
O O7 0.141638 0.857194 0.374951
O O8 0.726850 0.438679 0.305945
O O9 0.596911 0.798066 0.477065
O O10 0.852707 0.292680 0.947578
O O11 0.561135 0.372516 0.260824
O O12 0.717105 0.063641 0.187607
O O13 0.543504 0.968186 0.130933
O O14 0.989524 0.127412 0.978208
O O15 0.957993 0.583956 0.193644
O O16 0.122287 0.088536 0.695306
O O17 0.500000 0.000000 0.000000
#
# Coordination Sequence:
#
# PCOD9101269 Si02
#       8
#     2   2   2   2   2   2   2   2
#     4  11  20  33  53  88 120 157 198 253 300 361
#     4  11  22  37  59  90 124 152 200 257 305 350
#     4  10  20  38  58  83 120 164 201 244 302 372
#     4  11  22  37  56  90 127 161 191 249 317 370
#     4   9  20  37  59  84 125 160 198 245 308 366
#     4   9  21  38  65  88 114 159 206 258 298 351
#     4  10  20  41  65  87 114 157 215 250 296 364
#     4  11  20  35  55  83 122 163 206 235 300 383
#
# _framework density 25.259128
#
# number of rings (size 3 to 8) (size 9 to 14) (size 15 to 20)
#    0.000    1.750    2.500    3.375    0.000    3.000 
#    2.250    0.625    0.000    6.750    0.000    0.000 
#    0.000    0.000    0.000    0.000    0.000    0.000 
#
# Total GULP energy -89141.945248 kJ/mol
# GULP energy per Si atom -5571.371578 kJ/mol
# Density = 2.520164 g / cm^3
# Si number density = 25.259128 Si / 1000 Ang^3
#
#
#
# Elastic Constant Matrix: (Units=GPa)
#
#
# Indices 1 2 3 4 5 6 
#
# 1 94.1878 21.3331 17.1668 -2.3182 21.4328 -10.0480
# 2 21.3331 73.3595 20.6267 -4.6645 -3.2134 0.6570
# 3 17.1668 20.6267 94.1250 11.0453 -30.5819 -7.9205
# 4 -2.3182 -4.6645 11.0453 35.9982 -11.4477 -3.1138
# 5 21.4328 -3.2134 -30.5819 -11.4477 36.7729 0.1497
# 6 -10.0480 0.6570 -7.9205 -3.1138 0.1497 31.3208
#
#
#
# Elastic Compliance Matrix: (Units=1/GPa)
#
#
# Indices 1 2 3 4 5 6 
#
# 1 0.016971 -0.003832 -0.007189 -0.002273 -0.016927 0.003562
# 2 -0.003832 0.015769 -0.002454 0.003207 0.002577 -0.001874
# 3 -0.007189 -0.002454 0.019145 -0.000129 0.019847 0.002479
# 4 -0.002273 0.003207 -0.000129 0.031919 0.011425 0.002290
# 5 -0.016927 0.002577 0.019847 0.011425 0.057345 0.000396
# 6 0.003562 -0.001874 0.002479 0.002290 0.000396 0.033962
#
#
# Mechanical properties :
#
#
# Convention : Reuss Voigt Hill
#
# Bulk Modulus (GPa) = 40.10083 42.21394 41.15739
# Shear Modulus (GPa) = 23.76735 34.32145 29.04440
#
# Velocity S-wave (km/s) = 3.07080 3.69015 3.39463
# Velocity P-wave (km/s) = 5.33698 5.90804 5.62976
#
# Compressibility (1/GPa) = 0.02493714
#
# Stress axis : x y z
#
# Youngs Moduli (GPa) = 58.92426 63.41461 52.23243
#
# Poissons Ratio (x) = 0.24299 0.37548
# Poissons Ratio (y) = 0.22578 0.12816
# Poissons Ratio (z) = 0.42359 0.15560
#
# Static dielectric constant tensor:
#      x y z
#    x 2.155790 0.007170 0.023580 
#    y 0.007170 2.444520 0.014530 
#    z 0.023580 0.014530 2.096980 
# 
# From -- ./inp_files/531389.got.cif
#   From: 2010.05.17/outbox.cif.g08.bks.cpg/sg2_266_cif.got.tgz:531389.got - 2010.06.03 11:33:40.
