data_PCOD9101932
_publ_section_title
;
Structure prediction by ZEFSAII (Michael W. Deem and Ramdas Pophale) SiO2 
 PCOD9101932
Probable space group: P -1
;
_chemical_formula_sum "Si O2"
_cell_formula_units_Z 14
_cell_length_a 11.632284
_cell_length_b 9.944672
_cell_length_c 11.851711
_cell_angle_alpha 142.319902
_cell_angle_beta 115.690772
_cell_angle_gamma 85.901556
_cell_volume 656.977425
_symmetry_space_group_name_H-M "P -1"
_symmetry_group_IT_number 2
_symmetry_cell_setting 'triclinic'
loop_
_space_group_symop_operation_xyz
x,y,z
-x,-y,-z
loop_
_atom_site_type_symbol
_atom_site_label
_atom_site_fract_x
_atom_site_fract_y
_atom_site_fract_z
Si Si1 0.219178 0.844731 0.870898
Si Si2 0.789111 0.686584 0.895083
Si Si3 0.081940 0.492614 0.373289
Si Si4 0.336015 0.768598 0.300516
Si Si5 0.315189 0.139343 0.680322
Si Si6 0.657776 0.358764 0.023146
Si Si7 0.931392 0.036845 0.382108
O O1 0.196167 0.668893 0.635223
O O2 0.054950 0.744776 0.784465
O O3 0.310077 0.788021 0.964268
O O4 0.275368 0.135326 0.056808
O O5 0.847189 0.586425 0.749949
O O6 0.676585 0.448955 0.765635
O O7 0.921421 0.873375 0.160364
O O8 0.014936 0.671630 0.425169
O O9 0.273754 0.657267 0.077995
O O10 0.500000 0.000000 0.500000
O O11 0.254262 0.892738 0.413815
O O12 0.484645 0.238376 0.844991
O O13 0.236793 0.077616 0.725639
O O14 0.293631 0.348607 0.743436
O O15 0.000000 0.000000 0.500000
#
# Coordination Sequence:
#
# PCOD9101932 Si02
#       7
#     2   2   2   2   2   2   2
#     4  10  23  41  62  90 125 168 208 248 309 372
#     4  11  22  40  64  91 128 161 204 257 309 364
#     4  10  22  40  61  89 131 162 204 256 306 364
#     4  10  21  38  64  89 124 161 202 257 308 360
#     4  10  20  38  61  87 126 158 202 259 306 354
#     4  10  21  39  64  88 121 166 209 253 308 364
#     4  11  22  36  62  95 122 156 205 253 307 366
#
# _framework density 21.309712000000001
#
# number of rings (size 3 to 8) (size 9 to 14) (size 15 to 20)
#    0.000    1.714    2.857    1.286    0.000    2.857 
#    0.000    5.714    0.000    0.000    0.000    0.000 
#    0.000    0.000    0.000    0.000    0.000    0.000 
#
# Total GULP energy -78107.367559 kJ/mol
# GULP energy per Si atom -5579.097683 kJ/mol
# Density = 2.126121 g / cm^3
# Si number density = 21.309712 Si / 1000 Ang^3
#
#
#
# Elastic Constant Matrix: (Units=GPa)
#
#
# Indices 1 2 3 4 5 6 
#
# 1 55.1274 36.3601 42.2126 -10.1448 -24.0760 9.7852
# 2 36.3601 187.2072 64.7497 11.4463 -21.4430 -12.7508
# 3 42.2126 64.7497 89.9707 13.0183 -35.2215 1.8295
# 4 -10.1448 11.4463 13.0183 41.6143 11.6589 -3.0375
# 5 -24.0760 -21.4430 -35.2215 11.6589 32.2812 -1.0792
# 6 9.7852 -12.7508 1.8295 -3.0375 -1.0792 34.1254
#
#
#
# Elastic Compliance Matrix: (Units=1/GPa)
#
#
# Indices 1 2 3 4 5 6 
#
# 1 0.038287 -0.002927 -0.016014 0.013304 0.004002 -0.009903
# 2 -0.002927 0.007701 -0.005227 -0.000192 -0.002571 0.003898
# 3 -0.016014 -0.005227 0.041983 -0.026882 0.040076 -0.000737
# 4 0.013304 -0.000192 -0.026882 0.045883 -0.036090 0.000497
# 5 0.004002 -0.002571 0.040076 -0.036090 0.088859 -0.004659
# 6 -0.009903 0.003898 -0.000737 0.000497 -0.004659 0.033536
#
#
# Mechanical properties :
#
#
# Convention : Reuss Voigt Hill
#
# Bulk Modulus (GPa) = 25.23009 68.77222 47.00116
# Shear Modulus (GPa) = 15.73336 34.20304 24.96820
#
# Velocity S-wave (km/s) = 2.72015 4.01065 3.42670
# Velocity P-wave (km/s) = 4.66166 7.33415 6.14495
#
# Compressibility (1/GPa) = 0.03963521
#
# Stress axis : x y z
#
# Youngs Moduli (GPa) = 26.11886 129.85814 23.81910
#
# Poissons Ratio (x) = 0.38009 0.38144
# Poissons Ratio (y) = 0.07645 0.12450
# Poissons Ratio (z) = 0.41826 0.67874
#
# Static dielectric constant tensor:
#      x y z
#    x 1.845460 0.023350 0.025290 
#    y 0.023350 1.792290 0.021630 
#    z 0.025290 0.021630 1.866860 
# 
# From -- ./inp_files/273091.got.cif
#   From: 2010.05.17/outbox.cif.g08.bks.cpg/sg2_137_cif.got.tgz:273091.got - 2010.06.03 11:33:40.
