data_PCOD9101690
_publ_section_title
;
Structure prediction by ZEFSAII (Michael W. Deem and Ramdas Pophale) SiO2 
 PCOD9101690
Probable space group: P -1
;
_chemical_formula_sum "Si O2"
_cell_formula_units_Z 16
_cell_length_a 13.744003
_cell_length_b 15.510520
_cell_length_c 6.733179
_cell_angle_alpha 124.958725
_cell_angle_beta 64.356376
_cell_angle_gamma 141.868457
_cell_volume 725.914378
_symmetry_space_group_name_H-M "P -1"
_symmetry_group_IT_number 2
_symmetry_cell_setting 'triclinic'
loop_
_space_group_symop_operation_xyz
x,y,z
-x,-y,-z
loop_
_atom_site_type_symbol
_atom_site_label
_atom_site_fract_x
_atom_site_fract_y
_atom_site_fract_z
Si Si1 0.752859 0.673013 0.061407
Si Si2 0.626451 0.674622 0.541255
Si Si3 0.928287 0.195708 0.230235
Si Si4 0.478309 0.060111 0.408213
Si Si5 0.815553 0.902030 0.039042
Si Si6 0.577776 0.353785 0.635048
Si Si7 0.913396 0.497468 0.389966
Si Si8 0.753876 0.188923 0.025822
O O1 0.749026 0.695845 0.326214
O O2 0.734304 0.774380 0.111128
O O3 0.620096 0.491336 0.895138
O O4 0.910646 0.740243 0.912409
O O5 0.500000 0.500000 0.500000
O O6 0.724138 0.802214 0.791334
O O7 0.529318 0.688738 0.512809
O O8 0.846172 0.178543 0.080098
O O9 0.973014 0.322573 0.506122
O O10 0.824283 0.033580 0.213397
O O11 0.503182 0.201817 0.616502
O O12 0.613712 0.130264 0.217300
O O13 0.500000 0.000000 0.500000
O O14 0.320420 0.919157 0.241410
O O15 0.000000 0.000000 0.000000
O O16 0.748228 0.432735 0.515065
O O17 0.863483 0.368125 0.116602
O O18 0.000000 0.500000 0.500000
#
# Coordination Sequence:
#
# PCOD9101690 Si02
#       8
#     2   2   2   2   2   2   2   2
#     4  10  22  41  60  88 126 163 207 261 300 372
#     4  12  24  40  64  91 124 167 213 258 309 368
#     4   9  18  36  64  88 121 165 202 249 319 364
#     4  10  21  37  57  90 121 156 203 256 309 370
#     4  10  22  39  60  89 126 162 208 254 308 368
#     4  10  20  38  60  88 122 158 205 253 309 363
#     4   8  16  34  63  84 114 160 197 246 305 366
#     4   9  18  37  60  85 122 157 197 254 307 367
#
# _framework density 22.041167000000002
#
# number of rings (size 3 to 8) (size 9 to 14) (size 15 to 20)
#    0.000    2.250    1.250    1.125    0.000    3.000 
#    6.750    2.500    2.750   10.500    0.000    0.000 
#    0.000    0.000    0.000    0.000    0.000    0.000 
#
# Total GULP energy -89274.026649 kJ/mol
# GULP energy per Si atom -5579.626666 kJ/mol
# Density = 2.199100 g / cm^3
# Si number density = 22.041167 Si / 1000 Ang^3
#
#
#
# Elastic Constant Matrix: (Units=GPa)
#
#
# Indices 1 2 3 4 5 6 
#
# 1 93.6863 49.8535 17.6547 19.3819 4.5249 -8.1979
# 2 49.8535 168.0811 66.0953 44.5410 -2.8200 -28.6220
# 3 17.6547 66.0953 77.9725 34.7086 5.5453 -11.3259
# 4 19.3819 44.5410 34.7086 49.0136 5.7597 -13.8739
# 5 4.5249 -2.8200 5.5453 5.7597 27.0160 10.0734
# 6 -8.1979 -28.6220 -11.3259 -13.8739 10.0734 43.8406
#
#
#
# Elastic Compliance Matrix: (Units=1/GPa)
#
#
# Indices 1 2 3 4 5 6 
#
# 1 0.013073 -0.003882 0.001620 -0.002472 -0.002440 0.000107
# 2 -0.003882 0.011290 -0.007006 -0.003182 0.002754 0.003195
# 3 0.001620 -0.007006 0.023205 -0.010588 -0.003174 -0.000897
# 4 -0.002472 -0.003182 -0.010588 0.034861 -0.008010 0.007598
# 5 -0.002440 0.002754 -0.003174 -0.008010 0.044646 -0.012272
# 6 0.000107 0.003195 -0.000897 0.007598 -0.012272 0.029908
#
#
# Mechanical properties :
#
#
# Convention : Reuss Voigt Hill
#
# Bulk Modulus (GPa) = 34.44490 67.43854 50.94172
# Shear Modulus (GPa) = 26.99825 37.71649 32.35737
#
# Velocity S-wave (km/s) = 3.50366 4.14113 3.83566
# Velocity P-wave (km/s) = 5.65941 7.31631 6.54054
#
# Compressibility (1/GPa) = 0.02903187
#
# Stress axis : x y z
#
# Youngs Moduli (GPa) = 76.49276 88.57713 43.09331
#
# Poissons Ratio (x) = 0.34389 -0.06983
# Poissons Ratio (y) = 0.29698 0.30192
# Poissons Ratio (z) = -0.12395 0.62059
#
# Static dielectric constant tensor:
#      x y z
#    x 1.839310 0.009040 -0.063670 
#    y 0.009040 1.837510 0.020770 
#    z -0.063670 0.020770 1.782390 
# 
# From -- ./inp_files/98577.got.cif
#   From: 2010.05.17/outbox.cif.g08.bks.cpg/sg2_50_cif.got.tgz:98577.got - 2010.06.03 11:33:40.
