data_PCOD9101460
_publ_section_title
;
Structure prediction by ZEFSAII (Michael W. Deem and Ramdas Pophale) SiO2 
 PCOD9101460
Probable space group: P -1
;
_chemical_formula_sum "Si O2"
_cell_formula_units_Z 16
_cell_length_a 12.003617
_cell_length_b 8.110424
_cell_length_c 8.153760
_cell_angle_alpha 103.224820
_cell_angle_beta 85.474842
_cell_angle_gamma 81.046168
_cell_volume 757.905354
_symmetry_space_group_name_H-M "P -1"
_symmetry_group_IT_number 2
_symmetry_cell_setting 'triclinic'
loop_
_space_group_symop_operation_xyz
x,y,z
-x,-y,-z
loop_
_atom_site_type_symbol
_atom_site_label
_atom_site_fract_x
_atom_site_fract_y
_atom_site_fract_z
Si Si1 0.285851 0.085255 0.288160
Si Si2 0.334449 0.416215 0.148129
Si Si3 0.466516 0.828982 0.041814
Si Si4 0.325063 0.864583 0.756461
Si Si5 0.132040 0.408793 0.960201
Si Si6 0.546942 0.349636 0.586415
Si Si7 0.314430 0.217695 0.668700
Si Si8 0.125429 0.029888 0.007945
O O1 0.318659 0.256884 0.234959
O O2 0.269855 0.137507 0.490112
O O3 0.183300 0.033378 0.181166
O O4 0.385001 0.916784 0.215981
O O5 0.426415 0.321901 0.984428
O O6 0.390046 0.562177 0.259744
O O7 0.213818 0.486928 0.094670
O O8 0.398231 0.773734 0.879850
O O9 0.500000 0.000000 0.000000
O O10 0.360723 0.772515 0.562362
O O11 0.339964 0.061395 0.761769
O O12 0.199655 0.889968 0.849220
O O13 0.213018 0.368165 0.779693
O O14 0.129224 0.217882 0.981143
O O15 0.000000 0.500000 0.000000
O O16 0.500000 0.500000 0.500000
O O17 0.434993 0.270471 0.623250
O O18 0.000000 0.000000 0.000000
#
# Coordination Sequence:
#
# PCOD9101460 Si02
#       8
#     2   2   2   2   2   2   2   2
#     4   9  18  35  61  89 119 156 199 236 298 361
#     4  10  20  38  59  87 122 163 192 237 302 358
#     4   9  15  31  58  82 114 154 190 226 288 367
#     4  10  21  36  58  89 126 156 187 248 303 347
#     4  10  24  46  61  81 121 159 201 253 300 346
#     4  12  21  35  60  95 130 148 197 246 292 368
#     4  11  22  39  61  89 124 158 193 245 306 352
#     4   9  20  42  65  83 113 164 214 240 282 362
#
# _framework density 21.110816
#
# number of rings (size 3 to 8) (size 9 to 14) (size 15 to 20)
#    0.000    2.000    2.500    3.375    0.000    2.500 
#    4.500    2.500    0.000    0.000    0.000    0.000 
#    0.000    0.000    0.000    0.000    0.000    0.000 
#
# Total GULP energy -89221.280017 kJ/mol
# GULP energy per Si atom -5576.330001 kJ/mol
# Density = 2.106277 g / cm^3
# Si number density = 21.110816 Si / 1000 Ang^3
#
#
#
# Elastic Constant Matrix: (Units=GPa)
#
#
# Indices 1 2 3 4 5 6 
#
# 1 189.8597 27.9708 78.9888 16.8071 -3.8474 -5.4924
# 2 27.9708 34.8937 12.8013 7.3289 1.7524 -6.4376
# 3 78.9888 12.8013 152.5527 21.4339 -6.6128 -6.2680
# 4 16.8071 7.3289 21.4339 34.6326 0.7204 -1.1289
# 5 -3.8474 1.7524 -6.6128 0.7204 15.4378 6.5877
# 6 -5.4924 -6.4376 -6.2680 -1.1289 6.5877 38.4098
#
#
#
# Elastic Compliance Matrix: (Units=1/GPa)
#
#
# Indices 1 2 3 4 5 6 
#
# 1 0.007412 -0.004754 -0.003327 -0.000574 0.001203 -0.000503
# 2 -0.004754 0.034987 0.000135 -0.004815 -0.007591 0.006366
# 3 -0.003327 0.000135 0.008978 -0.004021 0.003029 0.000374
# 4 -0.000574 -0.004815 -0.004021 0.032715 -0.002802 -0.000103
# 5 0.001203 -0.007591 0.003029 -0.002802 0.073002 -0.013209
# 6 -0.000503 0.006366 0.000374 -0.000103 -0.013209 0.029354
#
#
# Mechanical properties :
#
#
# Convention : Reuss Voigt Hill
#
# Bulk Modulus (GPa) = 28.18111 68.53644 48.35877
# Shear Modulus (GPa) = 23.34607 34.86574 29.10590
#
# Velocity S-wave (km/s) = 3.32909 4.06835 3.71714
# Velocity P-wave (km/s) = 5.30615 7.38946 6.43270
#
# Compressibility (1/GPa) = 0.03548477
#
# Stress axis : x y z
#
# Youngs Moduli (GPa) = 134.91473 28.58224 111.38247
#
# Poissons Ratio (x) = 0.13587 0.37055
# Poissons Ratio (y) = 0.64136 -0.01499
# Poissons Ratio (z) = 0.44884 -0.00385
#
# Static dielectric constant tensor:
#      x y z
#    x 1.822500 0.016740 0.001130 
#    y 0.016740 1.836420 -0.022800 
#    z 0.001130 -0.022800 1.843650 
# 
# From -- ./inp_files/240937.got.cif
#   From: 2010.05.17/outbox.cif.g08.bks.cpg/sg2_121_cif.got.tgz:240937.got - 2010.06.03 11:33:40.
