data_PCOD9101956
_publ_section_title
;
Structure prediction by ZEFSAII (Michael W. Deem and Ramdas Pophale) SiO2 
 PCOD9101956
Probable space group: P -1
;
_chemical_formula_sum "Si O2"
_cell_formula_units_Z 16
_cell_length_a 6.985220
_cell_length_b 10.705320
_cell_length_c 13.782981
_cell_angle_alpha 52.163088
_cell_angle_beta 76.308682
_cell_angle_gamma 64.116415
_cell_volume 731.629631
_symmetry_space_group_name_H-M "P -1"
_symmetry_group_IT_number 2
_symmetry_cell_setting 'triclinic'
loop_
_space_group_symop_operation_xyz
x,y,z
-x,-y,-z
loop_
_atom_site_type_symbol
_atom_site_label
_atom_site_fract_x
_atom_site_fract_y
_atom_site_fract_z
Si Si1 0.178040 0.209091 0.124721
Si Si2 0.301299 0.814480 0.618050
Si Si3 0.145468 0.922791 0.374754
Si Si4 0.375614 0.344902 0.192038
Si Si5 0.195518 0.545584 0.486196
Si Si6 0.539770 0.159825 0.961548
Si Si7 0.753468 0.279365 0.022278
Si Si8 0.434944 0.463365 0.686855
O O1 0.192396 0.304023 0.177520
O O2 0.962558 0.252139 0.071240
O O3 0.246941 0.012361 0.243153
O O4 0.338862 0.245705 0.015610
O O5 0.275032 0.887926 0.477071
O O6 0.520426 0.772125 0.671516
O O7 0.301548 0.624090 0.693493
O O8 0.094269 0.942069 0.638567
O O9 0.140375 0.745618 0.421073
O O10 0.573657 0.303594 0.113593
O O11 0.297969 0.548300 0.117183
O O12 0.293833 0.450137 0.619704
O O13 0.376028 0.494469 0.406381
O O14 0.000000 0.500000 0.500000
O O15 0.528461 0.290438 0.816440
O O16 0.741693 0.135594 0.017977
O O17 0.500000 0.000000 0.000000
#
# Coordination Sequence:
#
# PCOD9101956 Si02
#       8
#     2   2   2   2   2   2   2   2
#     4  11  23  38  62  94 129 175 207 263 332 382
#     4  10  20  42  64  92 130 167 212 282 311 370
#     4  10  22  41  65  97 134 164 220 272 316 386
#     4  10  20  38  61  88 126 172 207 263 332 372
#     4  10  23  45  68  91 124 177 210 262 329 384
#     4  11  24  40  64  95 127 176 217 263 320 383
#     4  10  21  38  59  88 130 165 216 265 309 388
#     4  10  22  44  65  92 132 162 219 270 313 387
#
# _framework density 21.868988999999999
#
# number of rings (size 3 to 8) (size 9 to 14) (size 15 to 20)
#    0.000    1.750    2.500    1.125    0.000    4.000 
#   13.500    0.000    0.000    0.000    0.000    0.000 
#    0.000    0.000    0.000    0.000    0.000    0.000 
#
# Total GULP energy -89319.964418 kJ/mol
# GULP energy per Si atom -5582.497776 kJ/mol
# Density = 2.181921 g / cm^3
# Si number density = 21.868989 Si / 1000 Ang^3
#
#
#
# Elastic Constant Matrix: (Units=GPa)
#
#
# Indices 1 2 3 4 5 6 
#
# 1 135.0739 25.3330 30.8937 17.4051 39.1738 30.0925
# 2 25.3330 80.8691 15.6363 3.4800 12.3515 15.3937
# 3 30.8937 15.6363 90.7313 1.5311 32.1416 15.4880
# 4 17.4051 3.4800 1.5311 15.1680 -0.1887 0.6187
# 5 39.1738 12.3515 32.1416 -0.1887 26.7636 5.3223
# 6 30.0925 15.3937 15.4880 0.6187 5.3223 31.6682
#
#
#
# Elastic Compliance Matrix: (Units=1/GPa)
#
#
# Indices 1 2 3 4 5 6 
#
# 1 0.034627 0.003824 0.017520 -0.041950 -0.067590 -0.031152
# 2 0.003824 0.014967 0.002933 -0.007893 -0.014130 -0.009814
# 3 0.017520 0.002933 0.029231 -0.023542 -0.057856 -0.022186
# 4 -0.041950 -0.007893 -0.023542 0.117765 0.086518 0.038373
# 5 -0.067590 -0.014130 -0.057856 0.086518 0.200169 0.064059
# 6 -0.031152 -0.009814 -0.022186 0.038373 0.064059 0.065285
#
#
# Mechanical properties :
#
#
# Convention : Reuss Voigt Hill
#
# Bulk Modulus (GPa) = 7.85069 50.04448 28.94758
# Shear Modulus (GPa) = 10.96611 30.37405 20.67008
#
# Velocity S-wave (km/s) = 2.24173 3.73085 3.07771
# Velocity P-wave (km/s) = 3.20907 6.44146 5.08874
#
# Compressibility (1/GPa) = 0.12737740
#
# Stress axis : x y z
#
# Youngs Moduli (GPa) = 28.87906 66.81496 34.21061
#
# Poissons Ratio (x) = -0.25548 -0.59937
# Poissons Ratio (y) = -0.11042 -0.10033
# Poissons Ratio (z) = -0.50596 -0.19595
#
# Static dielectric constant tensor:
#      x y z
#    x 1.799950 0.015870 0.020180 
#    y 0.015870 1.852020 0.016210 
#    z 0.020180 0.016210 1.819710 
# 
# From -- ./inp_files/482636.got.cif
#   From: 2010.05.17/outbox.cif.g08.bks.cpg/sg2_242_cif.got.tgz:482636.got - 2010.06.03 11:33:40.
