data_PCOD9101636
_publ_section_title
;
Structure prediction by ZEFSAII (Michael W. Deem and Ramdas Pophale) SiO2 
 PCOD9101636
Probable space group: P -1
;
_chemical_formula_sum "Si O2"
_cell_formula_units_Z 16
_cell_length_a 6.887573
_cell_length_b 22.788783
_cell_length_c 15.071962
_cell_angle_alpha 29.736054
_cell_angle_beta 55.516239
_cell_angle_gamma 74.949095
_cell_volume 796.508545
_symmetry_space_group_name_H-M "P -1"
_symmetry_group_IT_number 2
_symmetry_cell_setting 'triclinic'
loop_
_space_group_symop_operation_xyz
x,y,z
-x,-y,-z
loop_
_atom_site_type_symbol
_atom_site_label
_atom_site_fract_x
_atom_site_fract_y
_atom_site_fract_z
Si Si1 0.350581 0.705380 0.071484
Si Si2 0.770343 0.013039 0.595345
Si Si3 0.285388 0.547442 0.478848
Si Si4 0.707264 0.396263 0.403388
Si Si5 0.719595 0.909401 0.132056
Si Si6 0.174228 0.330629 0.069827
Si Si7 0.797151 0.057404 0.735144
Si Si8 0.812059 0.616599 0.800838
O O1 0.359433 0.646972 0.243200
O O2 0.573325 0.694591 0.967822
O O3 0.031013 0.596724 0.262796
O O4 0.465882 0.872452 0.829992
O O5 0.798579 0.005763 0.703747
O O6 0.000000 0.000000 0.500000
O O7 0.873826 0.176664 0.335458
O O8 0.500000 0.500000 0.500000
O O9 0.292121 0.627629 0.460734
O O10 0.422701 0.260939 0.610557
O O11 0.750027 0.547183 0.180020
O O12 0.969143 0.406538 0.274879
O O13 0.475936 0.931686 0.200003
O O14 0.783382 0.963780 0.942813
O O15 0.000000 0.000000 0.000000
O O16 0.170653 0.389801 0.089231
O O17 0.076656 0.219064 0.462151
O O18 0.500000 0.500000 0.000000
#
# Coordination Sequence:
#
# PCOD9101636 Si02
#       8
#     2   2   2   2   2   2   2   2
#     4  10  21  39  64  85 117 158 195 235 297 343
#     4   9  19  38  64  82 117 160 191 239 291 342
#     4  11  22  38  60  89 117 151 196 245 285 343
#     4  11  22  38  59  88 120 147 199 245 287 348
#     4  10  22  38  61  88 115 153 192 244 295 342
#     4  10  20  38  60  86 117 153 194 241 289 347
#     4   9  20  40  58  87 117 147 199 239 287 350
#     4  10  21  36  60  82 115 158 190 237 294 343
#
# _framework density 20.087669999999999
#
# number of rings (size 3 to 8) (size 9 to 14) (size 15 to 20)
#    0.000    2.000    1.250    1.875    1.750    1.000 
#    2.250    0.625    2.750    0.000    0.000    0.000 
#    0.000    0.000    0.000    0.000    0.000    0.000 
#
# Total GULP energy -89312.326488 kJ/mol
# GULP energy per Si atom -5582.020405 kJ/mol
# Density = 2.004195 g / cm^3
# Si number density = 20.087670 Si / 1000 Ang^3
#
#
#
# Elastic Constant Matrix: (Units=GPa)
#
#
# Indices 1 2 3 4 5 6 
#
# 1 48.5863 23.8315 35.4563 -9.1787 -13.3128 7.3722
# 2 23.8315 115.0852 30.2941 10.6871 -7.5138 20.3726
# 3 35.4563 30.2941 112.8939 -16.1428 -24.0340 11.1374
# 4 -9.1787 10.6871 -16.1428 42.2427 11.1768 -0.7739
# 5 -13.3128 -7.5138 -24.0340 11.1768 31.6233 -2.1433
# 6 7.3722 20.3726 11.1374 -0.7739 -2.1433 16.5389
#
#
#
# Elastic Compliance Matrix: (Units=1/GPa)
#
#
# Indices 1 2 3 4 5 6 
#
# 1 0.029740 -0.003883 -0.006330 0.003562 0.005301 -0.003358
# 2 -0.003883 0.012740 -0.001370 -0.005172 0.001290 -0.013115
# 3 -0.006330 -0.001370 0.013159 0.002365 0.005939 -0.003471
# 4 0.003562 -0.005172 0.002365 0.028807 -0.007875 0.003518
# 5 0.005301 0.001290 0.005939 -0.007875 0.041256 -0.002974
# 6 -0.003358 -0.013115 -0.003471 0.003518 -0.002974 0.080232
#
#
# Mechanical properties :
#
#
# Convention : Reuss Voigt Hill
#
# Bulk Modulus (GPa) = 30.79414 50.63659 40.71536
# Shear Modulus (GPa) = 20.84003 30.54655 25.69329
#
# Velocity S-wave (km/s) = 3.22445 3.90380 3.58027
# Velocity P-wave (km/s) = 5.40610 6.75145 6.11588
#
# Compressibility (1/GPa) = 0.03247371
#
# Stress axis : x y z
#
# Youngs Moduli (GPa) = 33.62460 78.49283 75.99636
#
# Poissons Ratio (x) = 0.30475 0.48102
# Poissons Ratio (y) = 0.13055 0.10414
# Poissons Ratio (z) = 0.21283 0.10756
#
# Static dielectric constant tensor:
#      x y z
#    x 1.673730 -0.006180 0.036910 
#    y -0.006180 1.709720 -0.018690 
#    z 0.036910 -0.018690 1.745590 
# 
# From -- ./inp_files/365242.got.cif
#   From: 2010.05.17/outbox.cif.g08.bks.cpg/sg2_183_cif.got.tgz:365242.got - 2010.06.03 11:33:40.
