data_PCOD9101089
_publ_section_title
;
Structure prediction by ZEFSAII (Michael W. Deem and Ramdas Pophale) SiO2 
 PCOD9101089
Probable space group: P -1
;
_chemical_formula_sum "Si O2"
_cell_formula_units_Z 16
_cell_length_a 8.007372
_cell_length_b 20.308651
_cell_length_c 10.773839
_cell_angle_alpha 139.302985
_cell_angle_beta 105.606766
_cell_angle_gamma 46.839361
_cell_volume 709.379921
_symmetry_space_group_name_H-M "P -1"
_symmetry_group_IT_number 2
_symmetry_cell_setting 'triclinic'
loop_
_space_group_symop_operation_xyz
x,y,z
-x,-y,-z
loop_
_atom_site_type_symbol
_atom_site_label
_atom_site_fract_x
_atom_site_fract_y
_atom_site_fract_z
Si Si1 0.766080 0.566627 0.638320
Si Si2 0.060125 0.308229 0.683046
Si Si3 0.946680 0.473966 0.143527
Si Si4 0.843409 0.128360 0.045173
Si Si5 0.082589 0.955229 0.596792
Si Si6 0.592707 0.385699 0.744185
Si Si7 0.883916 0.776715 0.785056
Si Si8 0.524976 0.033938 0.251747
O O1 0.462072 0.717680 0.755257
O O2 0.000000 0.500000 0.500000
O O3 0.817163 0.604575 0.828863
O O4 0.863861 0.408261 0.444672
O O5 0.112026 0.391369 0.741327
O O6 0.785957 0.371413 0.680365
O O7 0.305244 0.123076 0.442954
O O8 0.031383 0.356751 0.888075
O O9 0.680334 0.546781 0.260810
O O10 0.998920 0.164366 0.119103
O O11 0.867469 0.067530 0.825908
O O12 0.000000 0.000000 0.000000
O O13 0.291336 0.953458 0.658449
O O14 0.226333 0.784833 0.408576
O O15 0.000000 0.000000 0.500000
O O16 0.500000 0.500000 0.000000
O O17 0.662097 0.856736 0.748860
O O18 0.713714 0.856937 0.994548
#
# Coordination Sequence:
#
# PCOD9101089 Si02
#       8
#     2   2   2   2   2   2   2   2
#     4  12  27  44  71 105 142 184 243 306 357 430
#     4  10  20  37  72 101 138 189 232 288 369 432
#     4  10  22  42  65 102 144 179 232 305 359 419
#     4  11  29  47  73 103 142 197 244 298 365 440
#     4  11  25  46  69 101 149 187 233 305 368 430
#     4  10  22  41  68 105 133 182 236 286 359 437
#     4  10  23  46  69 101 142 188 239 294 362 434
#     4  10  21  41  75  94 140 190 232 291 372 418
#
# _framework density 22.55491
#
# number of rings (size 3 to 8) (size 9 to 14) (size 15 to 20)
#    0.000    1.500    2.500    0.375   10.500    0.000 
#   11.250    0.625    0.000    0.000    0.000    0.000 
#    0.000    0.000    0.000    0.000    0.000    0.000 
#
# Total GULP energy -89326.725841 kJ/mol
# GULP energy per Si atom -5582.920365 kJ/mol
# Density = 2.250357 g / cm^3
# Si number density = 22.554910 Si / 1000 Ang^3
#
#
#
# Elastic Constant Matrix: (Units=GPa)
#
#
# Indices 1 2 3 4 5 6 
#
# 1 90.3466 26.3917 46.4220 0.3814 -4.4289 -20.8967
# 2 26.3917 96.1042 72.6085 6.7320 3.1416 -15.0218
# 3 46.4220 72.6085 153.8312 1.4030 -14.8473 -13.3192
# 4 0.3814 6.7320 1.4030 33.7542 -7.3611 -6.9114
# 5 -4.4289 3.1416 -14.8473 -7.3611 40.8325 3.2719
# 6 -20.8967 -15.0218 -13.3192 -6.9114 3.2719 27.2625
#
#
#
# Elastic Compliance Matrix: (Units=1/GPa)
#
#
# Indices 1 2 3 4 5 6 
#
# 1 0.015432 0.000215 -0.003882 0.002064 -0.000231 0.010602
# 2 0.000215 0.018219 -0.008672 -0.003308 -0.005593 0.005799
# 3 -0.003882 -0.008672 0.012074 0.001992 0.005153 -0.001968
# 4 0.002064 -0.003308 0.001992 0.033325 0.006538 0.008397
# 5 -0.000231 -0.005593 0.005153 0.006538 0.028145 -0.002462
# 6 0.010602 0.005799 -0.001968 0.008397 -0.002462 0.049465
#
#
# Mechanical properties :
#
#
# Convention : Reuss Voigt Hill
#
# Bulk Modulus (GPa) = 47.51013 70.12516 58.81764
# Shear Modulus (GPa) = 26.54589 33.36049 29.95319
#
# Velocity S-wave (km/s) = 3.43439 3.85005 3.64814
# Velocity P-wave (km/s) = 6.06932 7.13598 6.62415
#
# Compressibility (1/GPa) = 0.02104814
#
# Stress axis : x y z
#
# Youngs Moduli (GPa) = 64.79902 54.88769 82.82359
#
# Poissons Ratio (x) = -0.01179 0.32149
# Poissons Ratio (y) = -0.01392 0.71822
# Poissons Ratio (z) = 0.25153 0.47597
#
# Static dielectric constant tensor:
#      x y z
#    x 1.764290 -0.084970 -0.067900 
#    y -0.084970 1.722720 -0.079680 
#    z -0.067900 -0.079680 1.915720 
# 
# From -- ./inp_files/406900.got.cif
#   From: 2010.05.17/outbox.cif.g08.bks.cpg/sg2_204_cif.got.tgz:406900.got - 2010.06.03 11:33:40.
