data_PCOD9101736
_publ_section_title
;
Structure prediction by ZEFSAII (Michael W. Deem and Ramdas Pophale) SiO2 
 PCOD9101736
Probable space group: P -1
;
_chemical_formula_sum "Si O2"
_cell_formula_units_Z 14
_cell_length_a 27.270984
_cell_length_b 12.608419
_cell_length_c 12.272455
_cell_angle_alpha 23.957906
_cell_angle_beta 153.608215
_cell_angle_gamma 151.482927
_cell_volume 718.244811
_symmetry_space_group_name_H-M "P -1"
_symmetry_group_IT_number 2
_symmetry_cell_setting 'triclinic'
loop_
_space_group_symop_operation_xyz
x,y,z
-x,-y,-z
loop_
_atom_site_type_symbol
_atom_site_label
_atom_site_fract_x
_atom_site_fract_y
_atom_site_fract_z
Si Si1 0.420782 0.695485 0.655376
Si Si2 0.499484 0.400260 0.465310
Si Si3 0.274447 0.521596 0.309408
Si Si4 0.136654 0.904649 0.585959
Si Si5 0.879196 0.054927 0.728110
Si Si6 0.630488 0.241992 0.256253
Si Si7 0.870971 0.607918 0.292162
O O1 0.333293 0.612940 0.457496
O O2 0.374769 0.722949 0.657990
O O3 0.500000 0.000000 0.500000
O O4 0.500000 0.500000 0.000000
O O5 0.500000 0.500000 0.500000
O O6 0.625842 0.438269 0.624157
O O7 0.419588 0.077203 0.586854
O O8 0.448262 0.600460 0.106397
O O9 0.194087 0.207139 0.463175
O O10 0.192199 0.693255 0.947203
O O11 0.176704 0.955115 0.491488
O O12 0.995121 0.794274 0.414931
O O13 0.903676 0.366819 0.521384
O O14 0.823053 0.811080 0.931999
O O15 0.000000 0.000000 0.000000
O O16 0.763639 0.417192 0.327377
#
# Coordination Sequence:
#
# PCOD9101736 Si02
#       7
#     2   2   2   2   2   2   2
#     4  12  23  47  69  91 124 174 237 261 311 389
#     4  12  27  43  64 102 137 168 209 272 342 383
#     4  12  24  41  69  94 129 171 217 272 320 378
#     4  11  23  39  62  98 130 166 215 263 322 386
#     4  10  20  38  60  89 130 178 213 245 307 398
#     4  12  25  46  68  94 132 176 217 271 322 390
#     4  11  23  40  63  95 131 172 215 259 325 396
#
# _framework density 19.491961
#
# number of rings (size 3 to 8) (size 9 to 14) (size 15 to 20)
#    0.000    0.571    2.857    7.286    6.000    0.000 
#    0.000    1.429    0.000    0.000    0.000    0.000 
#    0.000    0.000    0.000    0.000    0.000    0.000 
#
# Total GULP energy -78117.005019 kJ/mol
# GULP energy per Si atom -5579.786073 kJ/mol
# Density = 1.944760 g / cm^3
# Si number density = 19.491961 Si / 1000 Ang^3
#
#
#
# Elastic Constant Matrix: (Units=GPa)
#
#
# Indices 1 2 3 4 5 6 
#
# 1 97.4019 44.8320 14.0600 -4.0804 -16.5376 -0.3423
# 2 44.8320 176.0616 98.7995 -33.2233 -30.7732 -19.4558
# 3 14.0600 98.7995 235.8440 -24.7763 -50.0331 -22.9814
# 4 -4.0804 -33.2233 -24.7763 47.1467 2.9747 -2.4274
# 5 -16.5376 -30.7732 -50.0331 2.9747 41.7765 11.2767
# 6 -0.3423 -19.4558 -22.9814 -2.4274 11.2767 42.4227
#
#
#
# Elastic Compliance Matrix: (Units=1/GPa)
#
#
# Indices 1 2 3 4 5 6 
#
# 1 0.012450 -0.003602 0.001430 -0.001108 0.004625 -0.002070
# 2 -0.003602 0.009633 -0.002740 0.005105 0.001252 0.002864
# 3 0.001430 -0.002740 0.006918 0.001463 0.006498 0.000860
# 4 -0.001108 0.005105 0.001463 0.025550 0.002173 0.004009
# 5 0.004625 0.001252 0.006498 0.002173 0.035732 -0.005242
# 6 -0.002070 0.002864 0.000860 0.004009 -0.005242 0.026958
#
#
# Mechanical properties :
#
#
# Convention : Reuss Voigt Hill
#
# Bulk Modulus (GPa) = 52.14320 91.63225 71.88772
# Shear Modulus (GPa) = 37.46498 49.71025 43.58762
#
# Velocity S-wave (km/s) = 4.38890 5.05552 4.73396
# Velocity P-wave (km/s) = 7.24517 9.01055 8.17565
#
# Compressibility (1/GPa) = 0.01917796
#
# Stress axis : x y z
#
# Youngs Moduli (GPa) = 80.32229 103.80771 144.54106
#
# Poissons Ratio (x) = 0.37391 -0.20667
# Poissons Ratio (y) = 0.28931 0.39600
# Poissons Ratio (z) = -0.11485 0.28440
#
# Static dielectric constant tensor:
#      x y z
#    x 1.673570 -0.002820 0.064950 
#    y -0.002820 1.593280 0.074000 
#    z 0.064950 0.074000 1.599030 
# 
# From -- ./inp_files/476611.got.cif
#   From: 2010.05.17/outbox.cif.g08.bks.cpg/sg2_239_cif.got.tgz:476611.got - 2010.06.03 11:33:40.
