data_PCOD9101501
_publ_section_title
;
Structure prediction by ZEFSAII (Michael W. Deem and Ramdas Pophale) SiO2 
 PCOD9101501
Probable space group: P -1
;
_chemical_formula_sum "Si O2"
_cell_formula_units_Z 15
_cell_length_a 19.835148
_cell_length_b 7.528076
_cell_length_c 17.319821
_cell_angle_alpha 46.953893
_cell_angle_beta 19.501385
_cell_angle_gamma 42.250594
_cell_volume 579.169913
_symmetry_space_group_name_H-M "P -1"
_symmetry_group_IT_number 2
_symmetry_cell_setting 'triclinic'
loop_
_space_group_symop_operation_xyz
x,y,z
-x,-y,-z
loop_
_atom_site_type_symbol
_atom_site_label
_atom_site_fract_x
_atom_site_fract_y
_atom_site_fract_z
Si Si1 0.215986 0.257878 0.309076
Si Si2 0.000000 0.000000 0.500000
Si Si3 0.758978 0.918955 0.201473
Si Si4 0.500135 0.545661 0.894725
Si Si5 0.512161 0.065227 0.740984
Si Si6 0.918462 0.391548 0.379244
Si Si7 0.851873 0.966390 0.268311
Si Si8 0.423653 0.452186 0.428396
O O1 0.134806 0.082400 0.395800
O O2 0.342507 0.092599 0.296148
O O3 0.000000 0.500000 0.500000
O O4 0.358688 0.384539 0.068283
O O5 0.113267 0.124064 0.270931
O O6 0.575922 0.197476 0.289552
O O7 0.784240 0.984040 0.246194
O O8 0.676996 0.682151 0.358170
O O9 0.992178 0.880750 0.928054
O O10 0.401288 0.862398 0.895450
O O11 0.750902 0.413074 0.627854
O O12 0.500000 0.500000 0.000000
O O13 0.656862 0.057939 0.511680
O O14 0.439531 0.374454 0.748459
O O15 0.968335 0.650554 0.249702
O O16 0.785363 0.393082 0.445870
#
# Coordination Sequence:
#
# PCOD9101501 Si02
#       8
#     2   1   2   2   2   2   2   2
#     4  11  23  41  59  90 130 168 211 261 307 370
#     4  12  22  38  62  90 120 172 204 256 308 372
#     4   9  20  38  61  87 124 161 203 263 318 372
#     4   9  20  40  58  82 122 166 200 258 309 366
#     4  10  20  39  62  87 125 165 207 259 309 381
#     4  10  21  38  58  86 121 158 211 252 307 378
#     4   9  19  39  61  85 122 164 199 263 318 370
#     4  10  20  38  59  91 122 160 210 253 313 381
#
# _framework density 25.899135999999999
#
# number of rings (size 3 to 8) (size 9 to 14) (size 15 to 20)
#    0.000    2.133    1.333    2.400    0.000    3.733 
#    9.600    0.000    0.000    0.000    0.000    0.000 
#    0.000    0.000    0.000    0.000    0.000    0.000 
#
# Total GULP energy -83563.753228 kJ/mol
# GULP energy per Si atom -5570.916882 kJ/mol
# Density = 2.584019 g / cm^3
# Si number density = 25.899136 Si / 1000 Ang^3
#
#
#
# Elastic Constant Matrix: (Units=GPa)
#
#
# Indices 1 2 3 4 5 6 
#
# 1 70.5878 26.6554 12.3620 -12.1401 -6.9200 9.1529
# 2 26.6554 112.6694 23.0561 -31.4918 0.4171 10.7034
# 3 12.3620 23.0561 94.6709 -13.3538 9.7584 13.1509
# 4 -12.1401 -31.4918 -13.3538 45.5631 9.4237 -4.4760
# 5 -6.9200 0.4171 9.7584 9.4237 24.9076 -4.8194
# 6 9.1529 10.7034 13.1509 -4.4760 -4.8194 37.1614
#
#
#
# Elastic Compliance Matrix: (Units=1/GPa)
#
#
# Indices 1 2 3 4 5 6 
#
# 1 0.016459 -0.003274 -0.001487 0.000540 0.004635 -0.001919
# 2 -0.003274 0.012264 -0.000687 0.008091 -0.004307 -0.002067
# 3 -0.001487 -0.000687 0.012953 0.004115 -0.007914 -0.004550
# 4 0.000540 0.008091 0.004115 0.031579 -0.013917 -0.001921
# 5 0.004635 -0.004307 -0.007914 -0.013917 0.051400 0.007889
# 6 -0.001919 -0.002067 -0.004550 -0.001921 0.007889 0.030380
#
#
# Mechanical properties :
#
#
# Convention : Reuss Voigt Hill
#
# Bulk Modulus (GPa) = 32.48763 44.67500 38.58132
# Shear Modulus (GPa) = 28.37821 35.91672 32.14747
#
# Velocity S-wave (km/s) = 3.31376 3.72801 3.52697
# Velocity P-wave (km/s) = 5.21656 5.98479 5.61383
#
# Compressibility (1/GPa) = 0.03078094
#
# Stress axis : x y z
#
# Youngs Moduli (GPa) = 60.75555 81.53727 77.20454
#
# Poissons Ratio (x) = 0.26692 0.11480
# Poissons Ratio (y) = 0.19889 0.05305
# Poissons Ratio (z) = 0.09034 0.05602
#
# Static dielectric constant tensor:
#      x y z
#    x 1.704140 0.185460 -0.155510 
#    y 0.185460 1.649240 -0.009730 
#    z -0.155510 -0.009730 2.006610 
# 
# From -- ./inp_files/601772.got.cif
#   From: 2010.05.17/outbox.cif.g08.bks.cpg/sg2_301_cif.got.tgz:601772.got - 2010.06.03 11:33:40.
