data_PCOD9101465
_publ_section_title
;
Structure prediction by ZEFSAII (Michael W. Deem and Ramdas Pophale) SiO2 
 PCOD9101465
Probable space group: P -1
;
_chemical_formula_sum "Si O2"
_cell_formula_units_Z 13
_cell_length_a 8.026666
_cell_length_b 22.752245
_cell_length_c 17.302168
_cell_angle_alpha 166.509696
_cell_angle_beta 46.731570
_cell_angle_gamma 131.389133
_cell_volume 536.470347
_symmetry_space_group_name_H-M "P -1"
_symmetry_group_IT_number 2
_symmetry_cell_setting 'triclinic'
loop_
_space_group_symop_operation_xyz
x,y,z
-x,-y,-z
loop_
_atom_site_type_symbol
_atom_site_label
_atom_site_fract_x
_atom_site_fract_y
_atom_site_fract_z
Si Si1 0.303762 0.101840 0.458261
Si Si2 0.773908 0.104794 0.386357
Si Si3 0.500000 0.000000 0.000000
Si Si4 0.885142 0.788868 0.715226
Si Si5 0.845219 0.882205 0.300842
Si Si6 0.589163 0.358441 0.922174
Si Si7 0.100907 0.651632 0.732657
O O1 0.559509 0.005623 0.277913
O O2 0.188416 0.178804 0.675832
O O3 0.347052 0.353628 0.716496
O O4 0.115867 0.921002 0.250271
O O5 0.673940 0.283076 0.712899
O O6 0.949339 0.246018 0.456407
O O7 0.918956 0.883290 0.098347
O O8 0.653656 0.910621 0.912154
O O9 0.324765 0.776883 0.790067
O O10 0.861655 0.538514 0.452016
O O11 0.000000 0.000000 0.000000
O O12 0.679769 0.700291 0.072438
O O13 0.720338 0.159585 0.681752
O O14 0.000000 0.500000 0.500000
#
# Coordination Sequence:
#
# PCOD9101465 Si02
#       7
#     2   2   1   2   2   2   2
#     4  10  20  38  59  87 126 158 209 254 306 377
#     4  10  22  37  61  96 118 167 217 248 328 378
#     4  10  22  42  72  98 110 176 220 250 346 376
#     4  11  22  44  70  88 134 169 213 272 322 377
#     4   9  19  35  60  85 119 167 204 250 317 359
#     4  10  20  38  60  84 130 158 207 261 302 371
#     4  11  22  44  66  89 131 166 212 276 317 382
#
# _framework density 24.232467
#
# number of rings (size 3 to 8) (size 9 to 14) (size 15 to 20)
#    0.000    1.846    3.077    2.769    0.000    4.923 
#    5.538   12.308    0.000    0.000    0.000    0.000 
#    0.000    0.000    0.000    0.000    0.000    0.000 
#
# Total GULP energy -72468.095304 kJ/mol
# GULP energy per Si atom -5574.468870 kJ/mol
# Density = 2.417731 g / cm^3
# Si number density = 24.232467 Si / 1000 Ang^3
#
#
#
# Elastic Constant Matrix: (Units=GPa)
#
#
# Indices 1 2 3 4 5 6 
#
# 1 129.2779 9.2161 44.1687 29.6016 -10.2006 18.0038
# 2 9.2161 -9.6553 -3.5699 99.5524 49.8742 -53.5703
# 3 44.1687 -3.5699 80.8113 67.3213 -10.8049 -28.5428
# 4 29.6016 99.5524 67.3213 30.3627 -21.3062 24.3145
# 5 -10.2006 49.8742 -10.8049 -21.3062 35.2473 37.0291
# 6 18.0038 -53.5703 -28.5428 24.3145 37.0291 25.9439
#
#
#
# Elastic Compliance Matrix: (Units=1/GPa)
#
#
# Indices 1 2 3 4 5 6 
#
# 1 0.010639 0.002177 -0.003668 -0.004337 0.001492 -0.004988
# 2 0.002177 0.005043 -0.007660 0.005310 0.001833 -0.007117
# 3 -0.003668 -0.007660 0.021617 -0.007756 0.013944 -0.002122
# 4 -0.004337 0.005310 -0.007756 0.015506 -0.015570 0.013133
# 5 0.001492 0.001833 0.013944 -0.015570 0.026553 -0.005217
# 6 -0.004988 -0.007117 -0.002122 0.013133 -0.005217 0.020114
#
#
# Mechanical properties :
#
#
# Convention : Reuss Voigt Hill
#
# Bulk Modulus (GPa) = 52.63719 33.34043 42.98881
# Shear Modulus (GPa) = 40.28853 28.35204 34.32028
#
# Velocity S-wave (km/s) = 4.08190 3.42424 3.76745
# Velocity P-wave (km/s) = 6.63211 5.42424 6.05835
#
# Compressibility (1/GPa) = 0.01899797
#
# Stress axis : x y z
#
# Youngs Moduli (GPa) = 93.99762 198.29017 46.26017
#
# Poissons Ratio (x) = -0.43172 0.16968
# Poissons Ratio (y) = -0.20465 0.35433
# Poissons Ratio (z) = 0.34478 1.51882
#
# Static dielectric constant tensor:
#      x y z
#    x 1.885700 -0.006210 -0.013500 
#    y -0.006210 1.958250 -0.046070 
#    z -0.013500 -0.046070 1.986630 
# 
# From -- ./inp_files/608846.got.cif
#   From: 2010.05.17/outbox.cif.g08.bks.cpg/sg2_305_cif.got.tgz:608846.got - 2010.06.03 11:33:40.
