data_PCOD9101916
_publ_section_title
;
Structure prediction by ZEFSAII (Michael W. Deem and Ramdas Pophale) SiO2 
 PCOD9101916
Probable space group: P -1
;
_chemical_formula_sum "Si O2"
_cell_formula_units_Z 16
_cell_length_a 9.881754
_cell_length_b 6.416629
_cell_length_c 21.647203
_cell_angle_alpha 109.229395
_cell_angle_beta 133.955867
_cell_angle_gamma 50.690920
_cell_volume 749.371460
_symmetry_space_group_name_H-M "P -1"
_symmetry_group_IT_number 2
_symmetry_cell_setting 'triclinic'
loop_
_space_group_symop_operation_xyz
x,y,z
-x,-y,-z
loop_
_atom_site_type_symbol
_atom_site_label
_atom_site_fract_x
_atom_site_fract_y
_atom_site_fract_z
Si Si1 0.131051 0.241323 0.292779
Si Si2 0.486706 0.830261 0.679933
Si Si3 0.348681 0.457985 0.868086
Si Si4 0.234405 0.233054 0.461780
Si Si5 0.841871 0.248877 0.800675
Si Si6 0.140223 0.697979 0.571054
Si Si7 0.333265 0.944544 0.975164
Si Si8 0.560708 0.663155 0.250354
O O1 0.373649 0.167275 0.334627
O O2 0.104459 0.329176 0.363898
O O3 0.909254 0.472139 0.203656
O O4 0.125656 0.977430 0.259541
O O5 0.675875 0.544334 0.745736
O O6 0.251358 0.851105 0.599782
O O7 0.422336 0.086517 0.725152
O O8 0.346514 0.690565 0.925394
O O9 0.371774 0.494206 0.807074
O O10 0.559054 0.163772 0.932940
O O11 0.189716 0.488180 0.511423
O O12 0.115782 0.138652 0.462022
O O13 0.500000 0.000000 0.500000
O O14 0.704117 0.219487 0.808242
O O15 0.069332 0.192835 0.898905
O O16 0.297288 0.508496 0.660858
O O17 0.500000 0.000000 0.000000
#
# Coordination Sequence:
#
# PCOD9101916 Si02
#       8
#     2   2   2   2   2   2   2   2
#     4  10  20  39  62  84 117 160 202 244 300 364
#     4  10  20  38  61  87 118 158 205 243 293 360
#     4  10  21  38  59  85 115 157 195 242 301 356
#     4  11  21  40  64  87 124 164 198 253 313 351
#     4   9  20  37  59  86 118 156 195 248 299 351
#     4  10  23  41  59  90 127 158 204 255 298 361
#     4  10  21  37  58  86 118 149 198 249 290 356
#     4  10  20  40  60  83 121 158 194 244 301 354
#
# _framework density 21.351227999999999
#
# number of rings (size 3 to 8) (size 9 to 14) (size 15 to 20)
#    0.000    2.000    1.250    3.000    0.000    4.000 
#    4.500    8.125    0.000    0.000    0.000    0.000 
#    0.000    0.000    0.000    0.000    0.000    0.000 
#
# Total GULP energy -89198.133245 kJ/mol
# GULP energy per Si atom -5574.883328 kJ/mol
# Density = 2.130263 g / cm^3
# Si number density = 21.351228 Si / 1000 Ang^3
#
#
#
# Elastic Constant Matrix: (Units=GPa)
#
#
# Indices 1 2 3 4 5 6 
#
# 1 108.5253 22.8065 53.1311 5.4642 28.0915 -14.0350
# 2 22.8065 37.6485 15.0062 -16.9504 -4.1591 -1.6382
# 3 53.1311 15.0062 108.8934 -10.6248 7.2077 -4.6592
# 4 5.4642 -16.9504 -10.6248 17.4039 -0.4924 -3.8460
# 5 28.0915 -4.1591 7.2077 -0.4924 46.4992 3.5603
# 6 -14.0350 -1.6382 -4.6592 -3.8460 3.5603 33.1315
#
#
#
# Elastic Compliance Matrix: (Units=1/GPa)
#
#
# Indices 1 2 3 4 5 6 
#
# 1 0.043425 -0.058518 -0.018812 -0.081497 -0.029922 0.006612
# 2 -0.058518 0.129591 0.023229 0.159730 0.045143 -0.001424
# 3 -0.018812 0.023229 0.018277 0.039821 0.011094 -0.000820
# 4 -0.081497 0.159730 0.039821 0.265356 0.059903 0.003341
# 5 -0.029922 0.045143 0.011094 0.059903 0.043037 -0.006554
# 6 0.006612 -0.001424 -0.000820 0.003341 -0.006554 0.033890
#
#
# Mechanical properties :
#
#
# Convention : Reuss Voigt Hill
#
# Bulk Modulus (GPa) = 12.03482 48.55056 30.29269
# Shear Modulus (GPa) = 7.46855 30.34849 18.90852
#
# Velocity S-wave (km/s) = 1.87231 3.77423 2.97912
# Velocity P-wave (km/s) = 3.21293 6.46385 5.10413
#
# Compressibility (1/GPa) = 0.08309222
#
# Stress axis : x y z
#
# Youngs Moduli (GPa) = 23.02796 7.71661 54.71373
#
# Poissons Ratio (x) = 0.45156 1.02929
# Poissons Ratio (y) = 1.34754 -1.27097
# Poissons Ratio (z) = 0.43321 -0.17925
#
# Static dielectric constant tensor:
#      x y z
#    x 1.822390 -0.047610 0.048360 
#    y -0.047610 1.805440 -0.062210 
#    z 0.048360 -0.062210 1.830240 
# 
# From -- ./inp_files/141143.got.cif
#   From: 2010.05.17/outbox.cif.g08.bks.cpg/sg2_71_cif.got.tgz:141143.got - 2010.06.03 11:33:40.
