data_PCOD9101251
_publ_section_title
;
Structure prediction by ZEFSAII (Michael W. Deem and Ramdas Pophale) SiO2 
 PCOD9101251
Probable space group: P -1
;
_chemical_formula_sum "Si O2"
_cell_formula_units_Z 12
_cell_length_a 14.901300
_cell_length_b 8.275758
_cell_length_c 8.886436
_cell_angle_alpha 128.666258
_cell_angle_beta 40.082385
_cell_angle_gamma 121.953416
_cell_volume 548.082070
_symmetry_space_group_name_H-M "P -1"
_symmetry_group_IT_number 2
_symmetry_cell_setting 'triclinic'
loop_
_space_group_symop_operation_xyz
x,y,z
-x,-y,-z
loop_
_atom_site_type_symbol
_atom_site_label
_atom_site_fract_x
_atom_site_fract_y
_atom_site_fract_z
Si Si1 0.645129 0.441715 0.344808
Si Si2 0.985103 0.151359 0.839512
Si Si3 0.477703 0.003265 0.710639
Si Si4 0.226843 0.220370 0.127830
Si Si5 0.160704 0.495210 0.612029
Si Si6 0.231942 0.160071 0.728978
O O1 0.500000 0.500000 0.500000
O O2 0.627311 0.194479 0.215699
O O3 0.688938 0.494291 0.490347
O O4 0.753303 0.598357 0.205620
O O5 0.059777 0.312935 0.717273
O O6 0.101443 0.060378 0.742445
O O7 0.883812 0.970298 0.788177
O O8 0.897992 0.289602 0.143811
O O9 0.630543 0.960684 0.551835
O O10 0.500000 0.000000 0.500000
O O11 0.384904 0.192924 0.965311
O O12 0.179824 0.431364 0.379104
O O13 0.220961 0.185847 0.936377
#
# Coordination Sequence:
#
# PCOD9101251 Si02
#       6
#     2   2   2   2   2   2
#     4   9  17  37  58  77 117 150 180 230 289 327
#     4  10  20  38  58  80 122 150 184 235 287 329
#     4   9  18  35  60  82 112 149 186 232 282 332
#     4  11  20  36  62  86 112 147 199 230 274 342
#     4  10  21  35  61  87 109 153 192 232 283 335
#     4   9  20  35  58  84 116 155 181 232 291 330
#
# _framework density 21.894532000000002
#
# number of rings (size 3 to 8) (size 9 to 14) (size 15 to 20)
#    0.000    2.333    1.667    1.000    0.000    0.667 
#    0.000   15.000    7.333    0.000    0.000    0.000 
#    0.000    0.000    0.000    0.000    0.000    0.000 
#
# Total GULP energy -66807.202780 kJ/mol
# GULP energy per Si atom -5567.266898 kJ/mol
# Density = 2.184470 g / cm^3
# Si number density = 21.894532 Si / 1000 Ang^3
#
#
#
# Elastic Constant Matrix: (Units=GPa)
#
#
# Indices 1 2 3 4 5 6 
#
# 1 84.8931 1.5915 35.5049 1.5991 -30.1735 6.9587
# 2 1.5915 26.5297 5.3665 1.1319 -3.6185 -4.9387
# 3 35.5049 5.3665 86.7065 16.6574 -6.0595 15.6817
# 4 1.5991 1.1319 16.6574 18.4590 2.4457 0.5476
# 5 -30.1735 -3.6185 -6.0595 2.4457 21.0013 -1.3874
# 6 6.9587 -4.9387 15.6817 0.5476 -1.3874 23.4340
#
#
#
# Elastic Compliance Matrix: (Units=1/GPa)
#
#
# Indices 1 2 3 4 5 6 
#
# 1 0.031187 0.006415 -0.010631 0.000767 0.042870 0.001726
# 2 0.006415 0.043049 -0.006499 0.000240 0.015553 0.012432
# 3 -0.010631 -0.006499 0.020955 -0.015989 -0.009306 -0.012413
# 4 0.000767 0.000240 -0.015989 0.069741 -0.011047 0.008239
# 5 0.042870 0.015553 -0.009306 -0.011047 0.110727 0.003589
# 6 0.001726 0.012432 -0.012413 0.008239 0.003589 0.053107
#
#
# Mechanical properties :
#
#
# Convention : Reuss Voigt Hill
#
# Bulk Modulus (GPa) = 13.55723 31.45057 22.50390
# Shear Modulus (GPa) = 13.34108 22.95663 18.14885
#
# Velocity S-wave (km/s) = 2.47115 3.24158 2.88222
# Velocity P-wave (km/s) = 3.78782 5.32975 4.62352
#
# Compressibility (1/GPa) = 0.07376136
#
# Stress axis : x y z
#
# Youngs Moduli (GPa) = 32.06479 23.22950 47.72130
#
# Poissons Ratio (x) = -0.14903 0.50733
# Poissons Ratio (y) = -0.20571 0.31014
# Poissons Ratio (z) = 0.34088 0.15097
#
# Static dielectric constant tensor:
#      x y z
#    x 1.810270 0.001750 -0.054180 
#    y 0.001750 1.877120 -0.052600 
#    z -0.054180 -0.052600 1.802560 
# 
# From -- ./inp_files/22634.got.cif
#   From: 2010.05.17/outbox.cif.g08.bks.cpg/sg2_12_cif.got.tgz:22634.got - 2010.06.03 11:33:40.
