data_PCOD9101664
_publ_section_title
;
Structure prediction by ZEFSAII (Michael W. Deem and Ramdas Pophale) SiO2 
 PCOD9101664
Probable space group: P -1
;
_chemical_formula_sum "Si O2"
_cell_formula_units_Z 16
_cell_length_a 8.476152
_cell_length_b 17.548721
_cell_length_c 8.926160
_cell_angle_alpha 93.242179
_cell_angle_beta 133.527556
_cell_angle_gamma 60.738586
_cell_volume 753.005418
_symmetry_space_group_name_H-M "P -1"
_symmetry_group_IT_number 2
_symmetry_cell_setting 'triclinic'
loop_
_space_group_symop_operation_xyz
x,y,z
-x,-y,-z
loop_
_atom_site_type_symbol
_atom_site_label
_atom_site_fract_x
_atom_site_fract_y
_atom_site_fract_z
Si Si1 0.468770 0.773282 0.334924
Si Si2 0.245029 0.444746 0.777150
Si Si3 0.081606 0.225621 0.483883
Si Si4 0.308820 0.879918 0.541715
Si Si5 0.516307 0.678728 0.810386
Si Si6 0.081856 0.395392 0.176760
Si Si7 0.705363 0.977437 0.262939
Si Si8 0.825980 0.299984 0.000586
O O1 0.663296 0.770561 0.336941
O O2 0.366364 0.855875 0.401120
O O3 0.678851 0.674674 0.554043
O O4 0.230208 0.768024 0.123864
O O5 0.525260 0.397267 0.864059
O O6 0.000000 0.500000 0.500000
O O7 0.157222 0.521204 0.861169
O O8 0.338448 0.352884 0.934710
O O9 0.194672 0.119486 0.595858
O O10 0.777750 0.303130 0.371226
O O11 0.000899 0.245513 0.258470
O O12 0.429018 0.780726 0.700682
O O13 0.979172 0.951876 0.360146
O O14 0.418131 0.933376 0.693844
O O15 0.745509 0.596841 0.835049
O O16 0.978126 0.338480 0.028211
O O17 0.500000 0.000000 0.000000
#
# Coordination Sequence:
#
# PCOD9101664 Si02
#       8
#     2   2   2   2   2   2   2   2
#     4  10  20  38  62  87 120 158 201 243 299 359
#     4  11  20  36  61  89 122 158 204 249 299 354
#     4   9  21  38  60  90 117 157 198 247 299 359
#     4   9  21  39  59  88 121 155 197 245 294 364
#     4   9  20  39  61  85 125 156 197 250 301 352
#     4  10  20  38  60  87 121 161 203 250 294 358
#     4  10  21  39  60  86 119 155 198 245 299 354
#     4  10  21  38  61  85 124 159 195 249 303 351
#
# _framework density 21.248187999999999
#
# number of rings (size 3 to 8) (size 9 to 14) (size 15 to 20)
#    0.000    2.250    1.250    0.750    0.000    7.500 
#    0.000    6.875    0.000    0.000    0.000    0.000 
#    0.000    0.000    0.000    0.000    0.000    0.000 
#
# Total GULP energy -89078.695528 kJ/mol
# GULP energy per Si atom -5567.418470 kJ/mol
# Density = 2.119983 g / cm^3
# Si number density = 21.248188 Si / 1000 Ang^3
#
#
#
# Elastic Constant Matrix: (Units=GPa)
#
#
# Indices 1 2 3 4 5 6 
#
# 1 95.7433 19.0825 17.3427 16.3713 11.1082 -11.6144
# 2 19.0825 68.9003 38.0318 22.8822 6.6896 -26.1218
# 3 17.3427 38.0318 76.0309 11.9768 15.4108 4.9014
# 4 16.3713 22.8822 11.9768 35.5496 4.6780 -0.4377
# 5 11.1082 6.6896 15.4108 4.6780 14.9704 -3.2206
# 6 -11.6144 -26.1218 4.9014 -0.4377 -3.2206 22.9502
#
#
#
# Elastic Compliance Matrix: (Units=1/GPa)
#
#
# Indices 1 2 3 4 5 6 
#
# 1 0.025248 0.111640 -0.074915 -0.064640 0.063887 0.163577
# 2 0.111640 1.005279 -0.660806 -0.540267 0.622250 1.418844
# 3 -0.074915 -0.660806 0.452503 0.352028 -0.427144 -0.939906
# 4 -0.064640 -0.540267 0.352028 0.322128 -0.338041 -0.764117
# 5 0.063887 0.622250 -0.427144 -0.338041 0.478687 0.892524
# 6 0.163577 1.418844 -0.939906 -0.764117 0.892524 2.052682
#
#
# Mechanical properties :
#
#
# Convention : Reuss Voigt Hill
#
# Bulk Modulus (GPa) = 4.25775 43.28761 23.77268
# Shear Modulus (GPa) = 0.88293 25.77521 13.32907
#
# Velocity S-wave (km/s) = 0.64532 3.48667 2.50732
# Velocity P-wave (km/s) = 1.60107 6.05192 4.42658
#
# Compressibility (1/GPa) = 0.23486609
#
# Stress axis : x y z
#
# Youngs Moduli (GPa) = 39.60780 0.99475 2.20993
#
# Poissons Ratio (x) = -0.11105 0.16556
# Poissons Ratio (y) = -4.42181 1.46034
# Poissons Ratio (z) = 2.96721 0.65734
#
# Static dielectric constant tensor:
#      x y z
#    x 1.830150 0.004620 0.021290 
#    y 0.004620 1.848500 0.003990 
#    z 0.021290 0.003990 1.757450 
# 
# From -- ./inp_files/116817.got.cif
#   From: 2010.05.17/outbox.cif.g08.bks.cpg/sg2_59_cif.got.tgz:116817.got - 2010.06.03 11:33:40.
