data_PCOD9101888
_publ_section_title
;
Structure prediction by ZEFSAII (Michael W. Deem and Ramdas Pophale) SiO2 
 PCOD9101888
Probable space group: P -1
;
_chemical_formula_sum "Si O2"
_cell_formula_units_Z 16
_cell_length_a 9.510391
_cell_length_b 6.597301
_cell_length_c 13.165038
_cell_angle_alpha 88.380374
_cell_angle_beta 92.449546
_cell_angle_gamma 46.739874
_cell_volume 599.110823
_symmetry_space_group_name_H-M "P -1"
_symmetry_group_IT_number 2
_symmetry_cell_setting 'triclinic'
loop_
_space_group_symop_operation_xyz
x,y,z
-x,-y,-z
loop_
_atom_site_type_symbol
_atom_site_label
_atom_site_fract_x
_atom_site_fract_y
_atom_site_fract_z
Si Si1 0.966887 0.401856 0.898873
Si Si2 0.632098 0.551268 0.967312
Si Si3 0.319426 0.448384 0.802987
Si Si4 0.086679 0.243775 0.280635
Si Si5 0.265122 0.477448 0.485963
Si Si6 0.556172 0.399536 0.655304
Si Si7 0.346224 0.978516 0.784961
Si Si8 0.861352 0.781469 0.413201
O O1 0.844054 0.327175 0.928484
O O2 0.862224 0.661641 0.814186
O O3 0.158936 0.145434 0.850164
O O4 0.000000 0.500000 0.000000
O O5 0.517351 0.772057 0.871240
O O6 0.500000 0.500000 0.000000
O O7 0.662914 0.622035 0.077291
O O8 0.465972 0.471173 0.765123
O O9 0.372990 0.188115 0.752154
O O10 0.096076 0.709881 0.764515
O O11 0.992469 0.494042 0.354554
O O12 0.260121 0.936227 0.331115
O O13 0.390515 0.476148 0.573283
O O14 0.353673 0.477980 0.383965
O O15 0.268803 0.234684 0.519062
O O16 0.031064 0.744763 0.470949
O O17 0.271709 0.968191 0.673855
#
# Coordination Sequence:
#
# PCOD9101888 Si02
#       8
#     2   2   2   2   2   2   2   2
#     4  10  20  38  61  86 113 160 203 227 284 365
#     4  12  25  37  60  94 122 153 197 245 296 346
#     4  10  21  40  58  89 123 151 197 245 284 353
#     4  10  21  37  64  86 117 154 201 237 290 351
#     4  10  21  39  62  87 119 153 196 243 300 343
#     4  11  22  37  64  90 114 155 197 245 294 346
#     4  10  21  39  65  83 120 162 195 238 291 354
#     4   9  20  42  59  86 122 154 193 246 292 349
#
# _framework density 26.706243000000001
#
# number of rings (size 3 to 8) (size 9 to 14) (size 15 to 20)
#    0.000    2.000    5.000    1.125    1.750    4.500 
#    0.000    0.000    0.000    0.000    0.000    0.000 
#    0.000    0.000    0.000    0.000    0.000    0.000 
#
# Total GULP energy -89353.546904 kJ/mol
# GULP energy per Si atom -5584.596681 kJ/mol
# Density = 2.664546 g / cm^3
# Si number density = 26.706243 Si / 1000 Ang^3
#
#
#
# Elastic Constant Matrix: (Units=GPa)
#
#
# Indices 1 2 3 4 5 6 
#
# 1 178.1645 39.3483 52.6336 1.5908 -31.0225 -41.5771
# 2 39.3483 61.5813 43.4553 -7.9345 0.8869 -21.9457
# 3 52.6336 43.4553 153.0025 -20.3559 -7.0692 -13.0847
# 4 1.5908 -7.9345 -20.3559 27.1796 -8.4527 -0.7749
# 5 -31.0225 0.8869 -7.0692 -8.4527 57.2682 9.0676
# 6 -41.5771 -21.9457 -13.0847 -0.7749 9.0676 33.8626
#
#
#
# Elastic Compliance Matrix: (Units=1/GPa)
#
#
# Indices 1 2 3 4 5 6 
#
# 1 0.009093 -0.001606 -0.001964 -0.001241 0.003181 0.008484
# 2 -0.001606 0.026742 -0.005609 0.002924 -0.003806 0.014278
# 3 -0.001964 -0.005609 0.009434 0.005929 0.001484 -0.002663
# 4 -0.001241 0.002924 0.005929 0.044148 0.006213 0.002009
# 5 0.003181 -0.003806 0.001484 0.006213 0.020889 -0.003438
# 6 0.008484 0.014278 -0.002663 0.002009 -0.003438 0.049139
#
#
# Mechanical properties :
#
#
# Convention : Reuss Voigt Hill
#
# Bulk Modulus (GPa) = 37.15905 73.73584 55.44744
# Shear Modulus (GPa) = 26.77041 40.81615 33.79328
#
# Velocity S-wave (km/s) = 3.16951 3.91364 3.56106
# Velocity P-wave (km/s) = 5.22863 6.93484 6.14128
#
# Compressibility (1/GPa) = 0.02691135
#
# Stress axis : x y z
#
# Youngs Moduli (GPa) = 109.97826 37.39375 105.99786
#
# Poissons Ratio (x) = 0.06006 0.20822
# Poissons Ratio (y) = 0.17663 0.59450
# Poissons Ratio (z) = 0.21604 0.20973
#
# Static dielectric constant tensor:
#      x y z
#    x 2.129900 0.061440 0.075450 
#    y 0.061440 2.149810 0.038290 
#    z 0.075450 0.038290 2.197410 
# 
# From -- ./inp_files/200623.got.cif
#   From: 2010.05.17/outbox.cif.g08.bks.cpg/sg2_101_cif.got.tgz:200623.got - 2010.06.03 11:33:40.
