data_PCOD9101827
_publ_section_title
;
Structure prediction by ZEFSAII (Michael W. Deem and Ramdas Pophale) SiO2 
 PCOD9101827
Probable space group: P -1
;
_chemical_formula_sum "Si O2"
_cell_formula_units_Z 12
_cell_length_a 13.093849
_cell_length_b 10.859694
_cell_length_c 6.948367
_cell_angle_alpha 66.570035
_cell_angle_beta 98.790784
_cell_angle_gamma 146.713363
_cell_volume 464.838653
_symmetry_space_group_name_H-M "P -1"
_symmetry_group_IT_number 2
_symmetry_cell_setting 'triclinic'
loop_
_space_group_symop_operation_xyz
x,y,z
-x,-y,-z
loop_
_atom_site_type_symbol
_atom_site_label
_atom_site_fract_x
_atom_site_fract_y
_atom_site_fract_z
Si Si1 0.160053 0.705049 0.089146
Si Si2 0.819152 0.906111 0.480069
Si Si3 0.417144 0.549326 0.056400
Si Si4 0.869410 0.106419 0.730196
Si Si5 0.227253 0.306295 0.745067
Si Si6 0.399493 0.721730 0.259339
O O1 0.071974 0.707498 0.225636
O O2 0.255037 0.688362 0.253954
O O3 0.000000 0.500000 0.000000
O O4 0.365916 0.985226 0.870614
O O5 0.781113 0.843987 0.281406
O O6 0.864051 0.090052 0.501413
O O7 0.632968 0.628362 0.704420
O O8 0.000000 0.000000 0.500000
O O9 0.305501 0.396297 0.925033
O O10 0.642583 0.831029 0.896718
O O11 0.337188 0.590452 0.117207
O O12 0.013860 0.142612 0.791134
O O13 0.357541 0.559457 0.502691
#
# Coordination Sequence:
#
# PCOD9101827 Si02
#       6
#     2   2   2   2   2   2
#     4  10  20  38  61  82 114 154 189 236 287 330
#     4   9  20  38  58  87 119 145 187 238 280 339
#     4  10  20  38  61  84 116 151 185 233 287 337
#     4  10  21  36  57  87 114 145 193 235 275 341
#     4  10  21  38  60  84 116 153 184 231 291 336
#     4   9  21  39  57  86 117 144 192 239 276 338
#
# _framework density 25.81541
#
# number of rings (size 3 to 8) (size 9 to 14) (size 15 to 20)
#    0.000    2.333    0.000    1.500    0.000    5.333 
#    0.000   23.333    0.000    0.000    0.000    0.000 
#    0.000    0.000    0.000    0.000    0.000    0.000 
#
# Total GULP energy -67072.664469 kJ/mol
# GULP energy per Si atom -5589.388706 kJ/mol
# Density = 2.575665 g / cm^3
# Si number density = 25.815410 Si / 1000 Ang^3
#
#
#
# Elastic Constant Matrix: (Units=GPa)
#
#
# Indices 1 2 3 4 5 6 
#
# 1 112.5834 26.5528 44.6668 31.1038 -30.2102 -14.9304
# 2 26.5528 154.4402 66.8726 31.0131 -18.4293 -4.6207
# 3 44.6668 66.8726 142.1043 32.8993 -22.2022 -10.2069
# 4 31.1038 31.0131 32.8993 70.9202 -9.6122 -13.4491
# 5 -30.2102 -18.4293 -22.2022 -9.6122 49.4520 10.9366
# 6 -14.9304 -4.6207 -10.2069 -13.4491 10.9366 36.0683
#
#
#
# Elastic Compliance Matrix: (Units=1/GPa)
#
#
# Indices 1 2 3 4 5 6 
#
# 1 0.012375 0.000243 -0.002213 -0.003452 0.005648 0.001528
# 2 0.000243 0.008510 -0.003389 -0.002246 0.001604 -0.001092
# 3 -0.002213 -0.003389 0.010025 -0.001941 0.001436 0.000327
# 4 -0.003452 -0.002246 -0.001941 0.018251 -0.001365 0.004953
# 5 0.005648 0.001604 0.001436 -0.001365 0.025842 -0.005395
# 6 0.001528 -0.001092 0.000327 0.004953 -0.005395 0.031793
#
#
# Mechanical properties :
#
#
# Convention : Reuss Voigt Hill
#
# Bulk Modulus (GPa) = 49.52350 76.14582 62.83466
# Shear Modulus (GPa) = 40.24306 49.35715 44.80011
#
# Velocity S-wave (km/s) = 3.95255 4.37730 4.17033
# Velocity P-wave (km/s) = 6.32894 7.42348 6.89795
#
# Compressibility (1/GPa) = 0.02019243
#
# Stress axis : x y z
#
# Youngs Moduli (GPa) = 80.81017 117.50347 99.75116
#
# Poissons Ratio (x) = -0.02861 0.22074
# Poissons Ratio (y) = -0.01968 0.33809
# Poissons Ratio (z) = 0.17882 0.39826
#
# Static dielectric constant tensor:
#      x y z
#    x 2.115620 0.000640 0.024800 
#    y 0.000640 2.095740 -0.048190 
#    z 0.024800 -0.048190 2.084400 
# 
# From -- ./inp_files/94975.got.cif
#   From: 2010.05.17/outbox.cif.g08.bks.cpg/sg2_48_cif.got.tgz:94975.got - 2010.06.03 11:33:40.
