data_PCOD9101845
_publ_section_title
;
Structure prediction by ZEFSAII (Michael W. Deem and Ramdas Pophale) SiO2 
 PCOD9101845
Probable space group: P -1
;
_chemical_formula_sum "Si O2"
_cell_formula_units_Z 14
_cell_length_a 7.649879
_cell_length_b 14.783733
_cell_length_c 14.746587
_cell_angle_alpha 20.093090
_cell_angle_beta 94.061164
_cell_angle_gamma 91.477550
_cell_volume 567.459642
_symmetry_space_group_name_H-M "P -1"
_symmetry_group_IT_number 2
_symmetry_cell_setting 'triclinic'
loop_
_space_group_symop_operation_xyz
x,y,z
-x,-y,-z
loop_
_atom_site_type_symbol
_atom_site_label
_atom_site_fract_x
_atom_site_fract_y
_atom_site_fract_z
Si Si1 0.093219 0.978439 0.206325
Si Si2 0.737883 0.215893 0.788402
Si Si3 0.630167 0.450460 0.923447
Si Si4 0.112971 0.710164 0.761962
Si Si5 0.526749 0.078805 0.631754
Si Si6 0.973954 0.554453 0.721085
Si Si7 0.649801 0.777039 0.324145
O O1 0.134059 0.885355 0.193070
O O2 0.276835 0.926500 0.318379
O O3 0.961871 0.804988 0.417425
O O4 0.043364 0.291716 0.916662
O O5 0.759538 0.505989 0.551493
O O6 0.541370 0.221441 0.733664
O O7 0.736021 0.023233 0.055325
O O8 0.519448 0.736627 0.631659
O O9 0.805103 0.477969 0.842955
O O10 0.704849 0.350740 0.118677
O O11 0.521986 0.217323 0.105015
O O12 0.109148 0.633265 0.729321
O O13 0.000000 0.000000 0.500000
O O14 0.000000 0.500000 0.000000
O O15 0.404683 0.205311 0.590190
#
# Coordination Sequence:
#
# PCOD9101845 Si02
#       7
#     2   2   2   2   2   2   2
#     4  11  22  37  59  89 119 146 188 243 291 332
#     4   9  17  31  53  79 108 147 191 229 269 330
#     4  11  22  39  61  84 113 153 194 233 282 343
#     4  10  20  38  61  84 109 150 201 232 263 340
#     4  11  22  37  59  89 119 146 188 243 291 332
#     4  11  22  39  61  84 113 153 194 233 282 343
#     4   9  17  31  53  79 108 147 191 229 269 330
#
# _framework density 24.671358000000001
#
# number of rings (size 3 to 8) (size 9 to 14) (size 15 to 20)
#    0.000    1.714    0.000    6.857    0.000    4.571 
#    0.000    4.286    0.000   17.143    0.000    0.000 
#    0.000    0.000    0.000    0.000    0.000    0.000 
#
# Total GULP energy -78367.902107 kJ/mol
# GULP energy per Si atom -5597.707293 kJ/mol
# Density = 2.461521 g / cm^3
# Si number density = 24.671358 Si / 1000 Ang^3
#
#
#
# Elastic Constant Matrix: (Units=GPa)
#
#
# Indices 1 2 3 4 5 6 
#
# 1 96.9960 12.5798 12.4315 7.8636 -0.8751 12.4272
# 2 12.5798 83.5061 55.4639 15.6595 -11.5042 5.3871
# 3 12.4315 55.4639 149.5793 5.6486 5.8596 16.7662
# 4 7.8636 15.6595 5.6486 51.4678 6.6157 0.7072
# 5 -0.8751 -11.5042 5.8596 6.6157 35.5453 8.5820
# 6 12.4272 5.3871 16.7662 0.7072 8.5820 19.8009
#
#
#
# Elastic Compliance Matrix: (Units=1/GPa)
#
#
# Indices 1 2 3 4 5 6 
#
# 1 0.011590 -0.000685 0.000185 -0.001771 0.002341 -0.008195
# 2 -0.000685 0.019248 -0.006904 -0.006132 0.009146 -0.002706
# 3 0.000185 -0.006904 0.009897 0.001422 -0.002810 -0.005451
# 4 -0.001771 -0.006132 0.001422 0.022303 -0.007374 0.003975
# 5 0.002341 0.009146 -0.002810 -0.007374 0.037196 -0.017436
# 6 -0.008195 -0.002706 -0.005451 0.003975 -0.017436 0.068413
#
#
# Mechanical properties :
#
#
# Convention : Reuss Voigt Hill
#
# Bulk Modulus (GPa) = 38.57052 54.55908 46.56480
# Shear Modulus (GPa) = 26.02839 38.00320 32.01580
#
# Velocity S-wave (km/s) = 3.25161 3.92902 3.60626
# Velocity P-wave (km/s) = 5.45572 6.53799 6.02122
#
# Compressibility (1/GPa) = 0.02592653
#
# Stress axis : x y z
#
# Youngs Moduli (GPa) = 86.28453 51.95283 101.03747
#
# Poissons Ratio (x) = 0.03560 -0.01865
# Poissons Ratio (y) = 0.05912 0.69753
# Poissons Ratio (z) = -0.01593 0.35867
#
# Static dielectric constant tensor:
#      x y z
#    x 2.014870 0.084930 0.075580 
#    y 0.084930 1.952720 0.052240 
#    z 0.075580 0.052240 1.870680 
# 
# From -- ./inp_files/106265.got.cif
#   From: 2010.05.17/outbox.cif.g08.bks.cpg/sg2_54_cif.got.tgz:106265.got - 2010.06.03 11:33:40.
