data_PCOD9101252
_publ_section_title
;
Structure prediction by ZEFSAII (Michael W. Deem and Ramdas Pophale) SiO2 
 PCOD9101252
Probable space group: P -1
;
_chemical_formula_sum "Si O2"
_cell_formula_units_Z 16
_cell_length_a 27.495468
_cell_length_b 21.053705
_cell_length_c 10.545398
_cell_angle_alpha 142.234854
_cell_angle_beta 29.740013
_cell_angle_gamma 162.657182
_cell_volume 871.907280
_symmetry_space_group_name_H-M "P -1"
_symmetry_group_IT_number 2
_symmetry_cell_setting 'triclinic'
loop_
_space_group_symop_operation_xyz
x,y,z
-x,-y,-z
loop_
_atom_site_type_symbol
_atom_site_label
_atom_site_fract_x
_atom_site_fract_y
_atom_site_fract_z
Si Si1 0.019187 0.350036 0.687939
Si Si2 0.990109 0.085670 0.754966
Si Si3 0.343598 0.836154 0.711298
Si Si4 0.069049 0.919240 0.700147
Si Si5 0.749601 0.729302 0.300274
Si Si6 0.467202 0.883222 0.782325
Si Si7 0.815981 0.567021 0.296499
Si Si8 0.358092 0.173802 0.685814
O O1 0.194449 0.598029 0.648644
O O2 0.112122 0.367378 0.618090
O O3 0.959396 0.223700 0.506358
O O4 0.815710 0.217829 0.993234
O O5 0.163948 0.232966 0.703176
O O6 0.022831 0.225100 0.829244
O O7 0.000000 0.000000 0.500000
O O8 0.771911 0.891004 0.014324
O O9 0.454251 0.918861 0.727139
O O10 0.500000 0.000000 0.500000
O O11 0.146184 0.061577 0.633470
O O12 0.247050 0.095136 0.681240
O O13 0.855458 0.760474 0.997008
O O14 0.500000 0.500000 0.500000
O O15 0.252166 0.615672 0.867984
O O16 0.634947 0.945749 0.504269
O O17 0.500000 0.000000 0.000000
O O18 0.600230 0.427868 0.546707
#
# Coordination Sequence:
#
# PCOD9101252 Si02
#       8
#     2   2   2   2   2   2   2   2
#     4  10  21  37  59  84 115 152 191 235 293 341
#     4  11  22  37  57  85 114 149 190 235 284 338
#     4  10  22  38  58  88 119 148 196 243 285 352
#     4  10  20  38  58  81 115 152 187 238 287 336
#     4  10  22  37  56  85 115 146 195 237 279 347
#     4   9  19  40  60  81 115 156 186 234 295 337
#     4   9  21  36  58  82 117 146 191 232 281 346
#     4   9  21  37  57  81 117 144 197 229 281 350
#
# _framework density 18.350574000000002
#
# number of rings (size 3 to 8) (size 9 to 14) (size 15 to 20)
#    0.750    1.500    0.000    2.250    1.750    2.500 
#    4.500    0.625    0.000    0.000    0.000    0.000 
#    0.000    0.000    0.000    0.000    0.000    0.000 
#
# Total GULP energy -89145.514246 kJ/mol
# GULP energy per Si atom -5571.594640 kJ/mol
# Density = 1.830881 g / cm^3
# Si number density = 18.350574 Si / 1000 Ang^3
#
#
#
# Elastic Constant Matrix: (Units=GPa)
#
#
# Indices 1 2 3 4 5 6 
#
# 1 57.5306 12.2334 12.1041 -6.4065 5.4260 -9.2747
# 2 12.2334 43.6464 30.5418 1.2523 13.7284 -10.7546
# 3 12.1041 30.5418 72.3145 3.1826 5.2314 -7.3663
# 4 -6.4065 1.2523 3.1826 30.6459 5.3547 -1.9962
# 5 5.4260 13.7284 5.2314 5.3547 23.0900 -8.0813
# 6 -9.2747 -10.7546 -7.3663 -1.9962 -8.0813 16.4754
#
#
#
# Elastic Compliance Matrix: (Units=1/GPa)
#
#
# Indices 1 2 3 4 5 6 
#
# 1 0.020405 -0.001907 -0.001792 0.005353 -0.001165 0.009518
# 2 -0.001907 0.042626 -0.015357 0.003378 -0.018226 0.011354
# 3 -0.001792 -0.015357 0.020379 -0.002838 0.005795 0.000577
# 4 0.005353 0.003378 -0.002838 0.035831 -0.009696 0.003535
# 5 -0.001165 -0.018226 0.005795 -0.009696 0.062121 0.019334
# 6 0.009518 0.011354 0.000577 0.003535 0.019334 0.083636
#
#
# Mechanical properties :
#
#
# Convention : Reuss Voigt Hill
#
# Bulk Modulus (GPa) = 22.07634 31.47222 26.77428
# Shear Modulus (GPa) = 15.71292 21.94972 18.83132
#
# Velocity S-wave (km/s) = 2.92937 3.46227 3.20691
# Velocity P-wave (km/s) = 4.84748 5.75941 5.32301
#
# Compressibility (1/GPa) = 0.04529736
#
# Stress axis : x y z
#
# Youngs Moduli (GPa) = 49.00752 23.46005 49.07040
#
# Poissons Ratio (x) = 0.04474 0.08792
# Poissons Ratio (y) = 0.09347 0.75358
# Poissons Ratio (z) = 0.08781 0.36028
#
# Static dielectric constant tensor:
#      x y z
#    x 1.667130 -0.025680 -0.025110 
#    y -0.025680 1.636040 0.005240 
#    z -0.025110 0.005240 1.606300 
# 
# From -- ./inp_files/357801.got.cif
#   From: 2010.05.17/outbox.cif.g08.bks.cpg/sg2_179_cif.got.tgz:357801.got - 2010.06.03 11:33:40.
