data_PCOD9101026
_publ_section_title
;
Structure prediction by ZEFSAII (Michael W. Deem and Ramdas Pophale) SiO2 
 PCOD9101026
Probable space group: P -1
;
_chemical_formula_sum "Si O2"
_cell_formula_units_Z 16
_cell_length_a 14.255763
_cell_length_b 12.267957
_cell_length_c 9.329072
_cell_angle_alpha 126.216065
_cell_angle_beta 145.630571
_cell_angle_gamma 73.351096
_cell_volume 666.683991
_symmetry_space_group_name_H-M "P -1"
_symmetry_group_IT_number 2
_symmetry_cell_setting 'triclinic'
loop_
_space_group_symop_operation_xyz
x,y,z
-x,-y,-z
loop_
_atom_site_type_symbol
_atom_site_label
_atom_site_fract_x
_atom_site_fract_y
_atom_site_fract_z
Si Si1 0.840663 0.775130 0.924504
Si Si2 0.296542 0.414785 0.747350
Si Si3 0.215382 0.684011 0.836145
Si Si4 0.190410 0.828660 0.205040
Si Si5 0.976623 0.668197 0.259528
Si Si6 0.664608 0.859175 0.532546
Si Si7 0.493919 0.537170 0.686154
Si Si8 0.720991 0.323682 0.574538
O O1 0.744696 0.871685 0.806189
O O2 0.680125 0.603538 0.574058
O O3 0.015967 0.798423 0.064816
O O4 0.892511 0.772684 0.156557
O O5 0.195164 0.515760 0.656280
O O6 0.250336 0.245212 0.516209
O O7 0.500000 0.500000 0.000000
O O8 0.329412 0.431318 0.972565
O O9 0.080844 0.710457 0.575010
O O10 0.160361 0.716158 0.948183
O O11 0.440036 0.784622 0.188139
O O12 0.330881 0.801196 0.466683
O O13 0.262026 0.987958 0.343056
O O14 0.141730 0.688768 0.376206
O O15 0.835341 0.489880 0.921369
O O16 0.500000 0.500000 0.500000
O O17 0.448579 0.678082 0.731085
#
# Coordination Sequence:
#
# PCOD9101026 Si02
#       8
#     2   2   2   2   2   2   2   2
#     4  10  22  44  64  89 134 177 203 257 330 392
#     4  10  20  37  68  94 125 160 223 264 306 364
#     4  11  22  40  66 100 121 161 228 275 296 367
#     4  11  24  40  64  96 132 173 207 257 329 384
#     4   9  20  37  63  91 124 162 209 268 319 361
#     4  11  23  42  69  90 131 176 214 253 318 390
#     4  11  20  38  65  98 124 163 216 272 316 364
#     4   9  19  35  60  87 127 165 204 253 326 379
#
# _framework density 23.999374
#
# number of rings (size 3 to 8) (size 9 to 14) (size 15 to 20)
#    0.000    1.750    2.500    3.750    5.250    0.500 
#    4.500    6.250    0.000    0.000    0.000    0.000 
#    0.000    0.000    0.000    0.000    0.000    0.000 
#
# Total GULP energy -89290.013159 kJ/mol
# GULP energy per Si atom -5580.625822 kJ/mol
# Density = 2.394475 g / cm^3
# Si number density = 23.999374 Si / 1000 Ang^3
#
#
#
# Elastic Constant Matrix: (Units=GPa)
#
#
# Indices 1 2 3 4 5 6 
#
# 1 53.4859 35.9897 29.2878 1.9956 15.5807 5.4198
# 2 35.9897 146.6033 20.9766 -12.4510 18.9455 39.4820
# 3 29.2878 20.9766 41.9813 -29.4108 17.3365 11.1739
# 4 1.9956 -12.4510 -29.4108 45.6723 3.6730 -16.5014
# 5 15.5807 18.9455 17.3365 3.6730 27.3859 -7.7279
# 6 5.4198 39.4820 11.1739 -16.5014 -7.7279 17.5809
#
#
#
# Elastic Compliance Matrix: (Units=1/GPa)
#
#
# Indices 1 2 3 4 5 6 
#
# 1 0.065546 0.023734 -0.069086 -0.081973 -0.033157 -0.121112
# 2 0.023734 -0.000712 -0.058908 -0.038094 0.032252 0.010143
# 3 -0.069086 -0.058908 0.115055 0.142947 0.055501 0.239031
# 4 -0.081973 -0.038094 0.142947 0.174519 0.012499 0.189263
# 5 -0.033157 0.032252 0.055501 0.012499 -0.031898 -0.099773
# 6 -0.121112 0.010143 0.239031 0.189263 -0.099773 0.053301
#
#
# Mechanical properties :
#
#
# Convention : Reuss Voigt Hill
#
# Bulk Modulus (GPa) = -34.92732 46.06428 5.56848
# Shear Modulus (GPa) = 8.69886 28.51557 18.60722
#
# Velocity S-wave (km/s) = 1.90591 3.45074 2.78748
# Velocity P-wave (km/s) = 3.12117 5.92557 3.56165
#
# Compressibility (1/GPa) = -0.02863089
#
# Stress axis : x y z
#
# Youngs Moduli (GPa) = 15.25645 -1405.44825 8.69150
#
# Poissons Ratio (x) = 33.35682 0.60046
# Poissons Ratio (y) = -0.36210 0.51200
# Poissons Ratio (z) = 1.05400 -82.79253
#
# Static dielectric constant tensor:
#      x y z
#    x 1.938720 0.069760 0.011890 
#    y 0.069760 1.396830 -0.080240 
#    z 0.011890 -0.080240 2.033980 
# 
# From -- ./inp_files/305842.got.cif
#   From: 2010.05.17/outbox.cif.g08.bks.cpg/sg2_153_cif.got.tgz:305842.got - 2010.06.03 11:33:40.
