data_PCOD9101735
_publ_section_title
;
Structure prediction by ZEFSAII (Michael W. Deem and Ramdas Pophale) SiO2 
 PCOD9101735
Probable space group: P -1
;
_chemical_formula_sum "Si O2"
_cell_formula_units_Z 16
_cell_length_a 19.866150
_cell_length_b 8.304638
_cell_length_c 21.505551
_cell_angle_alpha 37.960640
_cell_angle_beta 161.499386
_cell_angle_gamma 130.871696
_cell_volume 608.245454
_symmetry_space_group_name_H-M "P -1"
_symmetry_group_IT_number 2
_symmetry_cell_setting 'triclinic'
loop_
_space_group_symop_operation_xyz
x,y,z
-x,-y,-z
loop_
_atom_site_type_symbol
_atom_site_label
_atom_site_fract_x
_atom_site_fract_y
_atom_site_fract_z
Si Si1 0.034920 0.700739 0.522246
Si Si2 0.936707 0.507148 0.620781
Si Si3 0.397770 0.007949 0.573653
Si Si4 0.419961 0.640068 0.230695
Si Si5 0.727336 0.940319 0.417612
Si Si6 0.204709 0.826862 0.108388
Si Si7 0.605687 0.349443 0.932402
Si Si8 0.737412 0.004453 0.681042
O O1 0.071435 0.562427 0.664536
O O2 0.000000 0.500000 0.500000
O O3 0.247106 0.770625 0.664657
O O4 0.790168 0.020932 0.216398
O O5 0.901213 0.706221 0.589955
O O6 0.665446 0.606062 0.326920
O O7 0.062020 0.165968 0.854493
O O8 0.566079 0.649878 0.840037
O O9 0.278221 0.027434 0.397044
O O10 0.230855 0.115429 0.455182
O O11 0.553267 0.181592 0.651180
O O12 0.482943 0.911544 0.204360
O O13 0.310466 0.637912 0.068865
O O14 0.672892 0.336203 0.545400
O O15 0.272367 0.640204 0.161091
O O16 0.022061 0.792153 0.006093
O O17 0.500000 0.000000 0.500000
#
# Coordination Sequence:
#
# PCOD9101735 Si02
#       8
#     2   2   2   2   2   2   2   2
#     4  12  24  34  59  96 129 174 230 269 318 363
#     4  11  21  40  59  91 131 177 220 274 312 368
#     4  10  22  41  67  96 121 175 216 252 335 398
#     4   9  21  41  65  92 125 174 212 255 332 390
#     4  10  21  39  59  86 128 172 215 258 316 382
#     4  11  21  42  68  89 139 170 209 263 331 383
#     4  10  20  38  60  89 129 170 224 265 317 382
#     4  11  24  45  71 100 130 158 212 278 323 395
#
# _framework density 26.30517
#
# number of rings (size 3 to 8) (size 9 to 14) (size 15 to 20)
#    0.000    1.500    3.750    3.000    1.750    1.000 
#    0.000   11.875    0.000    0.000    0.000    0.000 
#    0.000    0.000    0.000    0.000    0.000    0.000 
#
# Total GULP energy -89468.199018 kJ/mol
# GULP energy per Si atom -5591.762439 kJ/mol
# Density = 2.624530 g / cm^3
# Si number density = 26.305170 Si / 1000 Ang^3
#
#
#
# Elastic Constant Matrix: (Units=GPa)
#
#
# Indices 1 2 3 4 5 6 
#
# 1 171.3904 65.4901 34.2338 2.1789 26.8140 -9.9755
# 2 65.4901 145.3881 18.1576 6.7990 19.3502 3.6493
# 3 34.2338 18.1576 69.5803 2.0705 20.6056 3.8612
# 4 2.1789 6.7990 2.0705 39.5368 11.1236 10.8455
# 5 26.8140 19.3502 20.6056 11.1236 44.4191 4.4790
# 6 -9.9755 3.6493 3.8612 10.8455 4.4790 46.8370
#
#
#
# Elastic Compliance Matrix: (Units=1/GPa)
#
#
# Indices 1 2 3 4 5 6 
#
# 1 0.008046 -0.003026 -0.002511 0.000324 -0.002690 0.002339
# 2 -0.003026 0.008525 -0.000205 -0.000576 -0.001546 -0.001011
# 3 -0.002511 -0.000205 0.017739 0.001644 -0.006863 -0.001706
# 4 0.000324 -0.000576 0.001644 0.029016 -0.007364 -0.006036
# 5 -0.002690 -0.001546 -0.006863 -0.007364 0.029944 -0.001045
# 6 0.002339 -0.001011 -0.001706 -0.006036 -0.001045 0.023566
#
#
# Mechanical properties :
#
#
# Convention : Reuss Voigt Hill
#
# Bulk Modulus (GPa) = 43.81189 69.12464 56.46827
# Shear Modulus (GPa) = 36.78414 44.05705 40.42060
#
# Velocity S-wave (km/s) = 3.74352 4.09693 3.92421
# Velocity P-wave (km/s) = 5.94783 6.97960 6.48427
#
# Compressibility (1/GPa) = 0.02282485
#
# Stress axis : x y z
#
# Youngs Moduli (GPa) = 124.29260 117.30310 56.37224
#
# Poissons Ratio (x) = 0.35499 0.14157
# Poissons Ratio (y) = 0.37614 0.01154
# Poissons Ratio (z) = 0.31215 0.02402
#
# Static dielectric constant tensor:
#      x y z
#    x 2.042380 0.071750 -0.009860 
#    y 0.071750 2.140870 0.046250 
#    z -0.009860 0.046250 2.153220 
# 
# From -- ./inp_files/613493.got.cif
#   From: 2010.05.17/outbox.cif.g08.bks.cpg/sg2_307_cif.got.tgz:613493.got - 2010.06.03 11:33:40.
