data_PCOD9101405
_publ_section_title
;
Structure prediction by ZEFSAII (Michael W. Deem and Ramdas Pophale) SiO2 
 PCOD9101405
Probable space group: P -1
;
_chemical_formula_sum "Si O2"
_cell_formula_units_Z 16
_cell_length_a 9.007036
_cell_length_b 9.816039
_cell_length_c 12.387596
_cell_angle_alpha 87.711313
_cell_angle_beta 96.848431
_cell_angle_gamma 139.044991
_cell_volume 710.646983
_symmetry_space_group_name_H-M "P -1"
_symmetry_group_IT_number 2
_symmetry_cell_setting 'triclinic'
loop_
_space_group_symop_operation_xyz
x,y,z
-x,-y,-z
loop_
_atom_site_type_symbol
_atom_site_label
_atom_site_fract_x
_atom_site_fract_y
_atom_site_fract_z
Si Si1 0.449289 0.030062 0.111467
Si Si2 0.924930 0.347676 0.782760
Si Si3 0.155221 0.382900 0.011994
Si Si4 0.825114 0.949335 0.353054
Si Si5 0.617311 0.731294 0.955285
Si Si6 0.326021 0.453542 0.728006
Si Si7 0.908975 0.272644 0.216409
Si Si8 0.637690 0.724385 0.553883
O O1 0.331099 0.866731 0.202010
O O2 0.303895 0.065893 0.078205
O O3 0.700286 0.229826 0.171987
O O4 0.500000 0.000000 0.000000
O O5 0.079822 0.355121 0.724371
O O6 0.922127 0.497741 0.728489
O O7 0.027178 0.386181 0.912277
O O8 0.199356 0.253313 0.994868
O O9 0.028897 0.306427 0.116322
O O10 0.417638 0.617857 0.029691
O O11 0.818676 0.080598 0.277334
O O12 0.728309 0.742413 0.297999
O O13 0.100169 0.125717 0.392572
O O14 0.684497 0.861830 0.456070
O O15 0.477215 0.573939 0.845677
O O16 0.478713 0.639059 0.646542
O O17 0.500000 0.500000 0.500000
#
# Coordination Sequence:
#
# PCOD9101405 Si02
#       8
#     2   2   2   2   2   2   2   2
#     4  12  24  39  61  87 131 182 215 254 314 365
#     4  11  24  38  59  87 131 171 213 260 318 360
#     4  10  20  38  59  83 126 170 217 263 304 355
#     4  10  23  39  70  98 120 165 210 253 326 387
#     4  10  22  38  61  91 124 166 223 266 304 366
#     4  10  21  40  64  93 127 160 206 268 310 374
#     4  12  23  41  60  93 132 166 212 262 309 376
#     4   9  20  43  69  97 127 153 203 265 323 382
#
# _framework density 22.514696000000001
#
# number of rings (size 3 to 8) (size 9 to 14) (size 15 to 20)
#    0.000    1.500    3.750    1.875    3.500    6.500 
#    0.000    0.625    0.000    7.500    0.000    0.000 
#    0.000    0.000    0.000    0.000    0.000    0.000 
#
# Total GULP energy -89153.033941 kJ/mol
# GULP energy per Si atom -5572.064621 kJ/mol
# Density = 2.246345 g / cm^3
# Si number density = 22.514696 Si / 1000 Ang^3
#
#
#
# Elastic Constant Matrix: (Units=GPa)
#
#
# Indices 1 2 3 4 5 6 
#
# 1 76.2117 31.2869 38.0680 -22.3943 5.5890 -8.1750
# 2 31.2869 106.2458 43.9665 -36.3355 4.7899 -5.2833
# 3 38.0680 43.9665 109.3845 -48.7076 -6.7015 -1.5842
# 4 -22.3943 -36.3355 -48.7076 52.6654 1.1778 5.0110
# 5 5.5890 4.7899 -6.7015 1.1778 19.8955 -14.4764
# 6 -8.1750 -5.2833 -1.5842 5.0110 -14.4764 43.4490
#
#
#
# Elastic Compliance Matrix: (Units=1/GPa)
#
#
# Indices 1 2 3 4 5 6 
#
# 1 0.017384 -0.002386 -0.004816 0.001331 -0.005387 0.000857
# 2 -0.002386 0.013292 -0.001824 0.006673 -0.004354 -0.001119
# 3 -0.004816 -0.001824 0.017755 0.012904 0.007361 0.000484
# 4 0.001331 0.006673 0.012904 0.036471 -0.002295 -0.003438
# 5 -0.005387 -0.004354 0.007361 -0.002295 0.072210 0.023049
# 6 0.000857 -0.001119 0.000484 -0.003438 0.023049 0.031134
#
#
# Mechanical properties :
#
#
# Convention : Reuss Voigt Hill
#
# Bulk Modulus (GPa) = 32.91574 57.60940 45.26257
# Shear Modulus (GPa) = 23.10261 35.10335 29.10298
#
# Velocity S-wave (km/s) = 3.20677 3.95287 3.59920
# Velocity P-wave (km/s) = 5.32566 6.81737 6.11715
#
# Compressibility (1/GPa) = 0.03038060
#
# Stress axis : x y z
#
# Youngs Moduli (GPa) = 57.52257 75.23144 56.32125
#
# Poissons Ratio (x) = 0.17948 0.27126
# Poissons Ratio (y) = 0.13723 0.10272
# Poissons Ratio (z) = 0.27704 0.13721
#
# Static dielectric constant tensor:
#      x y z
#    x 1.837110 -0.025250 -0.009600 
#    y -0.025250 1.938990 -0.019680 
#    z -0.009600 -0.019680 1.895890 
# 
# From -- ./inp_files/499063.got.cif
#   From: 2010.05.17/outbox.cif.g08.bks.cpg/sg2_250_cif.got.tgz:499063.got - 2010.06.03 11:33:40.
