data_PCOD9101962
_publ_section_title
;
Structure prediction by ZEFSAII (Michael W. Deem and Ramdas Pophale) SiO2 
 PCOD9101962
Probable space group: P -1
;
_chemical_formula_sum "Si O2"
_cell_formula_units_Z 16
_cell_length_a 12.709924
_cell_length_b 9.219589
_cell_length_c 13.392601
_cell_angle_alpha 138.771543
_cell_angle_beta 50.662293
_cell_angle_gamma 123.576610
_cell_volume 790.936371
_symmetry_space_group_name_H-M "P -1"
_symmetry_group_IT_number 2
_symmetry_cell_setting 'triclinic'
loop_
_space_group_symop_operation_xyz
x,y,z
-x,-y,-z
loop_
_atom_site_type_symbol
_atom_site_label
_atom_site_fract_x
_atom_site_fract_y
_atom_site_fract_z
Si Si1 0.677235 0.646861 0.251015
Si Si2 0.107602 0.585912 0.394997
Si Si3 0.369093 0.876680 0.954593
Si Si4 0.575160 0.368609 0.737054
Si Si5 0.861330 0.909914 0.434889
Si Si6 0.197023 0.420255 0.059321
Si Si7 0.571178 0.800969 0.082566
Si Si8 0.162832 0.883380 0.243531
O O1 0.646579 0.388446 0.167175
O O2 0.534300 0.707243 0.323006
O O3 0.738553 0.789868 0.380976
O O4 0.796604 0.676349 0.107368
O O5 0.261341 0.592453 0.352434
O O6 0.092883 0.438218 0.224589
O O7 0.000000 0.500000 0.500000
O O8 0.097468 0.837375 0.498060
O O9 0.237582 0.945864 0.127201
O O10 0.500000 0.000000 0.000000
O O11 0.385570 0.971607 0.882623
O O12 0.534223 0.605406 0.921670
O O13 0.544163 0.206909 0.767746
O O14 0.000565 0.800873 0.284849
O O15 0.824905 0.925852 0.581707
O O16 0.305549 0.288007 0.979200
O O17 0.231381 0.682466 0.146455
#
# Coordination Sequence:
#
# PCOD9101962 Si02
#       8
#     2   2   2   2   2   2   2   2
#     4  10  20  38  61  89 116 151 201 243 298 338
#     4  10  21  35  61  87 115 156 198 231 285 358
#     4  11  21  32  63  92 113 151 201 242 281 348
#     4   9  18  34  60  84 117 151 190 244 286 348
#     4  10  22  39  62  81 119 162 190 242 301 354
#     4   8  18  36  60  83 112 150 191 236 283 350
#     4   9  17  32  60  89 111 148 195 238 285 333
#     4   9  21  40  60  82 113 158 199 234 298 363
#
# _framework density 20.229185000000001
#
# number of rings (size 3 to 8) (size 9 to 14) (size 15 to 20)
#    0.000    2.500    1.250    0.750    8.750    2.500 
#    0.000    1.250   16.500    0.000    0.000    0.000 
#    0.000    0.000    0.000    0.000    0.000    0.000 
#
# Total GULP energy -89073.051748 kJ/mol
# GULP energy per Si atom -5567.065734 kJ/mol
# Density = 2.018314 g / cm^3
# Si number density = 20.229185 Si / 1000 Ang^3
#
#
#
# Elastic Constant Matrix: (Units=GPa)
#
#
# Indices 1 2 3 4 5 6 
#
# 1 103.6735 25.2833 27.6805 -4.7688 2.3974 -0.8874
# 2 25.2833 87.4168 30.6923 -26.5055 -5.5286 -11.2830
# 3 27.6805 30.6923 44.6254 -19.3176 -8.1662 10.1735
# 4 -4.7688 -26.5055 -19.3176 29.8577 5.1515 -6.1880
# 5 2.3974 -5.5286 -8.1662 5.1515 29.9775 0.0540
# 6 -0.8874 -11.2830 10.1735 -6.1880 0.0540 21.6237
#
#
#
# Elastic Compliance Matrix: (Units=1/GPa)
#
#
# Indices 1 2 3 4 5 6 
#
# 1 0.012581 -0.001037 -0.010388 -0.004310 -0.003293 0.003637
# 2 -0.001037 0.026248 -0.015756 0.018888 -0.002662 0.026478
# 3 -0.010388 -0.015756 0.053218 0.010587 0.010658 -0.030683
# 4 -0.004310 0.018888 0.010587 0.061737 -0.003937 0.022374
# 5 -0.003293 -0.002662 0.010658 -0.003937 0.036725 -0.007757
# 6 0.003637 0.026478 -0.030683 0.022374 -0.007757 0.081068
#
#
# Mechanical properties :
#
#
# Convention : Reuss Voigt Hill
#
# Bulk Modulus (GPa) = 26.53765 44.78086 35.65925
# Shear Modulus (GPa) = 14.77099 26.42907 20.60003
#
# Velocity S-wave (km/s) = 2.70512 3.61845 3.19459
# Velocity P-wave (km/s) = 4.78580 6.29622 5.59224
#
# Compressibility (1/GPa) = 0.03768231
#
# Stress axis : x y z
#
# Youngs Moduli (GPa) = 79.48295 38.09877 18.79079
#
# Poissons Ratio (x) = 0.03952 0.19521
# Poissons Ratio (y) = 0.08244 0.29608
# Poissons Ratio (z) = 0.82571 0.60030
#
# Static dielectric constant tensor:
#      x y z
#    x 1.757340 0.000690 -0.015270 
#    y 0.000690 1.715170 -0.021550 
#    z -0.015270 -0.021550 1.782630 
# 
# From -- ./inp_files/418391.got.cif
#   From: 2010.05.17/outbox.cif.g08.bks.cpg/sg2_210_cif.got.tgz:418391.got - 2010.06.03 11:33:40.
