data_PCOD9101719
_publ_section_title
;
Structure prediction by ZEFSAII (Michael W. Deem and Ramdas Pophale) SiO2 
 PCOD9101719
Probable space group: P -1
;
_chemical_formula_sum "Si O2"
_cell_formula_units_Z 16
_cell_length_a 8.986940
_cell_length_b 10.127980
_cell_length_c 8.842804
_cell_angle_alpha 111.045660
_cell_angle_beta 126.566401
_cell_angle_gamma 81.552442
_cell_volume 600.904505
_symmetry_space_group_name_H-M "P -1"
_symmetry_group_IT_number 2
_symmetry_cell_setting 'triclinic'
loop_
_space_group_symop_operation_xyz
x,y,z
-x,-y,-z
loop_
_atom_site_type_symbol
_atom_site_label
_atom_site_fract_x
_atom_site_fract_y
_atom_site_fract_z
Si Si1 0.481511 0.985619 0.765418
Si Si2 0.161809 0.975833 0.201116
Si Si3 0.743224 0.264413 0.655758
Si Si4 0.863978 0.877301 0.446770
Si Si5 0.388292 0.379167 0.484836
Si Si6 0.655677 0.449294 0.190635
Si Si7 0.925502 0.596474 0.220016
Si Si8 0.360403 0.250098 0.098604
O O1 0.634691 0.025835 0.747037
O O2 0.341929 0.850475 0.567154
O O3 0.609225 0.918026 0.941833
O O4 0.342511 0.109399 0.740685
O O5 0.157049 0.091002 0.377572
O O6 0.128658 0.823655 0.199530
O O7 0.000000 0.000000 0.000000
O O8 0.559577 0.309522 0.641364
O O9 0.871101 0.399498 0.726577
O O10 0.940839 0.728026 0.400640
O O11 0.000000 0.000000 0.500000
O O12 0.500000 0.500000 0.500000
O O13 0.287712 0.444546 0.590728
O O14 0.313440 0.278825 0.260972
O O15 0.834149 0.456911 0.190855
O O16 0.555250 0.317430 0.167983
O O17 0.500000 0.500000 0.000000
O O18 0.786541 0.661707 0.042467
#
# Coordination Sequence:
#
# PCOD9101719 Si02
#       8
#     2   2   2   2   2   2   2   2
#     4  10  21  37  63  83 124 164 203 248 304 368
#     4  11  23  40  59  90 125 161 211 252 294 376
#     4  10  20  38  60  89 123 162 199 246 309 366
#     4  11  22  39  58  88 127 163 200 247 314 354
#     4   9  19  39  64  83 113 160 205 246 303 364
#     4   9  20  38  61  87 117 151 201 252 300 352
#     4  11  21  37  62  88 126 158 198 258 302 360
#     4   9  20  39  58  88 117 158 211 245 300 361
#
# _framework density 26.626525000000001
#
# number of rings (size 3 to 8) (size 9 to 14) (size 15 to 20)
#    0.000    2.000    2.500    2.250    5.250    0.500 
#    0.000   11.250    0.000    0.000    0.000    0.000 
#    0.000    0.000    0.000    0.000    0.000    0.000 
#
# Total GULP energy -89314.466534 kJ/mol
# GULP energy per Si atom -5582.154158 kJ/mol
# Density = 2.656592 g / cm^3
# Si number density = 26.626525 Si / 1000 Ang^3
#
#
#
# Elastic Constant Matrix: (Units=GPa)
#
#
# Indices 1 2 3 4 5 6 
#
# 1 106.6747 8.6480 31.2264 -4.8401 16.5067 28.1147
# 2 8.6480 48.8852 4.7370 -9.8815 -5.0116 17.2015
# 3 31.2264 4.7370 103.7654 -33.0172 -5.0962 5.9883
# 4 -4.8401 -9.8815 -33.0172 37.3224 9.1488 1.8521
# 5 16.5067 -5.0116 -5.0962 9.1488 36.2098 1.2238
# 6 28.1147 17.2015 5.9883 1.8521 1.2238 48.6811
#
#
#
# Elastic Compliance Matrix: (Units=1/GPa)
#
#
# Indices 1 2 3 4 5 6 
#
# 1 0.013389 -0.000131 -0.003863 0.000224 -0.006483 -0.007057
# 2 -0.000131 0.025642 0.002331 0.008814 0.002036 -0.009659
# 3 -0.003863 0.002331 0.014997 0.013213 0.000889 -0.000962
# 4 0.000224 0.008814 0.013213 0.043042 -0.007684 -0.006313
# 5 -0.006483 0.002036 0.000889 -0.007684 0.032840 0.002382
# 6 -0.007057 -0.009659 -0.000962 -0.006313 0.002382 0.028329
#
#
# Mechanical properties :
#
#
# Convention : Reuss Voigt Hill
#
# Bulk Modulus (GPa) = 19.72323 38.72757 29.22540
# Shear Modulus (GPa) = 28.01663 38.75694 33.38678
#
# Velocity S-wave (km/s) = 3.24729 3.81934 3.54487
# Velocity P-wave (km/s) = 4.63501 5.83319 5.26828
#
# Compressibility (1/GPa) = 0.05070163
#
# Stress axis : x y z
#
# Youngs Moduli (GPa) = 74.68856 38.99792 66.68154
#
# Poissons Ratio (x) = 0.00509 0.25761
# Poissons Ratio (y) = 0.00976 -0.15542
# Poissons Ratio (z) = 0.28854 -0.09089
#
# Static dielectric constant tensor:
#      x y z
#    x 2.114650 -0.014810 -0.037180 
#    y -0.014810 2.123920 0.050940 
#    z -0.037180 0.050940 2.201450 
# 
# From -- ./inp_files/188934.got.cif
#   From: 2010.05.17/outbox.cif.g08.bks.cpg/sg2_95_cif.got.tgz:188934.got - 2010.06.03 11:33:40.
