data_PCOD9101977
_publ_section_title
;
Structure prediction by ZEFSAII (Michael W. Deem and Ramdas Pophale) SiO2 
 PCOD9101977
Probable space group: P -1
;
_chemical_formula_sum "Si O2"
_cell_formula_units_Z 16
_cell_length_a 8.027413
_cell_length_b 8.529836
_cell_length_c 20.629025
_cell_angle_alpha 140.341416
_cell_angle_beta 115.364798
_cell_angle_gamma 50.477176
_cell_volume 689.925239
_symmetry_space_group_name_H-M "P -1"
_symmetry_group_IT_number 2
_symmetry_cell_setting 'triclinic'
loop_
_space_group_symop_operation_xyz
x,y,z
-x,-y,-z
loop_
_atom_site_type_symbol
_atom_site_label
_atom_site_fract_x
_atom_site_fract_y
_atom_site_fract_z
Si Si1 0.867950 0.336748 0.613658
Si Si2 0.998963 0.157609 0.841874
Si Si3 0.169061 0.559882 0.507272
Si Si4 0.124904 0.586060 0.748678
Si Si5 0.501789 0.002432 0.425122
Si Si6 0.752658 0.268714 0.053729
Si Si7 0.164931 0.831620 0.314220
Si Si8 0.670749 0.657122 0.042547
O O1 0.817338 0.484048 0.581396
O O2 0.738669 0.318381 0.648156
O O3 0.933738 0.547194 0.729164
O O4 0.000000 0.000000 0.500000
O O5 0.888699 0.289510 0.796002
O O6 0.831130 0.368292 0.935396
O O7 0.053295 0.834874 0.762594
O O8 0.221269 0.153215 0.882738
O O9 0.000000 0.500000 0.500000
O O10 0.414552 0.329329 0.495430
O O11 0.070766 0.891269 0.615803
O O12 0.270283 0.260339 0.642265
O O13 0.249512 0.639120 0.843282
O O14 0.325884 0.930325 0.347578
O O15 0.500000 0.000000 0.500000
O O16 0.569716 0.199217 0.981566
O O17 0.690240 0.536467 0.080141
O O18 0.000000 0.000000 0.000000
#
# Coordination Sequence:
#
# PCOD9101977 Si02
#       8
#     2   2   2   2   2   2   2   2
#     4  10  21  39  61  90 126 173 220 275 331 393
#     4  11  22  43  66 100 129 183 229 280 343 419
#     4   9  18  36  60  83 125 171 211 270 322 396
#     4  12  23  39  67  94 133 177 225 277 346 406
#     4  11  21  37  59  94 129 170 224 276 336 407
#     4  11  23  46  68 103 134 177 226 291 348 409
#     4  10  20  38  61  89 126 171 222 270 336 410
#     4  10  24  45  70  94 142 174 227 293 348 403
#
# _framework density 23.190919000000001
#
# number of rings (size 3 to 8) (size 9 to 14) (size 15 to 20)
#    0.000    1.500    1.250    6.000    0.000    0.500 
#    4.500    6.875    0.000    0.000    0.000    0.000 
#    0.000    0.000    0.000    0.000    0.000    0.000 
#
# Total GULP energy -89097.937329 kJ/mol
# GULP energy per Si atom -5568.621083 kJ/mol
# Density = 2.313814 g / cm^3
# Si number density = 23.190919 Si / 1000 Ang^3
#
#
#
# Elastic Constant Matrix: (Units=GPa)
#
#
# Indices 1 2 3 4 5 6 
#
# 1 59.3992 22.8863 10.7449 -1.7489 22.8929 5.6691
# 2 22.8863 96.4819 19.5567 -21.4161 6.4379 4.3040
# 3 10.7449 19.5567 46.7424 -18.6782 11.7983 4.3032
# 4 -1.7489 -21.4161 -18.6782 42.3808 6.6875 -7.6723
# 5 22.8929 6.4379 11.7983 6.6875 39.4269 -12.5675
# 6 5.6691 4.3040 4.3032 -7.6723 -12.5675 31.7843
#
#
#
# Elastic Compliance Matrix: (Units=1/GPa)
#
#
# Indices 1 2 3 4 5 6 
#
# 1 0.026964 -0.004885 0.001991 0.000407 -0.019337 -0.011965
# 2 -0.004885 0.013122 -0.002551 0.005361 0.000895 0.001088
# 3 0.001991 -0.002551 0.031975 0.013993 -0.014860 -0.006837
# 4 0.000407 0.005361 0.013993 0.034427 -0.010696 0.001388
# 5 -0.019337 0.000895 -0.014860 -0.010696 0.049871 0.022477
# 6 -0.011965 0.001088 -0.006837 0.001388 0.022477 0.043597
#
#
# Mechanical properties :
#
#
# Convention : Reuss Voigt Hill
#
# Bulk Modulus (GPa) = 16.34776 34.33325 25.34051
# Shear Modulus (GPa) = 21.62265 32.68077 27.15171
#
# Velocity S-wave (km/s) = 3.05680 3.75801 3.42539
# Velocity P-wave (km/s) = 4.41850 5.80232 5.15704
#
# Compressibility (1/GPa) = 0.06117045
#
# Stress axis : x y z
#
# Youngs Moduli (GPa) = 37.08623 76.20624 31.27404
#
# Poissons Ratio (x) = 0.37229 -0.06225
# Poissons Ratio (y) = 0.18118 0.07978
# Poissons Ratio (z) = -0.07382 0.19441
#
# Static dielectric constant tensor:
#      x y z
#    x 1.969210 -0.036020 0.031060 
#    y -0.036020 1.972320 0.043980 
#    z 0.031060 0.043980 1.877440 
# 
# From -- ./inp_files/588219.got.cif
#   From: 2010.05.17/outbox.cif.g08.bks.cpg/sg2_295_cif.got.tgz:588219.got - 2010.06.03 11:33:40.
