data_PCOD9101561
_publ_section_title
;
Structure prediction by ZEFSAII (Michael W. Deem and Ramdas Pophale) SiO2 
 PCOD9101561
Probable space group: P -1
;
_chemical_formula_sum "Si O2"
_cell_formula_units_Z 12
_cell_length_a 10.652650
_cell_length_b 8.435354
_cell_length_c 9.241620
_cell_angle_alpha 104.553345
_cell_angle_beta 99.355745
_cell_angle_gamma 135.643570
_cell_volume 484.784737
_symmetry_space_group_name_H-M "P -1"
_symmetry_group_IT_number 2
_symmetry_cell_setting 'triclinic'
loop_
_space_group_symop_operation_xyz
x,y,z
-x,-y,-z
loop_
_atom_site_type_symbol
_atom_site_label
_atom_site_fract_x
_atom_site_fract_y
_atom_site_fract_z
Si Si1 0.651545 0.767520 0.372718
Si Si2 0.097919 0.774216 0.231453
Si Si3 0.747036 0.786995 0.814624
Si Si4 0.890081 0.017936 0.192595
Si Si5 0.442849 0.885957 0.301166
Si Si6 0.170800 0.668493 0.702534
O O1 0.497303 0.466618 0.322475
O O2 0.768798 0.982068 0.571101
O O3 0.814151 0.885496 0.306069
O O4 0.495667 0.748067 0.272977
O O5 0.894493 0.519490 0.224965
O O6 0.120487 0.916423 0.133445
O O7 0.213611 0.722772 0.200595
O O8 0.867762 0.769806 0.743786
O O9 0.771567 0.801195 0.994625
O O10 0.836639 0.153820 0.202141
O O11 0.605275 0.136088 0.279795
O O12 0.500000 0.000000 0.500000
O O13 0.000000 0.500000 0.500000
#
# Coordination Sequence:
#
# PCOD9101561 Si02
#       6
#     2   2   2   2   2   2
#     4  10  20  38  60  82 112 155 191 229 283 341
#     4  11  22  35  59  93 112 145 192 244 280 325
#     4  11  24  38  56  86 123 149 186 233 288 346
#     4  10  23  41  59  80 115 163 186 225 292 341
#     4   9  18  33  59  85 107 147 190 232 282 322
#     4  11  19  38  62  83 111 149 197 234 274 339
#
# _framework density 24.753256
#
# number of rings (size 3 to 8) (size 9 to 14) (size 15 to 20)
#    0.000    1.667    5.000    2.000    2.333    2.667 
#    0.000    3.333    0.000    0.000    0.000    0.000 
#    0.000    0.000    0.000    0.000    0.000    0.000 
#
# Total GULP energy -67073.468367 kJ/mol
# GULP energy per Si atom -5589.455697 kJ/mol
# Density = 2.469692 g / cm^3
# Si number density = 24.753256 Si / 1000 Ang^3
#
#
#
# Elastic Constant Matrix: (Units=GPa)
#
#
# Indices 1 2 3 4 5 6 
#
# 1 48.5726 7.8136 15.8753 -5.6425 -24.0254 6.7981
# 2 7.8136 130.8524 18.9811 -6.4966 -19.9510 22.6360
# 3 15.8753 18.9811 80.6456 -8.7719 -22.9783 14.8722
# 4 -5.6425 -6.4966 -8.7719 28.1286 5.9728 -7.6205
# 5 -24.0254 -19.9510 -22.9783 5.9728 25.5749 -10.6869
# 6 6.7981 22.6360 14.8722 -7.6205 -10.6869 39.5696
#
#
#
# Elastic Compliance Matrix: (Units=1/GPa)
#
#
# Indices 1 2 3 4 5 6 
#
# 1 0.041048 0.003638 0.003740 0.001142 0.045291 0.001914
# 2 0.003638 0.009460 0.000497 0.000030 0.009737 -0.003588
# 3 0.003740 0.000497 0.017310 0.001824 0.018112 -0.002190
# 4 0.001142 0.000030 0.001824 0.038690 -0.004016 0.005468
# 5 0.045291 0.009737 0.018112 -0.004016 0.110138 0.008814
# 6 0.001914 -0.003588 -0.002190 0.005468 0.008814 0.031252
#
#
# Mechanical properties :
#
#
# Convention : Reuss Voigt Hill
#
# Bulk Modulus (GPa) = 11.96678 38.37895 25.17286
# Shear Modulus (GPa) = 19.23050 33.14800 26.18925
#
# Velocity S-wave (km/s) = 2.79029 3.66339 3.25624
# Velocity P-wave (km/s) = 3.90204 5.78206 4.93245
#
# Compressibility (1/GPa) = 0.08356469
#
# Stress axis : x y z
#
# Youngs Moduli (GPa) = 24.36195 105.71275 57.77136
#
# Poissons Ratio (x) = -0.38455 -0.21604
# Poissons Ratio (y) = -0.08862 -0.02869
# Poissons Ratio (z) = -0.09110 -0.05250
#
# Static dielectric constant tensor:
#      x y z
#    x 1.984230 -0.046660 0.057750 
#    y -0.046660 2.016740 0.015530 
#    z 0.057750 0.015530 1.978080 
# 
# From -- ./inp_files/154694.got.cif
#   From: 2010.05.17/outbox.cif.g08.bks.cpg/sg2_78_cif.got.tgz:154694.got - 2010.06.03 11:33:40.
