data_PCOD9101199
_publ_section_title
;
Structure prediction by ZEFSAII (Michael W. Deem and Ramdas Pophale) SiO2 
 PCOD9101199
Probable space group: P -1
;
_chemical_formula_sum "Si O2"
_cell_formula_units_Z 12
_cell_length_a 10.274735
_cell_length_b 14.593660
_cell_length_c 10.756820
_cell_angle_alpha 149.766002
_cell_angle_beta 144.051023
_cell_angle_gamma 32.196102
_cell_volume 413.841485
_symmetry_space_group_name_H-M "P -1"
_symmetry_group_IT_number 2
_symmetry_cell_setting 'triclinic'
loop_
_space_group_symop_operation_xyz
x,y,z
-x,-y,-z
loop_
_atom_site_type_symbol
_atom_site_label
_atom_site_fract_x
_atom_site_fract_y
_atom_site_fract_z
Si Si1 0.663262 0.506858 0.991577
Si Si2 0.535588 0.147364 0.482422
Si Si3 0.906565 0.115463 0.311203
Si Si4 0.201499 0.238065 0.097535
Si Si5 0.399362 0.409480 0.239960
Si Si6 0.753019 0.057361 0.891049
O O1 0.555007 0.354691 0.765741
O O2 0.712553 0.474102 0.841584
O O3 0.448766 0.745678 0.114295
O O4 0.939031 0.432357 0.175215
O O5 0.437420 0.179732 0.302319
O O6 0.317153 0.124884 0.359979
O O7 0.809879 0.943471 0.484472
O O8 0.700194 0.365400 0.484363
O O9 0.011110 0.042391 0.155495
O O10 0.865159 0.947798 0.165432
O O11 0.264885 0.310772 0.104208
O O12 0.619755 0.181158 0.072911
#
# Coordination Sequence:
#
# PCOD9101199 Si02
#       6
#     2   2   2   2   2   2
#     4  10  22  39  59  86 118 150 192 237 278 339
#     4  10  21  40  59  84 121 148 188 239 284 340
#     4   9  22  39  57  84 118 150 191 236 280 338
#     4  10  20  38  57  84 121 155 187 229 282 337
#     4  11  20  34  58  87 116 157 190 224 282 334
#     4  10  23  41  63  85 109 149 194 241 294 336
#
# _framework density 28.996607999999998
#
# number of rings (size 3 to 8) (size 9 to 14) (size 15 to 20)
#    0.000    2.000    1.667    1.000    2.333    2.000 
#    3.000    7.500    0.000    0.000    0.000    0.000 
#    0.000    0.000    0.000    0.000    0.000    0.000 
#
# Total GULP energy -67143.523322 kJ/mol
# GULP energy per Si atom -5595.293610 kJ/mol
# Density = 2.893061 g / cm^3
# Si number density = 28.996608 Si / 1000 Ang^3
#
#
#
# Elastic Constant Matrix: (Units=GPa)
#
#
# Indices 1 2 3 4 5 6 
#
# 1 227.3893 76.4876 89.4466 12.0668 43.4550 11.8960
# 2 76.4876 221.5039 51.4064 -7.6271 22.5564 -30.2859
# 3 89.4466 51.4064 126.8662 -6.7051 3.2643 -3.1948
# 4 12.0668 -7.6271 -6.7051 59.3401 -3.6552 -2.0915
# 5 43.4550 22.5564 3.2643 -3.6552 52.0957 -5.6111
# 6 11.8960 -30.2859 -3.1948 -2.0915 -5.6111 74.6825
#
#
#
# Elastic Compliance Matrix: (Units=1/GPa)
#
#
# Indices 1 2 3 4 5 6 
#
# 1 0.008722 -0.001517 -0.005596 -0.003119 -0.006792 -0.002842
# 2 -0.001517 0.005758 -0.001129 0.000958 -0.000821 0.002494
# 3 -0.005596 -0.001129 0.012343 0.002728 0.004725 0.001393
# 4 -0.003119 0.000958 0.002728 0.018195 0.003484 0.001774
# 5 -0.006792 -0.000821 0.004725 0.003484 0.025484 0.002963
# 6 -0.002842 0.002494 0.001393 0.001774 0.002963 0.015186
#
#
# Mechanical properties :
#
#
# Convention : Reuss Voigt Hill
#
# Bulk Modulus (GPa) = 96.72785 112.27118 104.49951
# Shear Modulus (GPa) = 47.34050 61.11824 54.22937
#
# Velocity S-wave (km/s) = 4.04496 4.59603 4.32927
# Velocity P-wave (km/s) = 7.43279 8.18336 7.81709
#
# Compressibility (1/GPa) = 0.01033828
#
# Stress axis : x y z
#
# Youngs Moduli (GPa) = 114.65772 173.67017 81.01831
#
# Poissons Ratio (x) = 0.26349 0.45338
# Poissons Ratio (y) = 0.17396 0.09146
# Poissons Ratio (z) = 0.64163 0.19606
#
# Static dielectric constant tensor:
#      x y z
#    x 2.252210 -0.121720 -0.159470 
#    y -0.121720 2.193820 -0.062210 
#    z -0.159470 -0.062210 2.270040 
# 
# From -- ./inp_files/394833.got.cif
#   From: 2010.05.17/outbox.cif.g08.bks.cpg/sg2_198_cif.got.tgz:394833.got - 2010.06.03 11:33:40.
