data_PCOD9101388
_publ_section_title
;
Structure prediction by ZEFSAII (Michael W. Deem and Ramdas Pophale) SiO2 
 PCOD9101388
Probable space group: P -1
;
_chemical_formula_sum "Si O2"
_cell_formula_units_Z 16
_cell_length_a 19.311124
_cell_length_b 6.370381
_cell_length_c 14.059624
_cell_angle_alpha 92.539944
_cell_angle_beta 30.606307
_cell_angle_gamma 78.699643
_cell_volume 781.027569
_symmetry_space_group_name_H-M "P -1"
_symmetry_group_IT_number 2
_symmetry_cell_setting 'triclinic'
loop_
_space_group_symop_operation_xyz
x,y,z
-x,-y,-z
loop_
_atom_site_type_symbol
_atom_site_label
_atom_site_fract_x
_atom_site_fract_y
_atom_site_fract_z
Si Si1 0.946219 0.672035 0.658796
Si Si2 0.844624 0.113663 0.536550
Si Si3 0.402733 0.391588 0.166137
Si Si4 0.292952 0.561751 0.779055
Si Si5 0.176314 0.359096 0.750426
Si Si6 0.403663 0.879361 0.565738
Si Si7 0.334990 0.050704 0.102751
Si Si8 0.022801 0.351409 0.746528
O O1 0.765145 0.829509 0.867427
O O2 0.992999 0.516729 0.694177
O O3 0.000000 0.500000 0.500000
O O4 0.021502 0.847318 0.572824
O O5 0.735971 0.372473 0.627732
O O6 0.758469 0.035498 0.716557
O O7 0.903070 0.915654 0.384023
O O8 0.357312 0.250662 0.138229
O O9 0.500000 0.500000 0.000000
O O10 0.507592 0.181971 0.108290
O O11 0.268196 0.477111 0.700420
O O12 0.309558 0.798753 0.748324
O O13 0.450621 0.372458 0.639582
O O14 0.141974 0.590988 0.012504
O O15 0.139699 0.377623 0.682327
O O16 0.276164 0.079475 0.653385
O O17 0.000000 0.500000 0.000000
O O18 0.500000 0.000000 0.500000
#
# Coordination Sequence:
#
# PCOD9101388 Si02
#       8
#     2   2   2   2   2   2   2   2
#     4  12  23  39  61  83 122 165 206 253 306 357
#     4  11  21  37  60  85 117 157 208 258 305 351
#     4   9  19  35  60  81 107 149 203 252 306 358
#     4   9  20  40  65  92 123 160 197 244 308 368
#     4   9  20  38  62  90 125 156 196 243 307 368
#     4   9  18  38  68  90 118 159 198 241 304 372
#     4  10  20  38  59  83 110 159 210 247 302 361
#     4  11  24  36  58  96 124 155 208 255 299 362
#
# _framework density 20.485831000000001
#
# number of rings (size 3 to 8) (size 9 to 14) (size 15 to 20)
#    0.000    2.000    2.500    0.375    0.000    6.000 
#    0.000    6.250    0.000    3.000    0.000    0.000 
#    0.000    0.000    0.000    0.000    0.000    0.000 
#
# Total GULP energy -89115.034022 kJ/mol
# GULP energy per Si atom -5569.689626 kJ/mol
# Density = 2.043920 g / cm^3
# Si number density = 20.485831 Si / 1000 Ang^3
#
#
#
# Elastic Constant Matrix: (Units=GPa)
#
#
# Indices 1 2 3 4 5 6 
#
# 1 120.9611 60.0226 40.6307 12.3027 -17.7281 -16.9362
# 2 60.0226 125.0518 33.3266 -0.2653 -11.9588 -5.8246
# 3 40.6307 33.3266 65.2068 6.5751 -21.0856 -14.6867
# 4 12.3027 -0.2653 6.5751 46.8234 -7.5853 -13.7126
# 5 -17.7281 -11.9588 -21.0856 -7.5853 33.2799 6.3501
# 6 -16.9362 -5.8246 -14.6867 -13.7126 6.3501 35.4544
#
#
#
# Elastic Compliance Matrix: (Units=1/GPa)
#
#
# Indices 1 2 3 4 5 6 
#
# 1 0.012843 -0.004752 -0.004326 -0.001790 0.001488 0.002603
# 2 -0.004752 0.011050 -0.003088 0.001399 0.000031 -0.001198
# 3 -0.004326 -0.003088 0.024474 0.001272 0.011229 0.006045
# 4 -0.001790 0.001399 0.001272 0.024930 0.004365 0.008762
# 5 0.001488 0.000031 0.011229 0.004365 0.038946 0.000080
# 6 0.002603 -0.001198 0.006045 0.008762 0.000080 0.035130
#
#
# Mechanical properties :
#
#
# Convention : Reuss Voigt Hill
#
# Bulk Modulus (GPa) = 41.60395 64.35326 52.97861
# Shear Modulus (GPa) = 27.82177 34.92753 31.37465
#
# Velocity S-wave (km/s) = 3.68924 4.13360 3.91772
# Velocity P-wave (km/s) = 6.20484 7.36640 6.81043
#
# Compressibility (1/GPa) = 0.02403618
#
# Stress axis : x y z
#
# Youngs Moduli (GPa) = 77.86542 90.49403 40.86021
#
# Poissons Ratio (x) = 0.43000 0.17675
# Poissons Ratio (y) = 0.36999 0.12618
# Poissons Ratio (z) = 0.33682 0.27945
#
# Static dielectric constant tensor:
#      x y z
#    x 1.792740 -0.040810 -0.045560 
#    y -0.040810 1.759650 0.042660 
#    z -0.045560 0.042660 1.800360 
# 
# From -- ./inp_files/536360.got.cif
#   From: 2010.05.17/outbox.cif.g08.bks.cpg/sg2_269_cif.got.tgz:536360.got - 2010.06.03 11:33:40.
