data_PCOD9101381
_publ_section_title
;
Structure prediction by ZEFSAII (Michael W. Deem and Ramdas Pophale) SiO2 
 PCOD9101381
Probable space group: P -1
;
_chemical_formula_sum "Si O2"
_cell_formula_units_Z 14
_cell_length_a 11.946716
_cell_length_b 7.384021
_cell_length_c 15.221694
_cell_angle_alpha 71.421743
_cell_angle_beta 31.181092
_cell_angle_gamma 56.909209
_cell_volume 547.263711
_symmetry_space_group_name_H-M "P -1"
_symmetry_group_IT_number 2
_symmetry_cell_setting 'triclinic'
loop_
_space_group_symop_operation_xyz
x,y,z
-x,-y,-z
loop_
_atom_site_type_symbol
_atom_site_label
_atom_site_fract_x
_atom_site_fract_y
_atom_site_fract_z
Si Si1 0.561755 0.079889 0.726561
Si Si2 0.540166 0.698955 0.476248
Si Si3 0.072745 0.938569 0.653313
Si Si4 0.084374 0.401788 0.117414
Si Si5 0.632541 0.783186 0.880309
Si Si6 0.321046 0.316729 0.411623
Si Si7 0.257707 0.570308 0.254932
O O1 0.718070 0.894923 0.729177
O O2 0.519764 0.927433 0.708457
O O3 0.738408 0.144937 0.545789
O O4 0.294939 0.289436 0.916012
O O5 0.500000 0.500000 0.500000
O O6 0.268153 0.931483 0.596628
O O7 0.597038 0.686982 0.543127
O O8 0.801796 0.634771 0.259337
O O9 0.983560 0.782749 0.777815
O O10 0.819694 0.179216 0.756531
O O11 0.207618 0.415936 0.122892
O O12 0.538768 0.659084 0.899150
O O13 0.500000 0.000000 0.000000
O O14 0.332575 0.501198 0.315901
O O15 0.021000 0.394638 0.587903
#
# Coordination Sequence:
#
# PCOD9101381 Si02
#       7
#     2   2   2   2   2   2   2
#     4   9  20  36  59  86 114 150 197 239 292 348
#     4  10  21  37  56  85 122 157 193 239 295 346
#     4  10  22  36  58  90 114 151 209 229 285 362
#     4  10  20  38  59  81 126 155 181 251 299 331
#     4   9  17  34  58  86 118 152 186 241 302 342
#     4   9  17  35  59  82 115 156 189 239 298 345
#     4   9  17  33  60  88 109 155 199 236 293 343
#
# _framework density 25.581817000000001
#
# number of rings (size 3 to 8) (size 9 to 14) (size 15 to 20)
#    0.000    2.571    1.429    0.857    0.000    3.429 
#    2.571    9.286    6.286    0.000    0.000    0.000 
#    0.000    0.000    0.000    0.000    0.000    0.000 
#
# Total GULP energy -77975.064922 kJ/mol
# GULP energy per Si atom -5569.647494 kJ/mol
# Density = 2.552359 g / cm^3
# Si number density = 25.581817 Si / 1000 Ang^3
#
#
#
# Elastic Constant Matrix: (Units=GPa)
#
#
# Indices 1 2 3 4 5 6 
#
# 1 146.2648 32.0548 52.8299 6.0225 33.0059 0.6529
# 2 32.0548 93.0601 21.5799 -1.7137 9.5783 -5.6669
# 3 52.8299 21.5799 153.8885 6.3672 29.7711 -3.6737
# 4 6.0225 -1.7137 6.3672 35.9410 -1.7327 3.3723
# 5 33.0059 9.5783 29.7711 -1.7327 41.8431 2.3225
# 6 0.6529 -5.6669 -3.6737 3.3723 2.3225 33.7234
#
#
#
# Elastic Compliance Matrix: (Units=1/GPa)
#
#
# Indices 1 2 3 4 5 6 
#
# 1 0.009296 -0.002264 -0.001719 -0.001615 -0.005647 -0.000197
# 2 -0.002264 0.011887 -0.000797 0.000888 -0.000437 0.001896
# 3 -0.001719 -0.000797 0.008141 -0.001520 -0.004386 0.001240
# 4 -0.001615 0.000888 -0.001520 0.028867 0.003520 -0.003114
# 5 -0.005647 -0.000437 -0.004386 0.003520 0.031885 -0.002990
# 6 -0.000197 0.001896 0.001240 -0.003114 -0.002990 0.030628
#
#
# Mechanical properties :
#
#
# Convention : Reuss Voigt Hill
#
# Bulk Modulus (GPa) = 50.59613 67.34917 58.97265
# Shear Modulus (GPa) = 36.53587 41.41807 38.97697
#
# Velocity S-wave (km/s) = 3.78325 4.02810 3.90759
# Velocity P-wave (km/s) = 6.23739 6.92952 6.59254
#
# Compressibility (1/GPa) = 0.01976436
#
# Stress axis : x y z
#
# Youngs Moduli (GPa) = 107.57727 84.12526 122.83387
#
# Poissons Ratio (x) = 0.19044 0.21117
# Poissons Ratio (y) = 0.24353 0.09787
# Poissons Ratio (z) = 0.18495 0.06703
#
# Static dielectric constant tensor:
#      x y z
#    x 2.084850 -0.040590 -0.111810 
#    y -0.040590 2.273930 0.091060 
#    z -0.111810 0.091060 2.264310 
# 
# From -- ./inp_files/514251.got.cif
#   From: 2010.05.17/outbox.cif.g08.bks.cpg/sg2_258_cif.got.tgz:514251.got - 2010.06.03 11:33:40.
