data_PCOD9101020
_publ_section_title
;
Structure prediction by ZEFSAII (Michael W. Deem and Ramdas Pophale) SiO2 
 PCOD9101020
Probable space group: P -1
;
_chemical_formula_sum "Si O2"
_cell_formula_units_Z 14
_cell_length_a 9.084095
_cell_length_b 7.574966
_cell_length_c 10.954591
_cell_angle_alpha 90.493976
_cell_angle_beta 124.728078
_cell_angle_gamma 70.707389
_cell_volume 568.846898
_symmetry_space_group_name_H-M "P -1"
_symmetry_group_IT_number 2
_symmetry_cell_setting 'triclinic'
loop_
_space_group_symop_operation_xyz
x,y,z
-x,-y,-z
loop_
_atom_site_type_symbol
_atom_site_label
_atom_site_fract_x
_atom_site_fract_y
_atom_site_fract_z
Si Si1 0.818817 0.401560 0.810296
Si Si2 0.096812 0.444224 0.385568
Si Si3 0.925706 0.830452 0.443220
Si Si4 0.329687 0.891505 0.864896
Si Si5 0.369863 0.842405 0.164159
Si Si6 0.278554 0.243036 0.073331
Si Si7 0.668275 0.487695 0.177580
O O1 0.739528 0.236894 0.791383
O O2 0.719674 0.564140 0.866297
O O3 0.785014 0.520848 0.670399
O O4 0.051398 0.300710 0.940428
O O5 0.075137 0.619066 0.468089
O O6 0.876335 0.483648 0.234354
O O7 0.163685 0.237031 0.481710
O O8 0.781496 0.914593 0.260471
O O9 0.000000 0.000000 0.500000
O O10 0.563071 0.825622 0.960685
O O11 0.282279 0.732195 0.765657
O O12 0.274391 0.886958 0.980876
O O13 0.568120 0.659057 0.226495
O O14 0.358385 0.052134 0.194810
O O15 0.500000 0.500000 0.000000
#
# Coordination Sequence:
#
# PCOD9101020 Si02
#       7
#     2   2   2   2   2   2   2
#     4  11  24  38  60  96 134 161 200 262 329 386
#     4  11  24  43  65  96 129 167 213 262 319 369
#     4  11  24  42  70  90 121 174 224 265 295 371
#     4  11  21  40  64  91 123 165 220 258 306 374
#     4  11  22  38  63  95 128 166 202 263 325 377
#     4  11  23  37  62  93 130 167 200 260 329 377
#     4  10  20  37  68  93 128 162 207 264 315 375
#
# _framework density 24.611191000000002
#
# number of rings (size 3 to 8) (size 9 to 14) (size 15 to 20)
#    0.000    1.143    2.857    4.286    6.000    1.143 
#    0.000    0.714    0.000    8.571    0.000    0.000 
#    0.000    0.000    0.000    0.000    0.000    0.000 
#
# Total GULP energy -78116.797908 kJ/mol
# GULP energy per Si atom -5579.771279 kJ/mol
# Density = 2.455517 g / cm^3
# Si number density = 24.611191 Si / 1000 Ang^3
#
#
#
# Elastic Constant Matrix: (Units=GPa)
#
#
# Indices 1 2 3 4 5 6 
#
# 1 99.7832 22.4285 26.9995 -6.6220 -26.4330 28.8193
# 2 22.4285 144.2155 28.1773 -25.6464 1.4161 24.2703
# 3 26.9995 28.1773 99.8957 -26.0133 -9.5572 11.2918
# 4 -6.6220 -25.6464 -26.0133 48.1960 13.0989 -5.2497
# 5 -26.4330 1.4161 -9.5572 13.0989 34.5696 -6.2677
# 6 28.8193 24.2703 11.2918 -5.2497 -6.2677 52.0295
#
#
#
# Elastic Compliance Matrix: (Units=1/GPa)
#
#
# Indices 1 2 3 4 5 6 
#
# 1 0.015939 -0.001682 -0.003096 -0.004297 0.011873 -0.006375
# 2 -0.001682 0.008759 -0.000831 0.004807 -0.004240 -0.003000
# 3 -0.003096 -0.000831 0.012610 0.006261 -0.001247 -0.000153
# 4 -0.004297 0.004807 0.006261 0.029636 -0.012943 0.000210
# 5 0.011873 -0.004240 -0.001247 -0.012943 0.042649 -0.000496
# 6 -0.006375 -0.003000 -0.000153 0.000210 -0.000496 0.024145
#
#
# Mechanical properties :
#
#
# Convention : Reuss Voigt Hill
#
# Bulk Modulus (GPa) = 38.32795 55.45613 46.89204
# Shear Modulus (GPa) = 32.54106 44.71161 38.62633
#
# Velocity S-wave (km/s) = 3.64016 4.26692 3.96594
# Velocity P-wave (km/s) = 5.76844 6.84524 6.32978
#
# Compressibility (1/GPa) = 0.02609062
#
# Stress axis : x y z
#
# Youngs Moduli (GPa) = 62.74021 114.16433 79.30276
#
# Poissons Ratio (x) = 0.19199 0.24552
# Poissons Ratio (y) = 0.10551 0.06590
# Poissons Ratio (z) = 0.19424 0.09486
#
# Static dielectric constant tensor:
#      x y z
#    x 1.992020 0.034610 -0.001920 
#    y 0.034610 2.065430 0.001800 
#    z -0.001920 0.001800 2.146210 
# 
# From -- ./inp_files/376182.got.cif
#   From: 2010.05.17/outbox.cif.g08.bks.cpg/sg2_189_cif.got.tgz:376182.got - 2010.06.03 11:33:40.
