data_PCOD9101551
_publ_section_title
;
Structure prediction by ZEFSAII (Michael W. Deem and Ramdas Pophale) SiO2 
 PCOD9101551
Probable space group: P -1
;
_chemical_formula_sum "Si O2"
_cell_formula_units_Z 14
_cell_length_a 12.610215
_cell_length_b 6.932262
_cell_length_c 14.897931
_cell_angle_alpha 101.294325
_cell_angle_beta 49.522874
_cell_angle_gamma 62.335284
_cell_volume 591.993768
_symmetry_space_group_name_H-M "P -1"
_symmetry_group_IT_number 2
_symmetry_cell_setting 'triclinic'
loop_
_space_group_symop_operation_xyz
x,y,z
-x,-y,-z
loop_
_atom_site_type_symbol
_atom_site_label
_atom_site_fract_x
_atom_site_fract_y
_atom_site_fract_z
Si Si1 0.913339 0.069420 0.896623
Si Si2 0.621747 0.410687 0.750875
Si Si3 0.834423 0.852221 0.164048
Si Si4 0.551895 0.019765 0.181172
Si Si5 0.011782 0.491785 0.786155
Si Si6 0.021014 0.952337 0.627085
Si Si7 0.874359 0.618244 0.485083
O O1 0.043749 0.073729 0.890736
O O2 0.995068 0.749454 0.830530
O O3 0.638021 0.375643 0.085618
O O4 0.981678 0.067495 0.759499
O O5 0.583709 0.689442 0.786522
O O6 0.794043 0.157816 0.551988
O O7 0.776292 0.207530 0.735186
O O8 0.793679 0.816192 0.283840
O O9 0.630477 0.072402 0.225279
O O10 0.000000 0.500000 0.000000
O O11 0.388507 0.041149 0.316494
O O12 0.769739 0.694274 0.979713
O O13 0.032703 0.409685 0.663234
O O14 0.114616 0.627777 0.558933
O O15 0.000000 0.500000 0.500000
#
# Coordination Sequence:
#
# PCOD9101551 Si02
#       7
#     2   2   2   2   2   2   2
#     4  10  20  38  60  81 114 153 186 232 288 335
#     4   9  18  34  58  82 112 148 184 235 286 330
#     4  10  22  39  59  86 115 149 198 236 275 342
#     4   9  20  38  55  82 117 147 192 238 275 338
#     4   9  21  39  59  86 116 149 189 235 284 334
#     4   9  19  35  55  86 113 144 195 232 278 347
#     4  10  21  37  57  84 117 150 188 235 288 343
#
# _framework density 23.648897999999999
#
# number of rings (size 3 to 8) (size 9 to 14) (size 15 to 20)
#    0.000    2.571    0.000    0.429    0.000   12.000 
#    0.000    9.286    0.000    0.000    0.000    0.000 
#    0.000    0.000    0.000    0.000    0.000    0.000 
#
# Total GULP energy -78120.035385 kJ/mol
# GULP energy per Si atom -5580.002528 kJ/mol
# Density = 2.359507 g / cm^3
# Si number density = 23.648898 Si / 1000 Ang^3
#
#
#
# Elastic Constant Matrix: (Units=GPa)
#
#
# Indices 1 2 3 4 5 6 
#
# 1 92.4798 7.7755 46.0625 -19.7752 9.3984 4.8762
# 2 7.7755 78.0007 16.1731 -14.4276 11.5575 -4.7599
# 3 46.0625 16.1731 86.4198 -36.8873 11.1417 -3.3552
# 4 -19.7752 -14.4276 -36.8873 44.1852 3.0298 15.3056
# 5 9.3984 11.5575 11.1417 3.0298 33.1161 -3.1724
# 6 4.8762 -4.7599 -3.3552 15.3056 -3.1724 34.3993
#
#
#
# Elastic Compliance Matrix: (Units=1/GPa)
#
#
# Indices 1 2 3 4 5 6 
#
# 1 0.015327 0.000637 -0.006687 0.003239 -0.003046 -0.004459
# 2 0.000637 0.014665 0.000303 0.006215 -0.006099 -0.001359
# 3 -0.006687 0.000303 0.024884 0.020823 -0.009126 -0.006690
# 4 0.003239 0.006215 0.020823 0.052449 -0.017046 -0.022477
# 5 -0.003046 -0.006099 -0.009126 -0.017046 0.038764 0.009857
# 6 -0.004459 -0.001359 -0.006690 -0.022477 0.009857 0.039772
#
#
# Mechanical properties :
#
#
# Convention : Reuss Voigt Hill
#
# Bulk Modulus (GPa) = 23.05159 44.10250 33.57704
# Shear Modulus (GPa) = 23.60541 34.79941 29.20241
#
# Velocity S-wave (km/s) = 3.16280 3.84018 3.51783
# Velocity P-wave (km/s) = 4.80690 6.19290 5.54339
#
# Compressibility (1/GPa) = 0.04338096
#
# Stress axis : x y z
#
# Youngs Moduli (GPa) = 65.24270 68.19166 40.18678
#
# Poissons Ratio (x) = -0.04343 0.26872
# Poissons Ratio (y) = -0.04155 -0.01216
# Poissons Ratio (z) = 0.43627 -0.02063
#
# Static dielectric constant tensor:
#      x y z
#    x 1.932290 0.022180 -0.008660 
#    y 0.022180 1.941970 -0.035550 
#    z -0.008660 -0.035550 1.942300 
# 
# From -- ./inp_files/515897.got.cif
#   From: 2010.05.17/outbox.cif.g08.bks.cpg/sg2_258_cif.got.tgz:515897.got - 2010.06.03 11:33:40.
