data_PCOD9101398
_publ_section_title
;
Structure prediction by ZEFSAII (Michael W. Deem and Ramdas Pophale) SiO2 
 PCOD9101398
Probable space group: P -1
;
_chemical_formula_sum "Si O2"
_cell_formula_units_Z 16
_cell_length_a 27.521906
_cell_length_b 22.431382
_cell_length_c 6.638987
_cell_angle_alpha 75.173278
_cell_angle_beta 107.009774
_cell_angle_gamma 168.757126
_cell_volume 753.488100
_symmetry_space_group_name_H-M "P -1"
_symmetry_group_IT_number 2
_symmetry_cell_setting 'triclinic'
loop_
_space_group_symop_operation_xyz
x,y,z
-x,-y,-z
loop_
_atom_site_type_symbol
_atom_site_label
_atom_site_fract_x
_atom_site_fract_y
_atom_site_fract_z
Si Si1 0.849198 0.197391 0.150625
Si Si2 0.468544 0.817185 0.710045
Si Si3 0.349108 0.862217 0.086348
Si Si4 0.772431 0.195785 0.369031
Si Si5 0.553808 0.727397 0.158911
Si Si6 0.866992 0.697522 0.239327
Si Si7 0.765692 0.673794 0.470880
Si Si8 0.632592 0.722795 0.932050
O O1 0.766766 0.119811 0.342494
O O2 0.134714 0.563618 0.176429
O O3 0.792115 0.057483 0.185999
O O4 0.689197 0.040255 0.908209
O O5 0.229377 0.487535 0.701134
O O6 0.466537 0.880053 0.767957
O O7 0.544798 0.925870 0.483477
O O8 0.227996 0.768246 0.871630
O O9 0.500000 0.000000 0.000000
O O10 0.000000 0.500000 0.500000
O O11 0.390878 0.523757 0.341579
O O12 0.349932 0.522142 0.952548
O O13 0.653229 0.784437 0.115864
O O14 0.873287 0.741182 0.423981
O O15 0.117444 0.992806 0.146927
O O16 0.558652 0.461722 0.265351
O O17 0.000000 0.000000 0.500000
O O18 0.500000 0.500000 0.000000
#
# Coordination Sequence:
#
# PCOD9101398 Si02
#       8
#     2   2   2   2   2   2   2   2
#     4  10  20  38  59  83 117 155 199 242 291 348
#     4  10  20  39  60  82 115 158 200 238 291 351
#     4  11  23  35  54  87 119 153 195 247 292 337
#     4  11  18  37  61  78 107 161 205 233 287 350
#     4  10  23  41  63  90 124 163 198 249 305 356
#     4  10  23  41  63  91 125 159 200 252 300 355
#     4  11  23  42  66  93 122 158 200 244 304 370
#     4  11  24  42  64  94 122 157 200 247 303 365
#
# _framework density 21.234573000000001
#
# number of rings (size 3 to 8) (size 9 to 14) (size 15 to 20)
#    0.000    1.500    2.500    3.000    1.750    5.500 
#    2.250    0.000    0.000    0.000    0.000    0.000 
#    0.000    0.000    0.000    0.000    0.000    0.000 
#
# Total GULP energy -89164.905635 kJ/mol
# GULP energy per Si atom -5572.806602 kJ/mol
# Density = 2.118624 g / cm^3
# Si number density = 21.234573 Si / 1000 Ang^3
#
#
#
# Elastic Constant Matrix: (Units=GPa)
#
#
# Indices 1 2 3 4 5 6 
#
# 1 152.2687 71.8518 38.2825 -16.0358 -52.9616 -29.7679
# 2 71.8518 106.0972 26.3662 -29.7423 -20.6871 -31.0247
# 3 38.2825 26.3662 82.5252 -22.0088 -31.1812 -16.6143
# 4 -16.0358 -29.7423 -22.0088 36.0927 5.3747 2.3845
# 5 -52.9616 -20.6871 -31.1812 5.3747 41.7853 3.2507
# 6 -29.7679 -31.0247 -16.6143 2.3845 3.2507 44.8693
#
#
#
# Elastic Compliance Matrix: (Units=1/GPa)
#
#
# Indices 1 2 3 4 5 6 
#
# 1 0.017336 -0.006181 0.003533 0.001198 0.020854 0.006961
# 2 -0.006181 0.020398 0.003116 0.015010 0.001863 0.010224
# 3 0.003533 0.003116 0.023418 0.014605 0.020770 0.010889
# 4 0.001198 0.015010 0.014605 0.046735 0.012812 0.013169
# 5 0.020854 0.001863 0.020770 0.012812 0.063774 0.017513
# 6 0.006961 0.010224 0.010889 0.013169 0.017513 0.036038
#
#
# Mechanical properties :
#
#
# Convention : Reuss Voigt Hill
#
# Bulk Modulus (GPa) = 16.10627 68.21023 42.15825
# Shear Modulus (GPa) = 21.98196 38.17549 30.07873
#
# Velocity S-wave (km/s) = 3.22094 4.24465 3.76772
# Velocity P-wave (km/s) = 4.62968 7.49764 6.23092
#
# Compressibility (1/GPa) = 0.06208761
#
# Stress axis : x y z
#
# Youngs Moduli (GPa) = 57.68359 49.02542 42.70222
#
# Poissons Ratio (x) = 0.30302 -0.15087
# Poissons Ratio (y) = 0.35653 -0.13305
# Poissons Ratio (z) = -0.20380 -0.15275
#
# Static dielectric constant tensor:
#      x y z
#    x 2.258050 0.045380 0.028250 
#    y 0.045380 1.984860 -0.140370 
#    z 0.028250 -0.140370 1.916150 
# 
# From -- ./inp_files/115892.got.cif
#   From: 2010.05.17/outbox.cif.g08.bks.cpg/sg2_58_cif.got.tgz:115892.got - 2010.06.03 11:33:40.
