data_PCOD9101393
_publ_section_title
;
Structure prediction by ZEFSAII (Michael W. Deem and Ramdas Pophale) SiO2 
 PCOD9101393
Probable space group: P -1
;
_chemical_formula_sum "Si O2"
_cell_formula_units_Z 14
_cell_length_a 15.132892
_cell_length_b 20.741118
_cell_length_c 8.549054
_cell_angle_alpha 130.079828
_cell_angle_beta 126.795563
_cell_angle_gamma 20.169893
_cell_volume 707.782760
_symmetry_space_group_name_H-M "P -1"
_symmetry_group_IT_number 2
_symmetry_cell_setting 'triclinic'
loop_
_space_group_symop_operation_xyz
x,y,z
-x,-y,-z
loop_
_atom_site_type_symbol
_atom_site_label
_atom_site_fract_x
_atom_site_fract_y
_atom_site_fract_z
Si Si1 0.233404 0.283852 0.973340
Si Si2 0.200291 0.109650 0.668810
Si Si3 0.247809 0.725550 0.034428
Si Si4 0.292127 0.622711 0.602997
Si Si5 0.236655 0.008986 0.889739
Si Si6 0.468932 0.697576 0.453849
Si Si7 0.738944 0.667743 0.574690
O O1 0.192652 0.213947 0.789788
O O2 0.240246 0.295458 0.184262
O O3 0.000000 0.500000 0.000000
O O4 0.514368 0.123107 0.968069
O O5 0.172649 0.110644 0.828391
O O6 0.973038 0.218628 0.511389
O O7 0.477188 0.882762 0.557435
O O8 0.281944 0.788531 0.265008
O O9 0.001219 0.845283 0.023324
O O10 0.500000 0.500000 0.000000
O O11 0.252794 0.722591 0.847400
O O12 0.500000 0.500000 0.500000
O O13 0.400863 0.466990 0.569014
O O14 0.321444 0.861945 0.671227
O O15 0.683354 0.608642 0.462879
O O16 0.000000 0.500000 0.500000
#
# Coordination Sequence:
#
# PCOD9101393 Si02
#       7
#     2   2   2   2   2   2   2
#     4  10  21  38  59  85 115 152 191 236 292 345
#     4  10  20  38  59  83 116 153 191 239 288 342
#     4  10  21  36  58  84 112 152 193 233 288 343
#     4  11  23  38  57  86 117 152 195 241 288 342
#     4  10  20  38  60  84 113 152 192 237 290 344
#     4   9  20  40  59  82 117 153 190 240 289 341
#     4  10  22  38  59  88 116 150 194 238 287 343
#
# _framework density 19.780080000000002
#
# number of rings (size 3 to 8) (size 9 to 14) (size 15 to 20)
#    0.000    2.286    0.000    5.571    0.000    8.000 
#    0.000    8.571    0.000    0.000    0.000    0.000 
#    0.000    0.000    0.000    0.000    0.000    0.000 
#
# Total GULP energy -78142.319953 kJ/mol
# GULP energy per Si atom -5581.594282 kJ/mol
# Density = 1.973506 g / cm^3
# Si number density = 19.780080 Si / 1000 Ang^3
#
#
#
# Elastic Constant Matrix: (Units=GPa)
#
#
# Indices 1 2 3 4 5 6 
#
# 1 91.5115 60.6135 19.9161 6.7403 -3.8793 -24.0568
# 2 60.6135 133.4346 38.6986 -20.4151 -6.5999 -24.3000
# 3 19.9161 38.6986 54.2010 -24.1813 0.8377 -9.1968
# 4 6.7403 -20.4151 -24.1813 31.5526 -1.3674 1.6810
# 5 -3.8793 -6.5999 0.8377 -1.3674 23.4449 11.0236
# 6 -24.0568 -24.3000 -9.1968 1.6810 11.0236 50.6092
#
#
#
# Elastic Compliance Matrix: (Units=1/GPa)
#
#
# Indices 1 2 3 4 5 6 
#
# 1 0.021178 -0.009044 -0.007876 -0.016793 -0.002251 0.005341
# 2 -0.009044 0.014056 -0.002456 0.009193 0.002547 0.001143
# 3 -0.007876 -0.002456 0.035389 0.027062 -0.002192 0.001087
# 4 -0.016793 0.009193 0.027062 0.062178 0.003126 -0.001397
# 5 -0.002251 0.002547 -0.002192 0.003126 0.048377 -0.010887
# 6 0.005341 0.001143 0.001087 -0.001397 -0.010887 0.025462
#
#
# Mechanical properties :
#
#
# Convention : Reuss Voigt Hill
#
# Bulk Modulus (GPa) = 31.37662 57.51150 44.44406
# Shear Modulus (GPa) = 19.53013 31.78260 25.65637
#
# Velocity S-wave (km/s) = 3.14564 4.01284 3.60541
# Velocity P-wave (km/s) = 5.39357 7.11401 6.31267
#
# Compressibility (1/GPa) = 0.03187086
#
# Stress axis : x y z
#
# Youngs Moduli (GPa) = 47.21989 71.14586 28.25740
#
# Poissons Ratio (x) = 0.64344 0.22254
# Poissons Ratio (y) = 0.42705 0.06940
# Poissons Ratio (z) = 0.37188 0.17474
#
# Static dielectric constant tensor:
#      x y z
#    x 1.700290 0.012960 0.008650 
#    y 0.012960 1.716690 0.007160 
#    z 0.008650 0.007160 1.731750 
# 
# From -- ./inp_files/269557.got.cif
#   From: 2010.05.17/outbox.cif.g08.bks.cpg/sg2_135_cif.got.tgz:269557.got - 2010.06.03 11:33:40.
