data_PCOD9101248
_publ_section_title
;
Structure prediction by ZEFSAII (Michael W. Deem and Ramdas Pophale) SiO2 
 PCOD9101248
Probable space group: P -1
;
_chemical_formula_sum "Si O2"
_cell_formula_units_Z 14
_cell_length_a 10.384150
_cell_length_b 9.003360
_cell_length_c 15.504124
_cell_angle_alpha 64.894977
_cell_angle_beta 36.147323
_cell_angle_gamma 89.564623
_cell_volume 603.032211
_symmetry_space_group_name_H-M "P -1"
_symmetry_group_IT_number 2
_symmetry_cell_setting 'triclinic'
loop_
_space_group_symop_operation_xyz
x,y,z
-x,-y,-z
loop_
_atom_site_type_symbol
_atom_site_label
_atom_site_fract_x
_atom_site_fract_y
_atom_site_fract_z
Si Si1 0.998546 0.688554 0.981315
Si Si2 0.620758 0.842791 0.377243
Si Si3 0.874278 0.052451 0.825290
Si Si4 0.028522 0.515098 0.161166
Si Si5 0.911072 0.428903 0.680809
Si Si6 0.404436 0.392318 0.984263
Si Si7 0.439276 0.245352 0.773447
O O1 0.080638 0.704237 0.033550
O O2 0.708383 0.651825 0.146634
O O3 0.000000 0.500000 0.000000
O O4 0.229447 0.910414 0.756499
O O5 0.299684 0.683611 0.617468
O O6 0.633637 0.811024 0.275110
O O7 0.807731 0.811646 0.343697
O O8 0.791416 0.861425 0.854889
O O9 0.827634 0.201472 0.765559
O O10 0.695920 0.940159 0.037182
O O11 0.088200 0.566147 0.216600
O O12 0.221790 0.459121 0.034986
O O13 0.226354 0.608514 0.437056
O O14 0.688400 0.463529 0.767433
O O15 0.500000 0.500000 0.000000
#
# Coordination Sequence:
#
# PCOD9101248 Si02
#       7
#     2   2   2   2   2   2   2
#     4  11  21  33  54  86 116 144 182 226 279 338
#     4  10  21  36  59  89 114 143 182 228 287 342
#     4  11  20  36  61  83 112 147 184 236 280 323
#     4  10  20  38  58  80 118 150 176 231 287 328
#     4  10  21  38  60  82 109 151 193 227 271 330
#     4  10  23  40  56  80 114 153 195 230 269 327
#     4  10  21  37  59  89 116 140 183 232 281 342
#
# _framework density 23.216007000000001
#
# number of rings (size 3 to 8) (size 9 to 14) (size 15 to 20)
#    0.000    1.714    0.000    6.429    0.000    6.286 
#    0.000    1.429    0.000    7.714    0.000    0.000 
#    0.000    0.000    0.000    0.000    0.000    0.000 
#
# Total GULP energy -78222.914911 kJ/mol
# GULP energy per Si atom -5587.351065 kJ/mol
# Density = 2.316317 g / cm^3
# Si number density = 23.216007 Si / 1000 Ang^3
#
#
#
# Elastic Constant Matrix: (Units=GPa)
#
#
# Indices 1 2 3 4 5 6 
#
# 1 87.7081 37.0700 42.3231 16.1919 -18.5321 -8.2260
# 2 37.0700 119.2544 31.5399 9.8266 -12.2963 -3.5285
# 3 42.3231 31.5399 46.4435 2.8134 -26.4495 -18.7266
# 4 16.1919 9.8266 2.8134 22.8861 -0.6045 -1.8567
# 5 -18.5321 -12.2963 -26.4495 -0.6045 44.6724 6.1725
# 6 -8.2260 -3.5285 -18.7266 -1.8567 6.1725 52.4534
#
#
#
# Elastic Compliance Matrix: (Units=1/GPa)
#
#
# Indices 1 2 3 4 5 6 
#
# 1 0.026418 -0.000104 -0.028485 -0.015768 -0.005324 -0.005965
# 2 -0.000104 0.010900 -0.009412 -0.003713 -0.002321 -0.002502
# 3 -0.028485 -0.009412 0.077183 0.017063 0.028804 0.019669
# 4 -0.015768 -0.003713 0.017063 0.054822 0.002589 0.005005
# 5 -0.005324 -0.002321 0.028804 0.002589 0.035914 0.005158
# 6 -0.005965 -0.002502 0.019669 0.005005 0.005158 0.024553
#
#
# Mechanical properties :
#
#
# Convention : Reuss Voigt Hill
#
# Bulk Modulus (GPa) = 25.97666 52.80801 39.39234
# Shear Modulus (GPa) = 15.69241 33.50059 24.59650
#
# Velocity S-wave (km/s) = 2.60269 3.80280 3.25847
# Velocity P-wave (km/s) = 4.49949 6.48671 5.58224
#
# Compressibility (1/GPa) = 0.03849609
#
# Stress axis : x y z
#
# Youngs Moduli (GPa) = 37.85369 91.74358 12.95629
#
# Poissons Ratio (x) = 0.00957 0.36906
# Poissons Ratio (y) = 0.00395 0.12195
# Poissons Ratio (z) = 1.07827 0.86354
#
# Static dielectric constant tensor:
#      x y z
#    x 1.978450 0.096480 -0.026990 
#    y 0.096480 1.908980 0.022170 
#    z -0.026990 0.022170 1.830750 
# 
# From -- ./inp_files/157517.got.cif
#   From: 2010.05.17/outbox.cif.g08.bks.cpg/sg2_79_cif.got.tgz:157517.got - 2010.06.03 11:33:40.
