data_PCOD9101813
_publ_section_title
;
Structure prediction by ZEFSAII (Michael W. Deem and Ramdas Pophale) SiO2 
 PCOD9101813
Probable space group: P -1
;
_chemical_formula_sum "Si O2"
_cell_formula_units_Z 16
_cell_length_a 11.984896
_cell_length_b 14.140486
_cell_length_c 9.209589
_cell_angle_alpha 30.959824
_cell_angle_beta 110.214760
_cell_angle_gamma 100.718635
_cell_volume 733.521689
_symmetry_space_group_name_H-M "P -1"
_symmetry_group_IT_number 2
_symmetry_cell_setting 'triclinic'
loop_
_space_group_symop_operation_xyz
x,y,z
-x,-y,-z
loop_
_atom_site_type_symbol
_atom_site_label
_atom_site_fract_x
_atom_site_fract_y
_atom_site_fract_z
Si Si1 0.000076 0.086288 0.546496
Si Si2 0.339207 0.182213 0.817347
Si Si3 0.394030 0.517531 0.552362
Si Si4 0.201112 0.851837 0.142293
Si Si5 0.470978 0.705726 0.844556
Si Si6 0.208536 0.670053 0.687246
Si Si7 0.421488 0.020325 0.657195
Si Si8 0.207452 0.283090 0.336558
O O1 0.077245 0.248804 0.366117
O O2 0.870121 0.179419 0.434575
O O3 0.000000 0.000000 0.500000
O O4 0.078760 0.931277 0.893351
O O5 0.323892 0.351209 0.704393
O O6 0.296172 0.289843 0.505447
O O7 0.257954 0.026176 0.994534
O O8 0.479296 0.068722 0.057974
O O9 0.500000 0.500000 0.500000
O O10 0.301263 0.718457 0.259741
O O11 0.454380 0.469786 0.799712
O O12 0.175002 0.734777 0.423386
O O13 0.349610 0.666225 0.777319
O O14 0.542071 0.795722 0.636674
O O15 0.434986 0.866820 0.739543
O O16 0.191514 0.464165 0.991132
O O17 0.282994 0.090327 0.551421
#
# Coordination Sequence:
#
# PCOD9101813 Si02
#       8
#     2   2   2   2   2   2   2   2
#     4  11  27  48  71  94 130 183 236 280 337 399
#     4  10  23  39  64  98 140 171 222 273 336 410
#     4  11  25  38  65 106 143 174 226 277 343 411
#     4  11  26  46  70  99 136 183 225 280 349 399
#     4  10  22  36  64  98 139 172 217 272 338 405
#     4  12  24  45  69  98 140 176 231 281 332 405
#     4  10  20  38  60  99 134 177 216 269 341 408
#     4  11  24  39  70  94 133 172 228 279 346 392
#
# _framework density 21.812578999999999
#
# number of rings (size 3 to 8) (size 9 to 14) (size 15 to 20)
#    0.000    1.250    1.250    3.375   14.000    1.000 
#    2.250    0.625    0.000    0.000    0.000    0.000 
#    0.000    0.000    0.000    0.000    0.000    0.000 
#
# Total GULP energy -89469.624362 kJ/mol
# GULP energy per Si atom -5591.851523 kJ/mol
# Density = 2.176293 g / cm^3
# Si number density = 21.812579 Si / 1000 Ang^3
#
#
#
# Elastic Constant Matrix: (Units=GPa)
#
#
# Indices 1 2 3 4 5 6 
#
# 1 43.0540 19.3441 17.4927 -3.5301 -0.0007 -13.0044
# 2 19.3441 93.0920 40.9478 10.2980 9.0395 -11.1155
# 3 17.4927 40.9478 147.2155 11.6343 -12.0455 5.0579
# 4 -3.5301 10.2980 11.6343 28.2216 -8.5614 4.5484
# 5 -0.0007 9.0395 -12.0455 -8.5614 26.4279 -0.0281
# 6 -13.0044 -11.1155 5.0579 4.5484 -0.0281 25.8334
#
#
#
# Elastic Compliance Matrix: (Units=1/GPa)
#
#
# Indices 1 2 3 4 5 6 
#
# 1 0.030886 -0.004052 -0.003278 0.004965 0.001516 0.013573
# 2 -0.004052 0.016519 -0.004524 -0.009119 -0.010659 0.007548
# 3 -0.003278 -0.004524 0.009086 0.000097 0.005714 -0.005386
# 4 0.004965 -0.009119 0.000097 0.046406 0.018187 -0.009594
# 5 0.001516 -0.010659 0.005714 0.018187 0.049972 -0.008089
# 6 0.013573 0.007548 -0.005386 -0.009594 -0.008089 0.051525
#
#
# Mechanical properties :
#
#
# Convention : Reuss Voigt Hill
#
# Bulk Modulus (GPa) = 30.50351 48.77009 39.63680
# Shear Modulus (GPa) = 20.91807 29.80172 25.35990
#
# Velocity S-wave (km/s) = 3.10012 3.70031 3.41343
# Velocity P-wave (km/s) = 5.17967 6.37680 5.80916
#
# Compressibility (1/GPa) = 0.03278311
#
# Stress axis : x y z
#
# Youngs Moduli (GPa) = 32.37731 60.53638 110.06547
#
# Poissons Ratio (x) = 0.24529 0.36075
# Poissons Ratio (y) = 0.13119 0.49794
# Poissons Ratio (z) = 0.10612 0.27387
#
# Static dielectric constant tensor:
#      x y z
#    x 1.771090 -0.018550 -0.027140 
#    y -0.018550 1.811010 -0.009240 
#    z -0.027140 -0.009240 1.808020 
# 
# From -- ./inp_files/271403.got.cif
#   From: 2010.05.17/outbox.cif.g08.bks.cpg/sg2_136_cif.got.tgz:271403.got - 2010.06.03 11:33:40.
