data_PCOD9101321
_publ_section_title
;
Structure prediction by ZEFSAII (Michael W. Deem and Ramdas Pophale) SiO2 
 PCOD9101321
Probable space group: P -1
;
_chemical_formula_sum "Si O2"
_cell_formula_units_Z 15
_cell_length_a 5.823042
_cell_length_b 9.291027
_cell_length_c 19.331304
_cell_angle_alpha 145.413289
_cell_angle_beta 94.376953
_cell_angle_gamma 86.023171
_cell_volume 591.916288
_symmetry_space_group_name_H-M "P -1"
_symmetry_group_IT_number 2
_symmetry_cell_setting 'triclinic'
loop_
_space_group_symop_operation_xyz
x,y,z
-x,-y,-z
loop_
_atom_site_type_symbol
_atom_site_label
_atom_site_fract_x
_atom_site_fract_y
_atom_site_fract_z
Si Si1 0.008523 0.581584 0.921940
Si Si2 0.616235 0.052096 0.919704
Si Si3 0.901041 0.866762 0.676072
Si Si4 0.398711 0.409067 0.175812
Si Si5 0.601812 0.049078 0.625716
Si Si6 0.742356 0.763959 0.114546
Si Si7 0.793782 0.356658 0.532007
Si Si8 0.000000 0.000000 0.500000
O O1 0.212202 0.387961 0.873423
O O2 0.865804 0.533155 0.830551
O O3 0.123335 0.856619 0.030910
O O4 0.833037 0.585213 0.983821
O O5 0.503190 0.136005 0.877714
O O6 0.584055 0.759393 0.822012
O O7 0.491696 0.221362 0.043608
O O8 0.769224 0.650715 0.629439
O O9 0.054745 0.748313 0.570568
O O10 0.733104 0.055245 0.704795
O O11 0.082550 0.005521 0.783318
O O12 0.521212 0.680332 0.285513
O O13 0.780563 0.012940 0.553667
O O14 0.433436 0.813082 0.536076
O O15 0.923707 0.277332 0.573236
#
# Coordination Sequence:
#
# PCOD9101321 Si02
#       8
#     2   2   2   2   2   2   2   1
#     4  10  20  38  58  87 127 163 207 257 307 380
#     4  10  22  37  59  92 128 163 210 259 304 389
#     4  10  22  41  62  93 125 165 217 269 310 380
#     4  10  22  38  60  92 124 165 212 252 318 379
#     4  11  22  41  67  90 125 174 211 264 328 381
#     4  10  21  36  59  91 123 162 208 257 314 370
#     4  10  23  41  65  92 125 163 216 267 323 379
#     4  10  24  42  62  92 126 160 214 272 316 382
#
# _framework density 25.341424
#
# number of rings (size 3 to 8) (size 9 to 14) (size 15 to 20)
#    0.000    1.867    1.333    1.600    1.867    3.200 
#    0.000    1.333    0.000    0.000    0.000    0.000 
#    0.000    0.000    0.000    0.000    0.000    0.000 
#
# Total GULP energy -83609.774300 kJ/mol
# GULP energy per Si atom -5573.984953 kJ/mol
# Density = 2.528375 g / cm^3
# Si number density = 25.341424 Si / 1000 Ang^3
#
#
#
# Elastic Constant Matrix: (Units=GPa)
#
#
# Indices 1 2 3 4 5 6 
#
# 1 47.9998 53.0318 24.3069 1.8928 1.8975 17.3090
# 2 53.0318 158.7458 44.1215 19.3196 -10.2406 25.0689
# 3 24.3069 44.1215 74.4088 17.8277 8.4036 15.5576
# 4 1.8928 19.3196 17.8277 46.0328 5.5899 9.7632
# 5 1.8975 -10.2406 8.4036 5.5899 30.6221 5.7658
# 6 17.3090 25.0689 15.5576 9.7632 5.7658 39.4627
#
#
#
# Elastic Compliance Matrix: (Units=1/GPa)
#
#
# Indices 1 2 3 4 5 6 
#
# 1 0.039428 -0.011418 -0.005569 0.007803 -0.004439 -0.009126
# 2 -0.011418 0.012057 -0.002901 -0.003946 0.006536 -0.001486
# 3 -0.005569 -0.002901 0.018985 -0.005071 -0.004672 -0.001262
# 4 0.007803 -0.003946 -0.005071 0.026581 -0.004349 -0.004858
# 5 -0.004439 0.006536 -0.004672 -0.004349 0.038107 -0.004855
# 6 -0.009126 -0.001486 -0.001262 -0.004858 -0.004855 0.032696
#
#
# Mechanical properties :
#
#
# Convention : Reuss Voigt Hill
#
# Bulk Modulus (GPa) = 32.58139 58.23053 45.40596
# Shear Modulus (GPa) = 22.95032 33.86980 28.41006
#
# Velocity S-wave (km/s) = 3.01266 3.65984 3.35190
# Velocity P-wave (km/s) = 4.99864 6.39433 5.73907
#
# Compressibility (1/GPa) = 0.03069237
#
# Stress axis : x y z
#
# Youngs Moduli (GPa) = 25.36275 82.94136 52.67231
#
# Poissons Ratio (x) = 0.94706 0.29333
# Poissons Ratio (y) = 0.28960 0.15282
# Poissons Ratio (z) = 0.14125 0.24064
#
# Static dielectric constant tensor:
#      x y z
#    x 2.039590 -0.030180 0.005860 
#    y -0.030180 1.991120 0.035920 
#    z 0.005860 0.035920 2.116660 
# 
# From -- ./inp_files/509634.got.cif
#   From: 2010.05.17/outbox.cif.g08.bks.cpg/sg2_255_cif.got.tgz:509634.got - 2010.06.03 11:33:40.
