data_PCOD9101516
_publ_section_title
;
Structure prediction by ZEFSAII (Michael W. Deem and Ramdas Pophale) SiO2 
 PCOD9101516
Probable space group: P -1
;
_chemical_formula_sum "Si O2"
_cell_formula_units_Z 16
_cell_length_a 9.028660
_cell_length_b 17.088444
_cell_length_c 8.635846
_cell_angle_alpha 145.490480
_cell_angle_beta 92.200976
_cell_angle_gamma 93.028108
_cell_volume 745.854219
_symmetry_space_group_name_H-M "P -1"
_symmetry_group_IT_number 2
_symmetry_cell_setting 'triclinic'
loop_
_space_group_symop_operation_xyz
x,y,z
-x,-y,-z
loop_
_atom_site_type_symbol
_atom_site_label
_atom_site_fract_x
_atom_site_fract_y
_atom_site_fract_z
Si Si1 0.104890 0.974557 0.107397
Si Si2 0.314825 0.629142 0.273725
Si Si3 0.488034 0.548819 0.864677
Si Si4 0.339166 0.936784 0.827896
Si Si5 0.223196 0.476706 0.545139
Si Si6 0.933232 0.521334 0.784512
Si Si7 0.780447 0.778756 0.264497
Si Si8 0.187383 0.150041 0.959713
O O1 0.180931 0.117784 0.422837
O O2 0.991164 0.888820 0.082290
O O3 0.233151 0.901148 0.915808
O O4 0.000000 0.000000 0.000000
O O5 0.430397 0.587721 0.340933
O O6 0.339511 0.791700 0.504274
O O7 0.148096 0.576525 0.243383
O O8 0.368240 0.547652 0.996596
O O9 0.387564 0.554575 0.719102
O O10 0.622202 0.676689 0.101421
O O11 0.271538 0.047975 0.899473
O O12 0.500000 0.000000 0.000000
O O13 0.161798 0.511488 0.431754
O O14 0.099955 0.506349 0.715535
O O15 0.230797 0.311137 0.273073
O O16 0.906434 0.676886 0.084794
O O17 0.779766 0.862244 0.240130
#
# Coordination Sequence:
#
# PCOD9101516 Si02
#       8
#     2   2   2   2   2   2   2   2
#     4  10  22  39  61  85 117 157 197 242 290 352
#     4  10  21  38  55  85 115 153 195 237 296 339
#     4  10  22  38  63  86 120 151 187 250 293 351
#     4  11  22  37  58  85 119 157 199 241 286 351
#     4  10  20  38  59  93 118 150 195 236 301 344
#     4   9  21  37  62  87 119 151 193 248 284 353
#     4  10  21  41  60  88 119 154 199 241 301 348
#     4  10  22  38  61  85 120 161 194 241 290 352
#
# _framework density 21.451915
#
# number of rings (size 3 to 8) (size 9 to 14) (size 15 to 20)
#    0.000    2.000    0.000    2.625    0.000   13.000 
#    0.000    5.000    0.000    0.000    0.000    0.000 
#    0.000    0.000    0.000    0.000    0.000    0.000 
#
# Total GULP energy -89367.251419 kJ/mol
# GULP energy per Si atom -5585.453214 kJ/mol
# Density = 2.140309 g / cm^3
# Si number density = 21.451915 Si / 1000 Ang^3
#
#
#
# Elastic Constant Matrix: (Units=GPa)
#
#
# Indices 1 2 3 4 5 6 
#
# 1 97.0740 29.3487 28.0034 -4.6368 3.3867 -2.5360
# 2 29.3487 73.5281 5.4955 3.4804 2.6729 6.4191
# 3 28.0034 5.4955 72.2616 1.2772 3.5519 -8.8595
# 4 -4.6368 3.4804 1.2772 18.0396 6.6580 0.5581
# 5 3.3867 2.6729 3.5519 6.6580 34.9222 -6.9266
# 6 -2.5360 6.4191 -8.8595 0.5581 -6.9266 30.6263
#
#
#
# Elastic Compliance Matrix: (Units=1/GPa)
#
#
# Indices 1 2 3 4 5 6 
#
# 1 0.013623 -0.005317 -0.004849 0.005358 -0.001356 0.000435
# 2 -0.005317 0.016242 0.000469 -0.004143 -0.000739 -0.003801
# 3 -0.004849 0.000469 0.016247 -0.002671 0.000140 0.004281
# 4 0.005358 -0.004143 -0.002671 0.062532 -0.012534 -0.003435
# 5 -0.001356 -0.000739 0.000140 -0.012534 0.032728 0.007714
# 6 0.000435 -0.003801 0.004281 -0.003435 0.007714 0.036530
#
#
# Mechanical properties :
#
#
# Convention : Reuss Voigt Hill
#
# Bulk Modulus (GPa) = 37.42966 40.95100 39.19033
# Shear Modulus (GPa) = 24.24795 28.71869 26.48332
#
# Velocity S-wave (km/s) = 3.36570 3.66286 3.51742
# Velocity P-wave (km/s) = 5.70876 6.08439 5.89957
#
# Compressibility (1/GPa) = 0.02671678
#
# Stress axis : x y z
#
# Youngs Moduli (GPa) = 73.40775 61.56732 61.54844
#
# Poissons Ratio (x) = 0.32737 0.29847
# Poissons Ratio (y) = 0.39033 -0.02886
# Poissons Ratio (z) = 0.35598 -0.02887
#
# Static dielectric constant tensor:
#      x y z
#    x 1.819080 0.129800 0.027420 
#    y 0.129800 2.431640 0.114410 
#    z 0.027420 0.114410 1.798200 
# 
# From -- ./inp_files/184158.got.cif
#   From: 2010.05.17/outbox.cif.g08.bks.cpg/sg2_93_cif.got.tgz:184158.got - 2010.06.03 11:33:40.
