data_PCOD9101730
_publ_section_title
;
Structure prediction by ZEFSAII (Michael W. Deem and Ramdas Pophale) SiO2 
 PCOD9101730
Probable space group: P -1
;
_chemical_formula_sum "Si O2"
_cell_formula_units_Z 16
_cell_length_a 11.458573
_cell_length_b 12.615144
_cell_length_c 18.892803
_cell_angle_alpha 28.303284
_cell_angle_beta 42.846126
_cell_angle_gamma 33.989852
_cell_volume 723.837488
_symmetry_space_group_name_H-M "P -1"
_symmetry_group_IT_number 2
_symmetry_cell_setting 'triclinic'
loop_
_space_group_symop_operation_xyz
x,y,z
-x,-y,-z
loop_
_atom_site_type_symbol
_atom_site_label
_atom_site_fract_x
_atom_site_fract_y
_atom_site_fract_z
Si Si1 0.123723 0.078058 0.347123
Si Si2 0.414192 0.280653 0.616215
Si Si3 0.723000 0.034689 0.298552
Si Si4 0.266659 0.608873 0.183080
Si Si5 0.972254 0.564626 0.700832
Si Si6 0.644018 0.563022 0.604738
Si Si7 0.842387 0.087964 0.359986
Si Si8 0.356039 0.818136 0.896935
O O1 0.101474 0.332303 0.247241
O O2 0.362999 0.818826 0.392694
O O3 0.000000 0.000000 0.500000
O O4 0.003364 0.144785 0.287784
O O5 0.220433 0.409241 0.679028
O O6 0.334264 0.473458 0.468749
O O7 0.452327 0.993469 0.744774
O O8 0.488310 0.308429 0.253006
O O9 0.799490 0.054929 0.175316
O O10 0.699816 0.784501 0.462189
O O11 0.861971 0.024079 0.306308
O O12 0.239779 0.638535 0.262172
O O13 0.104067 0.595160 0.213690
O O14 0.289816 0.822221 0.004318
O O15 0.877642 0.831972 0.537193
O O16 0.400410 0.680433 0.654202
O O17 0.500000 0.500000 0.000000
#
# Coordination Sequence:
#
# PCOD9101730 Si02
#       8
#     2   2   2   2   2   2   2   2
#     4  10  20  35  53  80 111 141 182 224 269 304
#     4  11  22  35  54  85 107 142 183 220 263 324
#     4   9  15  30  56  81 106 138 178 218 269 325
#     4  10  17  31  54  78 109 144 167 217 275 315
#     4  11  20  33  56  78 113 143 175 223 270 312
#     4  10  16  32  54  80 108 136 178 216 272 326
#     4  10  17  32  55  81 107 143 175 224 270 312
#     4   9  19  33  55  80 112 139 177 218 269 325
#
# _framework density 22.104409
#
# number of rings (size 3 to 8) (size 9 to 14) (size 15 to 20)
#    0.000    2.000    5.000    2.250    0.000    3.000 
#    0.000    0.000    0.000   12.000    0.000    8.750 
#    0.000    0.000    0.000    0.000    0.000    0.000 
#
# Total GULP energy -89184.931090 kJ/mol
# GULP energy per Si atom -5574.058193 kJ/mol
# Density = 2.205410 g / cm^3
# Si number density = 22.104409 Si / 1000 Ang^3
#
#
#
# Elastic Constant Matrix: (Units=GPa)
#
#
# Indices 1 2 3 4 5 6 
#
# 1 158.5433 42.1592 31.5771 6.6349 30.5298 -18.0701
# 2 42.1592 78.3557 -3.6503 1.4707 8.0726 -20.4583
# 3 31.5771 -3.6503 75.6790 8.2179 29.8972 -4.1318
# 4 6.6349 1.4707 8.2179 16.8730 5.4047 5.1288
# 5 30.5298 8.0726 29.8972 5.4047 30.6793 1.6259
# 6 -18.0701 -20.4583 -4.1318 5.1288 1.6259 35.6835
#
#
#
# Elastic Compliance Matrix: (Units=1/GPa)
#
#
# Indices 1 2 3 4 5 6 
#
# 1 0.009215 -0.003341 -0.000690 -0.001575 -0.007513 0.003240
# 2 -0.003341 0.018452 0.006256 -0.004161 -0.007453 0.010549
# 3 -0.000690 0.006256 0.024508 -0.006994 -0.024043 0.008176
# 4 -0.001575 -0.004161 -0.006994 0.068424 -0.001849 -0.013743
# 5 -0.007513 -0.007453 -0.024043 -0.001849 0.066511 -0.013626
# 6 0.003240 0.010549 0.008176 -0.013743 -0.013626 0.039256
#
#
# Mechanical properties :
#
#
# Convention : Reuss Voigt Hill
#
# Bulk Modulus (GPa) = 17.66033 50.30555 33.98294
# Shear Modulus (GPa) = 20.76501 32.81329 26.78915
#
# Velocity S-wave (km/s) = 3.06830 3.85706 3.48507
# Velocity P-wave (km/s) = 4.53425 6.53019 5.62152
#
# Compressibility (1/GPa) = 0.05662409
#
# Stress axis : x y z
#
# Youngs Moduli (GPa) = 108.51669 54.19579 40.80352
#
# Poissons Ratio (x) = 0.18107 0.02817
# Poissons Ratio (y) = 0.36255 -0.25527
# Poissons Ratio (z) = 0.07492 -0.33906
#
# Static dielectric constant tensor:
#      x y z
#    x 1.903790 0.047220 -0.009780 
#    y 0.047220 1.937330 0.012050 
#    z -0.009780 0.012050 1.805050 
# 
# From -- ./inp_files/595345.got.cif
#   From: 2010.05.17/outbox.cif.g08.bks.cpg/sg2_298_cif.got.tgz:595345.got - 2010.06.03 11:33:40.
