data_PCOD9101332
_publ_section_title
;
Structure prediction by ZEFSAII (Michael W. Deem and Ramdas Pophale) SiO2 
 PCOD9101332
Probable space group: P -1
;
_chemical_formula_sum "Si O2"
_cell_formula_units_Z 14
_cell_length_a 13.634001
_cell_length_b 14.390114
_cell_length_c 14.290426
_cell_angle_alpha 26.775193
_cell_angle_beta 29.397124
_cell_angle_gamma 30.170471
_cell_volume 570.326712
_symmetry_space_group_name_H-M "P -1"
_symmetry_group_IT_number 2
_symmetry_cell_setting 'triclinic'
loop_
_space_group_symop_operation_xyz
x,y,z
-x,-y,-z
loop_
_atom_site_type_symbol
_atom_site_label
_atom_site_fract_x
_atom_site_fract_y
_atom_site_fract_z
Si Si1 0.379507 0.562209 0.921574
Si Si2 0.159190 0.567151 0.904115
Si Si3 0.683824 0.079947 0.601373
Si Si4 0.618692 0.110247 0.232409
Si Si5 0.712986 0.693433 0.416266
Si Si6 0.451608 0.721628 0.278116
Si Si7 0.950509 0.354316 0.379886
O O1 0.238343 0.596861 0.915314
O O2 0.274305 0.759571 0.907266
O O3 0.601152 0.586643 0.680447
O O4 0.449887 0.317134 0.127561
O O5 0.157101 0.782694 0.656824
O O6 0.349484 0.356407 0.888483
O O7 0.947864 0.516394 0.147811
O O8 0.469105 0.208680 0.602417
O O9 0.606905 0.088986 0.764133
O O10 0.822292 0.850229 0.641239
O O11 0.500000 0.000000 0.500000
O O12 0.749435 0.903226 0.242111
O O13 0.911824 0.498228 0.376920
O O14 0.500000 0.500000 0.500000
O O15 0.236118 0.742143 0.382660
#
# Coordination Sequence:
#
# PCOD9101332 Si02
#       7
#     2   2   2   2   2   2   2
#     4   9  17  37  60  86 124 156 194 250 303 353
#     4  10  22  39  62  89 122 161 204 250 300 360
#     4  10  22  40  59  87 127 160 205 255 293 356
#     4   9  18  32  63  92 114 161 196 240 312 356
#     4  10  20  38  58  88 125 156 200 253 295 355
#     4  10  20  42  59  87 129 157 203 259 291 352
#     4  12  22  38  63  88 121 167 204 243 308 354
#
# _framework density 24.547332999999998
#
# number of rings (size 3 to 8) (size 9 to 14) (size 15 to 20)
#    0.000    2.000    4.286    1.286    0.000    4.000 
#    2.571    0.714    0.000   35.143    0.000    0.000 
#    0.000    0.000    0.000    0.000    0.000    0.000 
#
# Total GULP energy -78196.206261 kJ/mol
# GULP energy per Si atom -5585.443304 kJ/mol
# Density = 2.449146 g / cm^3
# Si number density = 24.547333 Si / 1000 Ang^3
#
#
#
# Elastic Constant Matrix: (Units=GPa)
#
#
# Indices 1 2 3 4 5 6 
#
# 1 94.7280 47.5683 11.1710 -1.7165 -3.1660 36.8534
# 2 47.5683 160.5895 33.5631 -7.1760 -16.0921 54.1411
# 3 11.1710 33.5631 84.4674 3.5660 5.4380 10.5037
# 4 -1.7165 -7.1760 3.5660 39.3068 6.3000 -4.2334
# 5 -3.1660 -16.0921 5.4380 6.3000 15.0560 -4.8515
# 6 36.8534 54.1411 10.5037 -4.2334 -4.8515 44.1740
#
#
#
# Elastic Compliance Matrix: (Units=1/GPa)
#
#
# Indices 1 2 3 4 5 6 
#
# 1 0.015685 -0.000460 -0.000237 -0.000588 -0.000929 -0.012624
# 2 -0.000460 0.012674 -0.004035 -0.000493 0.010912 -0.013040
# 3 -0.000237 -0.004035 0.013972 -0.000495 -0.008947 0.000791
# 4 -0.000588 -0.000493 -0.000495 0.027433 -0.011106 0.002623
# 5 -0.000929 0.010912 -0.008947 -0.011106 0.085058 -0.002194
# 6 -0.012624 -0.013040 0.000791 0.002623 -0.002194 0.048974
#
#
# Mechanical properties :
#
#
# Convention : Reuss Voigt Hill
#
# Bulk Modulus (GPa) = 30.42595 58.26553 44.34574
# Shear Modulus (GPa) = 22.29986 36.20620 29.25303
#
# Velocity S-wave (km/s) = 3.01731 3.84468 3.45584
# Velocity P-wave (km/s) = 4.95586 6.59517 5.83339
#
# Compressibility (1/GPa) = 0.03286669
#
# Stress axis : x y z
#
# Youngs Moduli (GPa) = 63.75500 78.89999 71.57037
#
# Poissons Ratio (x) = 0.03628 0.01697
# Poissons Ratio (y) = 0.02931 0.28882
# Poissons Ratio (z) = 0.01512 0.31840
#
# Static dielectric constant tensor:
#      x y z
#    x 1.988850 0.028700 -0.048500 
#    y 0.028700 1.945150 -0.028970 
#    z -0.048500 -0.028970 2.008910 
# 
# From -- ./inp_files/534039.got.cif
#   From: 2010.05.17/outbox.cif.g08.bks.cpg/sg2_268_cif.got.tgz:534039.got - 2010.06.03 11:33:40.
