data_PCOD9101550
_publ_section_title
;
Structure prediction by ZEFSAII (Michael W. Deem and Ramdas Pophale) SiO2 
 PCOD9101550
Probable space group: P -1
;
_chemical_formula_sum "Si O2"
_cell_formula_units_Z 16
_cell_length_a 17.110914
_cell_length_b 9.726503
_cell_length_c 14.513434
_cell_angle_alpha 145.693501
_cell_angle_beta 152.017102
_cell_angle_gamma 47.056773
_cell_volume 628.086690
_symmetry_space_group_name_H-M "P -1"
_symmetry_group_IT_number 2
_symmetry_cell_setting 'triclinic'
loop_
_space_group_symop_operation_xyz
x,y,z
-x,-y,-z
loop_
_atom_site_type_symbol
_atom_site_label
_atom_site_fract_x
_atom_site_fract_y
_atom_site_fract_z
Si Si1 0.364585 0.330603 0.442393
Si Si2 0.199739 0.831908 0.338824
Si Si3 0.696818 0.257837 0.276270
Si Si4 0.188335 0.059345 0.270433
Si Si5 0.818172 0.702277 0.933795
Si Si6 0.656319 0.656397 0.129678
Si Si7 0.286319 0.291844 0.973891
Si Si8 0.824855 0.462991 0.351496
O O1 0.249752 0.529033 0.473228
O O2 0.326240 0.126764 0.370673
O O3 0.309956 0.201657 0.216611
O O4 0.545591 0.507110 0.717927
O O5 0.251842 0.593756 0.307170
O O6 0.225621 0.855014 0.268628
O O7 0.286082 0.080938 0.616194
O O8 0.999064 0.789694 0.124790
O O9 0.809375 0.257474 0.300873
O O10 0.528499 0.336508 0.099455
O O11 0.672629 0.986579 0.143936
O O12 0.185879 0.295287 0.464597
O O13 0.000000 0.000000 0.000000
O O14 0.833270 0.732900 0.075981
O O15 0.680594 0.450296 0.115684
O O16 0.770240 0.639268 0.147919
O O17 0.000000 0.500000 0.500000
#
# Coordination Sequence:
#
# PCOD9101550 Si02
#       8
#     2   2   2   2   2   2   2   2
#     4  10  20  39  60  85 116 155 200 242 297 360
#     4  10  22  38  58  83 119 161 197 240 308 355
#     4  10  21  39  65  87 122 163 198 245 304 360
#     4  10  20  38  60  81 113 157 198 236 299 356
#     4  11  22  37  57  88 121 154 201 250 291 356
#     4  10  21  41  59  87 124 159 201 240 306 360
#     4  11  23  37  62  91 120 158 204 248 298 350
#     4  10  23  38  61  92 122 154 204 251 296 351
#
# _framework density 25.47419
#
# number of rings (size 3 to 8) (size 9 to 14) (size 15 to 20)
#    0.000    1.750    1.250    3.750    3.500    2.500 
#    2.250    0.625    0.000    0.000    0.000    0.000 
#    0.000    0.000    0.000    0.000    0.000    0.000 
#
# Total GULP energy -89376.603475 kJ/mol
# GULP energy per Si atom -5586.037717 kJ/mol
# Density = 2.541621 g / cm^3
# Si number density = 25.474190 Si / 1000 Ang^3
#
#
#
# Elastic Constant Matrix: (Units=GPa)
#
#
# Indices 1 2 3 4 5 6 
#
# 1 79.4270 18.1407 8.8153 -3.1460 -0.6611 26.8779
# 2 18.1407 53.0244 9.5141 -2.9869 2.7007 26.3869
# 3 8.8153 9.5141 55.0366 -5.4137 -9.4048 9.7891
# 4 -3.1460 -2.9869 -5.4137 27.7519 13.5175 -4.7975
# 5 -0.6611 2.7007 -9.4048 13.5175 41.0807 0.9269
# 6 26.8779 26.3869 9.7891 -4.7975 0.9269 34.4510
#
#
#
# Elastic Compliance Matrix: (Units=1/GPa)
#
#
# Indices 1 2 3 4 5 6 
#
# 1 0.017192 0.001279 -0.000370 -0.000821 0.000703 -0.014421
# 2 0.001279 0.030776 -0.001555 -0.000153 -0.001764 -0.024102
# 3 -0.000370 -0.001555 0.020105 0.000765 0.004543 -0.004249
# 4 -0.000821 -0.000153 0.000765 0.044417 -0.014604 0.007119
# 5 0.000703 -0.001764 0.004543 -0.014604 0.030390 -0.003340
# 6 -0.014421 -0.024102 -0.004249 0.007119 -0.003340 0.061026
#
#
# Mechanical properties :
#
#
# Convention : Reuss Voigt Hill
#
# Bulk Modulus (GPa) = 14.97442 28.93647 21.95544
# Shear Modulus (GPa) = 21.98188 30.72459 26.35323
#
# Velocity S-wave (km/s) = 2.94072 3.47667 3.21986
# Velocity P-wave (km/s) = 4.17390 5.24406 4.73928
#
# Compressibility (1/GPa) = 0.06678057
#
# Stress axis : x y z
#
# Youngs Moduli (GPa) = 58.16507 32.49299 49.73856
#
# Poissons Ratio (x) = -0.04155 0.01843
# Poissons Ratio (y) = -0.07438 0.07733
# Poissons Ratio (z) = 0.02155 0.05052
#
# Static dielectric constant tensor:
#      x y z
#    x 2.123030 -0.010780 -0.011100 
#    y -0.010780 2.060680 0.025440 
#    z -0.011100 0.025440 1.990570 
# 
# From -- ./inp_files/179278.got.cif
#   From: 2010.05.17/outbox.cif.g08.bks.cpg/sg2_90_cif.got.tgz:179278.got - 2010.06.03 11:33:40.
