data_PCOD9101391
_publ_section_title
;
Structure prediction by ZEFSAII (Michael W. Deem and Ramdas Pophale) SiO2 
 PCOD9101391
Probable space group: P -1
;
_chemical_formula_sum "Si O2"
_cell_formula_units_Z 16
_cell_length_a 14.576127
_cell_length_b 13.765876
_cell_length_c 13.730578
_cell_angle_alpha 158.959335
_cell_angle_beta 81.599869
_cell_angle_gamma 87.661183
_cell_volume 848.138404
_symmetry_space_group_name_H-M "P -1"
_symmetry_group_IT_number 2
_symmetry_cell_setting 'triclinic'
loop_
_space_group_symop_operation_xyz
x,y,z
-x,-y,-z
loop_
_atom_site_type_symbol
_atom_site_label
_atom_site_fract_x
_atom_site_fract_y
_atom_site_fract_z
Si Si1 0.831653 0.842815 0.283572
Si Si2 0.605597 0.641958 0.543350
Si Si3 0.706776 0.111500 0.738557
Si Si4 0.945991 0.234074 0.816364
Si Si5 0.458284 0.359817 0.235297
Si Si6 0.231515 0.539584 0.808304
Si Si7 0.512692 0.860117 0.259488
Si Si8 0.632668 0.220910 0.541133
O O1 0.949742 0.760281 0.155066
O O2 0.774334 0.090502 0.612381
O O3 0.748542 0.957585 0.315511
O O4 0.857733 0.536685 0.054835
O O5 0.537568 0.482837 0.371479
O O6 0.605745 0.643120 0.661704
O O7 0.721212 0.469249 0.313176
O O8 0.537293 0.002600 0.857459
O O9 0.599247 0.110497 0.726217
O O10 0.766923 0.787500 0.486366
O O11 0.689809 0.402419 0.078030
O O12 0.882532 0.200824 0.886176
O O13 0.000000 0.000000 0.500000
O O14 0.382285 0.581973 0.370007
O O15 0.500000 0.000000 0.500000
O O16 0.562748 0.051198 0.378681
O O17 0.589681 0.491002 0.883599
#
# Coordination Sequence:
#
# PCOD9101391 Si02
#       8
#     2   2   2   2   2   2   2   2
#     4  10  23  36  53  78 111 151 188 231 279 332
#     4  10  20  38  59  83 113 144 188 232 277 333
#     4  11  21  34  52  79 115 147 182 217 273 333
#     4  10  21  39  56  76 110 149 193 238 282 330
#     4  10  21  38  58  83 114 149 182 228 280 338
#     4  11  21  34  59  81 105 146 190 232 274 325
#     4  12  24  34  50  81 120 155 182 218 268 344
#     4  12  24  37  55  81 117 155 188 225 282 338
#
# _framework density 18.864846
#
# number of rings (size 3 to 8) (size 9 to 14) (size 15 to 20)
#    0.000    1.250    2.500    4.875    3.500    0.000 
#    0.000    0.000    0.000    0.750    0.000    0.875 
#    0.000    0.000    0.000    0.000    0.000    0.000 
#
# Total GULP energy -89124.877372 kJ/mol
# GULP energy per Si atom -5570.304836 kJ/mol
# Density = 1.882191 g / cm^3
# Si number density = 18.864846 Si / 1000 Ang^3
#
#
#
# Elastic Constant Matrix: (Units=GPa)
#
#
# Indices 1 2 3 4 5 6 
#
# 1 86.7366 40.0286 37.1826 3.8440 2.9834 11.3384
# 2 40.0286 96.2586 20.3060 -8.2905 -19.3370 7.9311
# 3 37.1826 20.3060 84.2045 -2.6664 3.3210 6.3566
# 4 3.8440 -8.2905 -2.6664 28.9726 4.8050 -8.3238
# 5 2.9834 -19.3370 3.3210 4.8050 32.6907 -1.9902
# 6 11.3384 7.9311 6.3566 -8.3238 -1.9902 24.3163
#
#
#
# Elastic Compliance Matrix: (Units=1/GPa)
#
#
# Indices 1 2 3 4 5 6 
#
# 1 0.019092 -0.007650 -0.006025 -0.006580 -0.005146 -0.007506
# 2 -0.007650 0.015968 -0.000781 0.004131 0.009663 0.000768
# 3 -0.006025 -0.000781 0.014880 0.002172 -0.001757 -0.000226
# 4 -0.006580 0.004131 0.002172 0.041520 -0.002356 0.015173
# 5 -0.005146 0.009663 -0.001757 -0.002356 0.037419 0.001963
# 6 -0.007506 0.000768 -0.000226 0.015173 0.001963 0.049788
#
#
# Mechanical properties :
#
#
# Convention : Reuss Voigt Hill
#
# Bulk Modulus (GPa) = 47.55437 51.35936 49.45686
# Shear Modulus (GPa) = 23.30040 28.50807 25.90423
#
# Velocity S-wave (km/s) = 3.51824 3.89160 3.70962
# Velocity P-wave (km/s) = 6.46272 6.89034 6.67995
#
# Compressibility (1/GPa) = 0.02102856
#
# Stress axis : x y z
#
# Youngs Moduli (GPa) = 52.37738 62.62376 67.20631
#
# Poissons Ratio (x) = 0.47910 0.40489
# Poissons Ratio (y) = 0.40071 0.05247
# Poissons Ratio (z) = 0.31555 0.04890
#
# Static dielectric constant tensor:
#      x y z
#    x 1.720410 0.020380 -0.005430 
#    y 0.020380 1.716910 -0.022070 
#    z -0.005430 -0.022070 1.742320 
# 
# From -- ./inp_files/533968.got.cif
#   From: 2010.05.17/outbox.cif.g08.bks.cpg/sg2_267_cif.got.tgz:533968.got - 2010.06.03 11:33:40.
