data_PCOD9101234
_publ_section_title
;
Structure prediction by ZEFSAII (Michael W. Deem and Ramdas Pophale) SiO2 
 PCOD9101234
Probable space group: P -1
;
_chemical_formula_sum "Si O2"
_cell_formula_units_Z 14
_cell_length_a 15.064766
_cell_length_b 8.424245
_cell_length_c 5.211065
_cell_angle_alpha 97.011563
_cell_angle_beta 98.670562
_cell_angle_gamma 61.276689
_cell_volume 572.388050
_symmetry_space_group_name_H-M "P -1"
_symmetry_group_IT_number 2
_symmetry_cell_setting 'triclinic'
loop_
_space_group_symop_operation_xyz
x,y,z
-x,-y,-z
loop_
_atom_site_type_symbol
_atom_site_label
_atom_site_fract_x
_atom_site_fract_y
_atom_site_fract_z
Si Si1 0.068179 0.465482 0.773780
Si Si2 0.258005 0.099469 0.680219
Si Si3 0.568873 0.516076 0.757373
Si Si4 0.374208 0.304210 0.566174
Si Si5 0.449064 0.876303 0.058120
Si Si6 0.195535 0.670111 0.732652
Si Si7 0.223911 0.826250 0.261180
O O1 0.157669 0.260582 0.784558
O O2 0.123016 0.589791 0.780888
O O3 0.000000 0.500000 0.500000
O O4 0.000000 0.500000 0.000000
O O5 0.315534 0.190982 0.566528
O O6 0.335522 0.981024 0.916374
O O7 0.226898 0.991339 0.440518
O O8 0.500000 0.500000 0.500000
O O9 0.629244 0.624895 0.705063
O O10 0.490967 0.667972 0.940998
O O11 0.659005 0.314997 0.775653
O O12 0.310467 0.493639 0.736640
O O13 0.493910 0.177944 0.652757
O O14 0.500000 0.000000 0.000000
O O15 0.180875 0.743830 0.449587
O O16 0.178158 0.826584 0.962112
#
# Coordination Sequence:
#
# PCOD9101234 Si02
#       7
#     2   2   2   2   2   2   2
#     4  11  25  50  74  96 125 172 221 274 337 394
#     4  10  23  42  63  98 127 171 223 274 324 392
#     4  11  21  36  56  91 138 182 214 258 319 382
#     4   9  21  39  59  89 136 179 218 259 318 391
#     4  10  20  38  57  94 129 170 224 257 315 376
#     4  10  22  42  69  97 133 175 211 265 327 391
#     4  11  22  41  64 102 138 171 214 266 326 387
#
# _framework density 24.458932999999998
#
# number of rings (size 3 to 8) (size 9 to 14) (size 15 to 20)
#    0.000    1.714    2.857    0.857    0.000    5.143 
#    7.714    4.286    0.000    0.000    0.000    0.000 
#    0.000    0.000    0.000    0.000    0.000    0.000 
#
# Total GULP energy -78174.660409 kJ/mol
# GULP energy per Si atom -5583.904315 kJ/mol
# Density = 2.440326 g / cm^3
# Si number density = 24.458933 Si / 1000 Ang^3
#
#
#
# Elastic Constant Matrix: (Units=GPa)
#
#
# Indices 1 2 3 4 5 6 
#
# 1 117.4973 35.5813 31.9758 15.4715 -23.4102 -9.0349
# 2 35.5813 81.4736 10.7943 24.0314 1.4286 4.5370
# 3 31.9758 10.7943 98.6277 19.2352 -12.7564 -8.2320
# 4 15.4715 24.0314 19.2352 47.7974 4.7401 2.9026
# 5 -23.4102 1.4286 -12.7564 4.7401 41.0141 -3.2625
# 6 -9.0349 4.5370 -8.2320 2.9026 -3.2625 34.7308
#
#
#
# Elastic Compliance Matrix: (Units=1/GPa)
#
#
# Indices 1 2 3 4 5 6 
#
# 1 0.012589 -0.005105 -0.001873 -0.001744 0.007327 0.004332
# 2 -0.005105 0.016548 0.000458 -0.006379 -0.002858 -0.003116
# 3 -0.001873 0.000458 0.012443 -0.005185 0.003637 0.003177
# 4 -0.001744 -0.006379 -0.005185 0.027587 -0.005869 -0.003706
# 5 0.007327 -0.002858 0.003637 -0.005869 0.030994 0.006543
# 6 0.004332 -0.003116 0.003177 -0.003706 0.006543 0.032004
#
#
# Mechanical properties :
#
#
# Convention : Reuss Voigt Hill
#
# Bulk Modulus (GPa) = 35.03854 50.47792 42.75823
# Shear Modulus (GPa) = 32.31663 39.32493 35.82078
#
# Velocity S-wave (km/s) = 3.63886 4.01408 3.83107
# Velocity P-wave (km/s) = 5.65788 6.49357 6.09008
#
# Compressibility (1/GPa) = 0.02854000
#
# Stress axis : x y z
#
# Youngs Moduli (GPa) = 79.43332 60.43049 80.36539
#
# Poissons Ratio (x) = 0.30850 0.15056
# Poissons Ratio (y) = 0.40551 -0.03683
# Poissons Ratio (z) = 0.14881 -0.02770
#
# Static dielectric constant tensor:
#      x y z
#    x 2.064010 0.085820 -0.081140 
#    y 0.085820 1.996070 -0.011590 
#    z -0.081140 -0.011590 2.073820 
# 
# From -- ./inp_files/48887.got.cif
#   From: 2010.05.17/outbox.cif.g08.bks.cpg/sg2_25_cif.got.tgz:48887.got - 2010.06.03 11:33:40.
