data_PCOD9101219
_publ_section_title
;
Structure prediction by ZEFSAII (Michael W. Deem and Ramdas Pophale) SiO2 
 PCOD9101219
Probable space group: P -1
;
_chemical_formula_sum "Si O2"
_cell_formula_units_Z 16
_cell_length_a 13.684380
_cell_length_b 13.085068
_cell_length_c 12.633515
_cell_angle_alpha 142.539565
_cell_angle_beta 35.227054
_cell_angle_gamma 145.486485
_cell_volume 687.089583
_symmetry_space_group_name_H-M "P -1"
_symmetry_group_IT_number 2
_symmetry_cell_setting 'triclinic'
loop_
_space_group_symop_operation_xyz
x,y,z
-x,-y,-z
loop_
_atom_site_type_symbol
_atom_site_label
_atom_site_fract_x
_atom_site_fract_y
_atom_site_fract_z
Si Si1 0.520456 0.305692 0.325671
Si Si2 0.059499 0.489175 0.817023
Si Si3 0.338147 0.728783 0.261472
Si Si4 0.885211 0.693770 0.784823
Si Si5 0.299582 0.064315 0.747090
Si Si6 0.647524 0.410637 0.073940
Si Si7 0.010858 0.211785 0.458706
Si Si8 0.278746 0.166970 0.614928
O O1 0.500000 0.500000 0.500000
O O2 0.716183 0.347859 0.249615
O O3 0.553290 0.275062 0.148612
O O4 0.352311 0.147407 0.417293
O O5 0.067960 0.310472 0.604111
O O6 0.000000 0.500000 0.000000
O O7 0.880501 0.490221 0.918743
O O8 0.205156 0.520422 0.263761
O O9 0.504824 0.877647 0.313928
O O10 0.194774 0.797866 0.396592
O O11 0.444905 0.695118 0.039538
O O12 0.858627 0.678063 0.667742
O O13 0.781510 0.802833 0.019190
O O14 0.117437 0.841718 0.725656
O O15 0.344990 0.131705 0.640919
O O16 0.648832 0.607276 0.255433
O O17 0.953346 0.987816 0.315033
#
# Coordination Sequence:
#
# PCOD9101219 Si02
#       8
#     2   2   2   2   2   2   2   2
#     4   9  19  36  62  84 113 150 197 242 297 355
#     4   9  19  39  59  82 112 154 196 240 295 360
#     4  11  21  39  61  86 124 164 197 251 305 351
#     4  10  21  37  57  88 123 159 200 250 294 360
#     4  10  22  37  60  91 124 160 206 245 300 359
#     4   9  19  37  61  82 118 159 199 239 302 360
#     4  10  23  38  58  89 122 151 205 249 295 365
#     4  10  20  38  57  88 120 152 198 254 288 355
#
# _framework density 23.286626999999999
#
# number of rings (size 3 to 8) (size 9 to 14) (size 15 to 20)
#    0.000    2.250    1.250    0.750    1.750    3.000 
#    4.500   11.250    2.750    0.000    0.000    0.000 
#    0.000    0.000    0.000    0.000    0.000    0.000 
#
# Total GULP energy -89107.649961 kJ/mol
# GULP energy per Si atom -5569.228123 kJ/mol
# Density = 2.323363 g / cm^3
# Si number density = 23.286627 Si / 1000 Ang^3
#
#
#
# Elastic Constant Matrix: (Units=GPa)
#
#
# Indices 1 2 3 4 5 6 
#
# 1 61.1472 40.9741 34.8661 -8.3484 24.9705 6.2131
# 2 40.9741 61.6240 35.1586 -7.5136 21.1613 -3.5895
# 3 34.8661 35.1586 93.7520 7.2032 41.1990 -13.5217
# 4 -8.3484 -7.5136 7.2032 36.5896 8.6084 11.2480
# 5 24.9705 21.1613 41.1990 8.6084 49.6707 -3.8977
# 6 6.2131 -3.5895 -13.5217 11.2480 -3.8977 21.2187
#
#
#
# Elastic Compliance Matrix: (Units=1/GPa)
#
#
# Indices 1 2 3 4 5 6 
#
# 1 0.053126 -0.021679 -0.014108 0.027777 -0.014157 -0.045539
# 2 -0.021679 0.032528 -0.002586 -0.001150 0.000237 0.010856
# 3 -0.014108 -0.002586 0.025456 -0.014897 -0.008275 0.026293
# 4 0.027777 -0.001150 -0.014897 0.055063 -0.014559 -0.049685
# 5 -0.014157 0.000237 -0.008275 -0.014559 0.037598 0.013536
# 6 -0.045539 0.010856 0.026293 -0.049685 0.013536 0.107879
#
#
# Mechanical properties :
#
#
# Convention : Reuss Voigt Hill
#
# Bulk Modulus (GPa) = 29.10042 48.72453 38.91248
# Shear Modulus (GPa) = 12.50461 28.53076 20.51769
#
# Velocity S-wave (km/s) = 2.31981 3.50408 2.97154
# Velocity P-wave (km/s) = 4.43837 6.11070 5.34040
#
# Compressibility (1/GPa) = 0.03436376
#
# Stress axis : x y z
#
# Youngs Moduli (GPa) = 18.82310 30.74261 39.28280
#
# Poissons Ratio (x) = 0.66647 0.55422
# Poissons Ratio (y) = 0.40806 0.10160
# Poissons Ratio (z) = 0.26556 0.07951
#
# Static dielectric constant tensor:
#      x y z
#    x 1.916440 0.021980 -0.015080 
#    y 0.021980 1.880180 0.057600 
#    z -0.015080 0.057600 2.032090 
# 
# From -- ./inp_files/297726.got.cif
#   From: 2010.05.17/outbox.cif.g08.bks.cpg/sg2_149_cif.got.tgz:297726.got - 2010.06.03 11:33:40.
