data_PCOD9101537
_publ_section_title
;
Structure prediction by ZEFSAII (Michael W. Deem and Ramdas Pophale) SiO2 
 PCOD9101537
Probable space group: P -1
;
_chemical_formula_sum "Si O2"
_cell_formula_units_Z 16
_cell_length_a 8.640991
_cell_length_b 19.935272
_cell_length_c 28.814401
_cell_angle_alpha 22.204623
_cell_angle_beta 43.226961
_cell_angle_gamma 30.852718
_cell_volume 904.163001
_symmetry_space_group_name_H-M "P -1"
_symmetry_group_IT_number 2
_symmetry_cell_setting 'triclinic'
loop_
_space_group_symop_operation_xyz
x,y,z
-x,-y,-z
loop_
_atom_site_type_symbol
_atom_site_label
_atom_site_fract_x
_atom_site_fract_y
_atom_site_fract_z
Si Si1 0.763648 0.982023 0.433119
Si Si2 0.797741 0.748877 0.416644
Si Si3 0.784818 0.471088 0.441855
Si Si4 0.162106 0.494148 0.882719
Si Si5 0.308174 0.642219 0.847781
Si Si6 0.548541 0.184337 0.132333
Si Si7 0.942379 0.939939 0.600031
Si Si8 0.595202 0.961770 0.835287
O O1 0.038107 0.709915 0.524656
O O2 0.914353 0.017128 0.418291
O O3 0.500000 0.000000 0.500000
O O4 0.627993 0.193442 0.287925
O O5 0.430313 0.889548 0.414871
O O6 0.000000 0.500000 0.500000
O O7 0.966881 0.662476 0.484438
O O8 0.785428 0.948484 0.266096
O O9 0.500000 0.500000 0.500000
O O10 0.636371 0.747454 0.289760
O O11 0.272156 0.547590 0.869070
O O12 0.800908 0.637037 0.882257
O O13 0.370765 0.200217 0.027094
O O14 0.132657 0.645952 0.749671
O O15 0.953438 0.832843 0.826600
O O16 0.561857 0.385442 0.987024
O O17 0.526731 0.076526 0.159370
O O18 0.000000 0.000000 0.500000
#
# Coordination Sequence:
#
# PCOD9101537 Si02
#       8
#     2   2   2   2   2   2   2   2
#     4  11  22  36  54  80 112 145 177 214 270 329
#     4  11  20  33  55  85 109 136 179 222 265 307
#     4  12  22  33  54  82 116 142 170 217 278 324
#     4   7  14  26  54  79  99 132 182 222 254 299
#     4   8  14  29  52  76 104 139 177 214 257 310
#     4   8  14  28  52  79 103 132 179 226 252 299
#     4  10  20  38  60  78 102 141 187 225 257 312
#     4   9  14  29  52  81 105 135 174 220 261 310
#
# _framework density 17.695924000000002
#
# number of rings (size 3 to 8) (size 9 to 14) (size 15 to 20)
#    0.000    2.500    2.500    3.750    0.000    0.000 
#    0.000    0.625    5.500    3.750    0.000    0.000 
#    0.000    0.000    0.000    0.000    0.000    0.000 
#
# Total GULP energy -89118.965003 kJ/mol
# GULP energy per Si atom -5569.935313 kJ/mol
# Density = 1.765565 g / cm^3
# Si number density = 17.695924 Si / 1000 Ang^3
#
#
#
# Elastic Constant Matrix: (Units=GPa)
#
#
# Indices 1 2 3 4 5 6 
#
# 1 43.6755 18.8997 33.8463 0.2201 1.5133 -4.3217
# 2 18.8997 71.8661 57.2129 5.7554 -4.3974 0.1129
# 3 33.8463 57.2129 220.4346 -3.0715 8.2187 8.8963
# 4 0.2201 5.7554 -3.0715 28.5576 2.2205 -1.8170
# 5 1.5133 -4.3974 8.2187 2.2205 22.5682 1.6211
# 6 -4.3217 0.1129 8.8963 -1.8170 1.6211 24.4588
#
#
#
# Elastic Compliance Matrix: (Units=1/GPa)
#
#
# Indices 1 2 3 4 5 6 
#
# 1 0.028287 -0.005160 -0.003161 0.001069 -0.002316 0.006405
# 2 -0.005160 0.019748 -0.004636 -0.004941 0.006376 -0.000106
# 3 -0.003161 -0.004636 0.006465 0.001727 -0.003032 -0.002560
# 4 0.001069 -0.004941 0.001727 0.036787 -0.005475 0.002679
# 5 -0.002316 0.006376 -0.003032 -0.005475 0.047559 -0.002895
# 6 0.006405 -0.000106 -0.002560 0.002679 -0.002895 0.043339
#
#
# Mechanical properties :
#
#
# Convention : Reuss Voigt Hill
#
# Bulk Modulus (GPa) = 34.98034 61.76602 48.37318
# Shear Modulus (GPa) = 22.97498 30.18474 26.57986
#
# Velocity S-wave (km/s) = 3.60713 4.13455 3.87981
# Velocity P-wave (km/s) = 6.09581 7.60082 6.88954
#
# Compressibility (1/GPa) = 0.02858748
#
# Stress axis : x y z
#
# Youngs Moduli (GPa) = 35.35135 50.63764 154.66839
#
# Poissons Ratio (x) = 0.26128 0.48896
# Poissons Ratio (y) = 0.18241 0.71698
# Poissons Ratio (z) = 0.11176 0.23473
#
# Static dielectric constant tensor:
#      x y z
#    x 1.624320 -0.013450 0.010560 
#    y -0.013450 1.569290 0.006370 
#    z 0.010560 0.006370 1.671680 
# 
# From -- ./inp_files/181568.got.cif
#   From: 2010.05.17/outbox.cif.g08.bks.cpg/sg2_91_cif.got.tgz:181568.got - 2010.06.03 11:33:40.
