data_PCOD9101142
_publ_section_title
;
Structure prediction by ZEFSAII (Michael W. Deem and Ramdas Pophale) SiO2 
 PCOD9101142
Probable space group: P -1
;
_chemical_formula_sum "Si O2"
_cell_formula_units_Z 16
_cell_length_a 14.835308
_cell_length_b 5.373269
_cell_length_c 14.583769
_cell_angle_alpha 69.520008
_cell_angle_beta 115.926050
_cell_angle_gamma 140.548671
_cell_volume 664.202248
_symmetry_space_group_name_H-M "P -1"
_symmetry_group_IT_number 2
_symmetry_cell_setting 'triclinic'
loop_
_space_group_symop_operation_xyz
x,y,z
-x,-y,-z
loop_
_atom_site_type_symbol
_atom_site_label
_atom_site_fract_x
_atom_site_fract_y
_atom_site_fract_z
Si Si1 0.907327 0.543716 0.507118
Si Si2 0.967319 0.770076 0.878845
Si Si3 0.297524 0.840493 0.047376
Si Si4 0.240952 0.629770 0.856646
Si Si5 0.304342 0.422052 0.233423
Si Si6 0.555092 0.793230 0.750595
Si Si7 0.997105 0.393452 0.270797
Si Si8 0.271218 0.503110 0.699411
O O1 0.890201 0.403978 0.621119
O O2 0.000000 0.500000 0.500000
O O3 0.762666 0.338911 0.411133
O O4 0.000000 0.000000 0.500000
O O5 0.878456 0.481783 0.963859
O O6 0.869055 0.843343 0.800147
O O7 0.941622 0.520082 0.815309
O O8 0.137478 0.187423 0.907629
O O9 0.332576 0.605927 0.121640
O O10 0.385928 0.160896 0.125772
O O11 0.321687 0.921634 0.941003
O O12 0.121511 0.606362 0.770435
O O13 0.332046 0.718254 0.797293
O O14 0.376189 0.277459 0.280525
O O15 0.383207 0.785925 0.288759
O O16 0.379971 0.489661 0.711991
O O17 0.888681 0.924946 0.290475
#
# Coordination Sequence:
#
# PCOD9101142 Si02
#       8
#     2   2   2   2   2   2   2   2
#     4  10  20  38  56  82 114 141 179 228 282 332
#     4   8  20  34  53  80 112 148 183 231 276 323
#     4   8  21  34  53  81 115 149 190 222 267 326
#     4  11  19  33  55  86 111 146 184 228 283 326
#     4   8  20  37  56  76 107 154 189 223 263 319
#     4   9  20  37  57  76 109 154 189 219 268 323
#     4  10  21  33  57  86 111 142 180 233 289 329
#     4  10  22  36  56  82 114 145 183 229 278 337
#
# _framework density 24.089047999999998
#
# number of rings (size 3 to 8) (size 9 to 14) (size 15 to 20)
#    1.500    1.000    1.250    0.375    5.250    3.000 
#    0.000    1.250    0.000    3.750    0.000    0.000 
#    0.000    0.000    0.000    0.000    0.000    0.000 
#
# Total GULP energy -89124.261903 kJ/mol
# GULP energy per Si atom -5570.266369 kJ/mol
# Density = 2.403422 g / cm^3
# Si number density = 24.089048 Si / 1000 Ang^3
#
#
#
# Elastic Constant Matrix: (Units=GPa)
#
#
# Indices 1 2 3 4 5 6 
#
# 1 143.1190 27.4970 12.3321 4.1811 1.0189 -25.7263
# 2 27.4970 40.6114 6.5219 7.1366 1.1541 -8.4464
# 3 12.3321 6.5219 61.1576 -3.3670 -3.9145 6.4714
# 4 4.1811 7.1366 -3.3670 16.9286 -2.2322 4.1758
# 5 1.0189 1.1541 -3.9145 -2.2322 27.5734 6.2443
# 6 -25.7263 -8.4464 6.4714 4.1758 6.2443 34.9451
#
#
#
# Elastic Compliance Matrix: (Units=1/GPa)
#
#
# Indices 1 2 3 4 5 6 
#
# 1 0.009363 -0.003728 -0.002612 -0.003397 -0.002495 0.007327
# 2 -0.003728 0.032987 -0.005013 -0.016951 -0.005398 0.009147
# 3 -0.002612 -0.005013 0.019251 0.009546 0.005823 -0.008881
# 4 -0.003397 -0.016951 0.009546 0.075487 0.012754 -0.019665
# 5 -0.002495 -0.005398 0.005823 0.012754 0.041421 -0.013146
# 6 0.007327 0.009147 -0.008881 -0.019665 -0.013146 0.042565
#
#
# Mechanical properties :
#
#
# Convention : Reuss Voigt Hill
#
# Bulk Modulus (GPa) = 25.71073 37.51002 31.61038
# Shear Modulus (GPa) = 19.47459 29.12523 24.29991
#
# Velocity S-wave (km/s) = 2.84640 3.48093 3.17953
# Velocity P-wave (km/s) = 4.63670 5.63570 5.16043
#
# Compressibility (1/GPa) = 0.03889426
#
# Stress axis : x y z
#
# Youngs Moduli (GPa) = 106.80764 30.31473 51.94660
#
# Poissons Ratio (x) = 0.11301 0.13571
# Poissons Ratio (y) = 0.39817 0.26039
# Poissons Ratio (z) = 0.27903 0.15196
#
# Static dielectric constant tensor:
#      x y z
#    x 1.886430 -0.003100 0.008200 
#    y -0.003100 2.077110 -0.018640 
#    z 0.008200 -0.018640 1.933430 
# 
# From -- ./inp_files/525693.got.cif
#   From: 2010.05.17/outbox.cif.g08.bks.cpg/sg2_263_cif.got.tgz:525693.got - 2010.06.03 11:33:40.
