data_PCOD9101887
_publ_section_title
;
Structure prediction by ZEFSAII (Michael W. Deem and Ramdas Pophale) SiO2 
 PCOD9101887
Probable space group: P -1
;
_chemical_formula_sum "Si O2"
_cell_formula_units_Z 16
_cell_length_a 17.432256
_cell_length_b 12.272180
_cell_length_c 7.223853
_cell_angle_alpha 104.537826
_cell_angle_beta 138.269006
_cell_angle_gamma 45.158393
_cell_volume 592.548154
_symmetry_space_group_name_H-M "P -1"
_symmetry_group_IT_number 2
_symmetry_cell_setting 'triclinic'
loop_
_space_group_symop_operation_xyz
x,y,z
-x,-y,-z
loop_
_atom_site_type_symbol
_atom_site_label
_atom_site_fract_x
_atom_site_fract_y
_atom_site_fract_z
Si Si1 0.917530 0.605931 0.597549
Si Si2 0.030090 0.997534 0.770427
Si Si3 0.119150 0.124526 0.471944
Si Si4 0.677726 0.440355 0.355438
Si Si5 0.570558 0.758838 0.194594
Si Si6 0.514127 0.359472 0.522459
Si Si7 0.522384 0.845254 0.589517
Si Si8 0.822553 0.785618 0.034228
O O1 0.949302 0.715222 0.704568
O O2 0.697522 0.750648 0.313710
O O3 0.000000 0.500000 0.500000
O O4 0.034449 0.424785 0.856947
O O5 0.977247 0.921414 0.745515
O O6 0.256287 0.843147 0.136576
O O7 0.000000 0.000000 0.500000
O O8 0.875703 0.216065 0.628704
O O9 0.087493 0.193786 0.656430
O O10 0.350452 0.925985 0.797863
O O11 0.670919 0.557280 0.268419
O O12 0.609385 0.535790 0.470273
O O13 0.500000 0.500000 0.000000
O O14 0.559213 0.792960 0.411629
O O15 0.500000 0.500000 0.500000
O O16 0.439263 0.297549 0.285809
O O17 0.658995 0.842541 0.877634
O O18 0.299425 0.058973 0.279152
#
# Coordination Sequence:
#
# PCOD9101887 Si02
#       8
#     2   2   2   2   2   2   2   2
#     4  10  22  33  57  89 119 156 203 261 319 364
#     4  12  23  40  73  99 131 178 225 271 328 400
#     4  10  21  38  58  95 128 153 212 266 323 379
#     4  11  22  42  67 103 124 178 232 266 325 404
#     4  10  20  38  61  85 130 162 206 267 314 386
#     4  11  26  44  68 100 141 173 214 282 340 382
#     4   9  20  41  61  86 123 170 211 245 318 402
#     4   9  19  37  61  84 121 161 211 250 304 392
#
# _framework density 27.002023999999999
#
# number of rings (size 3 to 8) (size 9 to 14) (size 15 to 20)
#    0.000    1.750    2.500    1.875    7.000    1.000 
#    2.250    2.500    0.000    0.000    0.000    0.000 
#    0.000    0.000    0.000    0.000    0.000    0.000 
#
# Total GULP energy -89493.805294 kJ/mol
# GULP energy per Si atom -5593.362831 kJ/mol
# Density = 2.694057 g / cm^3
# Si number density = 27.002024 Si / 1000 Ang^3
#
#
#
# Elastic Constant Matrix: (Units=GPa)
#
#
# Indices 1 2 3 4 5 6 
#
# 1 110.4937 70.1331 19.9989 -11.6208 12.2704 16.1570
# 2 70.1331 186.8371 52.5300 -32.3484 7.8805 36.4939
# 3 19.9989 52.5300 89.0756 -35.8559 19.5061 1.3032
# 4 -11.6208 -32.3484 -35.8559 47.7673 -2.4872 1.9124
# 5 12.2704 7.8805 19.5061 -2.4872 32.7027 -3.4240
# 6 16.1570 36.4939 1.3032 1.9124 -3.4240 72.4868
#
#
#
# Elastic Compliance Matrix: (Units=1/GPa)
#
#
# Indices 1 2 3 4 5 6 
#
# 1 0.012360 -0.004523 0.001036 0.000531 -0.004199 -0.000709
# 2 -0.004523 0.009139 -0.003594 0.002609 0.001467 -0.003528
# 3 0.001036 -0.003594 0.020580 0.012690 -0.010795 0.000364
# 4 0.000531 0.002609 0.012690 0.032143 -0.006246 -0.002803
# 5 -0.004199 0.001467 -0.010795 -0.006246 0.038010 0.002352
# 6 -0.000709 -0.003528 0.000364 -0.002803 0.002352 0.015908
#
#
# Mechanical properties :
#
#
# Convention : Reuss Voigt Hill
#
# Bulk Modulus (GPa) = 35.81997 74.63673 55.22835
# Shear Modulus (GPa) = 32.97989 46.84101 39.91045
#
# Velocity S-wave (km/s) = 3.49862 4.16952 3.84872
# Velocity P-wave (km/s) = 5.44196 7.13309 6.34413
#
# Compressibility (1/GPa) = 0.02791739
#
# Stress axis : x y z
#
# Youngs Moduli (GPa) = 80.90879 109.41535 48.59189
#
# Poissons Ratio (x) = 0.49492 -0.05036
# Poissons Ratio (y) = 0.36597 0.17463
# Poissons Ratio (z) = -0.08385 0.39321
#
# Static dielectric constant tensor:
#      x y z
#    x 2.207690 0.039800 -0.087070 
#    y 0.039800 2.158400 -0.036740 
#    z -0.087070 -0.036740 2.158380 
# 
# From -- ./inp_files/278260.got.cif
#   From: 2010.05.17/outbox.cif.g08.bks.cpg/sg2_140_cif.got.tgz:278260.got - 2010.06.03 11:33:40.
