data_PCOD9101568
_publ_section_title
;
Structure prediction by ZEFSAII (Michael W. Deem and Ramdas Pophale) SiO2 
 PCOD9101568
Probable space group: P -1
;
_chemical_formula_sum "Si O2"
_cell_formula_units_Z 16
_cell_length_a 18.141309
_cell_length_b 30.856595
_cell_length_c 14.207098
_cell_angle_alpha 157.720719
_cell_angle_beta 157.083369
_cell_angle_gamma 20.610378
_cell_volume 967.195705
_symmetry_space_group_name_H-M "P -1"
_symmetry_group_IT_number 2
_symmetry_cell_setting 'triclinic'
loop_
_space_group_symop_operation_xyz
x,y,z
-x,-y,-z
loop_
_atom_site_type_symbol
_atom_site_label
_atom_site_fract_x
_atom_site_fract_y
_atom_site_fract_z
Si Si1 0.902224 0.479635 0.748591
Si Si2 0.516324 0.516388 0.665362
Si Si3 0.832401 0.054654 0.002908
Si Si4 0.356441 0.219081 0.041998
Si Si5 0.059846 0.790684 0.404735
Si Si6 0.624063 0.738345 0.228920
Si Si7 0.296427 0.047087 0.187654
Si Si8 0.854118 0.061885 0.359395
O O1 0.720251 0.445459 0.492213
O O2 0.121970 0.359261 0.710318
O O3 0.770042 0.624921 0.829328
O O4 0.000000 0.500000 0.000000
O O5 0.500000 0.500000 0.500000
O O6 0.724811 0.368247 0.651228
O O7 0.560981 0.632953 0.976659
O O8 0.910733 0.127585 0.312432
O O9 0.574898 0.166017 0.887983
O O10 0.814990 0.947032 0.830980
O O11 0.000000 0.000000 0.000000
O O12 0.172381 0.200314 0.836205
O O13 0.476726 0.109945 0.876909
O O14 0.579241 0.169520 0.268247
O O15 0.069910 0.858418 0.456412
O O16 0.633757 0.845418 0.522510
O O17 0.135432 0.054300 0.929154
O O18 0.000000 0.000000 0.500000
#
# Coordination Sequence:
#
# PCOD9101568 Si02
#       8
#     2   2   2   2   2   2   2   2
#     4  12  21  34  56  81 119 160 193 225 274 345
#     4  12  21  34  52  82 118 158 193 224 274 347
#     4  11  22  34  54  80 124 163 188 225 283 343
#     4  10  20  38  60  82 117 145 197 242 287 338
#     4  11  19  37  57  88 116 150 198 235 277 350
#     4  12  23  34  54  81 120 155 189 228 281 344
#     4   9  22  39  53  83 117 149 195 241 291 330
#     4   9  21  41  65  82 110 148 201 252 293 333
#
# _framework density 16.542670999999999
#
# number of rings (size 3 to 8) (size 9 to 14) (size 15 to 20)
#    0.750    0.500    5.000    1.875    1.750    0.500 
#    0.000    0.000    0.000    1.500    0.000    0.000 
#    0.000    0.000    0.000    0.000    0.000    0.000 
#
# Total GULP energy -89184.114694 kJ/mol
# GULP energy per Si atom -5574.007168 kJ/mol
# Density = 1.650502 g / cm^3
# Si number density = 16.542671 Si / 1000 Ang^3
#
#
#
# Elastic Constant Matrix: (Units=GPa)
#
#
# Indices 1 2 3 4 5 6 
#
# 1 84.1047 55.1101 61.2819 -14.0488 21.3453 3.7601
# 2 55.1101 111.1373 56.4226 -14.1990 0.6174 8.6666
# 3 61.2819 56.4226 108.6421 1.1576 31.5331 11.9418
# 4 -14.0488 -14.1990 1.1576 30.4810 -7.4000 1.6838
# 5 21.3453 0.6174 31.5331 -7.4000 30.3462 -6.6260
# 6 3.7601 8.6666 11.9418 1.6838 -6.6260 33.3479
#
#
#
# Elastic Compliance Matrix: (Units=1/GPa)
#
#
# Indices 1 2 3 4 5 6 
#
# 1 0.026463 -0.007658 -0.008940 0.007167 -0.007337 0.000388
# 2 -0.007658 0.021007 -0.014038 0.012250 0.023513 0.004484
# 3 -0.008940 -0.014038 0.033842 -0.020043 -0.036470 -0.013697
# 4 0.007167 0.012250 -0.020043 0.049251 0.028955 0.006452
# 5 -0.007337 0.023513 -0.036470 0.028955 0.087779 0.023756
# 6 0.000388 0.004484 -0.013697 0.006452 0.023756 0.038077
#
#
# Mechanical properties :
#
#
# Convention : Reuss Voigt Hill
#
# Bulk Modulus (GPa) = 49.89740 72.16816 61.03278
# Shear Modulus (GPa) = 15.41439 27.57298 21.49369
#
# Velocity S-wave (km/s) = 3.05584 4.08705 3.60847
# Velocity P-wave (km/s) = 6.53294 8.12355 7.37127
#
# Compressibility (1/GPa) = 0.02004112
#
# Stress axis : x y z
#
# Youngs Moduli (GPa) = 37.78795 47.60354 29.54875
#
# Poissons Ratio (x) = 0.36454 0.26416
# Poissons Ratio (y) = 0.28937 0.41481
# Poissons Ratio (z) = 0.33782 0.66826
#
# Static dielectric constant tensor:
#      x y z
#    x 1.557000 -0.019960 0.014930 
#    y -0.019960 1.539280 0.014560 
#    z 0.014930 0.014560 1.576890 
# 
# From -- ./inp_files/457996.got.cif
#   From: 2010.05.17/outbox.cif.g08.bks.cpg/sg2_229_cif.got.tgz:457996.got - 2010.06.03 11:33:40.
