data_PCOD9101520
_publ_section_title
;
Structure prediction by ZEFSAII (Michael W. Deem and Ramdas Pophale) SiO2 
 PCOD9101520
Probable space group: P -1
;
_chemical_formula_sum "Si O2"
_cell_formula_units_Z 16
_cell_length_a 5.632585
_cell_length_b 15.337221
_cell_length_c 10.021231
_cell_angle_alpha 66.687730
_cell_angle_beta 103.789149
_cell_angle_gamma 75.908755
_cell_volume 714.607383
_symmetry_space_group_name_H-M "P -1"
_symmetry_group_IT_number 2
_symmetry_cell_setting 'triclinic'
loop_
_space_group_symop_operation_xyz
x,y,z
-x,-y,-z
loop_
_atom_site_type_symbol
_atom_site_label
_atom_site_fract_x
_atom_site_fract_y
_atom_site_fract_z
Si Si1 0.358657 0.651854 0.491278
Si Si2 0.461764 0.227090 0.349600
Si Si3 0.528353 0.255621 0.913347
Si Si4 0.276093 0.460932 0.636204
Si Si5 0.914429 0.216283 0.212281
Si Si6 0.750461 0.017517 0.655263
Si Si7 0.120355 0.842575 0.209465
Si Si8 0.386770 0.070347 0.070094
O O1 0.524421 0.706425 0.559631
O O2 0.312291 0.564276 0.624313
O O3 0.502914 0.595000 0.411624
O O4 0.100442 0.746922 0.346342
O O5 0.670360 0.245702 0.265292
O O6 0.589576 0.106023 0.478308
O O7 0.160049 0.250510 0.253511
O O8 0.314304 0.370360 0.801142
O O9 0.606056 0.205419 0.806540
O O10 0.453812 0.170486 0.030721
O O11 0.776992 0.259776 0.026110
O O12 0.000000 0.500000 0.500000
O O13 0.050492 0.091447 0.304287
O O14 0.897437 0.071220 0.738989
O O15 0.557887 0.991761 0.748640
O O16 0.919069 0.887854 0.036173
O O17 0.500000 0.000000 0.000000
#
# Coordination Sequence:
#
# PCOD9101520 Si02
#       8
#     2   2   2   2   2   2   2   2
#     4   9  22  42  67  96 126 163 218 275 341 398
#     4  11  27  45  67  94 136 185 229 267 319 390
#     4  11  23  39  62  95 130 168 221 272 343 390
#     4  10  21  42  73 101 122 159 213 288 349 399
#     4  12  25  44  64  94 138 187 226 268 313 395
#     4  11  22  41  63  96 131 179 231 271 325 389
#     4  10  20  38  59  93 128 165 213 280 341 385
#     4  12  21  33  60  96 135 172 211 274 340 396
#
# _framework density 22.389918000000002
#
# number of rings (size 3 to 8) (size 9 to 14) (size 15 to 20)
#    0.000    1.250    2.500    3.375    1.750    3.000 
#    0.000    1.250    0.000    0.000    0.000    0.000 
#    0.000    0.000    0.000    0.000    0.000    0.000 
#
# Total GULP energy -89295.235518 kJ/mol
# GULP energy per Si atom -5580.952220 kJ/mol
# Density = 2.233896 g / cm^3
# Si number density = 22.389918 Si / 1000 Ang^3
#
#
#
# Elastic Constant Matrix: (Units=GPa)
#
#
# Indices 1 2 3 4 5 6 
#
# 1 64.7112 13.4861 23.1514 -1.3962 -1.6545 11.1672
# 2 13.4861 89.2060 29.8163 -14.4993 0.1301 16.5605
# 3 23.1514 29.8163 65.5838 -4.2147 12.5727 7.0303
# 4 -1.3962 -14.4993 -4.2147 41.1096 2.1538 -1.2690
# 5 -1.6545 0.1301 12.5727 2.1538 34.5244 9.5281
# 6 11.1672 16.5605 7.0303 -1.2690 9.5281 20.7664
#
#
#
# Elastic Compliance Matrix: (Units=1/GPa)
#
#
# Indices 1 2 3 4 5 6 
#
# 1 0.020472 0.002105 -0.008232 -0.000225 0.007696 -0.013445
# 2 0.002105 0.016991 -0.007881 0.004446 0.006721 -0.014826
# 3 -0.008232 -0.007881 0.022988 0.000116 -0.010939 0.007956
# 4 -0.000225 0.004446 0.000116 0.025929 -0.001338 -0.001266
# 5 0.007696 0.006721 -0.010939 -0.001338 0.040072 -0.024262
# 6 -0.013445 -0.014826 0.007956 -0.001266 -0.024262 0.075569
#
#
# Mechanical properties :
#
#
# Convention : Reuss Voigt Hill
#
# Bulk Modulus (GPa) = 30.83117 39.15652 34.99384
# Shear Modulus (GPa) = 20.75986 29.48323 25.12154
#
# Velocity S-wave (km/s) = 3.04829 3.63272 3.35326
# Velocity P-wave (km/s) = 5.11756 5.92638 5.53676
#
# Compressibility (1/GPa) = 0.03243471
#
# Stress axis : x y z
#
# Youngs Moduli (GPa) = 48.84745 58.85391 43.50017
#
# Poissons Ratio (x) = -0.12388 0.35810
# Poissons Ratio (y) = -0.10282 0.34283
# Poissons Ratio (z) = 0.40211 0.46384
#
# Static dielectric constant tensor:
#      x y z
#    x 1.931390 0.006680 -0.029310 
#    y 0.006680 1.849050 -0.030990 
#    z -0.029310 -0.030990 1.891340 
# 
# From -- ./inp_files/366816.got.cif
#   From: 2010.05.17/outbox.cif.g08.bks.cpg/sg2_184_cif.got.tgz:366816.got - 2010.06.03 11:33:40.
