data_PCOD9101686
_publ_section_title
;
Structure prediction by ZEFSAII (Michael W. Deem and Ramdas Pophale) SiO2 
 PCOD9101686
Probable space group: P -1
;
_chemical_formula_sum "Si O2"
_cell_formula_units_Z 11
_cell_length_a 15.272035
_cell_length_b 12.016582
_cell_length_c 7.626363
_cell_angle_alpha 54.848826
_cell_angle_beta 130.929120
_cell_angle_gamma 155.240479
_cell_volume 442.039640
_symmetry_space_group_name_H-M "P -1"
_symmetry_group_IT_number 2
_symmetry_cell_setting 'triclinic'
loop_
_space_group_symop_operation_xyz
x,y,z
-x,-y,-z
loop_
_atom_site_type_symbol
_atom_site_label
_atom_site_fract_x
_atom_site_fract_y
_atom_site_fract_z
Si Si1 0.446119 0.959066 0.669989
Si Si2 0.306719 0.547540 0.351284
Si Si3 0.173831 0.850706 0.945040
Si Si4 0.894646 0.597924 0.136537
Si Si5 0.000000 0.000000 0.000000
Si Si6 0.708804 0.736036 0.190933
O O1 0.474455 0.145031 0.587644
O O2 0.652447 0.091564 0.926856
O O3 0.500000 0.000000 0.500000
O O4 0.224823 0.649433 0.704251
O O5 0.304077 0.395869 0.565597
O O6 0.280888 0.523550 0.131154
O O7 0.070851 0.382350 0.257569
O O8 0.100638 0.758226 0.137420
O O9 0.291737 0.116973 0.854904
O O10 0.955687 0.789104 0.159570
O O11 0.075914 0.048909 0.850303
O O12 0.500000 0.500000 0.000000
#
# Coordination Sequence:
#
# PCOD9101686 Si02
#       6
#     2   2   2   2   1   2
#     4  12  22  40  62  89 121 159 198 246 299 354
#     4  10  22  41  62  86 126 155 197 249 296 353
#     4   9  22  38  61  86 119 156 199 241 295 350
#     4   9  22  38  60  88 121 155 203 240 298 351
#     4  10  20  38  60  88 120 150 202 246 290 350
#     4  11  21  41  61  90 119 157 200 247 295 351
#
# _framework density 24.884647000000001
#
# number of rings (size 3 to 8) (size 9 to 14) (size 15 to 20)
#    1.091    0.727    0.000    4.909    0.000    0.727 
#    3.273    1.818    0.000    0.000    0.000    0.000 
#    0.000    0.000    0.000    0.000    0.000    0.000 
#
# Total GULP energy -61239.682464 kJ/mol
# GULP energy per Si atom -5567.243860 kJ/mol
# Density = 2.482801 g / cm^3
# Si number density = 24.884647 Si / 1000 Ang^3
#
#
#
# Elastic Constant Matrix: (Units=GPa)
#
#
# Indices 1 2 3 4 5 6 
#
# 1 53.6469 25.9706 9.7558 -15.7379 2.3186 1.0833
# 2 25.9706 143.9366 48.3389 -46.0859 23.1729 -18.4434
# 3 9.7558 48.3389 117.5274 -30.1831 1.4438 12.7106
# 4 -15.7379 -46.0859 -30.1831 56.6578 -2.3705 0.1194
# 5 2.3186 23.1729 1.4438 -2.3705 17.6694 -2.9397
# 6 1.0833 -18.4434 12.7106 0.1194 -2.9397 29.8466
#
#
#
# Elastic Compliance Matrix: (Units=1/GPa)
#
#
# Indices 1 2 3 4 5 6 
#
# 1 0.021309 -0.003878 0.001049 0.003418 0.002094 -0.003424
# 2 -0.003878 0.016355 -0.005092 0.008756 -0.017578 0.010650
# 3 0.001049 -0.005092 0.012018 0.002762 0.004622 -0.007859
# 4 0.003418 0.008756 0.002762 0.026850 -0.008020 0.003213
# 5 0.002094 -0.017578 0.004622 -0.008020 0.077040 -0.005286
# 6 -0.003424 0.010650 -0.007859 0.003213 -0.005286 0.043023
#
#
# Mechanical properties :
#
#
# Convention : Reuss Voigt Hill
#
# Bulk Modulus (GPa) = 29.55218 53.69350 41.62284
# Shear Modulus (GPa) = 22.34945 36.23781 29.29363
#
# Velocity S-wave (km/s) = 3.00012 3.82020 3.43472
# Velocity P-wave (km/s) = 4.88901 6.40955 5.70021
#
# Compressibility (1/GPa) = 0.03383845
#
# Stress axis : x y z
#
# Youngs Moduli (GPa) = 46.92956 61.14180 83.20542
#
# Poissons Ratio (x) = 0.23714 -0.08726
# Poissons Ratio (y) = 0.18201 0.42370
# Poissons Ratio (z) = -0.04922 0.31135
#
# Static dielectric constant tensor:
#      x y z
#    x 1.938690 0.078850 0.044760 
#    y 0.078850 2.004880 0.056180 
#    z 0.044760 0.056180 1.993890 
# 
# From -- ./inp_files/146822.got.cif
#   From: 2010.05.17/outbox.cif.g08.bks.cpg/sg2_74_cif.got.tgz:146822.got - 2010.06.03 11:33:40.
