data_PCOD9101971
_publ_section_title
;
Structure prediction by ZEFSAII (Michael W. Deem and Ramdas Pophale) SiO2 
 PCOD9101971
Probable space group: P -1
;
_chemical_formula_sum "Si O2"
_cell_formula_units_Z 14
_cell_length_a 8.150966
_cell_length_b 12.700939
_cell_length_c 11.918772
_cell_angle_alpha 145.094751
_cell_angle_beta 90.371482
_cell_angle_gamma 69.338579
_cell_volume 560.907933
_symmetry_space_group_name_H-M "P -1"
_symmetry_group_IT_number 2
_symmetry_cell_setting 'triclinic'
loop_
_space_group_symop_operation_xyz
x,y,z
-x,-y,-z
loop_
_atom_site_type_symbol
_atom_site_label
_atom_site_fract_x
_atom_site_fract_y
_atom_site_fract_z
Si Si1 0.452627 0.975353 0.852646
Si Si2 0.787557 0.671751 0.220222
Si Si3 0.700629 0.394206 0.141251
Si Si4 0.275561 0.727587 0.570984
Si Si5 0.166287 0.514237 0.574745
Si Si6 0.566592 0.710484 0.050823
Si Si7 0.958768 0.183814 0.568798
O O1 0.300808 0.906833 0.785829
O O2 0.667935 0.747403 0.608658
O O3 0.380620 0.194924 0.971055
O O4 0.500000 0.000000 0.000000
O O5 0.735000 0.532309 0.173407
O O6 0.605486 0.807514 0.245944
O O7 0.854607 0.798621 0.406714
O O8 0.000000 0.500000 0.000000
O O9 0.487952 0.551616 0.349857
O O10 0.867806 0.324575 0.179290
O O11 0.648098 0.245850 0.939896
O O12 0.252363 0.584903 0.537765
O O13 0.094208 0.850833 0.586232
O O14 0.000000 0.500000 0.500000
O O15 0.744116 0.433801 0.819795
O O16 0.000000 0.000000 0.500000
#
# Coordination Sequence:
#
# PCOD9101971 Si02
#       7
#     2   2   2   2   2   2   2
#     4  11  21  39  66  92 122 164 207 256 307 365
#     4  10  21  38  61  92 124 159 205 260 305 352
#     4  10  20  39  63  87 123 167 204 247 306 375
#     4  10  21  40  63  90 124 166 206 246 305 379
#     4  11  23  42  64  93 125 163 207 255 308 369
#     4  10  21  38  59  91 123 160 205 251 301 363
#     4  10  20  38  61  89 124 163 201 251 305 361
#
# _framework density 24.959534000000001
#
# number of rings (size 3 to 8) (size 9 to 14) (size 15 to 20)
#    0.000    1.714    0.000    6.429    0.000    1.143 
#    0.000   28.571    0.000    0.000    0.000    0.000 
#    0.000    0.000    0.000    0.000    0.000    0.000 
#
# Total GULP energy -78268.520217 kJ/mol
# GULP energy per Si atom -5590.608587 kJ/mol
# Density = 2.490273 g / cm^3
# Si number density = 24.959534 Si / 1000 Ang^3
#
#
#
# Elastic Constant Matrix: (Units=GPa)
#
#
# Indices 1 2 3 4 5 6 
#
# 1 175.1407 52.8691 54.7992 -20.8145 46.8516 -12.8738
# 2 52.8691 166.1279 40.3047 -20.2617 20.9915 9.1294
# 3 54.7992 40.3047 79.4726 -7.6390 23.6881 -20.1980
# 4 -20.8145 -20.2617 -7.6390 51.7853 -22.6138 15.3668
# 5 46.8516 20.9915 23.6881 -22.6138 64.4713 -8.4028
# 6 -12.8738 9.1294 -20.1980 15.3668 -8.4028 73.5666
#
#
#
# Elastic Compliance Matrix: (Units=1/GPa)
#
#
# Indices 1 2 3 4 5 6 
#
# 1 0.008469 -0.001128 -0.004001 0.000596 -0.004118 -0.000071
# 2 -0.001128 0.007740 -0.003659 0.002999 0.000337 -0.002750
# 3 -0.004001 -0.003659 0.019262 -0.003281 -0.003433 0.005336
# 4 0.000596 0.002999 -0.003281 0.025369 0.007970 -0.005558
# 5 -0.004118 0.000337 -0.003433 0.007970 0.022344 -0.000818
# 6 -0.000071 -0.002750 0.005336 -0.005558 -0.000818 0.016454
#
#
# Mechanical properties :
#
#
# Convention : Reuss Voigt Hill
#
# Bulk Modulus (GPa) = 55.88233 79.63189 67.75711
# Shear Modulus (GPa) = 40.59093 56.14919 48.37006
#
# Velocity S-wave (km/s) = 4.03708 4.74815 4.40698
# Velocity P-wave (km/s) = 6.64593 7.87614 7.28704
#
# Compressibility (1/GPa) = 0.01789474
#
# Stress axis : x y z
#
# Youngs Moduli (GPa) = 118.07616 129.19200 51.91574
#
# Poissons Ratio (x) = 0.14567 0.20774
# Poissons Ratio (y) = 0.13314 0.18998
# Poissons Ratio (z) = 0.47248 0.47276
#
# Static dielectric constant tensor:
#      x y z
#    x 1.999060 -0.100590 -0.018750 
#    y -0.100590 1.911270 -0.017940 
#    z -0.018750 -0.017940 2.208280 
# 
# From -- ./inp_files/391615.got.cif
#   From: 2010.05.17/outbox.cif.g08.bks.cpg/sg2_196_cif.got.tgz:391615.got - 2010.06.03 11:33:40.
