data_PCOD9101864
_publ_section_title
;
Structure prediction by ZEFSAII (Michael W. Deem and Ramdas Pophale) SiO2 
 PCOD9101864
Probable space group: P -1
;
_chemical_formula_sum "Si O2"
_cell_formula_units_Z 14
_cell_length_a 12.126036
_cell_length_b 8.837258
_cell_length_c 9.111443
_cell_angle_alpha 96.999805
_cell_angle_beta 106.775725
_cell_angle_gamma 131.746337
_cell_volume 626.466218
_symmetry_space_group_name_H-M "P -1"
_symmetry_group_IT_number 2
_symmetry_cell_setting 'triclinic'
loop_
_space_group_symop_operation_xyz
x,y,z
-x,-y,-z
loop_
_atom_site_type_symbol
_atom_site_label
_atom_site_fract_x
_atom_site_fract_y
_atom_site_fract_z
Si Si1 0.448274 0.342981 0.597503
Si Si2 0.063839 0.895285 0.473921
Si Si3 0.246803 0.913672 0.792170
Si Si4 0.820357 0.168855 0.917541
Si Si5 0.435378 0.834178 0.229080
Si Si6 0.850168 0.607678 0.088386
Si Si7 0.321786 0.257596 0.057923
O O1 0.500000 0.500000 0.500000
O O2 0.250055 0.105140 0.498503
O O3 0.543558 0.272628 0.648704
O O4 0.509988 0.502300 0.781630
O O5 0.095945 0.822334 0.619125
O O6 0.000000 0.000000 0.500000
O O7 0.928990 0.690126 0.288498
O O8 0.183081 0.784667 0.906291
O O9 0.382155 0.953625 0.750628
O O10 0.338301 0.159231 0.915280
O O11 0.682019 0.135937 0.775155
O O12 0.009606 0.341806 0.950096
O O13 0.753520 0.929665 0.870414
O O14 0.328234 0.647049 0.037296
O O15 0.813663 0.744216 0.035260
#
# Coordination Sequence:
#
# PCOD9101864 Si02
#       7
#     2   2   2   2   2   2   2
#     4  10  22  38  57  87 116 146 195 242 286 335
#     4  11  21  35  57  90 118 143 188 247 286 326
#     4   9  21  37  60  81 117 149 197 228 288 335
#     4  10  20  38  61  85 113 157 193 234 282 347
#     4  10  22  38  62  81 118 156 193 228 290 352
#     4  11  21  36  60  88 116 152 193 238 286 334
#     4   9  20  35  63  79 112 151 198 225 287 333
#
# _framework density 22.347574000000002
#
# number of rings (size 3 to 8) (size 9 to 14) (size 15 to 20)
#    0.857    1.143    1.429    2.143    2.000    5.143 
#    0.000    7.143    0.000    0.000    0.000    0.000 
#    0.000    0.000    0.000    0.000    0.000    0.000 
#
# Total GULP energy -78088.765519 kJ/mol
# GULP energy per Si atom -5577.768966 kJ/mol
# Density = 2.229671 g / cm^3
# Si number density = 22.347574 Si / 1000 Ang^3
#
#
#
# Elastic Constant Matrix: (Units=GPa)
#
#
# Indices 1 2 3 4 5 6 
#
# 1 117.1293 5.2410 12.6904 -20.4752 25.7913 -9.0095
# 2 5.2410 39.0004 17.9199 -23.2636 8.7525 -4.1154
# 3 12.6904 17.9199 93.3257 -12.1933 16.1822 -3.3943
# 4 -20.4752 -23.2636 -12.1933 39.2180 -5.3967 4.0158
# 5 25.7913 8.7525 16.1822 -5.3967 27.5860 -4.3982
# 6 -9.0095 -4.1154 -3.3943 4.0158 -4.3982 25.9997
#
#
#
# Elastic Compliance Matrix: (Units=1/GPa)
#
#
# Indices 1 2 3 4 5 6 
#
# 1 0.012438 0.005990 0.000365 0.008330 -0.011791 0.002025
# 2 0.005990 0.045812 -0.003862 0.027167 -0.012145 0.002572
# 3 0.000365 -0.003862 0.012631 0.000959 -0.006347 -0.000058
# 4 0.008330 0.027167 0.000959 0.045230 -0.008294 -0.001077
# 5 -0.011791 -0.012145 -0.006347 -0.008294 0.053793 0.003544
# 6 0.002025 0.002572 -0.000058 -0.001077 0.003544 0.040329
#
#
# Mechanical properties :
#
#
# Convention : Reuss Voigt Hill
#
# Bulk Modulus (GPa) = 13.18104 35.68422 24.43263
# Shear Modulus (GPa) = 21.68843 32.80102 27.24472
#
# Velocity S-wave (km/s) = 3.11867 3.83530 3.49540
# Velocity P-wave (km/s) = 4.34502 5.96785 5.21988
#
# Compressibility (1/GPa) = 0.07586652
#
# Stress axis : x y z
#
# Youngs Moduli (GPa) = 80.39656 21.82818 79.17115
#
# Poissons Ratio (x) = -0.13074 -0.02891
# Poissons Ratio (y) = -0.48155 0.30578
# Poissons Ratio (z) = -0.02935 0.08431
#
# Static dielectric constant tensor:
#      x y z
#    x 1.817770 -0.034790 -0.027780 
#    y -0.034790 1.897050 -0.002220 
#    z -0.027780 -0.002220 1.842320 
# 
# From -- ./inp_files/239886.got.cif
#   From: 2010.05.17/outbox.cif.g08.bks.cpg/sg2_120_cif.got.tgz:239886.got - 2010.06.03 11:33:40.
