data_PCOD9101507
_publ_section_title
;
Structure prediction by ZEFSAII (Michael W. Deem and Ramdas Pophale) SiO2 
 PCOD9101507
Probable space group: P -1
;
_chemical_formula_sum "Si O2"
_cell_formula_units_Z 16
_cell_length_a 4.823487
_cell_length_b 21.663891
_cell_length_c 9.809688
_cell_angle_alpha 52.122716
_cell_angle_beta 97.036163
_cell_angle_gamma 81.862244
_cell_volume 771.668170
_symmetry_space_group_name_H-M "P -1"
_symmetry_group_IT_number 2
_symmetry_cell_setting 'triclinic'
loop_
_space_group_symop_operation_xyz
x,y,z
-x,-y,-z
loop_
_atom_site_type_symbol
_atom_site_label
_atom_site_fract_x
_atom_site_fract_y
_atom_site_fract_z
Si Si1 0.483680 0.169090 0.893855
Si Si2 0.066750 0.085119 0.902493
Si Si3 0.683721 0.347036 0.992114
Si Si4 0.784618 0.450252 0.504374
Si Si5 0.544122 0.686914 0.680801
Si Si6 0.427208 0.479071 0.177497
Si Si7 0.171040 0.303822 0.884568
Si Si8 0.082828 0.223719 0.551725
O O1 0.814831 0.143774 0.901178
O O2 0.378021 0.219839 0.953374
O O3 0.754165 0.276708 0.468201
O O4 0.367846 0.088667 0.984613
O O5 0.068230 0.130710 0.695322
O O6 0.000000 0.000000 0.000000
O O7 0.935833 0.358712 0.690731
O O8 0.400482 0.353026 0.874701
O O9 0.969385 0.290859 0.014608
O O10 0.576022 0.321738 0.164044
O O11 0.500000 0.500000 0.500000
O O12 0.306706 0.546673 0.663995
O O13 0.000000 0.500000 0.500000
O O14 0.697107 0.598264 0.746174
O O15 0.754493 0.744867 0.603279
O O16 0.243745 0.566209 0.104851
O O17 0.500000 0.500000 0.000000
O O18 0.289768 0.227262 0.687318
#
# Coordination Sequence:
#
# PCOD9101507 Si02
#       8
#     2   2   2   2   2   2   2   2
#     4  10  21  35  62  91 122 153 187 238 310 364
#     4  10  20  38  62  97 127 143 186 239 312 388
#     4  11  24  39  57  84 117 171 216 261 300 357
#     4  12  23  40  61  83 119 165 218 264 322 358
#     4  11  22  38  60  84 122 160 212 261 308 356
#     4  10  23  41  59  85 120 168 220 269 314 357
#     4  12  22  40  58  84 124 157 214 255 304 372
#     4  10  20  38  59  92 119 150 193 240 325 358
#
# _framework density 20.734302
#
# number of rings (size 3 to 8) (size 9 to 14) (size 15 to 20)
#    0.750    0.500    3.750    2.625    0.000    4.000 
#    0.000    5.625    0.000    0.000    0.000   17.500 
#    0.000    0.000    0.000    0.000    0.000    0.000 
#
# Total GULP energy -89147.956220 kJ/mol
# GULP energy per Si atom -5571.747264 kJ/mol
# Density = 2.068711 g / cm^3
# Si number density = 20.734302 Si / 1000 Ang^3
#
#
#
# Elastic Constant Matrix: (Units=GPa)
#
#
# Indices 1 2 3 4 5 6 
#
# 1 100.3707 10.8897 25.2715 5.8779 -23.3707 -3.5555
# 2 10.8897 68.6174 51.5362 -2.5457 -11.6296 -4.5963
# 3 25.2715 51.5362 92.2162 -7.1699 -20.4985 8.1785
# 4 5.8779 -2.5457 -7.1699 31.8455 9.1494 -1.8175
# 5 -23.3707 -11.6296 -20.4985 9.1494 31.7951 3.0009
# 6 -3.5555 -4.5963 8.1785 -1.8175 3.0009 24.1596
#
#
#
# Elastic Compliance Matrix: (Units=1/GPa)
#
#
# Indices 1 2 3 4 5 6 
#
# 1 0.013230 0.001697 -0.002953 -0.005735 0.009941 0.001603
# 2 0.001697 0.027911 -0.017251 -0.001206 -0.000391 0.011358
# 3 -0.002953 -0.017251 0.024323 0.001629 0.007941 -0.012814
# 4 -0.005735 -0.001206 0.001629 0.037083 -0.014558 0.002973
# 5 0.009941 -0.000391 0.007941 -0.014558 0.048722 -0.008447
# 6 0.001603 0.011358 -0.012814 0.002973 -0.008447 0.049399
#
#
# Mechanical properties :
#
#
# Convention : Reuss Voigt Hill
#
# Bulk Modulus (GPa) = 35.14904 48.51102 41.83003
# Shear Modulus (GPa) = 20.22949 29.12716 24.67832
#
# Velocity S-wave (km/s) = 3.12693 3.75211 3.45370
# Velocity P-wave (km/s) = 5.47959 6.49757 6.01017
#
# Compressibility (1/GPa) = 0.02845028
#
# Stress axis : x y z
#
# Youngs Moduli (GPa) = 75.58791 35.82819 41.11365
#
# Poissons Ratio (x) = -0.06081 0.12139
# Poissons Ratio (y) = -0.12830 0.70927
# Poissons Ratio (z) = 0.22318 0.61809
#
# Static dielectric constant tensor:
#      x y z
#    x 1.736280 0.014260 -0.001310 
#    y 0.014260 1.771450 0.005810 
#    z -0.001310 0.005810 1.826700 
# 
# From -- ./inp_files/140551.got.cif
#   From: 2010.05.17/outbox.cif.g08.bks.cpg/sg2_71_cif.got.tgz:140551.got - 2010.06.03 11:33:40.
