data_PCOD9101758
_publ_section_title
;
Structure prediction by ZEFSAII (Michael W. Deem and Ramdas Pophale) SiO2 
 PCOD9101758
Probable space group: P -1
;
_chemical_formula_sum "Si O2"
_cell_formula_units_Z 14
_cell_length_a 14.401633
_cell_length_b 12.201200
_cell_length_c 8.210981
_cell_angle_alpha 57.254994
_cell_angle_beta 64.164375
_cell_angle_gamma 29.099750
_cell_volume 587.779245
_symmetry_space_group_name_H-M "P -1"
_symmetry_group_IT_number 2
_symmetry_cell_setting 'triclinic'
loop_
_space_group_symop_operation_xyz
x,y,z
-x,-y,-z
loop_
_atom_site_type_symbol
_atom_site_label
_atom_site_fract_x
_atom_site_fract_y
_atom_site_fract_z
Si Si1 0.430404 0.278042 0.717293
Si Si2 0.357518 0.119732 0.360417
Si Si3 0.807406 0.427257 0.882380
Si Si4 0.850682 0.898079 0.309494
Si Si5 0.140419 0.753736 0.681664
Si Si6 0.449521 0.611645 0.682760
Si Si7 0.598922 0.201799 0.984294
O O1 0.208082 0.547149 0.710193
O O2 0.480972 0.333680 0.500527
O O3 0.545494 0.185424 0.871147
O O4 0.506391 0.067584 0.742646
O O5 0.232054 0.379152 0.206387
O O6 0.211362 0.158623 0.489286
O O7 0.500000 0.000000 0.500000
O O8 0.929982 0.295455 0.729583
O O9 0.906374 0.241773 0.102654
O O10 0.589275 0.606669 0.907883
O O11 0.720247 0.158165 0.254664
O O12 0.773577 0.950516 0.144539
O O13 0.332215 0.637430 0.636999
O O14 0.000000 0.000000 0.500000
O O15 0.616954 0.337847 0.834695
#
# Coordination Sequence:
#
# PCOD9101758 Si02
#       7
#     2   2   2   2   2   2   2
#     4   9  21  38  64  84 122 162 204 250 297 365
#     4  11  22  43  63  86 122 165 208 248 303 352
#     4  10  23  39  60  90 124 154 213 243 294 366
#     4  11  22  38  64  88 123 164 196 256 302 351
#     4  10  22  38  61  96 124 155 196 256 309 356
#     4   9  20  37  59  90 123 156 204 240 307 370
#     4  10  20  38  60  91 120 160 199 249 311 352
#
# _framework density 23.818466999999998
#
# number of rings (size 3 to 8) (size 9 to 14) (size 15 to 20)
#    0.000    2.286    1.429    2.571    4.000    5.714 
#    0.000    0.714    0.000    0.000    0.000    0.000 
#    0.000    0.000    0.000    0.000    0.000    0.000 
#
# Total GULP energy -78093.158244 kJ/mol
# GULP energy per Si atom -5578.082732 kJ/mol
# Density = 2.376425 g / cm^3
# Si number density = 23.818467 Si / 1000 Ang^3
#
#
#
# Elastic Constant Matrix: (Units=GPa)
#
#
# Indices 1 2 3 4 5 6 
#
# 1 33.6476 14.7852 10.3598 2.3364 3.1402 11.5052
# 2 14.7852 83.3534 17.3426 2.2058 5.6325 16.9803
# 3 10.3598 17.3426 79.0778 -13.9409 -17.6602 -4.8439
# 4 2.3364 2.2058 -13.9409 49.3008 0.5204 -6.4510
# 5 3.1402 5.6325 -17.6602 0.5204 29.9621 5.2310
# 6 11.5052 16.9803 -4.8439 -6.4510 5.2310 33.5703
#
#
#
# Elastic Compliance Matrix: (Units=1/GPa)
#
#
# Indices 1 2 3 4 5 6 
#
# 1 0.038499 -0.001928 -0.007731 -0.005632 -0.005771 -0.013518
# 2 -0.001928 0.015337 -0.005065 -0.002995 -0.004263 -0.007739
# 3 -0.007731 -0.005065 0.019008 0.006823 0.011544 0.007466
# 4 -0.005632 -0.002995 0.006823 0.023687 0.003285 0.008470
# 5 -0.005771 -0.004263 0.011544 0.003285 0.041536 -0.000041
# 6 -0.013518 -0.007739 0.007466 0.008470 -0.000041 0.041047
#
#
# Mechanical properties :
#
#
# Convention : Reuss Voigt Hill
#
# Bulk Modulus (GPa) = 23.04344 31.22825 27.13584
# Shear Modulus (GPa) = 22.41890 32.80606 27.61248
#
# Velocity S-wave (km/s) = 3.07129 3.71528 3.40853
# Velocity P-wave (km/s) = 4.71940 5.61638 5.18732
#
# Compressibility (1/GPa) = 0.04339630
#
# Stress axis : x y z
#
# Youngs Moduli (GPa) = 25.97470 65.20281 52.61045
#
# Poissons Ratio (x) = 0.12569 0.40672
# Poissons Ratio (y) = 0.05007 0.26648
# Poissons Ratio (z) = 0.20080 0.33026
#
# Static dielectric constant tensor:
#      x y z
#    x 1.985000 0.016240 0.042000 
#    y 0.016240 1.993590 0.032030 
#    z 0.042000 0.032030 1.973400 
# 
# From -- ./inp_files/154906.got.cif
#   From: 2010.05.17/outbox.cif.g08.bks.cpg/sg2_78_cif.got.tgz:154906.got - 2010.06.03 11:33:40.
