data_PCOD9101622
_publ_section_title
;
Structure prediction by ZEFSAII (Michael W. Deem and Ramdas Pophale) SiO2 
 PCOD9101622
Probable space group: P -1
;
_chemical_formula_sum "Si O2"
_cell_formula_units_Z 16
_cell_length_a 7.351006
_cell_length_b 23.847882
_cell_length_c 5.625622
_cell_angle_alpha 123.636743
_cell_angle_beta 109.020376
_cell_angle_gamma 48.322819
_cell_volume 611.839278
_symmetry_space_group_name_H-M "P -1"
_symmetry_group_IT_number 2
_symmetry_cell_setting 'triclinic'
loop_
_space_group_symop_operation_xyz
x,y,z
-x,-y,-z
loop_
_atom_site_type_symbol
_atom_site_label
_atom_site_fract_x
_atom_site_fract_y
_atom_site_fract_z
Si Si1 0.397074 0.757386 0.471224
Si Si2 0.173956 0.274453 0.885136
Si Si3 0.137524 0.018138 0.294539
Si Si4 0.600207 0.601861 0.494076
Si Si5 0.340650 0.861849 0.326406
Si Si6 0.871893 0.275227 0.122805
Si Si7 0.010490 0.555465 0.939213
Si Si8 0.887862 0.853517 0.695922
O O1 0.585723 0.665344 0.446487
O O2 0.468162 0.814012 0.522976
O O3 0.166387 0.817658 0.685604
O O4 0.280812 0.738662 0.157902
O O5 0.459941 0.223498 0.942524
O O6 0.161849 0.200979 0.611171
O O7 0.061049 0.351824 0.834976
O O8 0.000032 0.308599 0.118837
O O9 0.937727 0.085795 0.567879
O O10 0.250666 0.053159 0.260336
O O11 0.317547 0.934787 0.336025
O O12 0.000000 0.000000 0.000000
O O13 0.330470 0.655245 0.613701
O O14 0.797769 0.580913 0.723498
O O15 0.719997 0.510525 0.212974
O O16 0.083384 0.183124 0.115306
O O17 0.000000 0.500000 0.000000
#
# Coordination Sequence:
#
# PCOD9101622 Si02
#       8
#     2   2   2   2   2   2   2   2
#     4   9  18  38  63  86 118 158 200 247 294 348
#     4  11  24  39  59  88 123 160 195 243 304 360
#     4  10  21  39  64  90 116 155 204 251 295 348
#     4  10  21  38  63  90 116 156 204 248 295 353
#     4  10  21  37  61  89 118 154 201 247 295 355
#     4  10  20  38  60  85 122 163 196 241 298 354
#     4  11  24  41  63  90 120 154 202 256 298 345
#     4   9  21  38  59  88 121 159 200 238 297 363
#
# _framework density 26.150656999999999
#
# number of rings (size 3 to 8) (size 9 to 14) (size 15 to 20)
#    0.000    2.000    0.000    3.000    0.000    8.000 
#    0.000   10.000    0.000    0.000    0.000    0.000 
#    0.000    0.000    0.000    0.000    0.000    0.000 
#
# Total GULP energy -89166.993658 kJ/mol
# GULP energy per Si atom -5572.937104 kJ/mol
# Density = 2.609114 g / cm^3
# Si number density = 26.150657 Si / 1000 Ang^3
#
#
#
# Elastic Constant Matrix: (Units=GPa)
#
#
# Indices 1 2 3 4 5 6 
#
# 1 107.1005 43.9800 27.7816 -3.5805 -14.8396 7.8271
# 2 43.9800 259.0023 33.4730 -1.9844 -13.4751 26.2139
# 3 27.7816 33.4730 48.2990 12.5100 2.8587 -8.2232
# 4 -3.5805 -1.9844 12.5100 52.3124 -6.9676 -8.3340
# 5 -14.8396 -13.4751 2.8587 -6.9676 41.7671 -3.8651
# 6 7.8271 26.2139 -8.2232 -8.3340 -3.8651 36.2185
#
#
#
# Elastic Compliance Matrix: (Units=1/GPa)
#
#
# Indices 1 2 3 4 5 6 
#
# 1 0.012853 -0.000432 -0.008761 0.003155 0.005260 -0.003167
# 2 -0.000432 0.004974 -0.004169 0.000693 0.001469 -0.004137
# 3 -0.008761 -0.004169 0.032787 -0.007995 -0.007133 0.009754
# 4 0.003155 0.000693 -0.007995 0.022504 0.005906 0.002810
# 5 0.005260 0.001469 -0.007133 0.005906 0.027805 0.000507
# 6 -0.003167 -0.004137 0.009754 0.002810 0.000507 0.034204
#
#
# Mechanical properties :
#
#
# Convention : Reuss Voigt Hill
#
# Bulk Modulus (GPa) = 41.86093 69.43011 55.64552
# Shear Modulus (GPa) = 29.44398 46.67073 38.05735
#
# Velocity S-wave (km/s) = 3.35914 4.22914 3.81899
# Velocity P-wave (km/s) = 5.57561 7.10318 6.38524
#
# Compressibility (1/GPa) = 0.02388862
#
# Stress axis : x y z
#
# Youngs Moduli (GPa) = 77.80465 201.06373 30.50010
#
# Poissons Ratio (x) = 0.08682 0.26722
# Poissons Ratio (y) = 0.03360 0.12716
# Poissons Ratio (z) = 0.68166 0.83827
#
# Static dielectric constant tensor:
#      x y z
#    x 2.218390 0.079490 0.013060 
#    y 0.079490 2.081710 -0.025010 
#    z 0.013060 -0.025010 2.220250 
# 
# From -- ./inp_files/55142.got.cif
#   From: 2010.05.17/outbox.cif.g08.bks.cpg/sg2_28_cif.got.tgz:55142.got - 2010.06.03 11:33:40.
