data_PCOD9101356
_publ_section_title
;
Structure prediction by ZEFSAII (Michael W. Deem and Ramdas Pophale) SiO2 
 PCOD9101356
Probable space group: P -1
;
_chemical_formula_sum "Si O2"
_cell_formula_units_Z 16
_cell_length_a 7.192185
_cell_length_b 16.585928
_cell_length_c 16.011485
_cell_angle_alpha 144.490574
_cell_angle_beta 52.254139
_cell_angle_gamma 141.750011
_cell_volume 684.866185
_symmetry_space_group_name_H-M "P -1"
_symmetry_group_IT_number 2
_symmetry_cell_setting 'triclinic'
loop_
_space_group_symop_operation_xyz
x,y,z
-x,-y,-z
loop_
_atom_site_type_symbol
_atom_site_label
_atom_site_fract_x
_atom_site_fract_y
_atom_site_fract_z
Si Si1 0.854392 0.663948 0.556916
Si Si2 0.134486 0.494826 0.272101
Si Si3 0.830924 0.475740 0.912052
Si Si4 0.745608 0.598112 0.261555
Si Si5 0.860878 0.794738 0.146589
Si Si6 0.879839 0.107129 0.018042
Si Si7 0.684045 0.768433 0.847864
Si Si8 0.155800 0.925753 0.537928
O O1 0.500000 0.500000 0.500000
O O2 0.880641 0.761010 0.717302
O O3 0.032456 0.584102 0.433487
O O4 0.000436 0.808519 0.565219
O O5 0.149217 0.539177 0.207578
O O6 0.466724 0.561011 0.258473
O O7 0.902867 0.281407 0.169925
O O8 0.476188 0.337620 0.911341
O O9 0.024708 0.428389 0.862170
O O10 0.934872 0.672062 0.059798
O O11 0.586515 0.438633 0.239415
O O12 0.954013 0.792747 0.407073
O O13 0.858841 0.914810 0.315482
O O14 0.070353 0.902661 0.101124
O O15 0.158600 0.162952 0.047405
O O16 0.627909 0.905706 0.949223
O O17 0.500000 0.000000 0.500000
#
# Coordination Sequence:
#
# PCOD9101356 Si02
#       8
#     2   2   2   2   2   2   2   2
#     4  12  22  41  67  95 132 175 215 267 329 384
#     4  10  22  41  64  97 128 170 214 266 328 386
#     4  10  20  42  64  90 128 165 213 270 317 389
#     4  11  22  40  65  93 132 171 210 272 328 377
#     4  10  20  38  66  88 121 176 212 256 333 381
#     4   9  20  37  60  89 126 165 212 269 315 374
#     4  10  20  38  58  92 129 161 215 265 319 376
#     4  12  22  40  67  95 131 172 214 267 327 390
#
# _framework density 23.362228000000002
#
# number of rings (size 3 to 8) (size 9 to 14) (size 15 to 20)
#    0.000    1.500    5.000    0.000    0.000    2.000 
#    2.250   16.875    0.000    0.000    0.000    0.000 
#    0.000    0.000    0.000    0.000    0.000    0.000 
#
# Total GULP energy -89401.901346 kJ/mol
# GULP energy per Si atom -5587.618834 kJ/mol
# Density = 2.330905 g / cm^3
# Si number density = 23.362228 Si / 1000 Ang^3
#
#
#
# Elastic Constant Matrix: (Units=GPa)
#
#
# Indices 1 2 3 4 5 6 
#
# 1 117.8214 43.4534 46.4835 -7.0594 -8.7845 27.6439
# 2 43.4534 74.8081 11.5522 8.8306 6.2851 -0.0586
# 3 46.4835 11.5522 173.9006 11.1127 2.1133 12.0891
# 4 -7.0594 8.8306 11.1127 36.2496 -4.5955 0.1759
# 5 -8.7845 6.2851 2.1133 -4.5955 20.0598 -1.9207
# 6 27.6439 -0.0586 12.0891 0.1759 -1.9207 35.7230
#
#
#
# Elastic Compliance Matrix: (Units=1/GPa)
#
#
# Indices 1 2 3 4 5 6 
#
# 1 0.019954 -0.013370 -0.004363 0.010383 0.014496 -0.013258
# 2 -0.013370 0.023346 0.002290 -0.010947 -0.015071 0.008853
# 3 -0.004363 0.002290 0.007023 -0.004101 -0.004231 0.000796
# 4 0.010383 -0.010947 -0.004101 0.035588 0.015989 -0.005980
# 5 0.014496 -0.015071 -0.004231 0.015989 0.064414 -0.006426
# 6 -0.013258 0.008853 0.000796 -0.005980 -0.006426 0.037682
#
#
# Mechanical properties :
#
#
# Convention : Reuss Voigt Hill
#
# Bulk Modulus (GPa) = 51.45398 63.27871 57.36635
# Shear Modulus (GPa) = 22.18559 36.07588 29.13073
#
# Velocity S-wave (km/s) = 3.08496 3.93389 3.53500
# Velocity P-wave (km/s) = 5.89589 6.91221 6.42418
#
# Compressibility (1/GPa) = 0.01943484
#
# Stress axis : x y z
#
# Youngs Moduli (GPa) = 50.11648 42.83461 142.39540
#
# Poissons Ratio (x) = 0.57272 0.62132
# Poissons Ratio (y) = 0.67008 -0.32612
# Poissons Ratio (z) = 0.21868 -0.09810
#
# Static dielectric constant tensor:
#      x y z
#    x 1.889410 0.000850 -0.000320 
#    y 0.000850 1.921030 -0.006050 
#    z -0.000320 -0.006050 1.911310 
# 
# From -- ./inp_files/591669.got.cif
#   From: 2010.05.17/outbox.cif.g08.bks.cpg/sg2_296_cif.got.tgz:591669.got - 2010.06.03 11:33:40.
