data_PCOD9101793
_publ_section_title
;
Structure prediction by ZEFSAII (Michael W. Deem and Ramdas Pophale) SiO2 
 PCOD9101793
Probable space group: P -1
;
_chemical_formula_sum "Si O2"
_cell_formula_units_Z 13
_cell_length_a 7.504187
_cell_length_b 11.748455
_cell_length_c 9.426184
_cell_angle_alpha 141.541929
_cell_angle_beta 83.737935
_cell_angle_gamma 96.435605
_cell_volume 513.294293
_symmetry_space_group_name_H-M "P -1"
_symmetry_group_IT_number 2
_symmetry_cell_setting 'triclinic'
loop_
_space_group_symop_operation_xyz
x,y,z
-x,-y,-z
loop_
_atom_site_type_symbol
_atom_site_label
_atom_site_fract_x
_atom_site_fract_y
_atom_site_fract_z
Si Si1 0.200119 0.004990 0.289831
Si Si2 0.678754 0.605146 0.346294
Si Si3 0.427066 0.069208 0.924537
Si Si4 0.805203 0.621047 0.668748
Si Si5 0.852130 0.336299 0.871219
Si Si6 0.000000 0.000000 0.000000
Si Si7 0.269991 0.722315 0.491196
O O1 0.409090 0.949359 0.214720
O O2 0.094378 0.846049 0.228972
O O3 0.208094 0.214634 0.546151
O O4 0.129544 0.018436 0.149902
O O5 0.748316 0.566513 0.460938
O O6 0.476277 0.669759 0.439594
O O7 0.703968 0.436857 0.076370
O O8 0.258677 0.925469 0.760969
O O9 0.361814 0.271533 0.144950
O O10 0.500000 0.000000 0.000000
O O11 0.838310 0.443383 0.585398
O O12 0.957801 0.778853 0.820582
O O13 0.779173 0.273164 0.663433
O O14 0.000000 0.500000 0.000000
#
# Coordination Sequence:
#
# PCOD9101793 Si02
#       7
#     2   2   2   2   2   1   2
#     4  10  23  42  66  91 132 164 214 270 314 380
#     4  10  23  41  66  93 124 167 218 267 316 368
#     4  11  21  41  68 103 123 158 219 273 321 371
#     4  11  22  39  67  98 130 161 213 274 316 379
#     4  12  27  44  60  94 134 177 214 253 318 394
#     4  10  20  38  60  94 124 168 202 256 324 360
#     4  11  24  40  68  96 128 172 212 261 329 376
#
# _framework density 25.326604
#
# number of rings (size 3 to 8) (size 9 to 14) (size 15 to 20)
#    0.000    1.231    4.615    2.769    2.154    6.769 
#    0.000    4.615    0.000    0.000    0.000    0.000 
#    0.000    0.000    0.000    0.000    0.000    0.000 
#
# Total GULP energy -72664.993318 kJ/mol
# GULP energy per Si atom -5589.614871 kJ/mol
# Density = 2.526896 g / cm^3
# Si number density = 25.326604 Si / 1000 Ang^3
#
#
#
# Elastic Constant Matrix: (Units=GPa)
#
#
# Indices 1 2 3 4 5 6 
#
# 1 64.3906 -9.9170 14.8802 5.2514 -3.2203 3.2349
# 2 -9.9170 132.7013 72.1686 26.8814 3.1792 0.1923
# 3 14.8802 72.1686 161.2009 15.5353 -0.3498 -21.9889
# 4 5.2514 26.8814 15.5353 35.8384 -1.6157 8.0426
# 5 -3.2203 3.1792 -0.3498 -1.6157 47.2691 8.1576
# 6 3.2349 0.1923 -21.9889 8.0426 8.1576 35.8482
#
#
#
# Elastic Compliance Matrix: (Units=1/GPa)
#
#
# Indices 1 2 3 4 5 6 
#
# 1 0.017394 0.003769 -0.003448 -0.003072 0.001375 -0.003329
# 2 0.003769 0.012175 -0.005418 -0.006892 -0.000480 -0.002073
# 3 -0.003448 -0.005418 0.010045 -0.001418 -0.001063 0.007062
# 4 -0.003072 -0.006892 -0.001418 0.036394 0.003115 -0.009429
# 5 0.001375 -0.000480 -0.001063 0.003115 0.022519 -0.006597
# 6 -0.003329 -0.002073 0.007062 -0.009429 -0.006597 0.036155
#
#
# Mechanical properties :
#
#
# Convention : Reuss Voigt Hill
#
# Bulk Modulus (GPa) = 33.99043 56.95071 45.47057
# Shear Modulus (GPa) = 32.32446 42.53520 37.42983
#
# Velocity S-wave (km/s) = 3.57642 4.10258 3.84850
# Velocity P-wave (km/s) = 5.52307 6.70648 6.14334
#
# Compressibility (1/GPa) = 0.02942005
#
# Stress axis : x y z
#
# Youngs Moduli (GPa) = 57.49049 82.13807 99.55213
#
# Poissons Ratio (x) = -0.30961 0.34327
# Poissons Ratio (y) = -0.21670 0.53939
# Poissons Ratio (z) = 0.19823 0.44504
#
# Static dielectric constant tensor:
#      x y z
#    x 1.971230 0.066460 -0.026280 
#    y 0.066460 1.906750 0.032770 
#    z -0.026280 0.032770 1.938740 
# 
# From -- ./inp_files/183562.got.cif
#   From: 2010.05.17/outbox.cif.g08.bks.cpg/sg2_92_cif.got.tgz:183562.got - 2010.06.03 11:33:40.
