data_PCOD9101679
_publ_section_title
;
Structure prediction by ZEFSAII (Michael W. Deem and Ramdas Pophale) SiO2 
 PCOD9101679
Probable space group: P -1
;
_chemical_formula_sum "Si O2"
_cell_formula_units_Z 16
_cell_length_a 11.695842
_cell_length_b 9.316877
_cell_length_c 23.247920
_cell_angle_alpha 35.685247
_cell_angle_beta 149.596772
_cell_angle_gamma 137.770896
_cell_volume 740.994301
_symmetry_space_group_name_H-M "P -1"
_symmetry_group_IT_number 2
_symmetry_cell_setting 'triclinic'
loop_
_space_group_symop_operation_xyz
x,y,z
-x,-y,-z
loop_
_atom_site_type_symbol
_atom_site_label
_atom_site_fract_x
_atom_site_fract_y
_atom_site_fract_z
Si Si1 0.027385 0.405212 0.868700
Si Si2 0.520689 0.229489 0.316544
Si Si3 0.654214 0.962894 0.815322
Si Si4 0.736569 0.152336 0.232126
Si Si5 0.761345 0.750344 0.211980
Si Si6 0.855655 0.500959 0.878145
Si Si7 0.386698 0.009481 0.035891
Si Si8 0.948761 0.198374 0.577715
O O1 0.108357 0.585252 0.792259
O O2 0.979280 0.574993 0.847893
O O3 0.211259 0.242618 0.028423
O O4 0.806335 0.221924 0.811943
O O5 0.378535 0.079021 0.253461
O O6 0.675642 0.458970 0.276303
O O7 0.349298 0.348301 0.245331
O O8 0.700189 0.110907 0.472594
O O9 0.401305 0.928200 0.744191
O O10 0.540599 0.178882 0.091238
O O11 0.874327 0.933641 0.340716
O O12 0.990829 0.842777 0.316119
O O13 0.560710 0.874400 0.116668
O O14 0.762798 0.844594 0.117410
O O15 0.762074 0.210395 0.923448
O O16 0.000000 0.500000 0.000000
O O17 0.000000 0.500000 0.500000
#
# Coordination Sequence:
#
# PCOD9101679 Si02
#       8
#     2   2   2   2   2   2   2   2
#     4  11  24  40  62  97 128 163 209 262 323 372
#     4  10  20  38  60  87 125 168 209 255 316 371
#     4  11  23  41  62  93 130 167 205 262 316 383
#     4  11  22  40  66  90 128 171 209 255 317 380
#     4   8  16  30  56  87 115 147 206 256 299 366
#     4  11  21  36  61  91 126 162 203 268 321 367
#     4   9  17  31  57  88 115 153 199 252 314 359
#     4   9  20  37  63  91 122 165 217 261 306 372
#
# _framework density 21.592607999999998
#
# number of rings (size 3 to 8) (size 9 to 14) (size 15 to 20)
#    0.000    2.000    2.500    1.875    5.250    0.500 
#    0.000    1.250    0.000    0.000    0.000    0.000 
#    0.000    0.000    0.000    0.000    0.000    0.000 
#
# Total GULP energy -89315.939327 kJ/mol
# GULP energy per Si atom -5582.246208 kJ/mol
# Density = 2.154346 g / cm^3
# Si number density = 21.592608 Si / 1000 Ang^3
#
#
#
# Elastic Constant Matrix: (Units=GPa)
#
#
# Indices 1 2 3 4 5 6 
#
# 1 56.9168 29.0871 22.8594 -1.7963 19.0022 -2.5666
# 2 29.0871 101.4588 22.4706 5.4421 -0.9237 -0.6854
# 3 22.8594 22.4706 97.0431 17.5438 7.0166 -10.1944
# 4 -1.7963 5.4421 17.5438 25.3838 -3.1788 -4.2979
# 5 19.0022 -0.9237 7.0166 -3.1788 22.0483 -0.3837
# 6 -2.5666 -0.6854 -10.1944 -4.2979 -0.3837 28.2757
#
#
#
# Elastic Compliance Matrix: (Units=1/GPa)
#
#
# Indices 1 2 3 4 5 6 
#
# 1 0.033079 -0.008974 -0.004370 0.004171 -0.026867 0.001479
# 2 -0.008974 0.012873 -0.001298 -0.001629 0.008432 -0.001104
# 3 -0.004370 -0.001298 0.013779 -0.009273 -0.001956 0.003103
# 4 0.004171 -0.001629 -0.009273 0.047976 0.006281 0.004373
# 5 -0.026867 0.008432 -0.001956 0.006281 0.070374 -0.001030
# 6 0.001479 -0.001104 0.003103 0.004373 -0.001030 0.037243
#
#
# Mechanical properties :
#
#
# Convention : Reuss Voigt Hill
#
# Bulk Modulus (GPa) = 32.84475 44.91699 38.88087
# Shear Modulus (GPa) = 19.62657 27.20831 23.41744
#
# Velocity S-wave (km/s) = 3.01815 3.55360 3.29677
# Velocity P-wave (km/s) = 5.23352 6.13878 5.70414
#
# Compressibility (1/GPa) = 0.03044626
#
# Stress axis : x y z
#
# Youngs Moduli (GPa) = 30.23075 77.68145 72.57597
#
# Poissons Ratio (x) = 0.69710 0.31717
# Poissons Ratio (y) = 0.27128 0.09421
# Poissons Ratio (z) = 0.13212 0.10084
#
# Static dielectric constant tensor:
#      x y z
#    x 1.845470 0.024990 0.012660 
#    y 0.024990 1.823690 -0.005370 
#    z 0.012660 -0.005370 1.803110 
# 
# From -- ./inp_files/609776.got.cif
#   From: 2010.05.17/outbox.cif.g08.bks.cpg/sg2_305_cif.got.tgz:609776.got - 2010.06.03 11:33:40.
