data_PCOD9101580
_publ_section_title
;
Structure prediction by ZEFSAII (Michael W. Deem and Ramdas Pophale) SiO2 
 PCOD9101580
Probable space group: P -1
;
_chemical_formula_sum "Si O2"
_cell_formula_units_Z 16
_cell_length_a 13.682007
_cell_length_b 10.845301
_cell_length_c 6.054882
_cell_angle_alpha 95.750188
_cell_angle_beta 64.982841
_cell_angle_gamma 69.299239
_cell_volume 727.815482
_symmetry_space_group_name_H-M "P -1"
_symmetry_group_IT_number 2
_symmetry_cell_setting 'triclinic'
loop_
_space_group_symop_operation_xyz
x,y,z
-x,-y,-z
loop_
_atom_site_type_symbol
_atom_site_label
_atom_site_fract_x
_atom_site_fract_y
_atom_site_fract_z
Si Si1 0.649910 0.797958 0.744243
Si Si2 0.757992 0.300885 0.082686
Si Si3 0.793087 0.899748 0.310190
Si Si4 0.578476 0.027094 0.239917
Si Si5 0.592274 0.354726 0.628360
Si Si6 0.181748 0.883059 0.388416
Si Si7 0.348851 0.451153 0.086008
Si Si8 0.977664 0.150713 0.141785
O O1 0.733833 0.813193 0.475785
O O2 0.517786 0.838747 0.770873
O O3 0.699653 0.649023 0.779392
O O4 0.626813 0.909875 0.981801
O O5 0.794494 0.157939 0.893612
O O6 0.741855 0.420206 0.947083
O O7 0.863068 0.268444 0.151170
O O8 0.632819 0.346406 0.336683
O O9 0.906530 0.828283 0.027375
O O10 0.691174 0.013773 0.273679
O O11 0.832468 0.972081 0.482570
O O12 0.500000 0.000000 0.500000
O O13 0.696488 0.224856 0.627656
O O14 0.601534 0.484973 0.756313
O O15 0.463218 0.363197 0.805151
O O16 0.069777 0.855176 0.569179
O O17 0.000000 0.000000 0.000000
#
# Coordination Sequence:
#
# PCOD9101580 Si02
#       8
#     2   2   2   2   2   2   2   2
#     4  10  22  38  58  86 117 149 198 235 284 355
#     4  10  20  38  60  83 118 153 189 245 290 335
#     4  10  21  38  58  86 119 155 190 238 293 337
#     4   9  21  38  54  83 116 157 187 236 284 339
#     4   9  20  37  56  86 113 152 191 238 290 345
#     4   9  20  36  59  89 117 144 197 238 288 348
#     4  10  21  38  57  86 116 151 196 235 289 351
#     4   9  20  38  57  86 115 149 197 244 285 339
#
# _framework density 21.983594
#
# number of rings (size 3 to 8) (size 9 to 14) (size 15 to 20)
#    0.000    2.500    0.000    0.375    5.250    8.000 
#   13.500    0.625    0.000    7.500    0.000    0.000 
#    0.000    0.000    0.000    0.000    0.000    0.000 
#
# Total GULP energy -89317.495058 kJ/mol
# GULP energy per Si atom -5582.343441 kJ/mol
# Density = 2.193356 g / cm^3
# Si number density = 21.983594 Si / 1000 Ang^3
#
#
#
# Elastic Constant Matrix: (Units=GPa)
#
#
# Indices 1 2 3 4 5 6 
#
# 1 78.0820 16.9417 35.2861 -10.6242 -11.2751 -9.1657
# 2 16.9417 69.3577 20.9074 -27.5001 -11.1881 -1.4511
# 3 35.2861 20.9074 130.8686 -11.6650 -20.8528 6.5559
# 4 -10.6242 -27.5001 -11.6650 32.4616 0.6830 -0.5021
# 5 -11.2751 -11.1881 -20.8528 0.6830 36.4899 -3.2594
# 6 -9.1657 -1.4511 6.5559 -0.5021 -3.2594 21.1145
#
#
#
# Elastic Compliance Matrix: (Units=1/GPa)
#
#
# Indices 1 2 3 4 5 6 
#
# 1 0.016825 -0.000783 -0.004014 0.003470 0.003413 0.009106
# 2 -0.000783 0.023670 -0.000983 0.019356 0.006362 0.003035
# 3 -0.004014 -0.000983 0.009784 0.001226 0.003646 -0.004256
# 4 0.003470 0.019356 0.001226 0.048700 0.007218 0.004728
# 5 0.003413 0.006362 0.003646 0.007218 0.032898 0.006037
# 6 0.009106 0.003035 -0.004256 0.004728 0.006037 0.053888
#
#
# Mechanical properties :
#
#
# Convention : Reuss Voigt Hill
#
# Bulk Modulus (GPa) = 25.82783 47.17540 36.50162
# Shear Modulus (GPa) = 23.78317 31.69142 27.73729
#
# Velocity S-wave (km/s) = 3.29273 3.80095 3.55593
# Velocity P-wave (km/s) = 5.12155 6.38506 5.78789
#
# Compressibility (1/GPa) = 0.03871792
#
# Stress axis : x y z
#
# Youngs Moduli (GPa) = 59.43559 42.24780 102.20428
#
# Poissons Ratio (x) = 0.03307 0.41030
# Poissons Ratio (y) = 0.04652 0.10051
# Poissons Ratio (z) = 0.23860 0.04155
#
# Static dielectric constant tensor:
#      x y z
#    x 1.848710 -0.017240 0.008250 
#    y -0.017240 1.807000 0.000650 
#    z 0.008250 0.000650 1.853880 
# 
# From -- ./inp_files/93571.got.cif
#   From: 2010.05.17/outbox.cif.g08.bks.cpg/sg2_47_cif.got.tgz:93571.got - 2010.06.03 11:33:40.
