data_PCOD9101586
_publ_section_title
;
Structure prediction by ZEFSAII (Michael W. Deem and Ramdas Pophale) SiO2 
 PCOD9101586
Probable space group: P -1
;
_chemical_formula_sum "Si O2"
_cell_formula_units_Z 16
_cell_length_a 10.955358
_cell_length_b 8.468850
_cell_length_c 22.083015
_cell_angle_alpha 65.590637
_cell_angle_beta 33.876529
_cell_angle_gamma 89.166825
_cell_volume 792.691248
_symmetry_space_group_name_H-M "P -1"
_symmetry_group_IT_number 2
_symmetry_cell_setting 'triclinic'
loop_
_space_group_symop_operation_xyz
x,y,z
-x,-y,-z
loop_
_atom_site_type_symbol
_atom_site_label
_atom_site_fract_x
_atom_site_fract_y
_atom_site_fract_z
Si Si1 0.289023 0.273613 0.584465
Si Si2 0.036211 0.824279 0.835761
Si Si3 0.878737 0.164238 0.471161
Si Si4 0.548841 0.171466 0.402057
Si Si5 0.453316 0.543429 0.834527
Si Si6 0.467696 0.695195 0.258066
Si Si7 0.623807 0.096894 0.195720
Si Si8 0.068979 0.448088 0.576256
O O1 0.500000 0.500000 0.500000
O O2 0.490061 0.310849 0.441277
O O3 0.047335 0.262410 0.652185
O O4 0.148678 0.049438 0.717811
O O5 0.143885 0.712884 0.771106
O O6 0.202673 0.887654 0.820783
O O7 0.704310 0.645811 0.017930
O O8 0.865344 0.363347 0.433300
O O9 0.205034 0.271616 0.324727
O O10 0.688124 0.969054 0.531117
O O11 0.712913 0.069724 0.618584
O O12 0.500000 0.000000 0.500000
O O13 0.409627 0.410242 0.811309
O O14 0.319088 0.668550 0.872627
O O15 0.317655 0.565118 0.404021
O O16 0.215061 0.636747 0.327882
O O17 0.654802 0.963820 0.153177
#
# Coordination Sequence:
#
# PCOD9101586 Si02
#       8
#     2   2   2   2   2   2   2   2
#     4  11  21  37  63  83 112 158 199 240 295 350
#     4  10  23  41  53  92 121 150 201 244 292 362
#     4   9  19  36  59  89 114 151 205 238 282 360
#     4   9  19  36  59  79 112 150 198 236 275 354
#     4  11  22  37  61  88 127 156 187 250 310 337
#     4   9  20  35  56  92 114 151 198 244 287 353
#     4  10  20  38  60  83 126 156 204 240 286 355
#     4   9  18  34  58  85 117 144 201 250 281 337
#
# _framework density 20.184404000000001
#
# number of rings (size 3 to 8) (size 9 to 14) (size 15 to 20)
#    0.000    2.250    0.000    4.500    5.250    0.500 
#    2.250    5.000    0.000    0.000    0.000    0.000 
#    0.000    0.000    0.000    0.000    0.000    0.000 
#
# Total GULP energy -89127.036290 kJ/mol
# GULP energy per Si atom -5570.439768 kJ/mol
# Density = 2.013846 g / cm^3
# Si number density = 20.184404 Si / 1000 Ang^3
#
#
#
# Elastic Constant Matrix: (Units=GPa)
#
#
# Indices 1 2 3 4 5 6 
#
# 1 60.1754 34.4377 4.3894 -3.0077 5.9824 -14.9857
# 2 34.4377 135.2478 5.0772 4.8320 13.0061 7.0921
# 3 4.3894 5.0772 60.7148 -5.2437 4.3824 -2.2315
# 4 -3.0077 4.8320 -5.2437 13.0932 -0.4330 8.3649
# 5 5.9824 13.0061 4.3824 -0.4330 18.1877 -1.2128
# 6 -14.9857 7.0921 -2.2315 8.3649 -1.2128 39.7904
#
#
#
# Elastic Compliance Matrix: (Units=1/GPa)
#
#
# Indices 1 2 3 4 5 6 
#
# 1 0.022742 -0.006076 -0.000516 0.001250 -0.002362 0.009284
# 2 -0.006076 0.009751 -0.000396 -0.003046 -0.005189 -0.003566
# 3 -0.000516 -0.000396 0.017411 0.007401 -0.003621 -0.000814
# 4 0.001250 -0.003046 0.007401 0.092240 0.000984 -0.017932
# 5 -0.002362 -0.005189 -0.003621 0.000984 0.060464 0.001468
# 6 0.009284 -0.003566 -0.000814 -0.017932 0.001468 0.033033
#
#
# Mechanical properties :
#
#
# Convention : Reuss Voigt Hill
#
# Bulk Modulus (GPa) = 27.83292 38.21630 33.02461
# Shear Modulus (GPa) = 19.11371 28.36318 23.73844
#
# Velocity S-wave (km/s) = 3.08060 3.75267 3.43312
# Velocity P-wave (km/s) = 5.14516 6.14422 5.66675
#
# Compressibility (1/GPa) = 0.03592868
#
# Stress axis : x y z
#
# Youngs Moduli (GPa) = 43.97099 102.55803 57.43339
#
# Poissons Ratio (x) = 0.62311 0.02966
# Poissons Ratio (y) = 0.26716 0.02273
# Poissons Ratio (z) = 0.02271 0.04058
#
# Static dielectric constant tensor:
#      x y z
#    x 1.715130 -0.017080 -0.004200 
#    y -0.017080 1.821900 -0.002380 
#    z -0.004200 -0.002380 1.752440 
# 
# From -- ./inp_files/607665.got.cif
#   From: 2010.05.17/outbox.cif.g08.bks.cpg/sg2_304_cif.got.tgz:607665.got - 2010.06.03 11:33:40.
