data_PCOD9101004
_publ_section_title
;
Structure prediction by ZEFSAII (Michael W. Deem and Ramdas Pophale) SiO2 
 PCOD9101004
Probable space group: P -1
;
_chemical_formula_sum "Si O2"
_cell_formula_units_Z 16
_cell_length_a 20.812459
_cell_length_b 8.809004
_cell_length_c 12.019001
_cell_angle_alpha 43.140939
_cell_angle_beta 143.902602
_cell_angle_gamma 145.398276
_cell_volume 723.359333
_symmetry_space_group_name_H-M "P -1"
_symmetry_group_IT_number 2
_symmetry_cell_setting 'triclinic'
loop_
_space_group_symop_operation_xyz
x,y,z
-x,-y,-z
loop_
_atom_site_type_symbol
_atom_site_label
_atom_site_fract_x
_atom_site_fract_y
_atom_site_fract_z
Si Si1 0.706143 0.060923 0.614481
Si Si2 0.762842 0.025795 0.471834
Si Si3 0.400828 0.614021 0.759022
Si Si4 0.075418 0.061724 0.400728
Si Si5 0.399404 0.746800 0.919289
Si Si6 0.489426 0.541974 0.684366
Si Si7 0.844416 0.365466 0.861161
Si Si8 0.818032 0.975740 0.192859
O O1 0.764292 0.007610 0.617138
O O2 0.553593 0.798791 0.555463
O O3 0.708242 0.324183 0.449630
O O4 0.773980 0.137379 0.788653
O O5 0.898105 0.090303 0.574438
O O6 0.638705 0.736572 0.398398
O O7 0.727765 0.241952 0.279339
O O8 0.467434 0.788183 0.870957
O O9 0.460441 0.627316 0.715766
O O10 0.324937 0.308482 0.860456
O O11 0.161437 0.379774 0.310388
O O12 0.130906 0.012002 0.617528
O O13 0.927347 0.976470 0.268221
O O14 0.395249 0.504786 0.103415
O O15 0.500000 0.000000 0.000000
O O16 0.000000 0.500000 0.000000
O O17 0.803962 0.211490 0.004970
#
# Coordination Sequence:
#
# PCOD9101004 Si02
#       8
#     2   2   2   2   2   2   2   2
#     4  11  22  37  57  87 126 160 200 256 301 358
#     4  10  21  40  59  84 127 162 192 251 315 356
#     4  11  20  37  63  85 119 163 203 248 300 357
#     4  10  20  41  64  89 121 155 200 251 304 362
#     4   9  21  36  54  83 122 154 197 247 296 359
#     4  11  20  37  59  89 118 162 209 245 295 364
#     4  10  21  39  63  89 118 156 206 255 296 355
#     4  10  20  37  68  89 116 154 204 257 294 350
#
# _framework density 22.119022000000001
#
# number of rings (size 3 to 8) (size 9 to 14) (size 15 to 20)
#    0.000    1.750    2.500    1.875    0.000    0.000 
#    2.250    6.250    0.000    0.000    0.000    0.000 
#    0.000    0.000    0.000    0.000    0.000    0.000 
#
# Total GULP energy -89146.475458 kJ/mol
# GULP energy per Si atom -5571.654716 kJ/mol
# Density = 2.206868 g / cm^3
# Si number density = 22.119022 Si / 1000 Ang^3
#
#
#
# Elastic Constant Matrix: (Units=GPa)
#
#
# Indices 1 2 3 4 5 6 
#
# 1 123.5602 18.6693 23.4595 -20.9456 6.1371 -11.4093
# 2 18.6693 24.6221 1.2311 -9.9967 -3.1687 -7.6055
# 3 23.4595 1.2311 81.4197 -12.5741 -13.1984 -8.7928
# 4 -20.9456 -9.9967 -12.5741 28.7030 4.3847 -6.3378
# 5 6.1371 -3.1687 -13.1984 4.3847 27.1267 -5.9136
# 6 -11.4093 -7.6055 -8.7928 -6.3378 -5.9136 25.0255
#
#
#
# Elastic Compliance Matrix: (Units=1/GPa)
#
#
# Indices 1 2 3 4 5 6 
#
# 1 0.010974 -0.005219 -0.002511 0.006485 -0.004694 0.003068
# 2 -0.005219 0.069353 0.011773 0.030474 0.017654 0.034724
# 3 -0.002511 0.011773 0.018156 0.011600 0.012086 0.014606
# 4 0.006485 0.030474 0.011600 0.061823 0.004965 0.033124
# 5 -0.004694 0.017654 0.012086 0.004965 0.049520 0.020431
# 6 0.003068 0.034724 0.014606 0.033124 0.020431 0.070259
#
#
# Mechanical properties :
#
#
# Convention : Reuss Voigt Hill
#
# Bulk Modulus (GPa) = 9.38364 35.14688 22.26526
# Shear Modulus (GPa) = 16.25904 28.58718 22.42311
#
# Velocity S-wave (km/s) = 2.71416 3.59893 3.18739
# Velocity P-wave (km/s) = 3.75150 5.76143 4.86148
#
# Compressibility (1/GPa) = 0.10656850
#
# Stress axis : x y z
#
# Youngs Moduli (GPa) = 91.12201 14.41909 55.07959
#
# Poissons Ratio (x) = 0.07525 0.13831
# Poissons Ratio (y) = 0.47555 -0.64845
# Poissons Ratio (z) = 0.22881 -0.16976
#
# Static dielectric constant tensor:
#      x y z
#    x 1.795960 0.035690 0.008290 
#    y 0.035690 1.669660 -0.076370 
#    z 0.008290 -0.076370 1.876190 
# 
# From -- ./inp_files/279221.got.cif
#   From: 2010.05.17/outbox.cif.g08.bks.cpg/sg2_140_cif.got.tgz:279221.got - 2010.06.03 11:33:40.
