data_PCOD9101093
_publ_section_title
;
Structure prediction by ZEFSAII (Michael W. Deem and Ramdas Pophale) SiO2 
 PCOD9101093
Probable space group: P -1
;
_chemical_formula_sum "Si O2"
_cell_formula_units_Z 14
_cell_length_a 7.361021
_cell_length_b 12.040028
_cell_length_c 10.648385
_cell_angle_alpha 113.113079
_cell_angle_beta 86.052466
_cell_angle_gamma 134.717967
_cell_volume 584.900798
_symmetry_space_group_name_H-M "P -1"
_symmetry_group_IT_number 2
_symmetry_cell_setting 'triclinic'
loop_
_space_group_symop_operation_xyz
x,y,z
-x,-y,-z
loop_
_atom_site_type_symbol
_atom_site_label
_atom_site_fract_x
_atom_site_fract_y
_atom_site_fract_z
Si Si1 0.192909 0.124770 0.928454
Si Si2 0.605099 0.823120 0.579952
Si Si3 0.796395 0.125564 0.840900
Si Si4 0.189121 0.869540 0.422566
Si Si5 0.788154 0.367658 0.062903
Si Si6 0.942661 0.786809 0.655164
Si Si7 0.916031 0.518577 0.645021
O O1 0.502464 0.294346 0.025700
O O2 0.049703 0.170054 0.892930
O O3 0.163386 0.992896 0.780855
O O4 0.000000 0.000000 0.000000
O O5 0.387275 0.679075 0.424611
O O6 0.686129 0.746553 0.622052
O O7 0.560375 0.912298 0.721375
O O8 0.833169 0.003396 0.569182
O O9 0.723288 0.192512 0.970772
O O10 0.866578 0.222541 0.746820
O O11 0.018094 0.767507 0.508237
O O12 0.912600 0.440036 0.227182
O O13 0.500000 0.000000 0.500000
O O14 0.000000 0.500000 0.000000
O O15 0.909958 0.660467 0.694857
O O16 0.000000 0.500000 0.500000
#
# Coordination Sequence:
#
# PCOD9101093 Si02
#       7
#     2   2   2   2   2   2   2
#     4  11  26  47  77 103 147 201 251 303 375 449
#     4   9  23  43  70 104 141 191 242 296 372 440
#     4   9  24  46  74 104 144 196 251 302 365 455
#     4  10  20  37  73 102 135 182 245 293 365 431
#     4  12  30  48  76 111 152 197 248 310 379 444
#     4  11  23  42  74 103 141 191 247 307 362 444
#     4  12  28  43  69 108 149 186 242 310 375 428
#
# _framework density 23.935683000000001
#
# number of rings (size 3 to 8) (size 9 to 14) (size 15 to 20)
#    0.857    0.571    0.000    3.429   12.000    1.714 
#    2.571    0.000    0.000    0.000    0.000    0.000 
#    0.000    0.000    0.000    0.000    0.000    0.000 
#
# Total GULP energy -78143.305779 kJ/mol
# GULP energy per Si atom -5581.664699 kJ/mol
# Density = 2.388120 g / cm^3
# Si number density = 23.935683 Si / 1000 Ang^3
#
#
#
# Elastic Constant Matrix: (Units=GPa)
#
#
# Indices 1 2 3 4 5 6 
#
# 1 92.2966 16.0942 40.6860 -4.0371 23.9699 -19.8691
# 2 16.0942 72.1933 6.0048 -14.3007 10.6447 -13.9808
# 3 40.6860 6.0048 114.8597 -21.4445 27.0107 -8.1361
# 4 -4.0371 -14.3007 -21.4445 32.8083 -8.5976 -1.4632
# 5 23.9699 10.6447 27.0107 -8.5976 51.8034 0.6055
# 6 -19.8691 -13.9808 -8.1361 -1.4632 0.6055 35.7863
#
#
#
# Elastic Compliance Matrix: (Units=1/GPa)
#
#
# Indices 1 2 3 4 5 6 
#
# 1 0.015772 -0.001493 -0.004229 -0.002540 -0.005292 0.007198
# 2 -0.001493 0.017427 0.002354 0.008530 -0.002783 0.006910
# 3 -0.004229 0.002354 0.012560 0.007800 -0.003803 0.001811
# 4 -0.002540 0.008530 0.007800 0.039714 0.001885 0.005288
# 5 -0.005292 -0.002783 -0.003803 0.001885 0.024681 -0.005230
# 6 0.007198 0.006910 0.001811 0.005288 -0.005230 0.035356
#
#
# Mechanical properties :
#
#
# Convention : Reuss Voigt Hill
#
# Bulk Modulus (GPa) = 25.62552 44.99106 35.30829
# Shear Modulus (GPa) = 30.25687 38.51724 34.38706
#
# Velocity S-wave (km/s) = 3.55926 4.01583 3.79442
# Velocity P-wave (km/s) = 5.25551 6.35138 5.82925
#
# Compressibility (1/GPa) = 0.03902360
#
# Stress axis : x y z
#
# Youngs Moduli (GPa) = 63.40468 57.38186 79.61946
#
# Poissons Ratio (x) = 0.08569 0.33668
# Poissons Ratio (y) = 0.09468 -0.18745
# Poissons Ratio (z) = 0.26811 -0.13510
#
# Static dielectric constant tensor:
#      x y z
#    x 2.066630 0.108160 0.038890 
#    y 0.108160 2.041310 0.050560 
#    z 0.038890 0.050560 2.011570 
# 
# From -- ./inp_files/499300.got.cif
#   From: 2010.05.17/outbox.cif.g08.bks.cpg/sg2_250_cif.got.tgz:499300.got - 2010.06.03 11:33:40.
