data_PCOD9101302
_publ_section_title
;
Structure prediction by ZEFSAII (Michael W. Deem and Ramdas Pophale) SiO2 
 PCOD9101302
Probable space group: P -1
;
_chemical_formula_sum "Si O2"
_cell_formula_units_Z 16
_cell_length_a 9.772635
_cell_length_b 13.949390
_cell_length_c 15.387956
_cell_angle_alpha 145.675672
_cell_angle_beta 151.427085
_cell_angle_gamma 43.667373
_cell_volume 565.718451
_symmetry_space_group_name_H-M "P -1"
_symmetry_group_IT_number 2
_symmetry_cell_setting 'triclinic'
loop_
_space_group_symop_operation_xyz
x,y,z
-x,-y,-z
loop_
_atom_site_type_symbol
_atom_site_label
_atom_site_fract_x
_atom_site_fract_y
_atom_site_fract_z
Si Si1 0.104878 0.745489 0.156199
Si Si2 0.661099 0.353496 0.611895
Si Si3 0.300100 0.132566 0.575254
Si Si4 0.566645 0.318187 0.270263
Si Si5 0.228444 0.443557 0.892322
Si Si6 0.526842 0.934737 0.823804
Si Si7 0.155344 0.051106 0.245721
Si Si8 0.703165 0.275455 0.126752
O O1 0.295104 0.649492 0.263221
O O2 0.140945 0.946005 0.351133
O O3 0.185125 0.646712 0.036108
O O4 0.771962 0.701871 0.953538
O O5 0.437605 0.491676 0.553815
O O6 0.546102 0.176703 0.381994
O O7 0.971539 0.377657 0.760728
O O8 0.604090 0.078258 0.746055
O O9 0.203161 0.310273 0.697164
O O10 0.301219 0.145159 0.480144
O O11 0.615490 0.161139 0.245102
O O12 0.749565 0.329357 0.293333
O O13 0.547651 0.405746 0.076779
O O14 0.468134 0.125551 0.904095
O O15 0.868540 0.950389 0.042089
O O16 0.000871 0.187857 0.200101
#
# Coordination Sequence:
#
# PCOD9101302 Si02
#       8
#     2   2   2   2   2   2   2   2
#     4  11  21  41  62  92 123 159 194 248 303 355
#     4  11  22  36  59  94 127 155 189 244 310 365
#     4  11  23  44  67  80 118 167 206 247 303 341
#     4  11  19  37  59  89 128 150 191 252 298 363
#     4  11  23  38  63  93 123 157 201 240 300 371
#     4  10  22  35  60  88 118 160 196 241 305 348
#     4   9  24  43  59  88 117 155 214 256 279 355
#     4  10  20  38  58  86 124 147 197 251 291 351
#
# _framework density 28.282617999999999
#
# number of rings (size 3 to 8) (size 9 to 14) (size 15 to 20)
#    0.750    0.750    3.750    2.250    3.500    1.500 
#    0.000    4.375    0.000    0.000    0.000    0.000 
#    0.000    0.000    0.000    0.000    0.000    0.000 
#
# Total GULP energy -89287.774273 kJ/mol
# GULP energy per Si atom -5580.485892 kJ/mol
# Density = 2.821825 g / cm^3
# Si number density = 28.282618 Si / 1000 Ang^3
#
#
#
# Elastic Constant Matrix: (Units=GPa)
#
#
# Indices 1 2 3 4 5 6 
#
# 1 74.2061 23.9667 20.5923 15.1282 -12.9486 -7.0229
# 2 23.9667 136.6133 35.3864 27.6344 1.2235 -21.9368
# 3 20.5923 35.3864 108.3838 8.6524 -22.1587 -5.1033
# 4 15.1282 27.6344 8.6524 42.4088 -15.8479 -0.9682
# 5 -12.9486 1.2235 -22.1587 -15.8479 40.1170 6.0027
# 6 -7.0229 -21.9368 -5.1033 -0.9682 6.0027 40.8013
#
#
#
# Elastic Compliance Matrix: (Units=1/GPa)
#
#
# Indices 1 2 3 4 5 6 
#
# 1 0.015661 -0.001516 -0.001602 -0.003210 0.002769 0.001197
# 2 -0.001516 0.011464 -0.003980 -0.008753 -0.007437 0.006291
# 3 -0.001602 -0.003980 0.012085 0.003651 0.008021 -0.001998
# 4 -0.003210 -0.008753 0.003651 0.035618 0.016268 -0.006350
# 5 0.002769 -0.007437 0.008021 0.016268 0.038062 -0.007732
# 6 0.001197 0.006291 -0.001998 -0.006350 -0.007732 0.028835
#
#
# Mechanical properties :
#
#
# Convention : Reuss Voigt Hill
#
# Bulk Modulus (GPa) = 39.97817 53.23268 46.60542
# Shear Modulus (GPa) = 30.43991 40.61593 35.52792
#
# Velocity S-wave (km/s) = 3.28422 3.79367 3.54810
# Velocity P-wave (km/s) = 5.34298 6.16861 5.77058
#
# Compressibility (1/GPa) = 0.02501365
#
# Stress axis : x y z
#
# Youngs Moduli (GPa) = 63.85310 87.22745 82.74990
#
# Poissons Ratio (x) = 0.13223 0.13255
# Poissons Ratio (y) = 0.09680 0.32938
# Poissons Ratio (z) = 0.10228 0.34720
#
# Static dielectric constant tensor:
#      x y z
#    x 2.313520 0.014090 0.017910 
#    y 0.014090 2.227910 0.035730 
#    z 0.017910 0.035730 2.214210 
# 
# From -- ./inp_files/570191.got.cif
#   From: 2010.05.17/outbox.cif.g08.bks.cpg/sg2_286_cif.got.tgz:570191.got - 2010.06.03 11:33:40.
