data_PCOD9101418
_publ_section_title
;
Structure prediction by ZEFSAII (Michael W. Deem and Ramdas Pophale) SiO2 
 PCOD9101418
Probable space group: P -1
;
_chemical_formula_sum "Si O2"
_cell_formula_units_Z 16
_cell_length_a 7.334177
_cell_length_b 15.487572
_cell_length_c 15.304875
_cell_angle_alpha 27.537644
_cell_angle_beta 65.418460
_cell_angle_gamma 81.055963
_cell_volume 629.760170
_symmetry_space_group_name_H-M "P -1"
_symmetry_group_IT_number 2
_symmetry_cell_setting 'triclinic'
loop_
_space_group_symop_operation_xyz
x,y,z
-x,-y,-z
loop_
_atom_site_type_symbol
_atom_site_label
_atom_site_fract_x
_atom_site_fract_y
_atom_site_fract_z
Si Si1 0.326744 0.247561 0.403135
Si Si2 0.380999 0.917802 0.308122
Si Si3 0.001132 0.341512 0.259991
Si Si4 0.002119 0.799332 0.340067
Si Si5 0.336807 0.142266 0.832386
Si Si6 0.342703 0.315086 0.974413
Si Si7 0.840307 0.182832 0.242411
Si Si8 0.648423 0.453507 0.621998
O O1 0.549420 0.483657 0.161424
O O2 0.157083 0.271002 0.346949
O O3 0.201198 0.193279 0.571603
O O4 0.360496 0.053751 0.536106
O O5 0.236031 0.726238 0.577555
O O6 0.194644 0.854998 0.324021
O O7 0.601683 0.944118 0.189037
O O8 0.420074 0.141224 0.139809
O O9 0.909788 0.213892 0.302245
O O10 0.153935 0.598882 0.982917
O O11 0.877646 0.554901 0.545593
O O12 0.120891 0.969467 0.086179
O O13 0.557526 0.249329 0.760058
O O14 0.313401 0.344415 0.624811
O O15 0.441139 0.387787 0.791841
O O16 0.067778 0.202388 0.132125
#
# Coordination Sequence:
#
# PCOD9101418 Si02
#       8
#     2   2   2   2   2   2   2   2
#     4  10  22  42  63  92 125 161 203 250 305 366
#     4  11  22  40  60  88 126 160 205 253 300 363
#     4  10  23  42  65  96 117 161 206 251 310 363
#     4  10  20  38  59  84 117 161 202 244 303 353
#     4  11  21  38  58  85 122 158 205 254 299 355
#     4  11  22  41  62  89 125 166 199 251 310 361
#     4  11  21  44  68  87 128 157 200 257 308 364
#     4  10  22  37  59  87 119 160 206 250 303 358
#
# _framework density 25.406496000000001
#
# number of rings (size 3 to 8) (size 9 to 14) (size 15 to 20)
#    0.000    1.500    3.750    1.875    0.000    2.000 
#   11.250    1.250    0.000    0.000    0.000    0.000 
#    0.000    0.000    0.000    0.000    0.000    0.000 
#
# Total GULP energy -89565.052535 kJ/mol
# GULP energy per Si atom -5597.815783 kJ/mol
# Density = 2.534867 g / cm^3
# Si number density = 25.406496 Si / 1000 Ang^3
#
#
#
# Elastic Constant Matrix: (Units=GPa)
#
#
# Indices 1 2 3 4 5 6 
#
# 1 43.5473 13.7307 17.6142 -6.2968 3.1544 12.5249
# 2 13.7307 117.3144 49.0628 -22.1998 7.6861 -3.0640
# 3 17.6142 49.0628 103.0737 -16.7384 3.0106 16.3260
# 4 -6.2968 -22.1998 -16.7384 63.9642 8.1148 -1.0334
# 5 3.1544 7.6861 3.0106 8.1148 26.3313 0.0216
# 6 12.5249 -3.0640 16.3260 -1.0334 0.0216 34.6634
#
#
#
# Elastic Compliance Matrix: (Units=1/GPa)
#
#
# Indices 1 2 3 4 5 6 
#
# 1 0.027504 -0.002172 -0.001845 0.001698 -0.002966 -0.009208
# 2 -0.002172 0.011983 -0.005448 0.003043 -0.003556 0.004503
# 3 -0.001845 -0.005448 0.013854 0.001480 -0.000224 -0.006296
# 4 0.001698 0.003043 0.001480 0.018104 -0.006840 -0.000498
# 5 -0.002966 -0.003556 -0.000224 -0.006840 0.041504 0.000633
# 6 -0.009208 0.004503 -0.006296 -0.000498 0.000633 0.035524
#
#
# Mechanical properties :
#
#
# Convention : Reuss Voigt Hill
#
# Bulk Modulus (GPa) = 29.06081 47.19453 38.12767
# Shear Modulus (GPa) = 27.95258 37.22695 32.58976
#
# Velocity S-wave (km/s) = 3.32055 3.83202 3.58541
# Velocity P-wave (km/s) = 5.11513 6.18023 5.67273
#
# Compressibility (1/GPa) = 0.03441060
#
# Stress axis : x y z
#
# Youngs Moduli (GPa) = 36.35883 83.44952 72.17961
#
# Poissons Ratio (x) = 0.18127 0.13318
# Poissons Ratio (y) = 0.07898 0.39323
# Poissons Ratio (z) = 0.06709 0.45463
#
# Static dielectric constant tensor:
#      x y z
#    x 2.075250 -0.018130 0.000530 
#    y -0.018130 1.991050 -0.016590 
#    z 0.000530 -0.016590 1.994430 
# 
# From -- ./inp_files/315262.got.cif
#   From: 2010.05.17/outbox.cif.g08.bks.cpg/sg2_158_cif.got.tgz:315262.got - 2010.06.03 11:33:40.
