data_PCOD9101976
_publ_section_title
;
Structure prediction by ZEFSAII (Michael W. Deem and Ramdas Pophale) SiO2 
 PCOD9101976
Probable space group: P -1
;
_chemical_formula_sum "Si O2"
_cell_formula_units_Z 10
_cell_length_a 12.073105
_cell_length_b 4.901592
_cell_length_c 10.011384
_cell_angle_alpha 108.781612
_cell_angle_beta 50.159363
_cell_angle_gamma 129.692793
_cell_volume 346.201795
_symmetry_space_group_name_H-M "P -1"
_symmetry_group_IT_number 2
_symmetry_cell_setting 'triclinic'
loop_
_space_group_symop_operation_xyz
x,y,z
-x,-y,-z
loop_
_atom_site_type_symbol
_atom_site_label
_atom_site_fract_x
_atom_site_fract_y
_atom_site_fract_z
Si Si1 0.189027 0.783417 0.065314
Si Si2 0.102317 0.213991 0.810023
Si Si3 0.906067 0.616899 0.444349
Si Si4 0.420225 0.288874 0.665950
Si Si5 0.540680 0.024553 0.755162
O O1 0.106566 0.981521 0.098066
O O2 0.067024 0.604575 0.263246
O O3 0.143426 0.487918 0.941687
O O4 0.402012 0.032274 0.959268
O O5 0.500000 0.500000 0.500000
O O6 0.208583 0.061954 0.756217
O O7 0.819493 0.619739 0.371118
O O8 0.751566 0.315706 0.612888
O O9 0.000000 0.000000 0.500000
O O10 0.466841 0.058562 0.673389
O O11 0.492396 0.635881 0.757677
#
# Coordination Sequence:
#
# PCOD9101976 Si02
#       5
#     2   2   2   2   2
#     4   8  18  36  58  92 119 158 205 256 301 361
#     4   8  17  35  56  92 119 155 200 255 302 354
#     4  10  20  38  61  89 126 165 205 249 305 370
#     4  11  20  35  65  95 121 156 208 256 306 361
#     4  11  23  38  63  91 124 163 201 256 310 357
#
# _framework density 28.884886000000002
#
# number of rings (size 3 to 8) (size 9 to 14) (size 15 to 20)
#    1.200    1.200    2.000    0.600    2.800    1.600 
#    0.000    7.000    0.000    6.000    0.000    0.000 
#    0.000    0.000    0.000    0.000    0.000    0.000 
#
# Total GULP energy -55781.310780 kJ/mol
# GULP energy per Si atom -5578.131078 kJ/mol
# Density = 2.881914 g / cm^3
# Si number density = 28.884886 Si / 1000 Ang^3
#
#
#
# Elastic Constant Matrix: (Units=GPa)
#
#
# Indices 1 2 3 4 5 6 
#
# 1 152.7994 28.6912 18.5681 8.0469 -6.1364 0.4154
# 2 28.6912 139.8771 69.9372 -10.6950 7.7231 5.1388
# 3 18.5681 69.9372 192.8721 -54.2544 -0.5299 26.3410
# 4 8.0469 -10.6950 -54.2544 65.6167 -9.1700 -0.0294
# 5 -6.1364 7.7231 -0.5299 -9.1700 -23.7140 28.2523
# 6 0.4154 5.1388 26.3410 -0.0294 28.2523 29.4271
#
#
#
# Elastic Compliance Matrix: (Units=1/GPa)
#
#
# Indices 1 2 3 4 5 6 
#
# 1 0.006956 -0.001138 -0.000916 -0.001818 -0.000165 0.001077
# 2 -0.001138 0.008805 -0.003140 -0.000694 0.002349 -0.000967
# 3 -0.000916 -0.003140 0.008233 0.005672 -0.005256 -0.001756
# 4 -0.001818 -0.000694 0.005672 0.019183 -0.006135 0.000978
# 5 -0.000165 0.002349 -0.005256 -0.006135 -0.015748 0.019410
# 6 0.001077 -0.000967 -0.001756 0.000978 0.019410 0.017074
#
#
# Mechanical properties :
#
#
# Convention : Reuss Voigt Hill
#
# Bulk Modulus (GPa) = 73.49973 79.99350 76.74662
# Shear Modulus (GPa) = 84.13706 38.82276 61.47991
#
# Velocity S-wave (km/s) = 5.40293 3.67011 4.61851
# Velocity P-wave (km/s) = 8.02640 6.76118 7.42081
#
# Compressibility (1/GPa) = 0.01360549
#
# Stress axis : x y z
#
# Youngs Moduli (GPa) = 143.76504 113.56722 121.46882
#
# Poissons Ratio (x) = 0.12928 0.11125
# Poissons Ratio (y) = 0.16365 0.38140
# Poissons Ratio (z) = 0.13167 0.35659
#
# Static dielectric constant tensor:
#      x y z
#    x 2.185940 0.031810 0.032590 
#    y 0.031810 2.275260 -0.066800 
#    z 0.032590 -0.066800 2.505670 
# 
# From -- ./inp_files/92473.got.cif
#   From: 2010.05.17/outbox.cif.g08.bks.cpg/sg2_47_cif.got.tgz:92473.got - 2010.06.03 11:33:40.
