data_PCOD9101417
_publ_section_title
;
Structure prediction by ZEFSAII (Michael W. Deem and Ramdas Pophale) SiO2 
 PCOD9101417
Probable space group: P -1
;
_chemical_formula_sum "Si O2"
_cell_formula_units_Z 16
_cell_length_a 20.941368
_cell_length_b 17.598243
_cell_length_c 5.987734
_cell_angle_alpha 75.743617
_cell_angle_beta 105.758770
_cell_angle_gamma 161.329370
_cell_volume 679.426999
_symmetry_space_group_name_H-M "P -1"
_symmetry_group_IT_number 2
_symmetry_cell_setting 'triclinic'
loop_
_space_group_symop_operation_xyz
x,y,z
-x,-y,-z
loop_
_atom_site_type_symbol
_atom_site_label
_atom_site_fract_x
_atom_site_fract_y
_atom_site_fract_z
Si Si1 0.564648 0.217111 0.619693
Si Si2 0.176725 0.992702 0.309429
Si Si3 0.962554 0.871566 0.472256
Si Si4 0.825967 0.156304 0.275828
Si Si5 0.220180 0.673076 0.499309
Si Si6 0.426285 0.619080 0.798467
Si Si7 0.830147 0.605830 0.913986
Si Si8 0.033200 0.601880 0.148395
O O1 0.606136 0.180804 0.566369
O O2 0.560565 0.281580 0.384276
O O3 0.744778 0.441719 0.796747
O O4 0.364067 0.002296 0.728049
O O5 0.368096 0.196959 0.184798
O O6 0.206233 0.964532 0.561522
O O7 0.132171 0.026653 0.354741
O O8 0.977013 0.748806 0.154291
O O9 0.753850 0.628601 0.314818
O O10 0.941779 0.790627 0.722965
O O11 0.000000 0.000000 0.500000
O O12 0.022007 0.407564 0.406068
O O13 0.866933 0.212872 0.011306
O O14 0.188118 0.727922 0.362496
O O15 0.173956 0.613957 0.761035
O O16 0.360292 0.563338 0.028605
O O17 0.000000 0.500000 0.000000
#
# Coordination Sequence:
#
# PCOD9101417 Si02
#       8
#     2   2   2   2   2   2   2   2
#     4  10  22  37  60  88 116 151 195 244 289 341
#     4  10  22  38  60  88 118 153 194 240 289 345
#     4  10  22  40  60  86 120 155 193 237 286 342
#     4  10  21  38  59  87 117 150 194 241 293 344
#     4  10  20  38  59  84 117 153 196 242 288 343
#     4   9  21  38  56  88 120 150 197 241 285 343
#     4  10  21  39  60  85 116 153 191 237 290 345
#     4   9  21  39  58  82 118 157 192 237 292 346
#
# _framework density 23.549257999999998
#
# number of rings (size 3 to 8) (size 9 to 14) (size 15 to 20)
#    0.000    2.250    0.000    2.250    0.000   15.000 
#    0.000    6.875    0.000    0.000    0.000    2.625 
#    0.000    0.000    0.000    0.000    0.000    0.000 
#
# Total GULP energy -89512.769000 kJ/mol
# GULP energy per Si atom -5594.548063 kJ/mol
# Density = 2.349566 g / cm^3
# Si number density = 23.549258 Si / 1000 Ang^3
#
#
#
# Elastic Constant Matrix: (Units=GPa)
#
#
# Indices 1 2 3 4 5 6 
#
# 1 162.0405 44.1283 41.6926 3.4580 -33.1448 15.0732
# 2 44.1283 56.8382 18.3449 1.6494 -3.8121 19.0068
# 3 41.6926 18.3449 86.7843 -8.0772 -21.5698 9.1269
# 4 3.4580 1.6494 -8.0772 24.2000 10.2667 -10.4515
# 5 -33.1448 -3.8121 -21.5698 10.2667 31.8951 -4.3404
# 6 15.0732 19.0068 9.1269 -10.4515 -4.3404 53.5211
#
#
#
# Elastic Compliance Matrix: (Units=1/GPa)
#
#
# Indices 1 2 3 4 5 6 
#
# 1 0.011054 -0.006824 -0.001499 -0.006980 0.011790 -0.000841
# 2 -0.006824 0.026219 -0.003271 -0.002577 -0.006409 -0.007854
# 3 -0.001499 -0.003271 0.014995 0.002313 0.007459 0.000083
# 4 -0.006980 -0.002577 0.002313 0.058251 -0.023116 0.011987
# 5 0.011790 -0.006409 0.007459 -0.023116 0.055001 -0.002370
# 6 -0.000841 -0.007854 0.000083 0.011987 -0.002370 0.023845
#
#
# Mechanical properties :
#
#
# Convention : Reuss Voigt Hill
#
# Bulk Modulus (GPa) = 34.38693 57.11053 45.74873
# Shear Modulus (GPa) = 22.49763 35.35641 28.92702
#
# Velocity S-wave (km/s) = 3.09422 3.87897 3.50860
# Velocity P-wave (km/s) = 5.23444 6.66078 5.99022
#
# Compressibility (1/GPa) = 0.02908081
#
# Stress axis : x y z
#
# Youngs Moduli (GPa) = 90.46357 38.14046 66.69047
#
# Poissons Ratio (x) = 0.26027 0.09996
# Poissons Ratio (y) = 0.61732 0.21812
# Poissons Ratio (z) = 0.13559 0.12474
#
# Static dielectric constant tensor:
#      x y z
#    x 1.890070 0.028390 -0.015120 
#    y 0.028390 1.933110 0.006550 
#    z -0.015120 0.006550 1.950540 
# 
# From -- ./inp_files/120027.got.cif
#   From: 2010.05.17/outbox.cif.g08.bks.cpg/sg2_61_cif.got.tgz:120027.got - 2010.06.03 11:33:40.
