data_PCOD9101517
_publ_section_title
;
Structure prediction by ZEFSAII (Michael W. Deem and Ramdas Pophale) SiO2 
 PCOD9101517
Probable space group: P -1
;
_chemical_formula_sum "Si O2"
_cell_formula_units_Z 16
_cell_length_a 19.882156
_cell_length_b 10.803913
_cell_length_c 16.052926
_cell_angle_alpha 29.440195
_cell_angle_beta 20.626970
_cell_angle_gamma 38.190643
_cell_volume 588.588702
_symmetry_space_group_name_H-M "P -1"
_symmetry_group_IT_number 2
_symmetry_cell_setting 'triclinic'
loop_
_space_group_symop_operation_xyz
x,y,z
-x,-y,-z
loop_
_atom_site_type_symbol
_atom_site_label
_atom_site_fract_x
_atom_site_fract_y
_atom_site_fract_z
Si Si1 0.822449 0.794750 0.076748
Si Si2 0.925961 0.149900 0.575487
Si Si3 0.941527 0.151573 0.863734
Si Si4 0.758566 0.367407 0.283335
Si Si5 0.266727 0.982283 0.335339
Si Si6 0.159234 0.707385 0.941156
Si Si7 0.409791 0.559985 0.313646
Si Si8 0.677936 0.466648 0.754262
O O1 0.745011 0.649219 0.165813
O O2 0.659707 0.652403 0.414328
O O3 0.014228 0.664947 0.953821
O O4 0.861412 0.074426 0.911079
O O5 0.730623 0.191784 0.824914
O O6 0.047656 0.022752 0.579451
O O7 0.000000 0.000000 0.500000
O O8 0.021572 0.437347 0.271389
O O9 0.128990 0.375135 0.520020
O O10 0.783102 0.210843 0.079548
O O11 0.032237 0.913911 0.934731
O O12 0.702334 0.318124 0.281928
O O13 0.662964 0.156796 0.584232
O O14 0.293818 0.795595 0.336136
O O15 0.379317 0.267448 0.024464
O O16 0.373988 0.446417 0.329613
O O17 0.500000 0.500000 0.000000
#
# Coordination Sequence:
#
# PCOD9101517 Si02
#       8
#     2   2   2   2   2   2   2   2
#     4   9  17  31  57  87 120 154 222 257 301 376
#     4  11  22  40  64  97 132 171 209 272 337 382
#     4   9  18  34  61  87 118 172 221 248 312 401
#     4   9  18  31  59  95 118 163 220 267 303 386
#     4  10  22  37  64  92 134 160 209 270 333 376
#     4   9  18  33  61  89 118 161 219 256 305 387
#     4  10  20  38  59  93 123 175 206 255 322 400
#     4  11  23  38  65  92 128 169 226 263 314 393
#
# _framework density 27.183668999999998
#
# number of rings (size 3 to 8) (size 9 to 14) (size 15 to 20)
#    0.000    2.250    1.250    3.750    8.750    0.000 
#    0.000    0.625    2.750   11.250    0.000    0.000 
#    0.000    0.000    0.000    0.000    0.000    0.000 
#
# Total GULP energy -89218.966644 kJ/mol
# GULP energy per Si atom -5576.185415 kJ/mol
# Density = 2.712180 g / cm^3
# Si number density = 27.183669 Si / 1000 Ang^3
#
#
#
# Elastic Constant Matrix: (Units=GPa)
#
#
# Indices 1 2 3 4 5 6 
#
# 1 102.9526 71.2764 17.4253 23.9130 17.7484 60.4244
# 2 71.2764 153.8162 56.0766 15.5571 9.7313 45.8894
# 3 17.4253 56.0766 54.5598 -2.3015 -6.0525 16.3421
# 4 23.9130 15.5571 -2.3015 51.6880 10.6878 9.5416
# 5 17.7484 9.7313 -6.0525 10.6878 27.9763 13.9136
# 6 60.4244 45.8894 16.3421 9.5416 13.9136 75.2869
#
#
#
# Elastic Compliance Matrix: (Units=1/GPa)
#
#
# Indices 1 2 3 4 5 6 
#
# 1 0.025049 -0.007863 0.004030 -0.005731 -0.002650 -0.014970
# 2 -0.007863 0.015274 -0.013817 -0.001031 -0.003287 0.000738
# 3 0.004030 -0.013817 0.033896 0.002377 0.010906 -0.004487
# 4 -0.005731 -0.001031 0.002377 0.023072 -0.005721 0.002846
# 5 -0.002650 -0.003287 0.010906 -0.005721 0.046115 -0.006035
# 6 -0.014970 0.000738 -0.004487 0.002846 -0.006035 0.026576
#
#
# Mechanical properties :
#
#
# Convention : Reuss Voigt Hill
#
# Bulk Modulus (GPa) = 25.69400 66.76502 46.22951
# Shear Modulus (GPa) = 22.90890 42.09361 32.50126
#
# Velocity S-wave (km/s) = 2.90616 3.93935 3.46152
# Velocity P-wave (km/s) = 4.55341 6.73093 5.74625
#
# Compressibility (1/GPa) = 0.03891959
#
# Stress axis : x y z
#
# Youngs Moduli (GPa) = 39.92163 65.47053 29.50174
#
# Poissons Ratio (x) = 0.51480 -0.11888
# Poissons Ratio (y) = 0.31391 0.40761
# Poissons Ratio (z) = -0.16087 0.90458
#
# Static dielectric constant tensor:
#      x y z
#    x 2.321630 -0.003950 0.067040 
#    y -0.003950 2.178990 0.011060 
#    z 0.067040 0.011060 2.262340 
# 
# From -- ./inp_files/579221.got.cif
#   From: 2010.05.17/outbox.cif.g08.bks.cpg/sg2_290_cif.got.tgz:579221.got - 2010.06.03 11:33:40.
