data_PCOD9101608
_publ_section_title
;
Structure prediction by ZEFSAII (Michael W. Deem and Ramdas Pophale) SiO2 
 PCOD9101608
Probable space group: P -1
;
_chemical_formula_sum "Si O2"
_cell_formula_units_Z 11
_cell_length_a 13.864947
_cell_length_b 10.031651
_cell_length_c 7.235118
_cell_angle_alpha 92.245008
_cell_angle_beta 81.356790
_cell_angle_gamma 25.939553
_cell_volume 398.269021
_symmetry_space_group_name_H-M "P -1"
_symmetry_group_IT_number 2
_symmetry_cell_setting 'triclinic'
loop_
_space_group_symop_operation_xyz
x,y,z
-x,-y,-z
loop_
_atom_site_type_symbol
_atom_site_label
_atom_site_fract_x
_atom_site_fract_y
_atom_site_fract_z
Si Si1 0.685751 0.016467 0.586991
Si Si2 0.500000 0.000000 0.500000
Si Si3 0.576384 0.194807 0.191985
Si Si4 0.254126 0.287553 0.969886
Si Si5 0.031079 0.771554 0.330232
Si Si6 0.255942 0.726098 0.832801
O O1 0.600254 0.143621 0.403573
O O2 0.457589 0.360929 0.782173
O O3 0.691978 0.849956 0.571721
O O4 0.911376 0.834231 0.530856
O O5 0.697579 0.743370 0.260566
O O6 0.293559 0.508144 0.263893
O O7 0.636411 0.269747 0.125269
O O8 0.757582 0.859618 0.026293
O O9 0.070947 0.615901 0.142700
O O10 0.500000 0.000000 0.000000
O O11 0.825944 0.134319 0.346462
O O12 0.000000 0.000000 0.000000
#
# Coordination Sequence:
#
# PCOD9101608 Si02
#       6
#     2   1   2   2   2   2
#     4  10  22  37  58  88 115 155 207 242 300 370
#     4  10  20  38  60  84 124 158 192 256 300 340
#     4   9  20  38  58  83 116 155 197 246 300 354
#     4   9  19  37  61  90 119 158 206 241 295 365
#     4  10  20  38  61  83 119 159 194 250 301 351
#     4  11  23  36  55  86 117 153 204 248 298 367
#
# _framework density 27.619519
#
# number of rings (size 3 to 8) (size 9 to 14) (size 15 to 20)
#    0.000    2.182    0.000    3.273    0.000   11.636 
#    0.000   11.818    0.000    2.182    0.000    0.000 
#    0.000    0.000    0.000    0.000    0.000    0.000 
#
# Total GULP energy -61235.006408 kJ/mol
# GULP energy per Si atom -5566.818764 kJ/mol
# Density = 2.755666 g / cm^3
# Si number density = 27.619519 Si / 1000 Ang^3
#
#
#
# Elastic Constant Matrix: (Units=GPa)
#
#
# Indices 1 2 3 4 5 6 
#
# 1 154.9975 12.4530 12.9695 22.0788 -3.5656 -39.2810
# 2 12.4530 97.2809 17.2054 19.1735 -1.2914 6.7634
# 3 12.9695 17.2054 127.5450 29.8644 -0.7021 -8.1503
# 4 22.0788 19.1735 29.8644 44.1178 -3.5704 3.6140
# 5 -3.5656 -1.2914 -0.7021 -3.5704 46.1973 18.1288
# 6 -39.2810 6.7634 -8.1503 3.6140 18.1288 32.8660
#
#
#
# Elastic Compliance Matrix: (Units=1/GPa)
#
#
# Indices 1 2 3 4 5 6 
#
# 1 0.013608 -0.001913 0.002785 -0.010512 -0.008978 0.023456
# 2 -0.001913 0.011697 -0.001118 -0.002699 0.002282 -0.005932
# 3 0.002785 -0.001118 0.010400 -0.009040 -0.004027 0.009354
# 4 -0.010512 -0.002699 -0.009040 0.038207 0.011703 -0.024907
# 5 -0.008978 0.002282 -0.004027 0.011703 0.034653 -0.032600
# 6 0.023456 -0.005932 0.009354 -0.024907 -0.032600 0.082723
#
#
# Mechanical properties :
#
#
# Convention : Reuss Voigt Hill
#
# Bulk Modulus (GPa) = 28.39782 51.67545 40.03663
# Shear Modulus (GPa) = 24.56800 47.11592 35.84196
#
# Velocity S-wave (km/s) = 2.98571 4.13473 3.60627
# Velocity P-wave (km/s) = 4.71063 6.44554 5.64513
#
# Compressibility (1/GPa) = 0.03521398
#
# Stress axis : x y z
#
# Youngs Moduli (GPa) = 73.48763 85.49413 96.15131
#
# Poissons Ratio (x) = 0.16352 -0.26780
# Poissons Ratio (y) = 0.14055 0.10749
# Poissons Ratio (z) = -0.20468 0.09558
#
# Static dielectric constant tensor:
#      x y z
#    x 2.503320 0.074120 -0.060030 
#    y 0.074120 2.235380 -0.068500 
#    z -0.060030 -0.068500 2.161880 
# 
# From -- ./inp_files/165239.got.cif
#   From: 2010.05.17/outbox.cif.g08.bks.cpg/sg2_83_cif.got.tgz:165239.got - 2010.06.03 11:33:40.
