data_PCOD9101922
_publ_section_title
;
Structure prediction by ZEFSAII (Michael W. Deem and Ramdas Pophale) SiO2 
 PCOD9101922
Probable space group: P -1
;
_chemical_formula_sum "Si O2"
_cell_formula_units_Z 16
_cell_length_a 9.395145
_cell_length_b 14.652435
_cell_length_c 19.095918
_cell_angle_alpha 137.993433
_cell_angle_beta 150.357464
_cell_angle_gamma 40.238715
_cell_volume 813.376980
_symmetry_space_group_name_H-M "P -1"
_symmetry_group_IT_number 2
_symmetry_cell_setting 'triclinic'
loop_
_space_group_symop_operation_xyz
x,y,z
-x,-y,-z
loop_
_atom_site_type_symbol
_atom_site_label
_atom_site_fract_x
_atom_site_fract_y
_atom_site_fract_z
Si Si1 0.559869 0.813663 0.728987
Si Si2 0.362025 0.131380 0.820893
Si Si3 0.306419 0.458503 0.456594
Si Si4 0.347632 0.444355 0.820667
Si Si5 0.665447 0.092850 0.079066
Si Si6 0.510124 0.353023 0.259835
Si Si7 0.854250 0.549530 0.105012
Si Si8 0.160297 0.848599 0.077953
O O1 0.628483 0.710075 0.631372
O O2 0.446971 0.740279 0.703382
O O3 0.319701 0.976760 0.707009
O O4 0.878322 0.823489 0.901712
O O5 0.116912 0.292154 0.793982
O O6 0.629719 0.119315 0.872894
O O7 0.475786 0.136440 0.951152
O O8 0.500000 0.500000 0.500000
O O9 0.401532 0.509729 0.599857
O O10 0.940236 0.544977 0.343411
O O11 0.183143 0.488002 0.851119
O O12 0.615983 0.289249 0.861365
O O13 0.530440 0.549540 0.936019
O O14 0.668251 0.235577 0.201753
O O15 0.999338 0.982380 0.136791
O O16 0.500000 0.000000 0.000000
O O17 0.147349 0.425257 0.128282
#
# Coordination Sequence:
#
# PCOD9101922 Si02
#       8
#     2   2   2   2   2   2   2   2
#     4  10  16  33  51  80 104 139 177 220 265 316
#     4  10  21  31  56  85 107 136 184 235 268 311
#     4  10  19  30  53  79 108 144 183 213 267 332
#     4  10  16  32  55  79 108 140 184 228 257 320
#     4  11  19  34  54  80 113 144 174 226 277 320
#     4  11  20  34  54  79 112 145 179 216 274 331
#     4  10  18  32  54  84 105 137 185 230 266 309
#     4  10  19  33  58  84 106 138 188 229 269 309
#
# _framework density 19.671075999999999
#
# number of rings (size 3 to 8) (size 9 to 14) (size 15 to 20)
#    0.000    1.750    6.250    3.000    0.000    0.500 
#    0.000    1.250    0.000    6.750    0.000    0.000 
#    0.000    0.000    0.000    0.000    0.000    0.000 
#
# Total GULP energy -89120.195693 kJ/mol
# GULP energy per Si atom -5570.012231 kJ/mol
# Density = 1.962630 g / cm^3
# Si number density = 19.671076 Si / 1000 Ang^3
#
#
#
# Elastic Constant Matrix: (Units=GPa)
#
#
# Indices 1 2 3 4 5 6 
#
# 1 55.1461 33.3434 10.6779 9.6413 -13.0647 -19.6084
# 2 33.3434 120.7425 27.8160 28.6006 -7.5447 -20.9639
# 3 10.6779 27.8160 73.8294 6.4066 -11.2596 -16.8244
# 4 9.6413 28.6006 6.4066 26.7758 -11.7635 -5.4241
# 5 -13.0647 -7.5447 -11.2596 -11.7635 19.2661 12.7827
# 6 -19.6084 -20.9639 -16.8244 -5.4241 12.7827 37.1386
#
#
#
# Elastic Compliance Matrix: (Units=1/GPa)
#
#
# Indices 1 2 3 4 5 6 
#
# 1 0.027242 -0.007273 0.002258 0.005845 0.016134 0.006601
# 2 -0.007273 0.016043 -0.004512 -0.019907 -0.017646 0.006338
# 3 0.002258 -0.004512 0.016849 0.005322 0.010601 0.003407
# 4 0.005845 -0.019907 0.005322 0.076686 0.055050 -0.013487
# 5 0.016134 -0.017646 0.010601 0.055050 0.114275 -0.027933
# 6 0.006601 0.006338 0.003407 -0.013487 -0.027933 0.043177
#
#
# Mechanical properties :
#
#
# Convention : Reuss Voigt Hill
#
# Bulk Modulus (GPa) = 24.34308 43.71029 34.02668
# Shear Modulus (GPa) = 15.28962 28.49480 21.89221
#
# Velocity S-wave (km/s) = 2.79097 3.81013 3.33966
# Velocity P-wave (km/s) = 4.77367 6.45174 5.67507
#
# Compressibility (1/GPa) = 0.04107944
#
# Stress axis : x y z
#
# Youngs Moduli (GPa) = 36.70852 62.33127 59.34951
#
# Poissons Ratio (x) = 0.45336 -0.13400
# Poissons Ratio (y) = 0.26699 0.26778
# Poissons Ratio (z) = -0.08288 0.28124
#
# Static dielectric constant tensor:
#      x y z
#    x 1.684790 0.018620 0.007040 
#    y 0.018620 1.756620 0.045540 
#    z 0.007040 0.045540 1.755740 
# 
# From -- ./inp_files/590294.got.cif
#   From: 2010.05.17/outbox.cif.g08.bks.cpg/sg2_296_cif.got.tgz:590294.got - 2010.06.03 11:33:40.
