data_PCOD9101525
_publ_section_title
;
Structure prediction by ZEFSAII (Michael W. Deem and Ramdas Pophale) SiO2 
 PCOD9101525
Probable space group: P -1
;
_chemical_formula_sum "Si O2"
_cell_formula_units_Z 16
_cell_length_a 9.242050
_cell_length_b 13.682972
_cell_length_c 13.048193
_cell_angle_alpha 147.358310
_cell_angle_beta 70.517188
_cell_angle_gamma 121.165963
_cell_volume 742.632727
_symmetry_space_group_name_H-M "P -1"
_symmetry_group_IT_number 2
_symmetry_cell_setting 'triclinic'
loop_
_space_group_symop_operation_xyz
x,y,z
-x,-y,-z
loop_
_atom_site_type_symbol
_atom_site_label
_atom_site_fract_x
_atom_site_fract_y
_atom_site_fract_z
Si Si1 0.803670 0.485336 0.254716
Si Si2 0.313730 0.477174 0.489514
Si Si3 0.352841 0.663174 0.208281
Si Si4 0.637370 0.265627 0.488278
Si Si5 0.253312 0.140468 0.483832
Si Si6 0.252573 0.211405 0.788165
Si Si7 0.844025 0.280641 0.870392
Si Si8 0.058184 0.805233 0.599845
O O1 0.711736 0.383412 0.292984
O O2 0.753592 0.664995 0.393717
O O3 0.002547 0.624845 0.366714
O O4 0.769143 0.332359 0.035757
O O5 0.500000 0.500000 0.500000
O O6 0.314251 0.546420 0.434839
O O7 0.128639 0.269902 0.366494
O O8 0.358166 0.699417 0.359871
O O9 0.549098 0.740218 0.191453
O O10 0.275452 0.773763 0.250660
O O11 0.248146 0.420792 0.999445
O O12 0.431285 0.138636 0.405767
O O13 0.782437 0.190872 0.370288
O O14 0.240134 0.173011 0.635875
O O15 0.114253 0.906773 0.286913
O O16 0.128556 0.018900 0.714891
O O17 0.000000 0.500000 0.000000
#
# Coordination Sequence:
#
# PCOD9101525 Si02
#       8
#     2   2   2   2   2   2   2   2
#     4  10  23  41  62  93 126 171 207 259 318 371
#     4  10  22  42  66  85 123 174 213 258 319 367
#     4  10  22  35  62  90 131 163 201 262 314 377
#     4  11  20  42  62  91 121 169 215 256 315 373
#     4  11  22  38  67  89 132 169 203 263 321 377
#     4  10  20  38  59  94 123 165 208 252 324 378
#     4  12  24  37  61  99 130 162 212 257 318 382
#     4  10  22  37  64  90 121 165 213 261 312 375
#
# _framework density 21.544969999999999
#
# number of rings (size 3 to 8) (size 9 to 14) (size 15 to 20)
#    0.750    0.750    2.500    3.375    1.750    3.000 
#    0.000    1.250    2.750    0.000    0.000    0.000 
#    0.000    0.000    0.000    0.000    0.000    0.000 
#
# Total GULP energy -89120.467244 kJ/mol
# GULP energy per Si atom -5570.029203 kJ/mol
# Density = 2.149593 g / cm^3
# Si number density = 21.544970 Si / 1000 Ang^3
#
#
#
# Elastic Constant Matrix: (Units=GPa)
#
#
# Indices 1 2 3 4 5 6 
#
# 1 95.8742 -0.0586 -24.2788 12.3816 -7.6968 4.4700
# 2 -0.0586 76.8860 -18.8486 14.2874 7.2063 12.7632
# 3 -24.2788 -18.8486 43.1220 1.9132 2.7015 0.2146
# 4 12.3816 14.2874 1.9132 28.9417 -1.7537 4.5103
# 5 -7.6968 7.2063 2.7015 -1.7537 17.8550 1.4165
# 6 4.4700 12.7632 0.2146 4.5103 1.4165 37.2809
#
#
#
# Elastic Compliance Matrix: (Units=1/GPa)
#
#
# Indices 1 2 3 4 5 6 
#
# 1 0.014398 0.004246 0.010204 -0.008431 0.002304 -0.002306
# 2 0.004246 0.020051 0.012279 -0.012186 -0.008870 -0.005633
# 3 0.010204 0.012279 0.035307 -0.012575 -0.006829 -0.003850
# 4 -0.008431 -0.012186 -0.012575 0.045559 0.007705 -0.000549
# 5 0.002304 -0.008870 -0.006829 0.007705 0.062410 -0.000504
# 6 -0.002306 -0.005633 -0.003850 -0.000549 -0.000504 0.029136
#
#
# Mechanical properties :
#
#
# Convention : Reuss Voigt Hill
#
# Bulk Modulus (GPa) = 8.11596 14.39002 11.25299
# Shear Modulus (GPa) = 25.71036 34.08672 29.89854
#
# Velocity S-wave (km/s) = 3.45822 3.98190 3.72926
# Velocity P-wave (km/s) = 4.44082 5.27582 4.87622
#
# Compressibility (1/GPa) = 0.12321395
#
# Stress axis : x y z
#
# Youngs Moduli (GPa) = 69.45286 49.87368 28.32293
#
# Poissons Ratio (x) = -0.21177 -0.28900
# Poissons Ratio (y) = -0.29490 -0.34778
# Poissons Ratio (z) = -0.70868 -0.61241
#
# Static dielectric constant tensor:
#      x y z
#    x 1.904060 0.048770 -0.014290 
#    y 0.048770 1.819410 -0.000550 
#    z -0.014290 -0.000550 1.810830 
# 
# From -- ./inp_files/245024.got.cif
#   From: 2010.05.17/outbox.cif.g08.bks.cpg/sg2_123_cif.got.tgz:245024.got - 2010.06.03 11:33:40.
