data_PCOD9101978
_publ_section_title
;
Structure prediction by ZEFSAII (Michael W. Deem and Ramdas Pophale) SiO2 
 PCOD9101978
Probable space group: P -1
;
_chemical_formula_sum "Si O2"
_cell_formula_units_Z 14
_cell_length_a 7.428238
_cell_length_b 9.272501
_cell_length_c 11.926637
_cell_angle_alpha 72.426359
_cell_angle_beta 86.424002
_cell_angle_gamma 50.190439
_cell_volume 591.902196
_symmetry_space_group_name_H-M "P -1"
_symmetry_group_IT_number 2
_symmetry_cell_setting 'triclinic'
loop_
_space_group_symop_operation_xyz
x,y,z
-x,-y,-z
loop_
_atom_site_type_symbol
_atom_site_label
_atom_site_fract_x
_atom_site_fract_y
_atom_site_fract_z
Si Si1 0.625580 0.679425 0.659596
Si Si2 0.559634 0.633352 0.924051
Si Si3 0.020236 0.276633 0.633325
Si Si4 0.298919 0.733550 0.485488
Si Si5 0.265620 0.189968 0.028142
Si Si6 0.916875 0.920897 0.108433
Si Si7 0.415065 0.984294 0.310483
O O1 0.635444 0.601491 0.800375
O O2 0.841830 0.512867 0.609200
O O3 0.380809 0.750250 0.599076
O O4 0.634381 0.853524 0.638395
O O5 0.736631 0.628778 0.999707
O O6 0.329840 0.870457 0.886701
O O7 0.500000 0.500000 0.000000
O O8 0.944382 0.225248 0.537551
O O9 0.952997 0.196686 0.755832
O O10 0.293882 0.173187 0.668393
O O11 0.500000 0.500000 0.500000
O O12 0.325544 0.869793 0.377914
O O13 0.288065 0.102028 0.170779
O O14 0.080178 0.226612 0.938614
O O15 0.500000 0.000000 0.000000
O O16 0.000000 0.000000 0.000000
#
# Coordination Sequence:
#
# PCOD9101978 Si02
#       7
#     2   2   2   2   2   2   2
#     4  10  22  42  61  93 126 158 215 263 306 374
#     4  10  20  38  61  89 127 158 197 263 311 362
#     4  11  22  41  66  90 124 171 213 248 320 378
#     4  10  24  41  65  93 124 168 212 261 318 369
#     4   9  18  36  61  84 122 162 197 252 315 359
#     4  11  20  37  63  90 123 170 208 250 317 379
#     4  11  21  43  65  88 130 162 211 266 310 371
#
# _framework density 23.652557000000002
#
# number of rings (size 3 to 8) (size 9 to 14) (size 15 to 20)
#    0.000    1.714    4.286    2.143    0.000    6.286 
#    0.000   10.714    0.000    0.000    0.000    0.000 
#    0.000    0.000    0.000    0.000    0.000    0.000 
#
# Total GULP energy -78142.085382 kJ/mol
# GULP energy per Si atom -5581.577527 kJ/mol
# Density = 2.359872 g / cm^3
# Si number density = 23.652557 Si / 1000 Ang^3
#
#
#
# Elastic Constant Matrix: (Units=GPa)
#
#
# Indices 1 2 3 4 5 6 
#
# 1 75.6753 39.7364 35.6707 14.7248 12.1287 24.5581
# 2 39.7364 130.8936 31.3112 6.2336 7.8391 24.1613
# 3 35.6707 31.3112 85.6545 -1.0893 16.6790 23.8559
# 4 14.7248 6.2336 -1.0893 27.8746 11.3831 0.4534
# 5 12.1287 7.8391 16.6790 11.3831 42.0814 0.7752
# 6 24.5581 24.1613 23.8559 0.4534 0.7752 53.4909
#
#
#
# Elastic Compliance Matrix: (Units=1/GPa)
#
#
# Indices 1 2 3 4 5 6 
#
# 1 0.022113 -0.003614 -0.006475 -0.011015 -0.000052 -0.005538
# 2 -0.003614 0.009449 -0.001381 -0.000192 -0.000083 -0.001990
# 3 -0.006475 -0.001381 0.017414 0.007192 -0.006648 -0.004134
# 4 -0.011015 -0.000192 0.007192 0.047053 -0.012400 0.001717
# 5 -0.000052 -0.000083 -0.006648 -0.012400 0.029733 0.002700
# 6 -0.005538 -0.001990 -0.004134 0.001717 0.002700 0.023926
#
#
# Mechanical properties :
#
#
# Convention : Reuss Voigt Hill
#
# Bulk Modulus (GPa) = 38.41094 56.18444 47.29769
# Shear Modulus (GPa) = 27.57750 37.05637 32.31694
#
# Velocity S-wave (km/s) = 3.41829 3.96245 3.70039
# Velocity P-wave (km/s) = 5.64398 6.68882 6.18849
#
# Compressibility (1/GPa) = 0.02603425
#
# Stress axis : x y z
#
# Youngs Moduli (GPa) = 45.22198 105.83454 57.42629
#
# Poissons Ratio (x) = 0.38250 0.37186
# Poissons Ratio (y) = 0.16344 0.07931
# Poissons Ratio (z) = 0.29283 0.14616
#
# Static dielectric constant tensor:
#      x y z
#    x 2.017820 -0.061630 0.049730 
#    y -0.061630 1.923840 -0.043860 
#    z 0.049730 -0.043860 1.912970 
# 
# From -- ./inp_files/187924.got.cif
#   From: 2010.05.17/outbox.cif.g08.bks.cpg/sg2_94_cif.got.tgz:187924.got - 2010.06.03 11:33:40.
