data_PCOD9101456
_publ_section_title
;
Structure prediction by ZEFSAII (Michael W. Deem and Ramdas Pophale) SiO2 
 PCOD9101456
Probable space group: P -1
;
_chemical_formula_sum "Si O2"
_cell_formula_units_Z 14
_cell_length_a 15.570523
_cell_length_b 12.666453
_cell_length_c 11.128618
_cell_angle_alpha 123.144193
_cell_angle_beta 36.504825
_cell_angle_gamma 151.494879
_cell_volume 515.310920
_symmetry_space_group_name_H-M "P -1"
_symmetry_group_IT_number 2
_symmetry_cell_setting 'triclinic'
loop_
_space_group_symop_operation_xyz
x,y,z
-x,-y,-z
loop_
_atom_site_type_symbol
_atom_site_label
_atom_site_fract_x
_atom_site_fract_y
_atom_site_fract_z
Si Si1 0.203799 0.299292 0.624122
Si Si2 0.743913 0.941740 0.608937
Si Si3 0.069149 0.504647 0.058195
Si Si4 0.545157 0.703567 0.289328
Si Si5 0.914161 0.748617 0.822626
Si Si6 0.644786 0.266644 0.893533
Si Si7 0.602341 0.953288 0.206396
O O1 0.500000 0.500000 0.500000
O O2 0.312575 0.478174 0.510831
O O3 0.907715 0.117809 0.915271
O O4 0.144374 0.112856 0.528711
O O5 0.953828 0.157394 0.401793
O O6 0.388853 0.672686 0.792295
O O7 0.683506 0.961495 0.816326
O O8 0.164139 0.651253 0.163817
O O9 0.761202 0.192030 0.241299
O O10 0.000000 0.500000 0.000000
O O11 0.665370 0.668885 0.067819
O O12 0.817388 0.989190 0.230013
O O13 0.437618 0.721736 0.325165
O O14 0.786536 0.515056 0.863292
O O15 0.596889 0.160781 0.755929
#
# Coordination Sequence:
#
# PCOD9101456 Si02
#       7
#     2   2   2   2   2   2   2
#     4  12  18  35  61  91 125 158 197 234 294 361
#     4  10  20  38  59  87 120 160 195 243 289 350
#     4  10  22  45  65  83 115 156 204 253 300 344
#     4  11  19  31  60  88 121 168 190 232 296 357
#     4  11  18  35  59  85 127 157 194 238 292 359
#     4  10  24  39  58  92 119 158 200 242 296 356
#     4  12  23  38  63  90 122 159 193 246 300 354
#
# _framework density 27.168064999999999
#
# number of rings (size 3 to 8) (size 9 to 14) (size 15 to 20)
#    0.857    0.286    7.143    0.857    0.000    2.857 
#    0.000    0.714    0.000    0.857    0.000    0.000 
#    0.000    0.000    0.000    0.000    0.000    0.000 
#
# Total GULP energy -78368.882174 kJ/mol
# GULP energy per Si atom -5597.777298 kJ/mol
# Density = 2.710623 g / cm^3
# Si number density = 27.168065 Si / 1000 Ang^3
#
#
#
# Elastic Constant Matrix: (Units=GPa)
#
#
# Indices 1 2 3 4 5 6 
#
# 1 123.4706 26.1597 32.1117 -18.1305 25.4642 17.4475
# 2 26.1597 95.4284 18.9597 -28.8224 0.9085 -5.4049
# 3 32.1117 18.9597 154.5762 -11.6403 15.5304 -17.5406
# 4 -18.1305 -28.8224 -11.6403 20.2756 -8.4335 1.7584
# 5 25.4642 0.9085 15.5304 -8.4335 52.6787 -12.3218
# 6 17.4475 -5.4049 -17.5406 1.7584 -12.3218 48.9786
#
#
#
# Elastic Compliance Matrix: (Units=1/GPa)
#
#
# Indices 1 2 3 4 5 6 
#
# 1 0.011939 -0.001551 -0.002067 0.005439 -0.005863 -0.006834
# 2 -0.001551 0.019721 -0.000166 0.028686 0.005774 0.003092
# 3 -0.002067 -0.000166 0.007444 0.001852 -0.000128 0.003285
# 4 0.005439 0.028686 0.001852 0.101257 0.012892 0.001499
# 5 -0.005863 0.005774 -0.000128 0.012892 0.025859 0.008723
# 6 -0.006834 0.003092 0.003285 0.001499 0.008723 0.026510
#
#
# Mechanical properties :
#
#
# Convention : Reuss Voigt Hill
#
# Bulk Modulus (GPa) = 31.70842 58.65972 45.18407
# Shear Modulus (GPa) = 23.71806 44.13620 33.92713
#
# Velocity S-wave (km/s) = 2.95788 4.03496 3.53765
# Velocity P-wave (km/s) = 4.83342 6.58378 5.77530
#
# Compressibility (1/GPa) = 0.03153736
#
# Stress axis : x y z
#
# Youngs Moduli (GPa) = 83.76112 50.70628 134.33463
#
# Poissons Ratio (x) = 0.07863 0.27765
# Poissons Ratio (y) = 0.12989 0.02228
# Poissons Ratio (z) = 0.17312 0.00841
#
# Static dielectric constant tensor:
#      x y z
#    x 2.137750 0.052470 -0.003600 
#    y 0.052470 2.161750 0.041190 
#    z -0.003600 0.041190 2.063300 
# 
# From -- ./inp_files/437495.got.cif
#   From: 2010.05.17/outbox.cif.g08.bks.cpg/sg2_219_cif.got.tgz:437495.got - 2010.06.03 11:33:40.
