data_PCOD9101734
_publ_section_title
;
Structure prediction by ZEFSAII (Michael W. Deem and Ramdas Pophale) SiO2 
 PCOD9101734
Probable space group: P -1
;
_chemical_formula_sum "Si O2"
_cell_formula_units_Z 16
_cell_length_a 12.120687
_cell_length_b 10.081654
_cell_length_c 22.325217
_cell_angle_alpha 144.461497
_cell_angle_beta 142.967543
_cell_angle_gamma 64.736272
_cell_volume 736.600877
_symmetry_space_group_name_H-M "P -1"
_symmetry_group_IT_number 2
_symmetry_cell_setting 'triclinic'
loop_
_space_group_symop_operation_xyz
x,y,z
-x,-y,-z
loop_
_atom_site_type_symbol
_atom_site_label
_atom_site_fract_x
_atom_site_fract_y
_atom_site_fract_z
Si Si1 0.552334 0.911059 0.928649
Si Si2 0.130847 0.228229 0.695611
Si Si3 0.049489 0.436451 0.276607
Si Si4 0.474631 0.078591 0.271715
Si Si5 0.719006 0.063096 0.732638
Si Si6 0.598924 0.861942 0.142686
Si Si7 0.252398 0.419751 0.115603
Si Si8 0.301880 0.401152 0.268182
O O1 0.571214 0.651846 0.848742
O O2 0.376373 0.895939 0.799263
O O3 0.500000 0.000000 0.000000
O O4 0.813389 0.180242 0.114955
O O5 0.170773 0.095284 0.720914
O O6 0.986597 0.344206 0.688245
O O7 0.396935 0.534255 0.907783
O O8 0.000000 0.000000 0.500000
O O9 0.265199 0.634902 0.489039
O O10 0.120999 0.320085 0.212914
O O11 0.367908 0.191182 0.226168
O O12 0.328544 0.940286 0.218538
O O13 0.494697 0.871710 0.164176
O O14 0.668295 0.266445 0.754990
O O15 0.534997 0.733311 0.507162
O O16 0.989026 0.191276 0.888703
O O17 0.222548 0.394567 0.164957
#
# Coordination Sequence:
#
# PCOD9101734 Si02
#       8
#     2   2   2   2   2   2   2   2
#     4  11  24  44  63  91 131 177 218 268 324 384
#     4  10  20  38  60  89 129 157 206 270 308 368
#     4  10  22  39  68  96 125 168 217 266 322 383
#     4  11  20  40  70  97 129 162 218 271 319 382
#     4  10  24  39  63 102 131 167 206 268 329 382
#     4  10  22  38  64  91 120 170 219 259 315 383
#     4  11  23  42  66  91 135 171 210 260 328 390
#     4  11  22  41  69  98 128 166 215 269 320 382
#
# _framework density 21.721399000000002
#
# number of rings (size 3 to 8) (size 9 to 14) (size 15 to 20)
#    0.000    1.500    2.500    3.375    3.500    4.000 
#    2.250    0.625    2.750    0.000    0.000    0.000 
#    0.000    0.000    0.000    0.000    0.000    0.000 
#
# Total GULP energy -89412.329203 kJ/mol
# GULP energy per Si atom -5588.270575 kJ/mol
# Density = 2.167196 g / cm^3
# Si number density = 21.721399 Si / 1000 Ang^3
#
#
#
# Elastic Constant Matrix: (Units=GPa)
#
#
# Indices 1 2 3 4 5 6 
#
# 1 66.1698 8.3661 10.8650 6.4060 -14.7806 -4.3728
# 2 8.3661 151.3846 20.5829 -6.2021 -4.6657 -13.0735
# 3 10.8650 20.5829 79.4437 -11.8869 -10.5312 -1.1218
# 4 6.4060 -6.2021 -11.8869 30.6548 1.8237 -3.7827
# 5 -14.7806 -4.6657 -10.5312 1.8237 24.2003 0.4234
# 6 -4.3728 -13.0735 -1.1218 -3.7827 0.4234 29.3881
#
#
#
# Elastic Compliance Matrix: (Units=1/GPa)
#
#
# Indices 1 2 3 4 5 6 
#
# 1 0.018466 -0.000523 -0.001693 -0.005061 0.010793 0.001644
# 2 -0.000523 0.007182 -0.001507 0.001362 0.000250 0.003231
# 3 -0.001693 -0.001507 0.014648 0.005488 0.004632 0.000277
# 4 -0.005061 0.001362 0.005488 0.036878 -0.003304 0.004857
# 5 0.010793 0.000250 0.004632 -0.003304 0.050214 0.000745
# 6 0.001644 0.003231 0.000277 0.004857 0.000745 0.036334
#
#
# Mechanical properties :
#
#
# Convention : Reuss Voigt Hill
#
# Bulk Modulus (GPa) = 30.44049 41.84734 36.14392
# Shear Modulus (GPa) = 27.45455 33.99424 30.72439
#
# Velocity S-wave (km/s) = 3.55905 3.96031 3.76503
# Velocity P-wave (km/s) = 5.56180 6.34188 5.96461
#
# Compressibility (1/GPa) = 0.03285099
#
# Stress axis : x y z
#
# Youngs Moduli (GPa) = 54.15277 139.23657 68.26674
#
# Poissons Ratio (x) = 0.07283 0.11559
# Poissons Ratio (y) = 0.02832 0.10285
# Poissons Ratio (z) = 0.09169 0.20978
#
# Static dielectric constant tensor:
#      x y z
#    x 1.748100 -0.018280 0.007520 
#    y -0.018280 1.828030 0.002100 
#    z 0.007520 0.002100 1.821110 
# 
# From -- ./inp_files/594267.got.cif
#   From: 2010.05.17/outbox.cif.g08.bks.cpg/sg2_298_cif.got.tgz:594267.got - 2010.06.03 11:33:40.
