data_PCOD9101347
_publ_section_title
;
Structure prediction by ZEFSAII (Michael W. Deem and Ramdas Pophale) SiO2 
 PCOD9101347
Probable space group: P -1
;
_chemical_formula_sum "Si O2"
_cell_formula_units_Z 16
_cell_length_a 8.858211
_cell_length_b 9.963414
_cell_length_c 12.640582
_cell_angle_alpha 94.667303
_cell_angle_beta 58.085947
_cell_angle_gamma 115.412399
_cell_volume 839.825904
_symmetry_space_group_name_H-M "P -1"
_symmetry_group_IT_number 2
_symmetry_cell_setting 'triclinic'
loop_
_space_group_symop_operation_xyz
x,y,z
-x,-y,-z
loop_
_atom_site_type_symbol
_atom_site_label
_atom_site_fract_x
_atom_site_fract_y
_atom_site_fract_z
Si Si1 0.057780 0.740810 0.709898
Si Si2 0.554227 0.200102 0.734874
Si Si3 0.874862 0.083017 0.092565
Si Si4 0.475225 0.828753 0.500252
Si Si5 0.085715 0.005701 0.584428
Si Si6 0.690578 0.216825 0.018303
Si Si7 0.277677 0.963206 0.208301
Si Si8 0.660159 0.448240 0.892613
O O1 0.053429 0.840324 0.816721
O O2 0.268526 0.732956 0.632979
O O3 0.860182 0.584929 0.781657
O O4 0.069759 0.843098 0.610994
O O5 0.553924 0.233646 0.612965
O O6 0.712775 0.138753 0.704384
O O7 0.574076 0.327360 0.820256
O O8 0.346494 0.052929 0.823523
O O9 0.853776 0.208563 0.035345
O O10 0.000000 0.000000 0.000000
O O11 0.688503 0.862371 0.473397
O O12 0.500000 0.000000 0.500000
O O13 0.929047 0.030525 0.717691
O O14 0.000000 0.000000 0.500000
O O15 0.470471 0.128257 0.147618
O O16 0.696422 0.117626 0.910336
O O17 0.716007 0.370442 0.965670
O O18 0.500000 0.500000 0.000000
#
# Coordination Sequence:
#
# PCOD9101347 Si02
#       8
#     2   2   2   2   2   2   2   2
#     4  11  23  38  60  89 127 159 201 255 311 372
#     4  10  20  38  64  84 124 159 200 257 301 368
#     4  11  20  35  64  93 117 160 208 257 306 354
#     4  10  20  38  58  91 114 155 204 258 311 352
#     4  11  21  34  64  89 116 151 208 265 307 357
#     4   9  20  33  59  85 123 157 201 250 300 363
#     4   9  17  34  55  91 113 148 204 254 297 351
#     4  11  23  41  59  91 129 170 203 242 311 378
#
# _framework density 19.051569000000001
#
# number of rings (size 3 to 8) (size 9 to 14) (size 15 to 20)
#    0.000    1.750    2.500    4.500    1.750    1.000 
#    0.000    0.000    0.000    3.750    0.000    0.000 
#    0.000    0.000    0.000    0.000    0.000    0.000 
#
# Total GULP energy -89189.869155 kJ/mol
# GULP energy per Si atom -5574.366822 kJ/mol
# Density = 1.900821 g / cm^3
# Si number density = 19.051569 Si / 1000 Ang^3
#
#
#
# Elastic Constant Matrix: (Units=GPa)
#
#
# Indices 1 2 3 4 5 6 
#
# 1 458.1386 260.8685 284.0794 -72.6456 -102.3944 60.5210
# 2 260.8685 236.9072 192.0673 -51.3225 -65.2142 52.0435
# 3 284.0794 192.0673 248.6108 -47.5205 -71.1203 44.5963
# 4 -72.6456 -51.3225 -47.5205 41.9403 24.5548 -13.5645
# 5 -102.3944 -65.2142 -71.1203 24.5548 78.2152 -17.4744
# 6 60.5210 52.0435 44.5963 -13.5645 -17.4744 40.1401
#
#
#
# Elastic Compliance Matrix: (Units=1/GPa)
#
#
# Indices 1 2 3 4 5 6 
#
# 1 0.009367 -0.003646 -0.006698 0.002862 0.002229 -0.000015
# 2 -0.003646 0.014891 -0.005463 0.003553 0.000109 -0.006491
# 3 -0.006698 -0.005463 0.016278 -0.000988 0.001674 -0.000508
# 4 0.002862 0.003553 -0.000988 0.035561 -0.004892 0.002063
# 5 0.002229 0.000109 0.001674 -0.004892 0.019147 0.001320
# 6 -0.000015 -0.006491 -0.000508 0.002063 0.001320 0.035188
#
#
# Mechanical properties :
#
#
# Convention : Reuss Voigt Hill
#
# Bulk Modulus (GPa) = 112.10122 268.63188 190.36655
# Shear Modulus (GPa) = 30.29951 45.83522 38.06737
#
# Velocity S-wave (km/s) = 3.99230 4.91027 4.47489
# Velocity P-wave (km/s) = 8.95656 13.17028 11.26224
#
# Compressibility (1/GPa) = 0.00892051
#
# Stress axis : x y z
#
# Youngs Moduli (GPa) = 106.76337 67.15588 61.43414
#
# Poissons Ratio (x) = 0.24488 0.41150
# Poissons Ratio (y) = 0.38930 0.33559
# Poissons Ratio (z) = 0.71512 0.36684
#
# Static dielectric constant tensor:
#      x y z
#    x 1.770690 0.020650 -0.008140 
#    y 0.020650 1.673110 -0.029050 
#    z -0.008140 -0.029050 1.731260 
# 
# From -- ./inp_files/271413.got.cif
#   From: 2010.05.17/outbox.cif.g08.bks.cpg/sg2_136_cif.got.tgz:271413.got - 2010.06.03 11:33:40.
