data_PCOD9101080
_publ_section_title
;
Structure prediction by ZEFSAII (Michael W. Deem and Ramdas Pophale) SiO2 
 PCOD9101080
Probable space group: P -1
;
_chemical_formula_sum "Si O2"
_cell_formula_units_Z 14
_cell_length_a 8.858608
_cell_length_b 8.166085
_cell_length_c 18.504498
_cell_angle_alpha 134.248245
_cell_angle_beta 51.855104
_cell_angle_gamma 96.832566
_cell_volume 627.891507
_symmetry_space_group_name_H-M "P -1"
_symmetry_group_IT_number 2
_symmetry_cell_setting 'triclinic'
loop_
_space_group_symop_operation_xyz
x,y,z
-x,-y,-z
loop_
_atom_site_type_symbol
_atom_site_label
_atom_site_fract_x
_atom_site_fract_y
_atom_site_fract_z
Si Si1 0.177942 0.923425 0.110592
Si Si2 0.981090 0.445840 0.905469
Si Si3 0.218108 0.711544 0.874952
Si Si4 0.088467 0.477133 0.588797
Si Si5 0.941214 0.877229 0.411545
Si Si6 0.280982 0.547911 0.409688
Si Si7 0.369823 0.382762 0.043717
O O1 0.054458 0.804922 0.158243
O O2 0.242693 0.765656 0.967920
O O3 0.416640 0.865225 0.054094
O O4 0.005830 0.245274 0.254084
O O5 0.173390 0.466175 0.813184
O O6 0.751700 0.679686 0.002689
O O7 0.000000 0.500000 0.000000
O O8 0.452060 0.622469 0.739762
O O9 0.000000 0.000000 0.000000
O O10 0.193813 0.235562 0.542041
O O11 0.243379 0.465505 0.474192
O O12 0.874565 0.496060 0.614893
O O13 0.168620 0.614913 0.226584
O O14 0.814402 0.129620 0.471634
O O15 0.000000 0.000000 0.500000
O O16 0.500000 0.500000 0.000000
#
# Coordination Sequence:
#
# PCOD9101080 Si02
#       7
#     2   2   2   2   2   2   2
#     4  10  21  41  66  99 126 167 231 275 325 387
#     4   9  21  41  61  94 136 169 210 271 339 401
#     4  11  25  43  63  94 136 177 218 270 341 398
#     4  10  22  40  68 100 130 167 226 280 327 390
#     4  10  21  39  62  98 136 169 216 273 341 387
#     4  10  22  43  63  94 134 176 217 275 332 400
#     4  10  20  37  71 101 125 171 225 279 324 387
#
# _framework density 22.296845999999999
#
# number of rings (size 3 to 8) (size 9 to 14) (size 15 to 20)
#    0.000    2.000    0.000    3.429    4.000    1.143 
#   12.857    3.571    0.000    0.000    0.000    0.000 
#    0.000    0.000    0.000    0.000    0.000    0.000 
#
# Total GULP energy -78061.241123 kJ/mol
# GULP energy per Si atom -5575.802937 kJ/mol
# Density = 2.224610 g / cm^3
# Si number density = 22.296846 Si / 1000 Ang^3
#
#
#
# Elastic Constant Matrix: (Units=GPa)
#
#
# Indices 1 2 3 4 5 6 
#
# 1 76.7151 22.7151 15.1762 -12.4979 -4.6029 1.1915
# 2 22.7151 172.4197 66.5347 -14.4967 -10.5875 16.8151
# 3 15.1762 66.5347 92.8525 -17.1047 -5.4491 13.6345
# 4 -12.4979 -14.4967 -17.1047 36.9588 10.7158 4.9064
# 5 -4.6029 -10.5875 -5.4491 10.7158 18.9875 -9.5065
# 6 1.1915 16.8151 13.6345 4.9064 -9.5065 24.0431
#
#
#
# Elastic Compliance Matrix: (Units=1/GPa)
#
#
# Indices 1 2 3 4 5 6 
#
# 1 0.014198 -0.001254 -0.000653 0.003963 0.000232 -0.000173
# 2 -0.001254 0.008348 -0.005330 0.000193 0.001638 -0.002145
# 3 -0.000653 -0.005330 0.017912 0.010659 -0.010345 -0.012663
# 4 0.003963 0.000193 0.010659 0.049181 -0.039706 -0.032112
# 5 0.000232 0.001638 -0.010345 -0.039706 0.099110 0.052000
# 6 -0.000173 -0.002145 -0.012663 -0.032112 0.052000 0.077395
#
#
# Mechanical properties :
#
#
# Convention : Reuss Voigt Hill
#
# Bulk Modulus (GPa) = 38.48624 61.20438 49.84531
# Shear Modulus (GPa) = 17.28431 31.83530 24.55981
#
# Velocity S-wave (km/s) = 2.78725 3.78272 3.32247
# Velocity P-wave (km/s) = 5.25896 6.82554 6.09281
#
# Compressibility (1/GPa) = 0.02598331
#
# Stress axis : x y z
#
# Youngs Moduli (GPa) = 70.43266 119.79071 55.83001
#
# Poissons Ratio (x) = 0.15025 0.03644
# Poissons Ratio (y) = 0.08834 0.29757
# Poissons Ratio (z) = 0.04598 0.63848
#
# Static dielectric constant tensor:
#      x y z
#    x 1.890800 -0.002190 0.011430 
#    y -0.002190 1.903270 0.032500 
#    z 0.011430 0.032500 1.780670 
# 
# From -- ./inp_files/207686.got.cif
#   From: 2010.05.17/outbox.cif.g08.bks.cpg/sg2_104_cif.got.tgz:207686.got - 2010.06.03 11:33:40.
