data_PCOD9101791
_publ_section_title
;
Structure prediction by ZEFSAII (Michael W. Deem and Ramdas Pophale) SiO2 
 PCOD9101791
Probable space group: P -1
;
_chemical_formula_sum "Si O2"
_cell_formula_units_Z 16
_cell_length_a 9.344100
_cell_length_b 24.254919
_cell_length_c 21.793676
_cell_angle_alpha 18.736612
_cell_angle_beta 150.957257
_cell_angle_gamma 150.376197
_cell_volume 742.644609
_symmetry_space_group_name_H-M "P -1"
_symmetry_group_IT_number 2
_symmetry_cell_setting 'triclinic'
loop_
_space_group_symop_operation_xyz
x,y,z
-x,-y,-z
loop_
_atom_site_type_symbol
_atom_site_label
_atom_site_fract_x
_atom_site_fract_y
_atom_site_fract_z
Si Si1 0.061418 0.189539 0.289724
Si Si2 0.164012 0.314057 0.888264
Si Si3 0.828310 0.312708 0.186736
Si Si4 0.216484 0.791480 0.023024
Si Si5 0.698937 0.406395 0.447956
Si Si6 0.808257 0.413326 0.884003
Si Si7 0.198958 0.924858 0.105268
Si Si8 0.242060 0.045122 0.397198
O O1 0.307149 0.181156 0.337044
O O2 0.059917 0.328487 0.198519
O O3 0.000000 0.000000 0.500000
O O4 0.784222 0.223847 0.107920
O O5 0.235824 0.518998 0.675359
O O6 0.025740 0.191921 0.906837
O O7 0.482988 0.279935 0.067026
O O8 0.907242 0.265047 0.896261
O O9 0.883652 0.463214 0.101182
O O10 0.892929 0.144381 0.422411
O O11 0.978082 0.886765 0.802405
O O12 0.549795 0.924098 0.996273
O O13 0.198062 0.618603 0.156308
O O14 0.440007 0.492265 0.285751
O O15 0.642315 0.201696 0.661300
O O16 0.000000 0.500000 0.500000
O O17 0.000000 0.000000 0.000000
O O18 0.500000 0.000000 0.500000
#
# Coordination Sequence:
#
# PCOD9101791 Si02
#       8
#     2   2   2   2   2   2   2   2
#     4   9  20  35  60  91 124 171 217 260 315 384
#     4  11  23  42  68  97 132 169 223 280 330 403
#     4  11  21  39  62  96 133 172 221 270 333 391
#     4  11  23  43  67  96 135 177 218 270 341 395
#     4  10  22  43  67  94 129 173 224 279 330 385
#     4  11  22  40  64  93 137 174 217 273 328 404
#     4  11  25  47  71  95 125 174 229 282 333 391
#     4  10  20  38  60  93 137 171 210 270 329 396
#
# _framework density 21.544625
#
# number of rings (size 3 to 8) (size 9 to 14) (size 15 to 20)
#    0.000    1.500    2.500    3.000    1.750    0.500 
#    2.250    8.125    0.000    0.000    0.000    0.000 
#    0.000    0.000    0.000    0.000    0.000    0.000 
#
# Total GULP energy -89135.938727 kJ/mol
# GULP energy per Si atom -5570.996170 kJ/mol
# Density = 2.149559 g / cm^3
# Si number density = 21.544625 Si / 1000 Ang^3
#
#
#
# Elastic Constant Matrix: (Units=GPa)
#
#
# Indices 1 2 3 4 5 6 
#
# 1 184.0325 54.2377 48.4384 -9.6601 4.5023 0.0476
# 2 54.2377 88.7244 13.4069 0.2429 6.2938 -6.7152
# 3 48.4384 13.4069 111.0247 1.1491 4.1771 -1.7384
# 4 -9.6601 0.2429 1.1491 24.7243 -0.8218 8.0760
# 5 4.5023 6.2938 4.1771 -0.8218 37.7919 1.4909
# 6 0.0476 -6.7152 -1.7384 8.0760 1.4909 28.7476
#
#
#
# Elastic Compliance Matrix: (Units=1/GPa)
#
#
# Indices 1 2 3 4 5 6 
#
# 1 0.007730 -0.004499 -0.002920 0.003988 0.000332 -0.002378
# 2 -0.004499 0.014463 0.000404 -0.003459 -0.002170 0.004495
# 3 -0.002920 0.000404 0.010311 -0.002101 -0.000959 0.001363
# 4 0.003988 -0.003459 -0.002101 0.046837 0.001912 -0.014199
# 5 0.000332 -0.002170 -0.000959 0.001912 0.027029 -0.002504
# 6 -0.002378 0.004495 0.001363 -0.014199 -0.002504 0.040040
#
#
# Mechanical properties :
#
#
# Convention : Reuss Voigt Hill
#
# Bulk Modulus (GPa) = 54.12689 68.43860 61.28275
# Shear Modulus (GPa) = 30.01211 36.09934 33.05572
#
# Velocity S-wave (km/s) = 3.73637 4.09780 3.92125
# Velocity P-wave (km/s) = 6.61752 7.36371 7.00057
#
# Compressibility (1/GPa) = 0.01847511
#
# Stress axis : x y z
#
# Youngs Moduli (GPa) = 129.36456 69.14010 96.97961
#
# Poissons Ratio (x) = 0.31103 0.28321
# Poissons Ratio (y) = 0.58195 -0.03917
# Poissons Ratio (z) = 0.37778 -0.02793
#
# Static dielectric constant tensor:
#      x y z
#    x 1.876540 -0.002200 -0.080390 
#    y -0.002200 1.860470 -0.046830 
#    z -0.080390 -0.046830 1.907420 
# 
# From -- ./inp_files/542535.got.cif
#   From: 2010.05.17/outbox.cif.g08.bks.cpg/sg2_272_cif.got.tgz:542535.got - 2010.06.03 11:33:40.
