data_PCOD9101617
_publ_section_title
;
Structure prediction by ZEFSAII (Michael W. Deem and Ramdas Pophale) SiO2 
 PCOD9101617
Probable space group: P -1
;
_chemical_formula_sum "Si O2"
_cell_formula_units_Z 16
_cell_length_a 24.250330
_cell_length_b 7.494540
_cell_length_c 7.747288
_cell_angle_alpha 52.483472
_cell_angle_beta 136.999713
_cell_angle_gamma 137.645805
_cell_volume 639.716511
_symmetry_space_group_name_H-M "P -1"
_symmetry_group_IT_number 2
_symmetry_cell_setting 'triclinic'
loop_
_space_group_symop_operation_xyz
x,y,z
-x,-y,-z
loop_
_atom_site_type_symbol
_atom_site_label
_atom_site_fract_x
_atom_site_fract_y
_atom_site_fract_z
Si Si1 0.410267 0.899782 0.168216
Si Si2 0.908259 0.842575 0.692157
Si Si3 0.059816 0.595433 0.866572
Si Si4 0.181249 0.170963 0.872927
Si Si5 0.478755 0.573606 0.689696
Si Si6 0.912132 0.585878 0.293059
Si Si7 0.298700 0.497868 0.437509
Si Si8 0.375956 0.594353 0.941967
O O1 0.478339 0.782756 0.429456
O O2 0.329042 0.734274 0.228082
O O3 0.383321 0.816744 0.957277
O O4 0.462776 0.211641 0.148823
O O5 0.871331 0.833961 0.420726
O O6 0.813990 0.722243 0.667996
O O7 0.944791 0.644423 0.905140
O O8 0.998170 0.142348 0.747081
O O9 0.116489 0.631265 0.792837
O O10 0.959790 0.540601 0.596038
O O11 0.124389 0.860808 0.969271
O O12 0.163534 0.345684 0.860750
O O13 0.292321 0.314984 0.000780
O O14 0.365472 0.392352 0.585690
O O15 0.467595 0.568997 0.158308
O O16 0.339228 0.607632 0.659091
#
# Coordination Sequence:
#
# PCOD9101617 Si02
#       8
#     2   2   2   2   2   2   2   2
#     4   9  21  38  60  85 120 155 194 245 293 349
#     4  10  20  38  60  85 120 151 198 248 291 354
#     4  10  21  38  63  78 119 159 186 247 301 340
#     4  10  24  37  58  90 117 151 203 242 290 360
#     4   9  20  39  59  87 119 153 198 238 294 357
#     4  10  22  39  59  89 114 155 201 237 299 359
#     4   9  21  37  58  90 118 150 201 247 286 358
#     4  11  21  38  61  85 119 160 191 243 301 346
#
# _framework density 25.011078999999999
#
# number of rings (size 3 to 8) (size 9 to 14) (size 15 to 20)
#    0.750    1.500    0.000    2.625    3.500    2.500 
#    0.000    0.000    0.000    0.000    0.000    0.000 
#    0.000    0.000    0.000    0.000    0.000    0.000 
#
# Total GULP energy -89373.205365 kJ/mol
# GULP energy per Si atom -5585.825335 kJ/mol
# Density = 2.495415 g / cm^3
# Si number density = 25.011079 Si / 1000 Ang^3
#
#
#
# Elastic Constant Matrix: (Units=GPa)
#
#
# Indices 1 2 3 4 5 6 
#
# 1 144.1468 45.3875 20.0881 8.9842 0.3526 14.3790
# 2 45.3875 75.1328 29.1617 -3.9693 12.7571 3.8492
# 3 20.0881 29.1617 53.0088 -6.5575 -0.6337 7.8384
# 4 8.9842 -3.9693 -6.5575 30.6365 -6.2260 -1.5900
# 5 0.3526 12.7571 -0.6337 -6.2260 29.8445 13.4788
# 6 14.3790 3.8492 7.8384 -1.5900 13.4788 43.3848
#
#
#
# Elastic Compliance Matrix: (Units=1/GPa)
#
#
# Indices 1 2 3 4 5 6 
#
# 1 0.009495 -0.006399 0.000168 -0.003017 0.003752 -0.003886
# 2 -0.006399 0.023576 -0.011597 0.000125 -0.013009 0.006171
# 3 0.000168 -0.011597 0.027021 0.005873 0.009797 -0.006737
# 4 -0.003017 0.000125 0.005873 0.036417 0.008298 -0.001316
# 5 0.003752 -0.013009 0.009797 0.008298 0.048465 -0.016613
# 6 -0.003886 0.006171 -0.006737 -0.001316 -0.016613 0.030120
#
#
# Mechanical properties :
#
#
# Convention : Reuss Voigt Hill
#
# Bulk Modulus (GPa) = 40.92297 51.28479 46.10388
# Shear Modulus (GPa) = 22.84193 32.61657 27.72925
#
# Velocity S-wave (km/s) = 3.02532 3.61513 3.33329
# Velocity P-wave (km/s) = 5.34798 6.16238 5.76956
#
# Compressibility (1/GPa) = 0.02443615
#
# Stress axis : x y z
#
# Youngs Moduli (GPa) = 105.31694 42.41634 37.00820
#
# Poissons Ratio (x) = 0.27141 -0.00622
# Poissons Ratio (y) = 0.67388 0.42920
# Poissons Ratio (z) = -0.01770 0.49192
#
# Static dielectric constant tensor:
#      x y z
#    x 2.021300 0.004660 -0.051540 
#    y 0.004660 1.977270 0.021990 
#    z -0.051540 0.021990 2.052510 
# 
# From -- ./inp_files/358424.got.cif
#   From: 2010.05.17/outbox.cif.g08.bks.cpg/sg2_180_cif.got.tgz:358424.got - 2010.06.03 11:33:40.
