data_PCOD9101228
_publ_section_title
;
Structure prediction by ZEFSAII (Michael W. Deem and Ramdas Pophale) SiO2 
 PCOD9101228
Probable space group: P -1
;
_chemical_formula_sum "Si O2"
_cell_formula_units_Z 16
_cell_length_a 18.262116
_cell_length_b 8.792010
_cell_length_c 5.461634
_cell_angle_alpha 96.515163
_cell_angle_beta 88.330955
_cell_angle_gamma 54.028346
_cell_volume 700.098106
_symmetry_space_group_name_H-M "P -1"
_symmetry_group_IT_number 2
_symmetry_cell_setting 'triclinic'
loop_
_space_group_symop_operation_xyz
x,y,z
-x,-y,-z
loop_
_atom_site_type_symbol
_atom_site_label
_atom_site_fract_x
_atom_site_fract_y
_atom_site_fract_z
Si Si1 0.774852 0.189668 0.009205
Si Si2 0.626608 0.087935 0.599000
Si Si3 0.074345 0.775667 0.903820
Si Si4 0.799305 0.890508 0.285944
Si Si5 0.416894 0.542319 0.184341
Si Si6 0.074331 0.191004 0.376934
Si Si7 0.463549 0.888205 0.876041
Si Si8 0.908986 0.546325 0.893875
O O1 0.829117 0.260221 0.148458
O O2 0.750219 0.083132 0.173802
O O3 0.681886 0.351998 0.914851
O O4 0.851803 0.013023 0.797018
O O5 0.734318 0.937392 0.527126
O O6 0.597371 0.301339 0.596049
O O7 0.585887 0.040786 0.369238
O O8 0.597468 0.091499 0.881419
O O9 0.087993 0.638888 0.101192
O O10 0.025283 0.740684 0.684002
O O11 0.000000 0.000000 0.000000
O O12 0.894666 0.848544 0.353551
O O13 0.823754 0.714816 0.090249
O O14 0.453654 0.332461 0.221765
O O15 0.500000 0.500000 0.000000
O O16 0.090191 0.349361 0.328907
O O17 0.500000 0.000000 0.000000
O O18 0.000000 0.500000 0.000000
#
# Coordination Sequence:
#
# PCOD9101228 Si02
#       8
#     2   2   2   2   2   2   2   2
#     4  10  20  38  57  90 123 162 213 277 330 391
#     4  11  23  43  70 100 131 184 228 280 339 418
#     4   9  19  37  60  83 125 165 207 274 334 396
#     4  11  21  36  64  89 123 165 224 272 322 409
#     4  10  21  41  67  95 127 176 225 269 336 412
#     4   9  19  37  60  86 119 161 216 259 332 392
#     4  11  25  44  69 100 141 175 225 288 352 405
#     4   9  20  37  58  87 119 167 215 270 328 406
#
# _framework density 22.853939
#
# number of rings (size 3 to 8) (size 9 to 14) (size 15 to 20)
#    0.000    2.000    1.250    3.000    1.750    4.500 
#    0.000    3.750    0.000    0.000    0.000    0.000 
#    0.000    0.000    0.000    0.000    0.000    0.000 
#
# Total GULP energy -89193.117166 kJ/mol
# GULP energy per Si atom -5574.569823 kJ/mol
# Density = 2.280192 g / cm^3
# Si number density = 22.853939 Si / 1000 Ang^3
#
#
#
# Elastic Constant Matrix: (Units=GPa)
#
#
# Indices 1 2 3 4 5 6 
#
# 1 114.3433 44.6057 26.9332 3.8368 20.1723 -14.1759
# 2 44.6057 78.3045 7.6100 2.5149 -3.1492 5.3121
# 3 26.9332 7.6100 75.9262 15.3361 4.4632 -12.3477
# 4 3.8368 2.5149 15.3361 34.1276 -13.9292 6.8420
# 5 20.1723 -3.1492 4.4632 -13.9292 43.5888 3.1434
# 6 -14.1759 5.3121 -12.3477 6.8420 3.1434 38.2129
#
#
#
# Elastic Compliance Matrix: (Units=1/GPa)
#
#
# Indices 1 2 3 4 5 6 
#
# 1 0.016207 -0.009949 -0.001253 -0.006811 -0.010924 0.009109
# 2 -0.009949 0.019318 -0.001407 0.005512 0.008520 -0.008519
# 3 -0.001253 -0.001407 0.017739 -0.011632 -0.005633 0.008009
# 4 -0.006811 0.005512 -0.011632 0.046887 0.020962 -0.017171
# 5 -0.010924 0.008520 -0.005633 0.020962 0.036887 -0.013845
# 6 0.009109 -0.008519 0.008009 -0.017171 -0.013845 0.037534
#
#
# Mechanical properties :
#
#
# Convention : Reuss Voigt Hill
#
# Bulk Modulus (GPa) = 35.65370 47.43018 41.54194
# Shear Modulus (GPa) = 23.90786 35.81420 29.86103
#
# Velocity S-wave (km/s) = 3.23788 3.96294 3.61862
# Velocity P-wave (km/s) = 5.44179 6.46054 5.97292
#
# Compressibility (1/GPa) = 0.02804758
#
# Stress axis : x y z
#
# Youngs Moduli (GPa) = 61.70277 51.76484 56.37281
#
# Poissons Ratio (x) = 0.51500 0.07062
# Poissons Ratio (y) = 0.61387 0.07930
# Poissons Ratio (z) = 0.07729 0.07282
#
# Static dielectric constant tensor:
#      x y z
#    x 1.915750 -0.023710 -0.001650 
#    y -0.023710 1.938640 -0.041160 
#    z -0.001650 -0.041160 1.967360 
# 
# From -- ./inp_files/117161.got.cif
#   From: 2010.05.17/outbox.cif.g08.bks.cpg/sg2_59_cif.got.tgz:117161.got - 2010.06.03 11:33:40.
