data_PCOD9101867
_publ_section_title
;
Structure prediction by ZEFSAII (Michael W. Deem and Ramdas Pophale) SiO2 
 PCOD9101867
Probable space group: P -1
;
_chemical_formula_sum "Si O2"
_cell_formula_units_Z 14
_cell_length_a 12.339027
_cell_length_b 18.959753
_cell_length_c 8.565805
_cell_angle_alpha 30.767729
_cell_angle_beta 39.468715
_cell_angle_gamma 36.681012
_cell_volume 589.417642
_symmetry_space_group_name_H-M "P -1"
_symmetry_group_IT_number 2
_symmetry_cell_setting 'triclinic'
loop_
_space_group_symop_operation_xyz
x,y,z
-x,-y,-z
loop_
_atom_site_type_symbol
_atom_site_label
_atom_site_fract_x
_atom_site_fract_y
_atom_site_fract_z
Si Si1 0.772360 0.939460 0.333718
Si Si2 0.192964 0.785185 0.079719
Si Si3 0.130007 0.492829 0.075441
Si Si4 0.539111 0.573602 0.968384
Si Si5 0.090359 0.211126 0.823891
Si Si6 0.391645 0.181590 0.762872
Si Si7 0.279620 0.305759 0.970986
O O1 0.759391 0.927530 0.184356
O O2 0.667007 0.854984 0.698287
O O3 0.735157 0.096350 0.156699
O O4 0.000056 0.830250 0.305832
O O5 0.366456 0.621815 0.189627
O O6 0.102886 0.804105 0.967974
O O7 0.259601 0.527879 0.986993
O O8 0.074764 0.365286 0.461229
O O9 0.262741 0.416606 0.922924
O O10 0.936036 0.622193 0.987928
O O11 0.544897 0.732823 0.604308
O O12 0.500000 0.500000 0.000000
O O13 0.178766 0.210478 0.893411
O O14 0.396740 0.266637 0.756090
O O15 0.500000 0.000000 0.000000
#
# Coordination Sequence:
#
# PCOD9101867 Si02
#       7
#     2   2   2   2   2   2   2
#     4   8  17  36  63  83 105 154 192 237 276 340
#     4   9  18  37  61  82 113 148 198 228 286 344
#     4   9  21  38  61  83 109 159 194 232 278 343
#     4  11  25  39  58  88 121 153 188 238 293 342
#     4   8  18  36  62  80 109 157 191 226 283 348
#     4  11  24  39  58  88 118 150 193 240 288 340
#     4  10  20  38  61  85 115 148 201 232 282 343
#
# _framework density 23.752258999999999
#
# number of rings (size 3 to 8) (size 9 to 14) (size 15 to 20)
#    0.857    1.714    0.000    0.857    4.000    2.286 
#    2.571    7.143    0.000    0.000    0.000    0.000 
#    0.000    0.000    0.000    0.000    0.000    0.000 
#
# Total GULP energy -77977.340936 kJ/mol
# GULP energy per Si atom -5569.810067 kJ/mol
# Density = 2.369820 g / cm^3
# Si number density = 23.752259 Si / 1000 Ang^3
#
#
#
# Elastic Constant Matrix: (Units=GPa)
#
#
# Indices 1 2 3 4 5 6 
#
# 1 113.3968 -2.0975 -9.4180 -14.2939 -10.5269 14.6719
# 2 -2.0975 65.2355 -4.0863 -4.1397 -3.2466 5.6661
# 3 -9.4180 -4.0863 29.0307 -4.1281 6.8925 8.4513
# 4 -14.2939 -4.1397 -4.1281 21.4857 4.1627 1.1470
# 5 -10.5269 -3.2466 6.8925 4.1627 22.9892 -2.3116
# 6 14.6719 5.6661 8.4513 1.1470 -2.3116 34.4754
#
#
#
# Elastic Compliance Matrix: (Units=1/GPa)
#
#
# Indices 1 2 3 4 5 6 
#
# 1 0.011785 0.002174 0.007504 0.009925 0.000904 -0.007482
# 2 0.002174 0.016562 0.005339 0.005909 0.000146 -0.005143
# 3 0.007504 0.005339 0.049419 0.019566 -0.015970 -0.017907
# 4 0.009925 0.005909 0.019566 0.061225 -0.012869 -0.012891
# 5 0.000904 0.000146 -0.015970 -0.012869 0.051796 0.007407
# 6 -0.007482 -0.005143 -0.017907 -0.012891 0.007407 0.038351
#
#
# Mechanical properties :
#
#
# Convention : Reuss Voigt Hill
#
# Bulk Modulus (GPa) = 9.27646 19.60660 14.44153
# Shear Modulus (GPa) = 21.27312 30.67439 25.97375
#
# Velocity S-wave (km/s) = 2.99595 3.59755 3.31044
# Velocity P-wave (km/s) = 3.98517 5.05262 4.55031
#
# Compressibility (1/GPa) = 0.10779973
#
# Stress axis : x y z
#
# Youngs Moduli (GPa) = 84.85309 60.37790 20.23510
#
# Poissons Ratio (x) = -0.13124 -0.15184
# Poissons Ratio (y) = -0.18444 -0.10804
# Poissons Ratio (z) = -0.63673 -0.32236
#
# Static dielectric constant tensor:
#      x y z
#    x 1.928860 -0.018220 -0.027520 
#    y -0.018220 1.959560 0.048230 
#    z -0.027520 0.048230 1.912780 
# 
# From -- ./inp_files/276066.got.cif
#   From: 2010.05.17/outbox.cif.g08.bks.cpg/sg2_139_cif.got.tgz:276066.got - 2010.06.03 11:33:40.
