data_PCOD9101714
_publ_section_title
;
Structure prediction by ZEFSAII (Michael W. Deem and Ramdas Pophale) SiO2 
 PCOD9101714
Probable space group: P -1
;
_chemical_formula_sum "Si O2"
_cell_formula_units_Z 16
_cell_length_a 7.494706
_cell_length_b 10.065949
_cell_length_c 13.615727
_cell_angle_alpha 130.379868
_cell_angle_beta 122.959592
_cell_angle_gamma 48.784824
_cell_volume 576.171669
_symmetry_space_group_name_H-M "P -1"
_symmetry_group_IT_number 2
_symmetry_cell_setting 'triclinic'
loop_
_space_group_symop_operation_xyz
x,y,z
-x,-y,-z
loop_
_atom_site_type_symbol
_atom_site_label
_atom_site_fract_x
_atom_site_fract_y
_atom_site_fract_z
Si Si1 0.780678 0.697891 0.574831
Si Si2 0.984299 0.938729 0.856126
Si Si3 0.484866 0.776157 0.821670
Si Si4 0.297316 0.338341 0.777493
Si Si5 0.745585 0.269528 0.777935
Si Si6 0.229402 0.544973 0.388849
Si Si7 0.800160 0.922706 0.499651
Si Si8 0.255053 0.216524 0.905691
O O1 0.645510 0.603829 0.552886
O O2 0.718261 0.834701 0.525212
O O3 0.000000 0.500000 0.500000
O O4 0.853795 0.810801 0.731759
O O5 0.250030 0.819512 0.833786
O O6 0.845957 0.129907 0.837505
O O7 0.000000 0.000000 0.000000
O O8 0.593383 0.565954 0.700267
O O9 0.392066 0.974649 0.821927
O O10 0.679545 0.763820 0.953830
O O11 0.467342 0.394435 0.789129
O O12 0.329310 0.119806 0.651034
O O13 0.341350 0.319361 0.897938
O O14 0.016617 0.465214 0.724132
O O15 0.965997 0.315785 0.850973
O O16 0.759759 0.134325 0.623579
O O17 0.087876 0.773402 0.493513
#
# Coordination Sequence:
#
# PCOD9101714 Si02
#       8
#     2   2   2   2   2   2   2   2
#     4   9  18  38  61  87 123 158 204 250 303 368
#     4  10  21  36  66  90 117 161 211 257 303 367
#     4  10  22  41  59  89 123 153 209 257 302 361
#     4  10  21  39  61  89 124 162 199 252 313 363
#     4  10  20  38  60  89 122 157 208 248 305 372
#     4   9  21  37  61  86 122 159 196 249 311 363
#     4   8  19  37  59  89 120 160 205 248 304 371
#     4  10  23  38  62  88 118 160 205 256 302 364
#
# _framework density 27.769503
#
# number of rings (size 3 to 8) (size 9 to 14) (size 15 to 20)
#    0.750    1.750    0.000    1.125    8.750    1.000 
#    2.250   10.625    0.000    0.000    0.000    0.000 
#    0.000    0.000    0.000    0.000    0.000    0.000 
#
# Total GULP energy -89428.697656 kJ/mol
# GULP energy per Si atom -5589.293604 kJ/mol
# Density = 2.770630 g / cm^3
# Si number density = 27.769503 Si / 1000 Ang^3
#
#
#
# Elastic Constant Matrix: (Units=GPa)
#
#
# Indices 1 2 3 4 5 6 
#
# 1 100.8511 16.6787 33.4140 6.2105 -21.7755 -31.2147
# 2 16.6787 115.0093 23.1147 -3.1316 -6.1635 -0.9806
# 3 33.4140 23.1147 139.7711 -7.3769 -7.1680 -6.6000
# 4 6.2105 -3.1316 -7.3769 33.4010 -4.0898 -5.5577
# 5 -21.7755 -6.1635 -7.1680 -4.0898 51.4898 -5.6461
# 6 -31.2147 -0.9806 -6.6000 -5.5577 -5.6461 46.8123
#
#
#
# Elastic Compliance Matrix: (Units=1/GPa)
#
#
# Indices 1 2 3 4 5 6 
#
# 1 0.016175 -0.001317 -0.002793 -0.000983 0.007438 0.011144
# 2 -0.001317 0.009156 -0.001174 0.000768 0.000358 -0.000718
# 3 -0.002793 -0.001174 0.008099 0.002104 -0.000083 -0.000505
# 4 -0.000983 0.000768 0.002104 0.031639 0.002895 0.003763
# 5 0.007438 0.000358 -0.000083 0.002895 0.023723 0.008160
# 6 0.011144 -0.000718 -0.000505 0.003763 0.008160 0.030138
#
#
# Mechanical properties :
#
#
# Convention : Reuss Voigt Hill
#
# Bulk Modulus (GPa) = 43.74335 55.78293 49.76314
# Shear Modulus (GPa) = 36.46449 45.16890 40.81669
#
# Velocity S-wave (km/s) = 3.62762 4.03744 3.83801
# Velocity P-wave (km/s) = 5.77345 6.47040 6.13183
#
# Compressibility (1/GPa) = 0.02286062
#
# Stress axis : x y z
#
# Youngs Moduli (GPa) = 61.82497 109.21839 123.46575
#
# Poissons Ratio (x) = 0.14389 0.34485
# Poissons Ratio (y) = 0.08145 0.14498
# Poissons Ratio (z) = 0.17268 0.12825
#
# Static dielectric constant tensor:
#      x y z
#    x 2.340890 -0.088000 0.101570 
#    y -0.088000 2.348110 -0.009910 
#    z 0.101570 -0.009910 2.191200 
# 
# From -- ./inp_files/498369.got.cif
#   From: 2010.05.17/outbox.cif.g08.bks.cpg/sg2_250_cif.got.tgz:498369.got - 2010.06.03 11:33:40.
