data_PCOD9101930
_publ_section_title
;
Structure prediction by ZEFSAII (Michael W. Deem and Ramdas Pophale) SiO2 
 PCOD9101930
Probable space group: P -1
;
_chemical_formula_sum "Si O2"
_cell_formula_units_Z 12
_cell_length_a 7.882759
_cell_length_b 9.274201
_cell_length_c 13.914411
_cell_angle_alpha 137.955583
_cell_angle_beta 51.532985
_cell_angle_gamma 132.843297
_cell_volume 485.094239
_symmetry_space_group_name_H-M "P -1"
_symmetry_group_IT_number 2
_symmetry_cell_setting 'triclinic'
loop_
_space_group_symop_operation_xyz
x,y,z
-x,-y,-z
loop_
_atom_site_type_symbol
_atom_site_label
_atom_site_fract_x
_atom_site_fract_y
_atom_site_fract_z
Si Si1 0.476998 0.172374 0.513637
Si Si2 0.818900 0.051243 0.659962
Si Si3 0.980211 0.396607 0.093116
Si Si4 0.113059 0.308152 0.414844
Si Si5 0.339871 0.455950 0.836529
Si Si6 0.899230 0.608899 0.743648
O O1 0.414190 0.041496 0.370268
O O2 0.675261 0.433885 0.549785
O O3 0.291119 0.250415 0.673365
O O4 0.500000 0.000000 0.500000
O O5 0.787671 0.870318 0.667454
O O6 0.889892 0.319122 0.795168
O O7 0.000000 0.000000 0.500000
O O8 0.971859 0.296458 0.153743
O O9 0.739644 0.358904 0.100850
O O10 0.160260 0.352224 0.936449
O O11 0.009006 0.234048 0.307701
O O12 0.948253 0.376746 0.581025
O O13 0.615810 0.547761 0.818117
#
# Coordination Sequence:
#
# PCOD9101930 Si02
#       6
#     2   2   2   2   2   2
#     4  11  23  40  66  92 122 165 212 259 313 365
#     4  12  21  38  65  95 123 161 210 257 311 369
#     4  11  22  39  63  94 129 169 205 251 312 377
#     4  10  22  37  62  94 127 156 209 268 304 363
#     4  10  22  38  63  93 129 168 207 250 313 372
#     4  10  20  38  61  87 125 163 207 251 308 360
#
# _framework density 24.737458
#
# number of rings (size 3 to 8) (size 9 to 14) (size 15 to 20)
#    0.000    1.333    3.333    3.000    2.333    1.333 
#    0.000    5.833    0.000   14.000    0.000    0.000 
#    0.000    0.000    0.000    0.000    0.000    0.000 
#
# Total GULP energy -66968.019713 kJ/mol
# GULP energy per Si atom -5580.668309 kJ/mol
# Density = 2.468115 g / cm^3
# Si number density = 24.737458 Si / 1000 Ang^3
#
#
#
# Elastic Constant Matrix: (Units=GPa)
#
#
# Indices 1 2 3 4 5 6 
#
# 1 108.3526 34.1584 21.2467 -16.8987 9.1821 -36.9344
# 2 34.1584 97.2652 8.9415 0.4273 3.7784 -19.1183
# 3 21.2467 8.9415 102.4263 -27.2019 -6.5616 2.0286
# 4 -16.8987 0.4273 -27.2019 33.3769 -5.1569 12.9695
# 5 9.1821 3.7784 -6.5616 -5.1569 37.9175 -7.8451
# 6 -36.9344 -19.1183 2.0286 12.9695 -7.8451 42.0570
#
#
#
# Elastic Compliance Matrix: (Units=1/GPa)
#
#
# Indices 1 2 3 4 5 6 
#
# 1 0.014758 -0.002565 -0.003088 0.000262 -0.001417 0.011598
# 2 -0.002565 0.012392 -0.002059 -0.005159 -0.000648 0.004950
# 3 -0.003088 -0.002059 0.014753 0.014190 0.003774 -0.008032
# 4 0.000262 -0.005159 0.014190 0.049211 0.006116 -0.016834
# 5 -0.001417 -0.000648 0.003774 0.006116 0.028624 0.001732
# 6 0.011598 0.004950 -0.008032 -0.016834 0.001732 0.042115
#
#
# Mechanical properties :
#
#
# Convention : Reuss Voigt Hill
#
# Bulk Modulus (GPa) = 37.76831 48.52637 43.14734
# Shear Modulus (GPa) = 26.86667 38.91679 32.89173
#
# Velocity S-wave (km/s) = 3.29914 3.97065 3.65037
# Velocity P-wave (km/s) = 5.46015 6.37813 5.93691
#
# Compressibility (1/GPa) = 0.02647722
#
# Stress axis : x y z
#
# Youngs Moduli (GPa) = 67.76080 80.69612 67.78291
#
# Poissons Ratio (x) = 0.20701 0.20933
# Poissons Ratio (y) = 0.17383 0.13959
# Poissons Ratio (z) = 0.20926 0.16618
#
# Static dielectric constant tensor:
#      x y z
#    x 2.224250 0.029480 -0.049240 
#    y 0.029480 1.999130 -0.044560 
#    z -0.049240 -0.044560 1.973200 
# 
# From -- ./inp_files/285018.got.cif
#   From: 2010.05.17/outbox.cif.g08.bks.cpg/sg2_143_cif.got.tgz:285018.got - 2010.06.03 11:33:40.
