data_PCOD9101821
_publ_section_title
;
Structure prediction by ZEFSAII (Michael W. Deem and Ramdas Pophale) SiO2 
 PCOD9101821
Probable space group: P -1
;
_chemical_formula_sum "Si O2"
_cell_formula_units_Z 16
_cell_length_a 7.773219
_cell_length_b 17.784977
_cell_length_c 21.795373
_cell_angle_alpha 157.766337
_cell_angle_beta 141.101429
_cell_angle_gamma 34.038118
_cell_volume 637.284068
_symmetry_space_group_name_H-M "P -1"
_symmetry_group_IT_number 2
_symmetry_cell_setting 'triclinic'
loop_
_space_group_symop_operation_xyz
x,y,z
-x,-y,-z
loop_
_atom_site_type_symbol
_atom_site_label
_atom_site_fract_x
_atom_site_fract_y
_atom_site_fract_z
Si Si1 0.593081 0.635391 0.815943
Si Si2 0.890354 0.259835 0.024957
Si Si3 0.747534 0.611524 0.566008
Si Si4 0.078245 0.964761 0.602108
Si Si5 0.292204 0.080494 0.119041
Si Si6 0.902145 0.756722 0.297399
Si Si7 0.802935 0.429590 0.938853
Si Si8 0.196686 0.809573 0.715499
O O1 0.361431 0.703527 0.746240
O O2 0.872744 0.665751 0.884801
O O3 0.729955 0.398282 0.707330
O O4 0.452279 0.816817 0.966872
O O5 0.043093 0.163099 0.059312
O O6 0.555799 0.456803 0.089953
O O7 0.910595 0.047442 0.830558
O O8 0.826387 0.794288 0.757008
O O9 0.827702 0.403836 0.478329
O O10 0.000000 0.500000 0.500000
O O11 0.388138 0.757212 0.557085
O O12 0.165582 0.076943 0.652762
O O13 0.841607 0.885231 0.443464
O O14 0.940159 0.161588 0.764159
O O15 0.561143 0.140846 0.217075
O O16 0.800976 0.568502 0.105155
O O17 0.000000 0.500000 0.000000
#
# Coordination Sequence:
#
# PCOD9101821 Si02
#       8
#     2   2   2   2   2   2   2   2
#     4   9  17  39  66  86 116 160 208 254 309 366
#     4   9  20  39  63  92 117 154 213 255 300 376
#     4  12  24  36  61  94 125 156 207 254 311 379
#     4  10  23  40  57  86 125 163 206 247 306 374
#     4   9  20  39  65  90 121 159 200 258 320 359
#     4  10  20  38  61  80 119 170 196 251 307 350
#     4  10  22  38  60  83 126 167 203 247 310 369
#     4   9  19  39  64  89 122 157 198 261 312 365
#
# _framework density 25.106544
#
# number of rings (size 3 to 8) (size 9 to 14) (size 15 to 20)
#    0.000    2.250    1.250    2.625    3.500    3.500 
#    0.000    1.875    2.750    0.000    0.000    0.000 
#    0.000    0.000    0.000    0.000    0.000    0.000 
#
# Total GULP energy -89247.935782 kJ/mol
# GULP energy per Si atom -5577.995986 kJ/mol
# Density = 2.504940 g / cm^3
# Si number density = 25.106544 Si / 1000 Ang^3
#
#
#
# Elastic Constant Matrix: (Units=GPa)
#
#
# Indices 1 2 3 4 5 6 
#
# 1 71.8516 24.1409 17.9220 12.6735 -1.1192 -16.7603
# 2 24.1409 71.7368 36.6692 16.1794 -11.7453 -7.5536
# 3 17.9220 36.6692 159.4006 16.5185 -21.9157 -11.9266
# 4 12.6735 16.1794 16.5185 48.0244 -2.8946 -6.0243
# 5 -1.1192 -11.7453 -21.9157 -2.8946 33.8539 1.9369
# 6 -16.7603 -7.5536 -11.9266 -6.0243 1.9369 31.1265
#
#
#
# Elastic Compliance Matrix: (Units=1/GPa)
#
#
# Indices 1 2 3 4 5 6 
#
# 1 0.017832 -0.004831 -0.000347 -0.002071 -0.001947 0.008017
# 2 -0.004831 0.018491 -0.002760 -0.003775 0.004155 -0.000161
# 3 -0.000347 -0.002760 0.007721 -0.001199 0.003833 0.001631
# 4 -0.002071 -0.003775 -0.001199 0.023292 -0.000279 0.002035
# 5 -0.001947 0.004155 0.003833 -0.000279 0.033414 -0.000704
# 6 0.008017 -0.000161 0.001631 0.002035 -0.000704 0.037468
#
#
# Mechanical properties :
#
#
# Convention : Reuss Voigt Hill
#
# Bulk Modulus (GPa) = 35.50129 51.16149 43.33139
# Shear Modulus (GPa) = 30.58418 37.55142 34.06780
#
# Velocity S-wave (km/s) = 3.49402 3.87160 3.68765
# Velocity P-wave (km/s) = 5.51802 6.35671 5.95215
#
# Compressibility (1/GPa) = 0.02816799
#
# Stress axis : x y z
#
# Youngs Moduli (GPa) = 56.07819 54.07923 129.52147
#
# Poissons Ratio (x) = 0.26127 0.04492
# Poissons Ratio (y) = 0.27093 0.35750
# Poissons Ratio (z) = 0.01945 0.14927
#
# Static dielectric constant tensor:
#      x y z
#    x 1.961120 0.007510 0.014010 
#    y 0.007510 2.043840 -0.111270 
#    z 0.014010 -0.111270 2.240160 
# 
# From -- ./inp_files/238500.got.cif
#   From: 2010.05.17/outbox.cif.g08.bks.cpg/sg2_120_cif.got.tgz:238500.got - 2010.06.03 11:33:40.
