data_PCOD9101760
_publ_section_title
;
Structure prediction by ZEFSAII (Michael W. Deem and Ramdas Pophale) SiO2 
 PCOD9101760
Probable space group: P -1
;
_chemical_formula_sum "Si O2"
_cell_formula_units_Z 16
_cell_length_a 9.508352
_cell_length_b 8.893114
_cell_length_c 10.274256
_cell_angle_alpha 111.288408
_cell_angle_beta 90.001609
_cell_angle_gamma 116.255472
_cell_volume 712.442180
_symmetry_space_group_name_H-M "P -1"
_symmetry_group_IT_number 2
_symmetry_cell_setting 'triclinic'
loop_
_space_group_symop_operation_xyz
x,y,z
-x,-y,-z
loop_
_atom_site_type_symbol
_atom_site_label
_atom_site_fract_x
_atom_site_fract_y
_atom_site_fract_z
Si Si1 0.903211 0.825191 0.337165
Si Si2 0.302900 0.509442 0.263903
Si Si3 0.314880 0.355939 0.961165
Si Si4 0.205084 0.971777 0.968061
Si Si5 0.795356 0.323457 0.296386
Si Si6 0.387042 0.440459 0.607925
Si Si7 0.870741 0.301082 0.577849
Si Si8 0.904060 0.875773 0.766746
O O1 0.795926 0.685858 0.178639
O O2 0.770104 0.756091 0.430129
O O3 0.056355 0.812031 0.385783
O O4 0.985642 0.016177 0.319864
O O5 0.486137 0.557556 0.287411
O O6 0.269936 0.675869 0.346855
O O7 0.210516 0.340986 0.313126
O O8 0.242868 0.430227 0.096769
O O9 0.302490 0.165983 0.955768
O O10 0.500000 0.500000 0.000000
O O11 0.252707 0.821153 0.867582
O O12 0.029039 0.889284 0.880878
O O13 0.189979 0.023571 0.134635
O O14 0.676737 0.411681 0.329924
O O15 0.808296 0.243216 0.412195
O O16 0.974406 0.495494 0.344647
O O17 0.500000 0.500000 0.500000
#
# Coordination Sequence:
#
# PCOD9101760 Si02
#       8
#     2   2   2   2   2   2   2   2
#     4  10  22  39  61  95 119 158 210 253 304 361
#     4  11  20  39  65  88 121 167 202 245 317 369
#     4  10  20  38  62  92 125 160 200 253 314 370
#     4   9  18  36  64  90 121 164 202 250 309 365
#     4  10  20  38  60  91 122 160 212 250 303 365
#     4  11  22  39  63  88 122 167 208 249 309 373
#     4  10  21  36  62  90 120 161 210 255 297 362
#     4   9  19  37  62  90 124 158 202 254 309 364
#
# _framework density 22.457962999999999
#
# number of rings (size 3 to 8) (size 9 to 14) (size 15 to 20)
#    0.000    2.000    3.750    0.750    0.000    0.500 
#    2.250    9.375    0.000    4.500    0.000    0.000 
#    0.000    0.000    0.000    0.000    0.000    0.000 
#
# Total GULP energy -89128.503946 kJ/mol
# GULP energy per Si atom -5570.531497 kJ/mol
# Density = 2.240685 g / cm^3
# Si number density = 22.457963 Si / 1000 Ang^3
#
#
#
# Elastic Constant Matrix: (Units=GPa)
#
#
# Indices 1 2 3 4 5 6 
#
# 1 133.5472 34.3538 32.4128 3.3163 -7.7020 -9.5567
# 2 34.3538 56.9998 19.8220 -3.7210 -12.6165 17.1186
# 3 32.4128 19.8220 87.7640 -3.8849 -13.6070 -2.4129
# 4 3.3163 -3.7210 -3.8849 32.8995 -2.7714 -1.2410
# 5 -7.7020 -12.6165 -13.6070 -2.7714 40.4067 5.1469
# 6 -9.5567 17.1186 -2.4129 -1.2410 5.1469 28.4805
#
#
#
# Elastic Compliance Matrix: (Units=1/GPa)
#
#
# Indices 1 2 3 4 5 6 
#
# 1 0.011110 -0.009712 -0.002221 -0.002369 -0.003077 0.009830
# 2 -0.009712 0.035458 -0.003109 0.004614 0.011902 -0.026784
# 3 -0.002221 -0.003109 0.013519 0.001794 0.003053 0.001795
# 4 -0.002369 0.004614 0.001794 0.031610 0.004116 -0.002783
# 5 -0.003077 0.011902 0.003053 0.004116 0.030886 -0.013330
# 6 0.009830 -0.026784 0.001795 -0.002783 -0.013330 0.056949
#
#
# Mechanical properties :
#
#
# Convention : Reuss Voigt Hill
#
# Bulk Modulus (GPa) = 33.32952 50.16533 41.74743
# Shear Modulus (GPa) = 22.76696 33.13883 27.95290
#
# Velocity S-wave (km/s) = 3.18741 3.84551 3.53182
# Velocity P-wave (km/s) = 5.33097 6.48870 5.93812
#
# Compressibility (1/GPa) = 0.03000343
#
# Stress axis : x y z
#
# Youngs Moduli (GPa) = 90.00747 28.20251 73.97133
#
# Poissons Ratio (x) = 0.27389 0.16433
# Poissons Ratio (y) = 0.87412 0.22994
# Poissons Ratio (z) = 0.19995 0.08767
#
# Static dielectric constant tensor:
#      x y z
#    x 1.838340 -0.021210 -0.046430 
#    y -0.021210 1.874330 -0.014190 
#    z -0.046430 -0.014190 1.970070 
# 
# From -- ./inp_files/379974.got.cif
#   From: 2010.05.17/outbox.cif.g08.bks.cpg/sg2_190_cif.got.tgz:379974.got - 2010.06.03 11:33:40.
