data_PCOD9101740
_publ_section_title
;
Structure prediction by ZEFSAII (Michael W. Deem and Ramdas Pophale) SiO2 
 PCOD9101740
Probable space group: P -1
;
_chemical_formula_sum "Si O2"
_cell_formula_units_Z 16
_cell_length_a 16.859007
_cell_length_b 21.709609
_cell_length_c 10.004545
_cell_angle_alpha 32.840870
_cell_angle_beta 146.079361
_cell_angle_gamma 156.731758
_cell_volume 755.185816
_symmetry_space_group_name_H-M "P -1"
_symmetry_group_IT_number 2
_symmetry_cell_setting 'triclinic'
loop_
_space_group_symop_operation_xyz
x,y,z
-x,-y,-z
loop_
_atom_site_type_symbol
_atom_site_label
_atom_site_fract_x
_atom_site_fract_y
_atom_site_fract_z
Si Si1 0.868967 0.993866 0.028554
Si Si2 0.492543 0.083578 0.217219
Si Si3 0.524031 0.476189 0.923820
Si Si4 0.160313 0.761965 0.175723
Si Si5 0.847014 0.490376 0.450387
Si Si6 0.068907 0.191717 0.678048
Si Si7 0.961948 0.364477 0.271048
Si Si8 0.902691 0.820687 0.732496
O O1 0.928135 0.896803 0.275557
O O2 0.643817 0.890652 0.964302
O O3 0.024447 0.146357 0.070262
O O4 0.909340 0.062826 0.809596
O O5 0.727490 0.240203 0.220628
O O6 0.500000 0.000000 0.500000
O O7 0.368055 0.949044 0.168940
O O8 0.302046 0.324103 0.823584
O O9 0.657605 0.648482 0.713159
O O10 0.500000 0.500000 0.000000
O O11 0.662174 0.442361 0.196161
O O12 0.185942 0.664346 0.302028
O O13 0.053051 0.644286 0.373297
O O14 0.010301 0.776229 0.891488
O O15 0.885308 0.559530 0.526206
O O16 0.001954 0.278892 0.391355
O O17 0.000000 0.500000 0.000000
O O18 0.000000 0.000000 0.500000
#
# Coordination Sequence:
#
# PCOD9101740 Si02
#       8
#     2   2   2   2   2   2   2   2
#     4  10  22  38  63  90 118 155 201 252 285 354
#     4  11  20  39  62  85 116 157 201 234 293 355
#     4  11  20  37  63  82 113 157 194 243 287 347
#     4   9  20  36  63  88 110 150 204 248 277 351
#     4  10  20  38  60  90 115 149 203 242 294 344
#     4  11  22  39  61  95 119 151 207 245 299 347
#     4  12  25  40  59  89 130 157 188 250 304 354
#     4  10  21  39  59  86 121 155 192 243 299 348
#
# _framework density 21.186837000000001
#
# number of rings (size 3 to 8) (size 9 to 14) (size 15 to 20)
#    0.000    1.500    5.000    0.750    1.750    4.000 
#    0.000    1.875    0.000    0.000    0.000    0.000 
#    0.000    0.000    0.000    0.000    0.000    0.000 
#
# Total GULP energy -89260.540969 kJ/mol
# GULP energy per Si atom -5578.783811 kJ/mol
# Density = 2.113861 g / cm^3
# Si number density = 21.186837 Si / 1000 Ang^3
#
#
#
# Elastic Constant Matrix: (Units=GPa)
#
#
# Indices 1 2 3 4 5 6 
#
# 1 56.1924 31.1277 24.5082 -6.6344 33.3719 -4.5469
# 2 31.1277 87.5537 32.2874 -4.4005 9.7270 25.1618
# 3 24.5082 32.2874 96.1135 -28.8450 28.4246 13.9963
# 4 -6.6344 -4.4005 -28.8450 35.1917 -4.4896 2.2039
# 5 33.3719 9.7270 28.4246 -4.4896 40.2922 -6.0099
# 6 -4.5469 25.1618 13.9963 2.2039 -6.0099 24.5266
#
#
#
# Elastic Compliance Matrix: (Units=1/GPa)
#
#
# Indices 1 2 3 4 5 6 
#
# 1 0.052127 -0.021239 0.002596 0.003355 -0.036410 0.020748
# 2 -0.021239 0.027011 -0.001491 0.000974 0.007913 -0.028945
# 3 0.002596 -0.001491 0.024453 0.018992 -0.019680 -0.018473
# 4 0.003355 0.000974 0.018992 0.044084 -0.014286 -0.018677
# 5 -0.036410 0.007913 -0.019680 -0.014286 0.067472 0.014179
# 6 0.020748 -0.028945 -0.018473 -0.018677 0.014179 0.090008
#
#
# Mechanical properties :
#
#
# Convention : Reuss Voigt Hill
#
# Bulk Modulus (GPa) = 15.79187 46.18957 30.99072
# Shear Modulus (GPa) = 13.64139 30.13119 21.88629
#
# Velocity S-wave (km/s) = 2.54020 3.77525 3.21754
# Velocity P-wave (km/s) = 4.00915 6.39154 5.33503
#
# Compressibility (1/GPa) = 0.06332374
#
# Stress axis : x y z
#
# Youngs Moduli (GPa) = 19.18374 37.02227 40.89406
#
# Poissons Ratio (x) = 0.78632 -0.10616
# Poissons Ratio (y) = 0.40745 0.06096
# Poissons Ratio (z) = -0.04980 0.05519
#
# Static dielectric constant tensor:
#      x y z
#    x 1.813760 0.004980 0.044800 
#    y 0.004980 1.763010 -0.002770 
#    z 0.044800 -0.002770 1.814670 
# 
# From -- ./inp_files/333723.got.cif
#   From: 2010.05.17/outbox.cif.g08.bks.cpg/sg2_167_cif.got.tgz:333723.got - 2010.06.03 11:33:40.
