data_PCOD9101403
_publ_section_title
;
Structure prediction by ZEFSAII (Michael W. Deem and Ramdas Pophale) SiO2 
 PCOD9101403
Probable space group: P -1
;
_chemical_formula_sum "Si O2"
_cell_formula_units_Z 14
_cell_length_a 15.420897
_cell_length_b 27.515222
_cell_length_c 27.771453
_cell_angle_alpha 169.787354
_cell_angle_beta 21.296015
_cell_angle_gamma 161.063047
_cell_volume 677.956092
_symmetry_space_group_name_H-M "P -1"
_symmetry_group_IT_number 2
_symmetry_cell_setting 'triclinic'
loop_
_space_group_symop_operation_xyz
x,y,z
-x,-y,-z
loop_
_atom_site_type_symbol
_atom_site_label
_atom_site_fract_x
_atom_site_fract_y
_atom_site_fract_z
Si Si1 0.211985 0.180616 0.108090
Si Si2 0.284882 0.866179 0.023826
Si Si3 0.821519 0.644776 0.257531
Si Si4 0.122199 0.568772 0.607184
Si Si5 0.824177 0.953603 0.295752
Si Si6 0.637881 0.641865 0.458468
Si Si7 0.244809 0.550806 0.233574
O O1 0.515366 0.452658 0.208058
O O2 0.063976 0.341507 0.371518
O O3 0.249671 0.917225 0.861817
O O4 0.000000 0.000000 0.000000
O O5 0.279869 0.548466 0.732091
O O6 0.027692 0.879747 0.148456
O O7 0.500000 0.000000 0.000000
O O8 0.332425 0.055813 0.234005
O O9 0.782986 0.648667 0.339406
O O10 0.000000 0.000000 0.500000
O O11 0.000000 0.500000 0.000000
O O12 0.328010 0.495456 0.460891
O O13 0.875323 0.513907 0.714794
O O14 0.547164 0.812281 0.330170
O O15 0.906788 0.302206 0.578083
O O16 0.772977 0.754597 0.079379
#
# Coordination Sequence:
#
# PCOD9101403 Si02
#       7
#     2   2   2   2   2   2   2
#     4  11  24  43  66  98 129 158 222 275 321 391
#     4  12  22  37  59  93 129 162 208 264 317 362
#     4  11  23  45  69  92 128 178 211 267 340 389
#     4  11  21  40  65  89 124 167 212 259 323 384
#     4  10  21  36  57  84 126 162 210 258 301 380
#     4  11  23  39  62  91 124 164 216 255 310 405
#     4  10  20  38  59  83 119 171 209 248 319 369
#
# _framework density 20.650304999999999
#
# number of rings (size 3 to 8) (size 9 to 14) (size 15 to 20)
#    0.000    1.143    0.000    8.571    0.000    0.000 
#    7.714    0.000    0.000    0.000    0.000    0.000 
#    0.000    0.000    0.000    0.000    0.000    0.000 
#
# Total GULP energy -78096.892460 kJ/mol
# GULP energy per Si atom -5578.349461 kJ/mol
# Density = 2.060330 g / cm^3
# Si number density = 20.650305 Si / 1000 Ang^3
#
#
#
# Elastic Constant Matrix: (Units=GPa)
#
#
# Indices 1 2 3 4 5 6 
#
# 1 60.1914 59.3378 12.1299 -6.4758 3.4610 4.6550
# 2 59.3378 119.0006 34.0131 -15.1614 10.8569 -14.1531
# 3 12.1299 34.0131 119.1888 -1.7362 10.5002 -8.9339
# 4 -6.4758 -15.1614 -1.7362 32.8280 -5.0643 8.3185
# 5 3.4610 10.8569 10.5002 -5.0643 49.6142 -6.8457
# 6 4.6550 -14.1531 -8.9339 8.3185 -6.8457 27.2033
#
#
#
# Elastic Compliance Matrix: (Units=1/GPa)
#
#
# Indices 1 2 3 4 5 6 
#
# 1 0.039926 -0.022053 0.000894 0.002446 -0.000505 -0.018887
# 2 -0.022053 0.022200 -0.002994 0.002230 -0.000595 0.013509
# 3 0.000894 -0.002994 0.009358 -0.001275 -0.001322 0.001420
# 4 0.002446 0.002230 -0.001275 0.034674 0.001794 -0.009829
# 5 -0.000505 -0.000595 -0.001322 0.001794 0.021359 0.004169
# 6 -0.018887 0.013509 0.001420 -0.009829 0.004169 0.051542
#
#
# Mechanical properties :
#
#
# Convention : Reuss Voigt Hill
#
# Bulk Modulus (GPa) = 43.14018 56.59361 49.86689
# Shear Modulus (GPa) = 21.26845 34.78909 28.02877
#
# Velocity S-wave (km/s) = 3.21274 4.10893 3.68816
# Velocity P-wave (km/s) = 5.89054 7.06939 6.50672
#
# Compressibility (1/GPa) = 0.02318024
#
# Stress axis : x y z
#
# Youngs Moduli (GPa) = 25.04605 45.04452 106.86472
#
# Poissons Ratio (x) = 0.99336 -0.09558
# Poissons Ratio (y) = 0.55234 0.31990
# Poissons Ratio (z) = -0.02240 0.13484
#
# Static dielectric constant tensor:
#      x y z
#    x 1.794220 0.006650 0.016070 
#    y 0.006650 1.738710 -0.002560 
#    z 0.016070 -0.002560 1.758310 
# 
# From -- ./inp_files/533738.got.cif
#   From: 2010.05.17/outbox.cif.g08.bks.cpg/sg2_267_cif.got.tgz:533738.got - 2010.06.03 11:33:40.
