data_PCOD9101743
_publ_section_title
;
Structure prediction by ZEFSAII (Michael W. Deem and Ramdas Pophale) SiO2 
 PCOD9101743
Probable space group: P -1
;
_chemical_formula_sum "Si O2"
_cell_formula_units_Z 13
_cell_length_a 9.132550
_cell_length_b 9.446017
_cell_length_c 9.853053
_cell_angle_alpha 69.184055
_cell_angle_beta 131.689832
_cell_angle_gamma 77.038876
_cell_volume 445.760198
_symmetry_space_group_name_H-M "P -1"
_symmetry_group_IT_number 2
_symmetry_cell_setting 'triclinic'
loop_
_space_group_symop_operation_xyz
x,y,z
-x,-y,-z
loop_
_atom_site_type_symbol
_atom_site_label
_atom_site_fract_x
_atom_site_fract_y
_atom_site_fract_z
Si Si1 0.307481 0.118097 0.966449
Si Si2 0.226003 0.723420 0.772570
Si Si3 0.798770 0.193410 0.679656
Si Si4 0.096315 0.405618 0.401177
Si Si5 0.000000 0.500000 0.000000
Si Si6 0.413688 0.662755 0.204328
Si Si7 0.560397 0.143933 0.343606
O O1 0.134183 0.361801 0.771574
O O2 0.083513 0.106765 0.843833
O O3 0.472942 0.046946 0.232316
O O4 0.500000 0.000000 0.000000
O O5 0.260248 0.849254 0.652274
O O6 0.009878 0.710111 0.604305
O O7 0.500000 0.500000 0.000000
O O8 0.241140 0.746304 0.934573
O O9 0.592680 0.420282 0.412158
O O10 0.758214 0.235354 0.800462
O O11 0.721637 0.071702 0.607219
O O12 0.141605 0.410108 0.267132
O O13 0.364265 0.322878 0.662545
O O14 0.279885 0.352110 0.142832
#
# Coordination Sequence:
#
# PCOD9101743 Si02
#       7
#     2   2   2   2   1   2   2
#     4  10  22  35  54  82 113 151 191 227 265 325
#     4  12  21  33  53  87 121 142 167 230 303 326
#     4  10  20  33  57  83 110 147 185 231 276 324
#     4  10  21  34  56  82 118 142 179 229 280 336
#     4  10  16  32  54  80 110 140 172 226 274 320
#     4  10  20  32  54  87 115 138 179 227 289 340
#     4  11  22  37  56  86 118 143 182 233 280 333
#
# _framework density 29.163665000000002
#
# number of rings (size 3 to 8) (size 9 to 14) (size 15 to 20)
#    0.000    1.538    6.154    0.000    8.615    2.462 
#    0.000    0.000    0.000    0.923    0.000    3.231 
#    0.000    0.000    0.000    0.000    0.000    0.000 
#
# Total GULP energy -72744.880256 kJ/mol
# GULP energy per Si atom -5595.760020 kJ/mol
# Density = 2.909729 g / cm^3
# Si number density = 29.163665 Si / 1000 Ang^3
#
#
#
# Elastic Constant Matrix: (Units=GPa)
#
#
# Indices 1 2 3 4 5 6 
#
# 1 165.8576 88.7475 57.1991 4.5803 10.9249 -51.4899
# 2 88.7475 155.5928 66.3749 24.2986 17.9918 -26.0292
# 3 57.1991 66.3749 139.9700 23.5360 25.2607 -20.5478
# 4 4.5803 24.2986 23.5360 60.2287 -1.6213 0.2816
# 5 10.9249 17.9918 25.2607 -1.6213 73.3850 -5.4729
# 6 -51.4899 -26.0292 -20.5478 0.2816 -5.4729 71.4430
#
#
#
# Elastic Compliance Matrix: (Units=1/GPa)
#
#
# Indices 1 2 3 4 5 6 
#
# 1 0.010894 -0.004895 -0.001725 0.001811 0.000631 0.005613
# 2 -0.004895 0.010819 -0.002458 -0.003062 -0.001173 -0.000371
# 3 -0.001725 -0.002458 0.010056 -0.002880 -0.002623 0.000563
# 4 0.001811 -0.003062 -0.002880 0.018879 0.001847 -0.000571
# 5 0.000631 -0.001173 -0.002623 0.001847 0.014794 0.000399
# 6 0.005613 -0.000371 0.000563 -0.000571 0.000399 0.018103
#
#
# Mechanical properties :
#
#
# Convention : Reuss Voigt Hill
#
# Bulk Modulus (GPa) = 73.45940 98.45148 85.95544
# Shear Modulus (GPa) = 47.06380 57.61793 52.34087
#
# Velocity S-wave (km/s) = 4.02155 4.44968 4.24102
# Velocity P-wave (km/s) = 6.84158 7.76087 7.31568
#
# Compressibility (1/GPa) = 0.01361296
#
# Stress axis : x y z
#
# Youngs Moduli (GPa) = 91.78998 92.42669 99.44784
#
# Poissons Ratio (x) = 0.45240 0.17157
# Poissons Ratio (y) = 0.44929 0.24447
# Poissons Ratio (z) = 0.15836 0.22721
#
# Static dielectric constant tensor:
#      x y z
#    x 2.189690 0.095750 -0.082580 
#    y 0.095750 2.378920 -0.078340 
#    z -0.082580 -0.078340 2.253380 
# 
# From -- ./inp_files/178321.got.cif
#   From: 2010.05.17/outbox.cif.g08.bks.cpg/sg2_90_cif.got.tgz:178321.got - 2010.06.03 11:33:40.
