data_PCOD9101364
_publ_section_title
;
Structure prediction by ZEFSAII (Michael W. Deem and Ramdas Pophale) SiO2 
 PCOD9101364
Probable space group: P -1
;
_chemical_formula_sum "Si O2"
_cell_formula_units_Z 14
_cell_length_a 8.179463
_cell_length_b 16.540234
_cell_length_c 12.030561
_cell_angle_alpha 144.976299
_cell_angle_beta 129.951788
_cell_angle_gamma 50.861677
_cell_volume 695.251572
_symmetry_space_group_name_H-M "P -1"
_symmetry_group_IT_number 2
_symmetry_cell_setting 'triclinic'
loop_
_space_group_symop_operation_xyz
x,y,z
-x,-y,-z
loop_
_atom_site_type_symbol
_atom_site_label
_atom_site_fract_x
_atom_site_fract_y
_atom_site_fract_z
Si Si1 0.660586 0.925512 0.886807
Si Si2 0.254702 0.552812 0.803155
Si Si3 0.976513 0.860469 0.405732
Si Si4 0.511680 0.010492 0.359777
Si Si5 0.326615 0.692255 0.219301
Si Si6 0.030635 0.078015 0.280953
Si Si7 0.025898 0.316365 0.359577
O O1 0.763692 0.755021 0.709551
O O2 0.539859 0.987656 0.791261
O O3 0.500000 0.000000 0.000000
O O4 0.885434 0.974266 0.057597
O O5 0.487017 0.438520 0.795518
O O6 0.193736 0.645430 0.768084
O O7 0.078741 0.453771 0.600346
O O8 0.240422 0.652707 0.018005
O O9 0.717274 0.877260 0.320442
O O10 0.056180 0.868777 0.575264
O O11 0.123071 0.728238 0.255148
O O12 0.000000 0.000000 0.500000
O O13 0.573964 0.164664 0.584869
O O14 0.289598 0.003891 0.317835
O O15 0.014150 0.202913 0.323306
#
# Coordination Sequence:
#
# PCOD9101364 Si02
#       7
#     2   2   2   2   2   2   2
#     4  11  22  37  64  91 121 153 201 260 312 359
#     4  10  21  39  66  83 125 168 211 233 300 365
#     4  10  22  37  62  90 121 156 202 257 308 352
#     4  10  20  38  58  95 121 156 200 252 312 355
#     4  10  20  39  63  89 119 164 209 247 291 363
#     4  11  22  40  61  91 127 153 200 260 311 362
#     4  10  22  40  62  90 119 168 206 244 301 366
#
# _framework density 20.136595
#
# number of rings (size 3 to 8) (size 9 to 14) (size 15 to 20)
#    0.000    1.714    2.857    3.857    6.000    0.000 
#    2.571    1.429    0.000    0.000    0.000    0.000 
#    0.000    0.000    0.000    0.000    0.000    0.000 
#
# Total GULP energy -78055.754377 kJ/mol
# GULP energy per Si atom -5575.411027 kJ/mol
# Density = 2.009076 g / cm^3
# Si number density = 20.136595 Si / 1000 Ang^3
#
#
#
# Elastic Constant Matrix: (Units=GPa)
#
#
# Indices 1 2 3 4 5 6 
#
# 1 81.9029 22.4432 52.6451 -6.0870 -16.8930 1.4219
# 2 22.4432 94.7435 29.4098 -28.7265 -16.0816 1.4064
# 3 52.6451 29.4098 136.4680 -30.1926 -21.5126 -10.5147
# 4 -6.0870 -28.7265 -30.1926 32.6314 3.6360 -0.1577
# 5 -16.8930 -16.0816 -21.5126 3.6360 32.7599 -10.0049
# 6 1.4219 1.4064 -10.5147 -0.1577 -10.0049 20.1853
#
#
#
# Elastic Compliance Matrix: (Units=1/GPa)
#
#
# Indices 1 2 3 4 5 6 
#
# 1 0.018221 -0.003729 -0.007894 -0.007421 0.001908 -0.004248
# 2 -0.003729 0.016558 0.002944 0.015758 0.007805 0.004634
# 3 -0.007894 0.002944 0.015596 0.014482 0.010171 0.013630
# 4 -0.007421 0.015758 0.014482 0.055343 0.011237 0.012971
# 5 0.001908 0.007805 0.010171 0.011237 0.049739 0.029361
# 6 -0.004248 0.004634 0.013630 0.012971 0.029361 0.071272
#
#
# Mechanical properties :
#
#
# Convention : Reuss Voigt Hill
#
# Bulk Modulus (GPa) = 30.28738 58.01229 44.14983
# Shear Modulus (GPa) = 19.60065 31.02306 25.31186
#
# Velocity S-wave (km/s) = 3.12330 3.92935 3.54928
# Velocity P-wave (km/s) = 5.29908 7.03266 6.22650
#
# Compressibility (1/GPa) = 0.03301705
#
# Stress axis : x y z
#
# Youngs Moduli (GPa) = 54.88108 60.39344 64.11849
#
# Poissons Ratio (x) = 0.22521 0.50615
# Poissons Ratio (y) = 0.20466 -0.18875
# Poissons Ratio (z) = 0.43323 -0.17779
#
# Static dielectric constant tensor:
#      x y z
#    x 1.731740 -0.019070 -0.002710 
#    y -0.019070 1.775140 0.012320 
#    z -0.002710 0.012320 1.740100 
# 
# From -- ./inp_files/155485.got.cif
#   From: 2010.05.17/outbox.cif.g08.bks.cpg/sg2_78_cif.got.tgz:155485.got - 2010.06.03 11:33:40.
