data_PCOD9101146
_publ_section_title
;
Structure prediction by ZEFSAII (Michael W. Deem and Ramdas Pophale) SiO2 
 PCOD9101146
Probable space group: P -1
;
_chemical_formula_sum "Si O2"
_cell_formula_units_Z 14
_cell_length_a 21.779988
_cell_length_b 6.568477
_cell_length_c 7.183598
_cell_angle_alpha 90.955645
_cell_angle_beta 114.608878
_cell_angle_gamma 47.718179
_cell_volume 636.034631
_symmetry_space_group_name_H-M "P -1"
_symmetry_group_IT_number 2
_symmetry_cell_setting 'triclinic'
loop_
_space_group_symop_operation_xyz
x,y,z
-x,-y,-z
loop_
_atom_site_type_symbol
_atom_site_label
_atom_site_fract_x
_atom_site_fract_y
_atom_site_fract_z
Si Si1 0.586139 0.856309 0.251062
Si Si2 0.172985 0.570430 0.180509
Si Si3 0.706549 0.307229 0.141191
Si Si4 0.995773 0.971879 0.761152
Si Si5 0.311109 0.964529 0.553165
Si Si6 0.065766 0.169351 0.646723
Si Si7 0.651109 0.498139 0.671350
O O1 0.603934 0.053161 0.317310
O O2 0.573473 0.769785 0.431290
O O3 0.681895 0.547950 0.256625
O O4 0.500000 0.000000 0.000000
O O5 0.217683 0.302496 0.368970
O O6 0.259597 0.531669 0.227889
O O7 0.086214 0.879740 0.183265
O O8 0.105164 0.633765 0.928254
O O9 0.637434 0.483466 0.872928
O O10 0.695186 0.138167 0.259902
O O11 0.817668 0.048441 0.196331
O O12 0.943981 0.983075 0.522530
O O13 0.016309 0.166116 0.758372
O O14 0.326076 0.764205 0.408071
O O15 0.000000 0.500000 0.500000
#
# Coordination Sequence:
#
# PCOD9101146 Si02
#       7
#     2   2   2   2   2   2   2
#     4  10  24  46  68  91 122 158 199 255 318 377
#     4  10  20  38  56  82 123 167 206 252 300 351
#     4  11  23  41  62  93 129 158 209 258 300 367
#     4  10  21  34  55  81 119 166 212 250 292 350
#     4  10  22  39  64  88 120 163 199 250 317 364
#     4  11  22  35  54  89 123 163 208 251 293 350
#     4  10  22  40  63  93 126 157 207 255 303 371
#
# _framework density 22.011379999999999
#
# number of rings (size 3 to 8) (size 9 to 14) (size 15 to 20)
#    0.000    1.714    1.429    3.429    2.000    6.286 
#    0.000    5.000    0.000    0.000    0.000    0.000 
#    0.000    0.000    0.000    0.000    0.000    0.000 
#
# Total GULP energy -78019.297169 kJ/mol
# GULP energy per Si atom -5572.806941 kJ/mol
# Density = 2.196128 g / cm^3
# Si number density = 22.011380 Si / 1000 Ang^3
#
#
#
# Elastic Constant Matrix: (Units=GPa)
#
#
# Indices 1 2 3 4 5 6 
#
# 1 47.1528 28.8135 36.4397 -10.7822 -23.2841 7.6158
# 2 28.8135 54.9083 18.2985 -3.3650 -18.9120 11.6879
# 3 36.4397 18.2985 148.8851 -4.7905 -30.2807 12.5245
# 4 -10.7822 -3.3650 -4.7905 27.4020 -0.7524 -5.1937
# 5 -23.2841 -18.9120 -30.2807 -0.7524 50.3224 -4.7854
# 6 7.6158 11.6879 12.5245 -5.1937 -4.7854 25.3168
#
#
#
# Elastic Compliance Matrix: (Units=1/GPa)
#
#
# Indices 1 2 3 4 5 6 
#
# 1 0.045459 -0.017563 -0.006467 0.015451 0.011048 0.002890
# 2 -0.017563 0.029664 0.001975 -0.004681 0.003214 -0.009741
# 3 -0.006467 0.001975 0.008835 -0.001265 0.002755 -0.003076
# 4 0.015451 -0.004681 -0.001265 0.043500 0.006060 0.008208
# 5 0.011048 0.003214 0.002755 0.006060 0.027974 0.000361
# 6 0.002890 -0.009741 -0.003076 0.008208 0.000361 0.046401
#
#
# Mechanical properties :
#
#
# Convention : Reuss Voigt Hill
#
# Bulk Modulus (GPa) = 25.09447 46.44997 35.77222
# Shear Modulus (GPa) = 19.28830 31.76787 25.52808
#
# Velocity S-wave (km/s) = 2.96343 3.80313 3.40923
# Velocity P-wave (km/s) = 4.80985 6.35874 5.63774
#
# Compressibility (1/GPa) = 0.03984941
#
# Stress axis : x y z
#
# Youngs Moduli (GPa) = 21.99786 33.71093 113.18708
#
# Poissons Ratio (x) = 0.59206 0.73193
# Poissons Ratio (y) = 0.38635 -0.22358
# Poissons Ratio (z) = 0.14225 -0.06659
#
# Static dielectric constant tensor:
#      x y z
#    x 1.883980 -0.046590 -0.083810 
#    y -0.046590 1.813710 0.014430 
#    z -0.083810 0.014430 2.018250 
# 
# From -- ./inp_files/339672.got.cif
#   From: 2010.05.17/outbox.cif.g08.bks.cpg/sg2_170_cif.got.tgz:339672.got - 2010.06.03 11:33:40.
