data_PCOD9101301
_publ_section_title
;
Structure prediction by ZEFSAII (Michael W. Deem and Ramdas Pophale) SiO2 
 PCOD9101301
Probable space group: P -1
;
_chemical_formula_sum "Si O2"
_cell_formula_units_Z 16
_cell_length_a 11.809134
_cell_length_b 15.128924
_cell_length_c 9.753829
_cell_angle_alpha 49.198316
_cell_angle_beta 66.347237
_cell_angle_gamma 37.668133
_cell_volume 780.315852
_symmetry_space_group_name_H-M "P -1"
_symmetry_group_IT_number 2
_symmetry_cell_setting 'triclinic'
loop_
_space_group_symop_operation_xyz
x,y,z
-x,-y,-z
loop_
_atom_site_type_symbol
_atom_site_label
_atom_site_fract_x
_atom_site_fract_y
_atom_site_fract_z
Si Si1 0.158671 0.453911 0.560775
Si Si2 0.157383 0.104834 0.372302
Si Si3 0.876003 0.846683 0.246636
Si Si4 0.420279 0.140380 0.554509
Si Si5 0.008570 0.784562 0.954131
Si Si6 0.775013 0.131594 0.191897
Si Si7 0.353995 0.369070 0.119744
Si Si8 0.867840 0.513458 0.145457
O O1 0.351162 0.279805 0.566204
O O2 0.161375 0.419646 0.754426
O O3 0.000000 0.500000 0.500000
O O4 0.080601 0.642036 0.395716
O O5 0.983883 0.308459 0.306579
O O6 0.353829 0.035582 0.360531
O O7 0.183021 0.970791 0.585647
O O8 0.110543 0.112277 0.230637
O O9 0.707732 0.883134 0.346737
O O10 0.876317 0.845823 0.083551
O O11 0.847246 0.993737 0.176260
O O12 0.376605 0.237267 0.334790
O O13 0.168054 0.571409 0.060279
O O14 0.120411 0.821199 0.903148
O O15 0.546157 0.304517 0.112819
O O16 0.319305 0.369109 0.976026
O O17 0.000000 0.500000 0.000000
#
# Coordination Sequence:
#
# PCOD9101301 Si02
#       8
#     2   2   2   2   2   2   2   2
#     4  10  20  38  58  86 123 161 186 242 309 362
#     4  10  24  39  62  93 119 158 200 258 299 353
#     4  11  22  37  62  89 122 159 198 247 310 358
#     4  10  22  40  62  92 124 155 197 248 319 360
#     4  11  23  42  62  87 123 164 208 242 296 357
#     4  11  23  42  63  87 121 165 208 247 289 359
#     4  10  23  39  64  92 117 160 203 254 297 355
#     4  11  22  36  61  92 124 152 197 248 308 363
#
# _framework density 20.504515000000001
#
# number of rings (size 3 to 8) (size 9 to 14) (size 15 to 20)
#    0.000    1.500    2.500    2.625    7.000    2.500 
#    0.000    0.000    0.000    1.500    0.000    0.000 
#    0.000    0.000    0.000    0.000    0.000    0.000 
#
# Total GULP energy -89461.993099 kJ/mol
# GULP energy per Si atom -5591.374569 kJ/mol
# Density = 2.045785 g / cm^3
# Si number density = 20.504515 Si / 1000 Ang^3
#
#
#
# Elastic Constant Matrix: (Units=GPa)
#
#
# Indices 1 2 3 4 5 6 
#
# 1 95.2605 23.7840 36.6906 -0.1048 7.8524 5.4797
# 2 23.7840 81.2461 31.6674 20.2570 21.1215 14.6922
# 3 36.6906 31.6674 80.2523 18.3724 34.9718 0.0964
# 4 -0.1048 20.2570 18.3724 30.8756 5.8161 11.0003
# 5 7.8524 21.1215 34.9718 5.8161 34.8435 5.8149
# 6 5.4797 14.6922 0.0964 11.0003 5.8149 27.8389
#
#
#
# Elastic Compliance Matrix: (Units=1/GPa)
#
#
# Indices 1 2 3 4 5 6 
#
# 1 0.016214 -0.003885 -0.013618 0.011348 0.011818 -0.008046
# 2 -0.003885 0.018529 0.000401 -0.009564 -0.008587 -0.003443
# 3 -0.013618 0.000401 0.039921 -0.024137 -0.036465 0.019485
# 4 0.011348 -0.009564 -0.024137 0.057649 0.021926 -0.024462
# 5 0.011818 -0.008587 -0.036465 0.021926 0.067594 -0.020450
# 6 -0.008046 -0.003443 0.019485 -0.024462 -0.020450 0.053192
#
#
# Mechanical properties :
#
#
# Convention : Reuss Voigt Hill
#
# Bulk Modulus (GPa) = 24.71593 49.00477 36.86035
# Shear Modulus (GPa) = 16.62286 29.68607 23.15447
#
# Velocity S-wave (km/s) = 2.85036 3.80910 3.36406
# Velocity P-wave (km/s) = 4.78673 6.58005 5.75369
#
# Compressibility (1/GPa) = 0.04045973
#
# Stress axis : x y z
#
# Youngs Moduli (GPa) = 61.67619 53.96909 25.04921
#
# Poissons Ratio (x) = 0.20968 0.34111
# Poissons Ratio (y) = 0.23962 -0.01003
# Poissons Ratio (z) = 0.83989 -0.02161
#
# Static dielectric constant tensor:
#      x y z
#    x 1.717900 0.023170 0.003130 
#    y 0.023170 1.764010 -0.009590 
#    z 0.003130 -0.009590 1.741080 
# 
# From -- ./inp_files/186934.got.cif
#   From: 2010.05.17/outbox.cif.g08.bks.cpg/sg2_94_cif.got.tgz:186934.got - 2010.06.03 11:33:40.
