data_PCOD9101522
_publ_section_title
;
Structure prediction by ZEFSAII (Michael W. Deem and Ramdas Pophale) SiO2 
 PCOD9101522
Probable space group: P -1
;
_chemical_formula_sum "Si O2"
_cell_formula_units_Z 16
_cell_length_a 5.205497
_cell_length_b 10.699103
_cell_length_c 14.259752
_cell_angle_alpha 56.301714
_cell_angle_beta 94.025381
_cell_angle_gamma 85.794701
_cell_volume 653.048827
_symmetry_space_group_name_H-M "P -1"
_symmetry_group_IT_number 2
_symmetry_cell_setting 'triclinic'
loop_
_space_group_symop_operation_xyz
x,y,z
-x,-y,-z
loop_
_atom_site_type_symbol
_atom_site_label
_atom_site_fract_x
_atom_site_fract_y
_atom_site_fract_z
Si Si1 0.980787 0.848087 0.190522
Si Si2 0.238862 0.322133 0.429163
Si Si3 0.314195 0.655219 0.810479
Si Si4 0.760461 0.416219 0.955345
Si Si5 0.906587 0.904794 0.622198
Si Si6 0.770132 0.207627 0.583265
Si Si7 0.327030 0.879330 0.003865
Si Si8 0.097884 0.426350 0.782722
O O1 0.152509 0.794617 0.305768
O O2 0.152540 0.851095 0.100497
O O3 0.794193 0.722369 0.210429
O O4 0.833976 0.018068 0.123253
O O5 0.258085 0.215064 0.380971
O O6 0.502113 0.301584 0.503337
O O7 0.140421 0.489649 0.319695
O O8 0.008397 0.267479 0.508770
O O9 0.609053 0.586068 0.870516
O O10 0.165436 0.818535 0.713126
O O11 0.268987 0.556938 0.757243
O O12 0.179454 0.615420 0.921646
O O13 0.584530 0.284877 0.971852
O O14 0.990612 0.391801 0.896901
O O15 0.752707 0.031446 0.630824
O O16 0.000000 0.000000 0.500000
O O17 0.500000 0.000000 0.000000
#
# Coordination Sequence:
#
# PCOD9101522 Si02
#       8
#     2   2   2   2   2   2   2   2
#     4  10  23  39  62  88 125 162 215 259 322 379
#     4  10  24  40  66  90 132 166 215 262 321 374
#     4  10  20  38  59  94 119 165 208 266 317 381
#     4  10  21  36  63  89 124 159 215 263 318 381
#     4   9  20  39  63  89 129 167 209 265 322 377
#     4  11  23  43  62  98 125 170 217 263 313 384
#     4  10  21  40  61  89 124 166 206 264 323 380
#     4  10  22  39  60  87 123 170 200 269 318 382
#
# _framework density 24.500467
#
# number of rings (size 3 to 8) (size 9 to 14) (size 15 to 20)
#    0.000    2.000    0.000    2.250    7.000    1.000 
#    2.250    2.500    0.000    0.000    0.000    0.000 
#    0.000    0.000    0.000    0.000    0.000    0.000 
#
# Total GULP energy -89320.113529 kJ/mol
# GULP energy per Si atom -5582.507096 kJ/mol
# Density = 2.444470 g / cm^3
# Si number density = 24.500467 Si / 1000 Ang^3
#
#
#
# Elastic Constant Matrix: (Units=GPa)
#
#
# Indices 1 2 3 4 5 6 
#
# 1 68.2821 -1.8681 26.2428 4.0588 17.8098 2.1908
# 2 -1.8681 66.1559 41.7364 6.8324 3.0419 7.6571
# 3 26.2428 41.7364 158.5523 7.6315 19.0634 -10.6625
# 4 4.0588 6.8324 7.6315 27.9679 3.1580 11.0303
# 5 17.8098 3.0419 19.0634 3.1580 28.8627 -3.7542
# 6 2.1908 7.6571 -10.6625 11.0303 -3.7542 23.3256
#
#
#
# Elastic Compliance Matrix: (Units=1/GPa)
#
#
# Indices 1 2 3 4 5 6 
#
# 1 0.019058 0.003848 -0.003371 0.001181 -0.010968 -0.006917
# 2 0.003848 0.020661 -0.006630 0.000621 -0.001636 -0.010731
# 3 -0.003371 -0.006630 0.009582 -0.003498 -0.002102 0.008189
# 4 0.001181 0.000621 -0.003498 0.047161 -0.006939 -0.025332
# 5 -0.010968 -0.001636 -0.002102 -0.006939 0.045187 0.011160
# 6 -0.006917 -0.010731 0.008189 -0.025332 0.011160 0.064562
#
#
# Mechanical properties :
#
#
# Convention : Reuss Voigt Hill
#
# Bulk Modulus (GPa) = 27.03092 47.24585 37.13838
# Shear Modulus (GPa) = 21.65921 31.15652 26.40787
#
# Velocity S-wave (km/s) = 2.97649 3.56992 3.28663
# Velocity P-wave (km/s) = 4.78220 6.02644 5.44001
#
# Compressibility (1/GPa) = 0.03699467
#
# Stress axis : x y z
#
# Youngs Moduli (GPa) = 52.47047 48.40152 104.36156
#
# Poissons Ratio (x) = -0.18623 0.35175
# Poissons Ratio (y) = -0.20188 0.69194
# Poissons Ratio (z) = 0.17685 0.32091
#
# Static dielectric constant tensor:
#      x y z
#    x 2.060290 0.104640 0.023380 
#    y 0.104640 2.039530 -0.039560 
#    z 0.023380 -0.039560 1.952290 
# 
# From -- ./inp_files/82464.got.cif
#   From: 2010.05.17/outbox.cif.g08.bks.cpg/sg2_42_cif.got.tgz:82464.got - 2010.06.03 11:33:40.
