data_PCOD9101873
_publ_section_title
;
Structure prediction by ZEFSAII (Michael W. Deem and Ramdas Pophale) SiO2 
 PCOD9101873
Probable space group: P -1
;
_chemical_formula_sum "Si O2"
_cell_formula_units_Z 15
_cell_length_a 8.890656
_cell_length_b 11.735419
_cell_length_c 7.625666
_cell_angle_alpha 85.401154
_cell_angle_beta 53.203234
_cell_angle_gamma 78.042302
_cell_volume 622.306140
_symmetry_space_group_name_H-M "P -1"
_symmetry_group_IT_number 2
_symmetry_cell_setting 'triclinic'
loop_
_space_group_symop_operation_xyz
x,y,z
-x,-y,-z
loop_
_atom_site_type_symbol
_atom_site_label
_atom_site_fract_x
_atom_site_fract_y
_atom_site_fract_z
Si Si1 0.500000 0.500000 0.500000
Si Si2 0.281795 0.372746 0.006231
Si Si3 0.869299 0.315251 0.362314
Si Si4 0.463726 0.118505 0.900164
Si Si5 0.730981 0.649409 0.387542
Si Si6 0.866371 0.061032 0.431461
Si Si7 0.879435 0.421182 0.703342
Si Si8 0.691487 0.907523 0.339554
O O1 0.684425 0.385839 0.384845
O O2 0.618628 0.561268 0.567936
O O3 0.286245 0.490262 0.092519
O O4 0.059073 0.362071 0.169326
O O5 0.400955 0.248631 0.007565
O O6 0.331185 0.386336 0.763516
O O7 0.914776 0.178422 0.308582
O O8 0.840153 0.331456 0.593566
O O9 0.658138 0.109180 0.656887
O O10 0.300378 0.111627 0.870964
O O11 0.500000 0.000000 0.000000
O O12 0.664043 0.784796 0.452537
O O13 0.957852 0.632108 0.260533
O O14 0.854249 0.962112 0.309201
O O15 0.000000 0.000000 0.500000
O O16 0.000000 0.500000 0.500000
O O17 0.500000 0.000000 0.500000
#
# Coordination Sequence:
#
# PCOD9101873 Si02
#       8
#     1   2   2   2   2   2   2   2
#     4  12  22  36  60  90 126 150 204 254 304 352
#     4  10  21  40  64  86 122 165 203 247 311 371
#     4  11  23  40  63  91 122 162 209 253 304 370
#     4  10  21  40  62  90 121 162 206 252 307 370
#     4  11  21  39  63  87 124 158 208 252 306 369
#     4  11  22  42  66  91 122 161 211 262 304 363
#     4  10  20  38  61  85 116 167 204 233 314 375
#     4   9  20  38  62  87 119 168 203 242 311 376
#
# _framework density 24.103888999999999
#
# number of rings (size 3 to 8) (size 9 to 14) (size 15 to 20)
#    0.000    1.600    2.667    4.400    0.000    3.200 
#    2.400   10.000    0.000    0.000    0.000    0.000 
#    0.000    0.000    0.000    0.000    0.000    0.000 
#
# Total GULP energy -83534.880130 kJ/mol
# GULP energy per Si atom -5568.992009 kJ/mol
# Density = 2.404903 g / cm^3
# Si number density = 24.103889 Si / 1000 Ang^3
#
#
#
# Elastic Constant Matrix: (Units=GPa)
#
#
# Indices 1 2 3 4 5 6 
#
# 1 108.4401 28.1848 5.3668 12.5251 -15.3214 5.1445
# 2 28.1848 129.6568 -8.7298 30.1290 -5.3329 0.8231
# 3 5.3668 -8.7298 72.1271 15.9662 -17.2800 -4.4475
# 4 12.5251 30.1290 15.9662 36.9214 -3.8094 -1.2751
# 5 -15.3214 -5.3329 -17.2800 -3.8094 26.4521 7.9101
# 6 5.1445 0.8231 -4.4475 -1.2751 7.9101 44.6610
#
#
#
# Elastic Compliance Matrix: (Units=1/GPa)
#
#
# Indices 1 2 3 4 5 6 
#
# 1 0.010944 -0.001449 0.001094 -0.002349 0.007158 -0.002460
# 2 -0.001449 0.010703 0.004211 -0.009790 0.002773 -0.000382
# 3 0.001094 0.004211 0.019826 -0.011059 0.013100 -0.000865
# 4 -0.002349 -0.009790 -0.011059 0.040166 -0.005198 0.001417
# 5 0.007158 0.002773 0.013100 -0.005198 0.053044 -0.009114
# 6 -0.002460 -0.000382 -0.000865 0.001417 -0.009114 0.024250
#
#
# Mechanical properties :
#
#
# Convention : Reuss Voigt Hill
#
# Bulk Modulus (GPa) = 20.33212 39.98529 30.15870
# Shear Modulus (GPa) = 29.83024 40.63372 35.23198
#
# Velocity S-wave (km/s) = 3.52173 4.11027 3.82733
# Velocity P-wave (km/s) = 4.99903 6.25704 5.66307
#
# Compressibility (1/GPa) = 0.04918326
#
# Stress axis : x y z
#
# Youngs Moduli (GPa) = 91.37709 93.43336 50.43903
#
# Poissons Ratio (x) = 0.13543 -0.05516
# Poissons Ratio (y) = 0.13245 -0.21242
# Poissons Ratio (z) = -0.09992 -0.39348
#
# Static dielectric constant tensor:
#      x y z
#    x 2.037260 -0.003280 0.091030 
#    y -0.003280 1.784040 0.252040 
#    z 0.091030 0.252040 1.585310 
# 
# From -- ./inp_files/187240.got.cif
#   From: 2010.05.17/outbox.cif.g08.bks.cpg/sg2_94_cif.got.tgz:187240.got - 2010.06.03 11:33:40.
