data_PCOD9101564
_publ_section_title
;
Structure prediction by ZEFSAII (Michael W. Deem and Ramdas Pophale) SiO2 
 PCOD9101564
Probable space group: P -1
;
_chemical_formula_sum "Si O2"
_cell_formula_units_Z 16
_cell_length_a 11.616960
_cell_length_b 12.490365
_cell_length_c 10.439739
_cell_angle_alpha 138.000448
_cell_angle_beta 144.070671
_cell_angle_gamma 59.573812
_cell_volume 576.966713
_symmetry_space_group_name_H-M "P -1"
_symmetry_group_IT_number 2
_symmetry_cell_setting 'triclinic'
loop_
_space_group_symop_operation_xyz
x,y,z
-x,-y,-z
loop_
_atom_site_type_symbol
_atom_site_label
_atom_site_fract_x
_atom_site_fract_y
_atom_site_fract_z
Si Si1 0.024596 0.444348 0.250223
Si Si2 0.561616 0.729528 0.319411
Si Si3 0.205437 0.007091 0.589693
Si Si4 0.517153 0.562258 0.377299
Si Si5 0.498514 0.756792 0.777753
Si Si6 0.972762 0.269011 0.289433
Si Si7 0.040707 0.736708 0.371460
Si Si8 0.414016 0.943189 0.204208
O O1 0.239304 0.410869 0.376947
O O2 0.051833 0.585424 0.509260
O O3 0.951903 0.542625 0.152968
O O4 0.917309 0.289328 0.105729
O O5 0.463817 0.585081 0.201866
O O6 0.443432 0.763505 0.118962
O O7 0.790224 0.725512 0.493131
O O8 0.564938 0.897014 0.547158
O O9 0.393838 0.008506 0.671521
O O10 0.078238 0.140230 0.559435
O O11 0.068026 0.824399 0.332473
O O12 0.326865 0.081808 0.895786
O O13 0.473377 0.696454 0.555767
O O14 0.432434 0.385528 0.207105
O O15 0.279013 0.757655 0.636464
O O16 0.827257 0.106436 0.073512
#
# Coordination Sequence:
#
# PCOD9101564 Si02
#       8
#     2   2   2   2   2   2   2   2
#     4   9  19  37  59  83 115 150 188 234 280 333
#     4  10  22  38  56  85 118 148 186 235 282 335
#     4  11  23  37  59  87 113 151 192 230 281 336
#     4   9  19  37  58  83 116 150 188 233 281 334
#     4  10  20  38  60  82 114 152 189 233 282 333
#     4  10  20  38  60  83 114 151 189 232 282 335
#     4  10  21  38  56  83 115 145 189 236 278 331
#     4  11  22  37  59  86 115 150 190 230 282 337
#
# _framework density 27.731235000000002
#
# number of rings (size 3 to 8) (size 9 to 14) (size 15 to 20)
#    0.000    2.000    0.000    3.750    0.000    2.000 
#    0.000   25.000    0.000    0.000    0.000    0.000 
#    0.000    0.000    0.000    0.000    0.000    0.000 
#
# Total GULP energy -89338.081951 kJ/mol
# GULP energy per Si atom -5583.630122 kJ/mol
# Density = 2.766812 g / cm^3
# Si number density = 27.731235 Si / 1000 Ang^3
#
#
#
# Elastic Constant Matrix: (Units=GPa)
#
#
# Indices 1 2 3 4 5 6 
#
# 1 168.1757 42.2240 27.7394 7.7634 35.2569 -6.3902
# 2 42.2240 135.5216 15.3270 -13.0438 6.0238 -4.0462
# 3 27.7394 15.3270 60.4282 -5.8513 11.4271 -15.4697
# 4 7.7634 -13.0438 -5.8513 31.5835 -3.0792 1.0774
# 5 35.2569 6.0238 11.4271 -3.0792 27.1868 0.4789
# 6 -6.3902 -4.0462 -15.4697 1.0774 0.4789 44.2194
#
#
#
# Elastic Compliance Matrix: (Units=1/GPa)
#
#
# Indices 1 2 3 4 5 6 
#
# 1 0.009652 -0.002741 -0.001807 -0.005009 -0.011730 0.000761
# 2 -0.002741 0.008647 -0.001027 0.004307 0.002560 -0.000097
# 3 -0.001807 -0.001027 0.020835 0.003063 -0.005961 0.006924
# 4 -0.005009 0.004307 0.003063 0.036061 0.008342 -0.000227
# 5 -0.011730 0.002560 -0.005961 0.008342 0.054955 -0.004345
# 6 0.000761 -0.000097 0.006924 -0.000227 -0.004345 0.025190
#
#
# Mechanical properties :
#
#
# Convention : Reuss Voigt Hill
#
# Bulk Modulus (GPa) = 35.73507 59.41183 47.57345
# Shear Modulus (GPa) = 28.43865 39.18695 33.81280
#
# Velocity S-wave (km/s) = 3.20583 3.76320 3.49564
# Velocity P-wave (km/s) = 5.15920 6.35239 5.78663
#
# Compressibility (1/GPa) = 0.02798372
#
# Stress axis : x y z
#
# Youngs Moduli (GPa) = 103.60832 115.64886 47.99631
#
# Poissons Ratio (x) = 0.31696 0.08675
# Poissons Ratio (y) = 0.28396 0.04928
# Poissons Ratio (z) = 0.18727 0.11874
#
# Static dielectric constant tensor:
#      x y z
#    x 2.203130 0.175180 -0.016820 
#    y 0.175180 2.398510 -0.077240 
#    z -0.016820 -0.077240 2.115770 
# 
# From -- ./inp_files/426758.got.cif
#   From: 2010.05.17/outbox.cif.g08.bks.cpg/sg2_214_cif.got.tgz:426758.got - 2010.06.03 11:33:40.
