data_PCOD9101678
_publ_section_title
;
Structure prediction by ZEFSAII (Michael W. Deem and Ramdas Pophale) SiO2 
 PCOD9101678
Probable space group: P -1
;
_chemical_formula_sum "Si O2"
_cell_formula_units_Z 16
_cell_length_a 5.842427
_cell_length_b 18.047343
_cell_length_c 22.650899
_cell_angle_alpha 16.664830
_cell_angle_beta 115.099034
_cell_angle_gamma 108.388772
_cell_volume 580.991972
_symmetry_space_group_name_H-M "P -1"
_symmetry_group_IT_number 2
_symmetry_cell_setting 'triclinic'
loop_
_space_group_symop_operation_xyz
x,y,z
-x,-y,-z
loop_
_atom_site_type_symbol
_atom_site_label
_atom_site_fract_x
_atom_site_fract_y
_atom_site_fract_z
Si Si1 0.435063 0.293617 0.196145
Si Si2 0.647824 0.215113 0.938346
Si Si3 0.294138 0.614177 0.304006
Si Si4 0.988894 0.315969 0.055968
Si Si5 0.120374 0.716587 0.671505
Si Si6 0.870459 0.268978 0.676352
Si Si7 0.488881 0.826778 0.924824
Si Si8 0.301489 0.239941 0.495130
O O1 0.264512 0.151441 0.247264
O O2 0.703072 0.139817 0.381540
O O3 0.500000 0.500000 0.000000
O O4 0.222216 0.492017 0.066673
O O5 0.492917 0.113554 0.049224
O O6 0.589100 0.228101 0.852087
O O7 0.612543 0.533666 0.703869
O O8 0.957116 0.007614 0.127597
O O9 0.563371 0.388512 0.531260
O O10 0.129358 0.761489 0.229800
O O11 0.150191 0.447658 0.374464
O O12 0.825991 0.143708 0.139564
O O13 0.034938 0.529086 0.852144
O O14 0.872939 0.872592 0.482305
O O15 0.323656 0.485113 0.828503
O O16 0.000000 0.500000 0.500000
O O17 0.519542 0.000529 0.738504
#
# Coordination Sequence:
#
# PCOD9101678 Si02
#       8
#     2   2   2   2   2   2   2   2
#     4   8  16  30  62  91 119 166 201 244 308 347
#     4  10  23  41  61  88 123 156 196 253 299 357
#     4   9  23  41  59  89 121 152 197 252 297 362
#     4   9  16  35  58  89 124 160 204 251 296 351
#     4  10  20  38  60  87 125 163 199 252 302 353
#     4  11  22  41  66  88 116 157 200 244 305 365
#     4  11  22  38  60  88 122 162 204 248 302 356
#     4  10  23  39  59  90 120 157 204 246 300 363
#
# _framework density 27.539103999999998
#
# number of rings (size 3 to 8) (size 9 to 14) (size 15 to 20)
#    0.750    1.500    1.250    1.125    1.750    2.500 
#    2.250    0.625    0.000   25.500    0.000    0.000 
#    0.000    0.000    0.000    0.000    0.000    0.000 
#
# Total GULP energy -89382.231993 kJ/mol
# GULP energy per Si atom -5586.389500 kJ/mol
# Density = 2.747642 g / cm^3
# Si number density = 27.539104 Si / 1000 Ang^3
#
#
#
# Elastic Constant Matrix: (Units=GPa)
#
#
# Indices 1 2 3 4 5 6 
#
# 1 89.3646 42.2987 37.7832 7.9801 -22.3423 -28.6541
# 2 42.2987 137.0000 30.8345 26.4160 -18.9975 -25.9615
# 3 37.7832 30.8345 134.7817 15.2645 -9.6477 -9.0343
# 4 7.9801 26.4160 15.2645 42.3185 -4.3695 -8.2681
# 5 -22.3423 -18.9975 -9.6477 -4.3695 27.2170 0.3482
# 6 -28.6541 -25.9615 -9.0343 -8.2681 0.3482 60.1514
#
#
#
# Elastic Compliance Matrix: (Units=1/GPa)
#
#
# Indices 1 2 3 4 5 6 
#
# 1 0.019535 -0.002207 -0.003700 0.001973 0.013399 0.007991
# 2 -0.002207 0.010109 -0.000689 -0.004716 0.004211 0.002536
# 3 -0.003700 -0.000689 0.008750 -0.002316 -0.000775 -0.001059
# 4 0.001973 -0.004716 -0.002316 0.027695 0.001924 0.002353
# 5 0.013399 0.004211 -0.000775 0.001924 0.050611 0.008055
# 6 0.007991 0.002536 -0.001059 0.002353 0.008055 0.021644
#
#
# Mechanical properties :
#
#
# Convention : Reuss Voigt Hill
#
# Bulk Modulus (GPa) = 39.67724 64.77546 52.22635
# Shear Modulus (GPa) = 31.26226 42.61938 36.94082
#
# Velocity S-wave (km/s) = 3.37292 3.93822 3.66648
# Velocity P-wave (km/s) = 5.44129 6.65220 6.07698
#
# Compressibility (1/GPa) = 0.02520336
#
# Stress axis : x y z
#
# Youngs Moduli (GPa) = 51.18981 98.91787 114.28602
#
# Poissons Ratio (x) = 0.21829 0.42287
# Poissons Ratio (y) = 0.11297 0.07870
# Poissons Ratio (z) = 0.18941 0.06812
#
# Static dielectric constant tensor:
#      x y z
#    x 2.123510 0.058490 -0.002920 
#    y 0.058490 2.224300 -0.004500 
#    z -0.002920 -0.004500 2.164750 
# 
# From -- ./inp_files/605124.got.cif
#   From: 2010.05.17/outbox.cif.g08.bks.cpg/sg2_303_cif.got.tgz:605124.got - 2010.06.03 11:33:40.
