data_PCOD9101374
_publ_section_title
;
Structure prediction by ZEFSAII (Michael W. Deem and Ramdas Pophale) SiO2 
 PCOD9101374
Probable space group: P -1
;
_chemical_formula_sum "Si O2"
_cell_formula_units_Z 16
_cell_length_a 12.897750
_cell_length_b 12.841999
_cell_length_c 13.955080
_cell_angle_alpha 78.155058
_cell_angle_beta 82.706040
_cell_angle_gamma 21.353395
_cell_volume 810.229302
_symmetry_space_group_name_H-M "P -1"
_symmetry_group_IT_number 2
_symmetry_cell_setting 'triclinic'
loop_
_space_group_symop_operation_xyz
x,y,z
-x,-y,-z
loop_
_atom_site_type_symbol
_atom_site_label
_atom_site_fract_x
_atom_site_fract_y
_atom_site_fract_z
Si Si1 0.002671 0.077517 0.119885
Si Si2 0.800368 0.872033 0.765846
Si Si3 0.369529 0.910645 0.835340
Si Si4 0.176449 0.687763 0.108563
Si Si5 0.904416 0.673436 0.593032
Si Si6 0.695334 0.780240 0.931556
Si Si7 0.650105 0.921935 0.375609
Si Si8 0.392276 0.408069 0.817888
O O1 0.802387 0.301090 0.191879
O O2 0.306328 0.854629 0.112225
O O3 0.820029 0.276809 0.008559
O O4 0.099010 0.864051 0.147150
O O5 0.872443 0.783699 0.663545
O O6 0.680429 0.879710 0.828386
O O7 0.116335 0.592155 0.832214
O O8 0.561638 0.191947 0.748821
O O9 0.583625 0.774626 0.904433
O O10 0.527239 0.651657 0.838560
O O11 0.074421 0.160850 0.875031
O O12 0.312230 0.035725 0.725042
O O13 0.807717 0.809374 0.475753
O O14 0.213620 0.323395 0.616874
O O15 0.684315 0.784062 0.618546
O O16 0.000000 0.500000 0.000000
O O17 0.500000 0.000000 0.000000
#
# Coordination Sequence:
#
# PCOD9101374 Si02
#       8
#     2   2   2   2   2   2   2   2
#     4  10  22  42  55  84 106 151 195 250 283 329
#     4  11  22  37  55  85 111 158 192 225 270 342
#     4  12  24  38  57  88 114 156 193 227 285 347
#     4  11  24  37  62  78 114 146 198 245 290 324
#     4  10  20  38  59  80 116 152 191 236 275 321
#     4  12  27  35  50  80 126 163 186 216 266 337
#     4  10  21  37  58  83 113 153 189 238 279 326
#     4  10  22  34  61  77 112 141 195 234 277 330
#
# _framework density 19.747495000000001
#
# number of rings (size 3 to 8) (size 9 to 14) (size 15 to 20)
#    0.000    1.250    1.250    4.500   12.250    2.000 
#    0.000    0.000    0.000    0.000    0.000   17.500 
#    0.000    0.000    0.000    0.000    0.000    0.000 
#
# Total GULP energy -89128.522361 kJ/mol
# GULP energy per Si atom -5570.532648 kJ/mol
# Density = 1.970255 g / cm^3
# Si number density = 19.747495 Si / 1000 Ang^3
#
#
#
# Elastic Constant Matrix: (Units=GPa)
#
#
# Indices 1 2 3 4 5 6 
#
# 1 42.2208 14.8076 19.8158 9.7154 10.9578 7.5387
# 2 14.8076 118.0560 18.5054 16.6954 8.5319 2.7954
# 3 19.8158 18.5054 59.5655 5.8666 2.2449 11.8742
# 4 9.7154 16.6954 5.8666 26.3034 5.4449 6.4938
# 5 10.9578 8.5319 2.2449 5.4449 14.8891 7.9639
# 6 7.5387 2.7954 11.8742 6.4938 7.9639 38.5341
#
#
#
# Elastic Compliance Matrix: (Units=1/GPa)
#
#
# Indices 1 2 3 4 5 6 
#
# 1 0.036071 -0.000264 -0.010849 -0.006404 -0.023631 0.002268
# 2 -0.000264 0.009921 -0.002705 -0.005198 -0.004204 0.001910
# 3 -0.010849 -0.002705 0.022141 0.000427 0.009542 -0.006548
# 4 -0.006404 -0.005198 0.000427 0.046173 -0.006630 -0.004912
# 5 -0.023631 -0.004204 0.009542 -0.006630 0.097013 -0.016945
# 6 0.002268 0.001910 -0.006548 -0.004912 -0.016945 0.031716
#
#
# Mechanical properties :
#
#
# Convention : Reuss Voigt Hill
#
# Bulk Modulus (GPa) = 24.69224 36.23331 30.46278
# Shear Modulus (GPa) = 17.59510 27.05955 22.32733
#
# Velocity S-wave (km/s) = 2.98821 3.70574 3.36615
# Velocity P-wave (km/s) = 4.94338 6.05790 5.52880
#
# Compressibility (1/GPa) = 0.04049856
#
# Stress axis : x y z
#
# Youngs Moduli (GPa) = 27.72313 100.79292 45.16442
#
# Poissons Ratio (x) = 0.02661 0.48997
# Poissons Ratio (y) = 0.00732 0.12216
# Poissons Ratio (z) = 0.30076 0.27263
#
# Static dielectric constant tensor:
#      x y z
#    x 1.757540 -0.000830 0.043620 
#    y -0.000830 1.695500 0.003500 
#    z 0.043620 0.003500 1.675990 
# 
# From -- ./inp_files/519675.got.cif
#   From: 2010.05.17/outbox.cif.g08.bks.cpg/sg2_260_cif.got.tgz:519675.got - 2010.06.03 11:33:40.
