data_PCOD9101043
_publ_section_title
;
Structure prediction by ZEFSAII (Michael W. Deem and Ramdas Pophale) SiO2 
 PCOD9101043
Probable space group: P -1
;
_chemical_formula_sum "Si O2"
_cell_formula_units_Z 14
_cell_length_a 13.257220
_cell_length_b 14.184664
_cell_length_c 20.742433
_cell_angle_alpha 157.555823
_cell_angle_beta 24.155286
_cell_angle_gamma 144.511932
_cell_volume 598.734555
_symmetry_space_group_name_H-M "P -1"
_symmetry_group_IT_number 2
_symmetry_cell_setting 'triclinic'
loop_
_space_group_symop_operation_xyz
x,y,z
-x,-y,-z
loop_
_atom_site_type_symbol
_atom_site_label
_atom_site_fract_x
_atom_site_fract_y
_atom_site_fract_z
Si Si1 0.833279 0.390368 0.601450
Si Si2 0.768910 0.069669 0.877122
Si Si3 0.398401 0.385136 0.625205
Si Si4 0.515761 0.732791 0.356693
Si Si5 0.085985 0.742927 0.219913
Si Si6 0.332810 0.498216 0.033419
Si Si7 0.958377 0.298586 0.212837
O O1 0.731452 0.404599 0.596162
O O2 0.924481 0.595929 0.724007
O O3 0.558938 0.365196 0.772664
O O4 0.028093 0.136316 0.336628
O O5 0.843227 0.074406 0.761182
O O6 0.743334 0.343399 0.096134
O O7 0.500000 0.000000 0.000000
O O8 0.465131 0.227196 0.552155
O O9 0.661650 0.404379 0.451359
O O10 0.206454 0.264918 0.618356
O O11 0.500000 0.000000 0.500000
O O12 0.764469 0.530836 0.065463
O O13 0.204013 0.744825 0.223667
O O14 0.103348 0.377777 0.116162
O O15 0.500000 0.500000 0.000000
O O16 0.000000 0.000000 0.000000
#
# Coordination Sequence:
#
# PCOD9101043 Si02
#       7
#     2   2   2   2   2   2   2
#     4  10  21  43  71  93 133 175 219 276 337 390
#     4  11  21  41  66 103 133 159 213 287 342 388
#     4  11  23  41  65 100 137 165 218 271 346 395
#     4  10  20  37  69 101 127 171 215 276 339 400
#     4  10  22  39  67  95 130 173 211 272 342 390
#     4   9  22  46  66  89 128 181 230 259 319 397
#     4  11  25  42  65  95 134 181 227 273 309 398
#
# _framework density 23.382648
#
# number of rings (size 3 to 8) (size 9 to 14) (size 15 to 20)
#    0.000    1.714    1.429    3.429    6.000    1.143 
#    5.143    2.857   12.571    0.000    0.000    0.000 
#    0.000    0.000    0.000    0.000    0.000    0.000 
#
# Total GULP energy -78089.107221 kJ/mol
# GULP energy per Si atom -5577.793373 kJ/mol
# Density = 2.332943 g / cm^3
# Si number density = 23.382648 Si / 1000 Ang^3
#
#
#
# Elastic Constant Matrix: (Units=GPa)
#
#
# Indices 1 2 3 4 5 6 
#
# 1 98.3316 34.7462 31.9797 -4.8760 -25.8640 32.7678
# 2 34.7462 96.7980 33.7176 -18.9818 -11.0290 16.0970
# 3 31.9797 33.7176 83.5587 -9.8357 -17.4895 16.4292
# 4 -4.8760 -18.9818 -9.8357 48.1937 11.2798 -1.3868
# 5 -25.8640 -11.0290 -17.4895 11.2798 38.9007 -6.6015
# 6 32.7678 16.0970 16.4292 -1.3868 -6.6015 38.0066
#
#
#
# Elastic Compliance Matrix: (Units=1/GPa)
#
#
# Indices 1 2 3 4 5 6 
#
# 1 0.018155 -0.003375 -0.001599 -0.002274 0.009009 -0.012050
# 2 -0.003375 0.013833 -0.003802 0.004671 -0.001627 -0.001417
# 3 -0.001599 -0.003802 0.015651 0.000453 0.004251 -0.003022
# 4 -0.002274 0.004671 0.000453 0.024089 -0.007064 -0.000561
# 5 0.009009 -0.001627 0.004251 -0.007064 0.034660 -0.003154
# 6 -0.012050 -0.001417 -0.003022 -0.000561 -0.003154 0.038038
#
#
# Mechanical properties :
#
#
# Convention : Reuss Voigt Hill
#
# Bulk Modulus (GPa) = 33.23814 53.28615 43.26214
# Shear Modulus (GPa) = 29.06849 36.90318 32.98584
#
# Velocity S-wave (km/s) = 3.52968 3.97700 3.76000
# Velocity P-wave (km/s) = 5.55493 6.62774 6.11491
#
# Compressibility (1/GPa) = 0.03008592
#
# Stress axis : x y z
#
# Youngs Moduli (GPa) = 55.08196 72.29039 63.89328
#
# Poissons Ratio (x) = 0.24402 0.10216
# Poissons Ratio (y) = 0.18593 0.24293
# Poissons Ratio (z) = 0.08807 0.27485
#
# Static dielectric constant tensor:
#      x y z
#    x -15.206880 -1.072850 -1.687390 
#    y -1.072850 1.890480 -0.138730 
#    z -1.687390 -0.138730 1.696910 
# 
# From -- ./inp_files/425379.got.cif
#   From: 2010.05.17/outbox.cif.g08.bks.cpg/sg2_213_cif.got.tgz:425379.got - 2010.06.03 11:33:40.
