data_PCOD9101082
_publ_section_title
;
Structure prediction by ZEFSAII (Michael W. Deem and Ramdas Pophale) SiO2 
 PCOD9101082
Probable space group: P -1
;
_chemical_formula_sum "Si O2"
_cell_formula_units_Z 12
_cell_length_a 12.732600
_cell_length_b 20.000332
_cell_length_c 4.904705
_cell_angle_alpha 93.865500
_cell_angle_beta 91.464706
_cell_angle_gamma 156.202899
_cell_volume 490.879815
_symmetry_space_group_name_H-M "P -1"
_symmetry_group_IT_number 2
_symmetry_cell_setting 'triclinic'
loop_
_space_group_symop_operation_xyz
x,y,z
-x,-y,-z
loop_
_atom_site_type_symbol
_atom_site_label
_atom_site_fract_x
_atom_site_fract_y
_atom_site_fract_z
Si Si1 0.516129 0.782380 0.290382
Si Si2 0.069756 0.340745 0.273147
Si Si3 0.701438 0.812068 0.827313
Si Si4 0.580799 0.956165 0.122816
Si Si5 0.763965 0.270547 0.494879
Si Si6 0.405940 0.509539 0.834143
O O1 0.500219 0.732317 0.997961
O O2 0.686217 0.949060 0.267503
O O3 0.252052 0.664174 0.361809
O O4 0.652218 0.815153 0.530311
O O5 0.217945 0.434478 0.025352
O O6 0.018055 0.382699 0.419150
O O7 0.240161 0.398934 0.519951
O O8 0.795917 0.139796 0.163134
O O9 0.635509 0.695297 0.812093
O O10 0.000000 0.000000 0.000000
O O11 0.348621 0.839319 0.289782
O O12 0.450770 0.859332 0.801037
O O13 0.500000 0.500000 0.000000
#
# Coordination Sequence:
#
# PCOD9101082 Si02
#       6
#     2   2   2   2   2   2
#     4  10  22  41  70 102 130 165 237 268 322 394
#     4  12  24  43  69 100 143 175 218 279 343 392
#     4  12  26  47  70  94 130 182 232 273 327 403
#     4  10  20  37  71 102 140 170 224 262 335 392
#     4  10  20  39  68 109 134 176 218 275 328 404
#     4  12  30  46  67  97 139 176 226 281 341 388
#
# _framework density 24.445903000000001
#
# number of rings (size 3 to 8) (size 9 to 14) (size 15 to 20)
#    1.000    0.000    1.667    5.000    4.667    0.000 
#    0.000    5.000    0.000    0.000    0.000    0.000 
#    0.000    0.000    0.000    0.000    0.000    0.000 
#
# Total GULP energy -67114.003343 kJ/mol
# GULP energy per Si atom -5592.833612 kJ/mol
# Density = 2.439026 g / cm^3
# Si number density = 24.445903 Si / 1000 Ang^3
#
#
#
# Elastic Constant Matrix: (Units=GPa)
#
#
# Indices 1 2 3 4 5 6 
#
# 1 107.8871 33.2894 11.1941 2.6041 12.7367 -26.3551
# 2 33.2894 68.6164 17.9058 -15.4440 8.5702 -10.1384
# 3 11.1941 17.9058 117.0198 -27.0348 15.1750 -7.0285
# 4 2.6041 -15.4440 -27.0348 30.6738 4.4695 2.1100
# 5 12.7367 8.5702 15.1750 4.4695 44.4598 -17.8191
# 6 -26.3551 -10.1384 -7.0285 2.1100 -17.8191 40.5341
#
#
#
# Elastic Compliance Matrix: (Units=1/GPa)
#
#
# Indices 1 2 3 4 5 6 
#
# 1 0.013352 -0.006628 -0.001563 -0.006657 0.001821 0.007900
# 2 -0.006628 0.020675 0.000785 0.012378 -0.004196 -0.001492
# 3 -0.001563 0.000785 0.012000 0.012077 -0.005778 -0.001908
# 4 -0.006657 0.012378 0.012077 0.052440 -0.012893 -0.007536
# 5 0.001821 -0.004196 -0.005778 -0.012893 0.031523 0.013662
# 6 0.007900 -0.001492 -0.001908 -0.007536 0.013662 0.035501
#
#
# Mechanical properties :
#
#
# Convention : Reuss Voigt Hill
#
# Bulk Modulus (GPa) = 32.03740 46.47799 39.25769
# Shear Modulus (GPa) = 26.21816 38.54248 32.38032
#
# Velocity S-wave (km/s) = 3.27845 3.97501 3.64341
# Velocity P-wave (km/s) = 5.24069 6.33415 5.81319
#
# Compressibility (1/GPa) = 0.03121352
#
# Stress axis : x y z
#
# Youngs Moduli (GPa) = 74.89652 48.36875 83.33433
#
# Poissons Ratio (x) = 0.32061 0.13022
# Poissons Ratio (y) = 0.49645 -0.06540
# Poissons Ratio (z) = 0.11704 -0.03796
#
# Static dielectric constant tensor:
#      x y z
#    x 2.036110 0.044870 -0.015070 
#    y 0.044870 1.942790 0.015600 
#    z -0.015070 0.015600 1.896660 
# 
# From -- ./inp_files/101216.got.cif
#   From: 2010.05.17/outbox.cif.g08.bks.cpg/sg2_51_cif.got.tgz:101216.got - 2010.06.03 11:33:40.
