data_PCOD9101072
_publ_section_title
;
Structure prediction by ZEFSAII (Michael W. Deem and Ramdas Pophale) SiO2 
 PCOD9101072
Probable space group: P -1
;
_chemical_formula_sum "Si O2"
_cell_formula_units_Z 16
_cell_length_a 14.513411
_cell_length_b 9.408968
_cell_length_c 10.144032
_cell_angle_alpha 63.644092
_cell_angle_beta 61.979680
_cell_angle_gamma 110.108723
_cell_volume 784.348921
_symmetry_space_group_name_H-M "P -1"
_symmetry_group_IT_number 2
_symmetry_cell_setting 'triclinic'
loop_
_space_group_symop_operation_xyz
x,y,z
-x,-y,-z
loop_
_atom_site_type_symbol
_atom_site_label
_atom_site_fract_x
_atom_site_fract_y
_atom_site_fract_z
Si Si1 0.177811 0.915029 0.127412
Si Si2 0.006951 0.578595 0.165175
Si Si3 0.327897 0.341543 0.670545
Si Si4 0.308218 0.687080 0.601444
Si Si5 0.742237 0.416324 0.025852
Si Si6 0.905922 0.908671 0.729581
Si Si7 0.565405 0.062896 0.077364
Si Si8 0.917108 0.008158 0.170397
O O1 0.145066 0.965092 0.265277
O O2 0.037456 0.688945 0.243332
O O3 0.247195 0.132161 0.906290
O O4 0.302706 0.919134 0.037393
O O5 0.838858 0.380590 0.320505
O O6 0.109726 0.533655 0.104874
O O7 0.063476 0.782828 0.949209
O O8 0.500000 0.500000 0.500000
O O9 0.286609 0.476571 0.677464
O O10 0.252636 0.218834 0.632903
O O11 0.328152 0.720410 0.732510
O O12 0.442005 0.875772 0.340523
O O13 0.643876 0.286611 0.015436
O O14 0.782231 0.643047 0.918999
O O15 0.000000 0.000000 0.500000
O O16 0.009764 0.972617 0.754665
O O17 0.500000 0.000000 0.000000
O O18 0.000000 0.000000 0.000000
#
# Coordination Sequence:
#
# PCOD9101072 Si02
#       8
#     2   2   2   2   2   2   2   2
#     4  10  20  43  63  89 125 165 207 253 303 378
#     4  10  20  37  70  93 120 161 213 256 303 362
#     4  11  19  34  66  97 116 161 217 252 295 361
#     4  12  20  38  68  93 122 161 210 257 305 360
#     4  11  24  43  63  94 128 159 208 268 307 361
#     4  12  24  40  66  97 127 158 206 267 318 356
#     4  11  27  44  61  88 131 171 204 244 317 388
#     4  11  18  38  65  92 125 161 212 256 295 373
#
# _framework density 20.399084999999999
#
# number of rings (size 3 to 8) (size 9 to 14) (size 15 to 20)
#    0.000    1.000    7.500    0.750    0.000    3.000 
#    0.000    3.125    0.000    0.000    0.000    0.000 
#    0.000    0.000    0.000    0.000    0.000    0.000 
#
# Total GULP energy -89258.768551 kJ/mol
# GULP energy per Si atom -5578.673034 kJ/mol
# Density = 2.035266 g / cm^3
# Si number density = 20.399085 Si / 1000 Ang^3
#
#
#
# Elastic Constant Matrix: (Units=GPa)
#
#
# Indices 1 2 3 4 5 6 
#
# 1 44.0163 24.8175 -0.4238 4.2941 -5.5749 26.2035
# 2 24.8175 110.2749 33.1612 16.0925 -3.0350 26.7148
# 3 -0.4238 33.1612 67.7150 23.7917 -0.5925 24.4625
# 4 4.2941 16.0925 23.7917 26.9508 5.4260 -4.7046
# 5 -5.5749 -3.0350 -0.5925 5.4260 21.2121 0.0271
# 6 26.2035 26.7148 24.4625 -4.7046 0.0271 38.5084
#
#
#
# Elastic Compliance Matrix: (Units=1/GPa)
#
#
# Indices 1 2 3 4 5 6 
#
# 1 -0.095129 -0.010161 -0.112962 0.163955 -0.071759 0.163621
# 2 -0.010161 0.012481 -0.008776 0.003032 -0.001911 0.004202
# 3 -0.112962 -0.008776 -0.090085 0.144547 -0.070637 0.157891
# 4 0.163955 0.003032 0.144547 -0.176827 0.093084 -0.227161
# 5 -0.071759 -0.001911 -0.070637 0.093084 0.002090 0.106398
# 6 0.163621 0.004202 0.157891 -0.227161 0.106398 -0.216413
#
#
# Mechanical properties :
#
#
# Convention : Reuss Voigt Hill
#
# Bulk Modulus (GPa) = -2.29079 37.45734 17.58327
# Shear Modulus (GPa) = -11.22093 28.29767 8.53837
#
# Velocity S-wave (km/s) = -2.34790 3.72856 2.04811
# Velocity P-wave (km/s) = 2.91129 6.07769 3.77245
#
# Compressibility (1/GPa) = -0.43653082
#
# Stress axis : x y z
#
# Youngs Moduli (GPa) = -10.51203 80.12219 -11.10059
#
# Poissons Ratio (x) = 0.81413 -1.25394
# Poissons Ratio (y) = -0.10681 -0.09742
# Poissons Ratio (z) = -1.18746 0.70314
#
# Static dielectric constant tensor:
#      x y z
#    x 1.779190 0.009790 -0.013790 
#    y 0.009790 1.805930 0.005350 
#    z -0.013790 0.005350 1.750900 
# 
# From -- ./inp_files/262200.got.cif
#   From: 2010.05.17/outbox.cif.g08.bks.cpg/sg2_132_cif.got.tgz:262200.got - 2010.06.03 11:33:40.
