data_PCOD9101706
_publ_section_title
;
Structure prediction by ZEFSAII (Michael W. Deem and Ramdas Pophale) SiO2 
 PCOD9101706
Probable space group: P -1
;
_chemical_formula_sum "Si O2"
_cell_formula_units_Z 16
_cell_length_a 16.897169
_cell_length_b 15.574907
_cell_length_c 24.646230
_cell_angle_alpha 18.056551
_cell_angle_beta 160.383401
_cell_angle_gamma 152.691850
_cell_volume 673.414502
_symmetry_space_group_name_H-M "P -1"
_symmetry_group_IT_number 2
_symmetry_cell_setting 'triclinic'
loop_
_space_group_symop_operation_xyz
x,y,z
-x,-y,-z
loop_
_atom_site_type_symbol
_atom_site_label
_atom_site_fract_x
_atom_site_fract_y
_atom_site_fract_z
Si Si1 0.940165 0.190205 0.611784
Si Si2 0.295282 0.227837 0.726457
Si Si3 0.786154 0.245153 0.690559
Si Si4 0.318546 0.945795 0.705924
Si Si5 0.843597 0.667995 0.038129
Si Si6 0.169913 0.274017 0.825323
Si Si7 0.715976 0.755778 0.778956
Si Si8 0.878017 0.140844 0.252285
O O1 0.168410 0.247768 0.690050
O O2 0.009154 0.221731 0.700384
O O3 0.751363 0.419461 0.326372
O O4 0.856574 0.883808 0.743073
O O5 0.383736 0.507810 0.590133
O O6 0.119624 0.088186 0.655259
O O7 0.500000 0.000000 0.000000
O O8 0.006665 0.275622 0.771980
O O9 0.707600 0.936231 0.817973
O O10 0.897659 0.314872 0.778239
O O11 0.239743 0.978594 0.697923
O O12 0.248628 0.634640 0.830758
O O13 0.600561 0.930819 0.895448
O O14 0.152474 0.164571 0.432670
O O15 0.833037 0.730586 0.929723
O O16 0.500000 0.000000 0.500000
O O17 0.720001 0.426218 0.966452
#
# Coordination Sequence:
#
# PCOD9101706 Si02
#       8
#     2   2   2   2   2   2   2   2
#     4  10  21  39  60  90 124 157 209 253 293 371
#     4  11  23  39  62  88 125 167 201 249 312 360
#     4  10  21  38  63  90 122 155 205 259 293 362
#     4  10  20  39  63  87 118 164 198 252 312 360
#     4  10  20  38  60  89 120 152 201 249 299 351
#     4  10  20  38  64  89 119 157 207 253 304 355
#     4  11  23  40  65  90 121 162 203 252 308 362
#     4  10  22  39  59  87 125 157 204 248 303 374
#
# _framework density 23.759512000000001
#
# number of rings (size 3 to 8) (size 9 to 14) (size 15 to 20)
#    0.000    1.750    2.500    2.250    1.750    1.000 
#    2.250    3.125    0.000    0.000    0.000    0.000 
#    0.000    0.000    0.000    0.000    0.000    0.000 
#
# Total GULP energy -89174.531083 kJ/mol
# GULP energy per Si atom -5573.408193 kJ/mol
# Density = 2.370543 g / cm^3
# Si number density = 23.759512 Si / 1000 Ang^3
#
#
#
# Elastic Constant Matrix: (Units=GPa)
#
#
# Indices 1 2 3 4 5 6 
#
# 1 43.5026 20.2033 17.8879 5.1613 -9.6296 -11.1553
# 2 20.2033 48.8641 9.9803 -13.8929 -5.9713 -13.7185
# 3 17.8879 9.9803 141.2936 -4.2521 -2.6274 4.7317
# 4 5.1613 -13.8929 -4.2521 42.3539 1.1019 -1.2218
# 5 -9.6296 -5.9713 -2.6274 1.1019 32.6757 -3.4623
# 6 -11.1553 -13.7185 4.7317 -1.2218 -3.4623 24.3178
#
#
#
# Elastic Compliance Matrix: (Units=1/GPa)
#
#
# Indices 1 2 3 4 5 6 
#
# 1 0.036654 -0.012362 -0.004242 -0.008866 0.009731 0.011606
# 2 -0.012362 0.034054 -0.000882 0.012923 0.003650 0.014881
# 3 -0.004242 -0.000882 0.007819 0.000927 -0.001248 -0.004096
# 4 -0.008866 0.012923 0.000927 0.029168 -0.000693 0.004409
# 5 0.009731 0.003650 -0.001248 -0.000693 0.035307 0.011758
# 6 0.011606 0.014881 -0.004096 0.004409 0.011758 0.057533
#
#
# Mechanical properties :
#
#
# Convention : Reuss Voigt Hill
#
# Bulk Modulus (GPa) = 22.95912 36.64482 29.80197
# Shear Modulus (GPa) = 19.99792 32.24207 26.11999
#
# Velocity S-wave (km/s) = 2.90432 3.68777 3.31924
# Velocity P-wave (km/s) = 4.57503 5.79565 5.22113
#
# Compressibility (1/GPa) = 0.04355568
#
# Stress axis : x y z
#
# Youngs Moduli (GPa) = 27.28192 29.36503 127.89956
#
# Poissons Ratio (x) = 0.36301 0.54253
# Poissons Ratio (y) = 0.33726 0.11280
# Poissons Ratio (z) = 0.11573 0.02590
#
# Static dielectric constant tensor:
#      x y z
#    x 1.887060 -0.024790 0.026240 
#    y -0.024790 2.097530 -0.061820 
#    z 0.026240 -0.061820 2.037150 
# 
# From -- ./inp_files/245215.got.cif
#   From: 2010.05.17/outbox.cif.g08.bks.cpg/sg2_123_cif.got.tgz:245215.got - 2010.06.03 11:33:40.
