data_PCOD9101209
_publ_section_title
;
Structure prediction by ZEFSAII (Michael W. Deem and Ramdas Pophale) SiO2 
 PCOD9101209
Probable space group: P -1
;
_chemical_formula_sum "Si O2"
_cell_formula_units_Z 16
_cell_length_a 8.624854
_cell_length_b 12.260830
_cell_length_c 17.006754
_cell_angle_alpha 49.297857
_cell_angle_beta 105.861112
_cell_angle_gamma 144.164354
_cell_volume 652.863896
_symmetry_space_group_name_H-M "P -1"
_symmetry_group_IT_number 2
_symmetry_cell_setting 'triclinic'
loop_
_space_group_symop_operation_xyz
x,y,z
-x,-y,-z
loop_
_atom_site_type_symbol
_atom_site_label
_atom_site_fract_x
_atom_site_fract_y
_atom_site_fract_z
Si Si1 0.603895 0.608625 0.832159
Si Si2 0.984695 0.615177 0.552879
Si Si3 0.381435 0.633073 0.936784
Si Si4 0.726123 0.145247 0.673454
Si Si5 0.325253 0.246653 0.648737
Si Si6 0.389839 0.283706 0.820633
Si Si7 0.901537 0.306796 0.296555
Si Si8 0.858791 0.219415 0.953263
O O1 0.478990 0.618394 0.878201
O O2 0.398795 0.428947 0.809662
O O3 0.581767 0.434837 0.951066
O O4 0.978410 0.933100 0.715471
O O5 0.991929 0.456706 0.599581
O O6 0.603376 0.340549 0.644570
O O7 0.114187 0.801952 0.407521
O O8 0.160516 0.783017 0.579464
O O9 0.006617 0.370481 0.988947
O O10 0.602345 0.942343 0.817984
O O11 0.397312 0.957682 0.677817
O O12 0.500000 0.500000 0.500000
O O13 0.283397 0.246793 0.735652
O O14 0.761020 0.510235 0.764163
O O15 0.172962 0.979048 0.961260
O O16 0.950010 0.518296 0.198757
O O17 0.500000 0.000000 0.000000
#
# Coordination Sequence:
#
# PCOD9101209 Si02
#       8
#     2   2   2   2   2   2   2   2
#     4  11  23  40  60  88 123 159 205 244 297 361
#     4  10  21  36  61  86 117 155 199 241 299 355
#     4  10  22  40  59  88 125 160 198 254 296 349
#     4  10  20  38  57  87 117 155 197 242 300 349
#     4  11  23  42  61  86 122 158 199 252 296 359
#     4  10  21  38  60  88 118 158 200 245 299 359
#     4   9  19  35  57  86 119 149 193 249 296 347
#     4   9  18  37  58  87 119 152 193 242 301 351
#
# _framework density 24.507404999999999
#
# number of rings (size 3 to 8) (size 9 to 14) (size 15 to 20)
#    0.000    2.000    1.250    1.875    1.750    1.000 
#    0.000    8.750    0.000    0.000    0.000    0.000 
#    0.000    0.000    0.000    0.000    0.000    0.000 
#
# Total GULP energy -89352.229914 kJ/mol
# GULP energy per Si atom -5584.514370 kJ/mol
# Density = 2.445162 g / cm^3
# Si number density = 24.507405 Si / 1000 Ang^3
#
#
#
# Elastic Constant Matrix: (Units=GPa)
#
#
# Indices 1 2 3 4 5 6 
#
# 1 22.2637 9.6488 13.4219 4.3065 -7.1254 5.0185
# 2 9.6488 73.1818 29.8267 -4.6520 5.5195 -10.6701
# 3 13.4219 29.8267 108.8682 -8.7528 7.0443 -6.0845
# 4 4.3065 -4.6520 -8.7528 36.3638 5.5697 -6.7049
# 5 -7.1254 5.5195 7.0443 5.5697 32.3463 -2.6039
# 6 5.0185 -10.6701 -6.0845 -6.7049 -2.6039 26.1466
#
#
#
# Elastic Compliance Matrix: (Units=1/GPa)
#
#
# Indices 1 2 3 4 5 6 
#
# 1 0.072475 -0.011907 -0.010063 -0.020313 0.021742 -0.024155
# 2 -0.011907 0.018411 -0.002165 0.005982 -0.005495 0.010282
# 3 -0.010063 -0.002165 0.012049 0.005461 -0.005029 0.004752
# 4 -0.020313 0.005982 0.005461 0.036705 -0.011729 0.015855
# 5 0.021742 -0.005495 -0.005029 -0.011729 0.039219 -0.006688
# 6 -0.024155 0.010282 0.004752 0.015855 -0.006688 0.051584
#
#
# Mechanical properties :
#
#
# Convention : Reuss Voigt Hill
#
# Bulk Modulus (GPa) = 18.29312 34.45648 26.37480
# Shear Modulus (GPa) = 16.83870 29.06575 22.95222
#
# Velocity S-wave (km/s) = 2.62408 3.44757 3.06362
# Velocity P-wave (km/s) = 4.08186 5.47154 4.82697
#
# Compressibility (1/GPa) = 0.05466535
#
# Stress axis : x y z
#
# Youngs Moduli (GPa) = 13.79777 54.31626 82.99310
#
# Poissons Ratio (x) = 0.64676 0.83515
# Poissons Ratio (y) = 0.16429 0.17967
# Poissons Ratio (z) = 0.13884 0.11759
#
# Static dielectric constant tensor:
#      x y z
#    x 2.100410 0.042300 -0.036390 
#    y 0.042300 1.951540 0.023640 
#    z -0.036390 0.023640 1.969120 
# 
# From -- ./inp_files/273552.got.cif
#   From: 2010.05.17/outbox.cif.g08.bks.cpg/sg2_137_cif.got.tgz:273552.got - 2010.06.03 11:33:40.
