data_PCOD9101222
_publ_section_title
;
Structure prediction by ZEFSAII (Michael W. Deem and Ramdas Pophale) SiO2 
 PCOD9101222
Probable space group: P -1
;
_chemical_formula_sum "Si O2"
_cell_formula_units_Z 16
_cell_length_a 14.851128
_cell_length_b 18.554113
_cell_length_c 28.661489
_cell_angle_alpha 161.186957
_cell_angle_beta 21.482887
_cell_angle_gamma 160.721492
_cell_volume 788.371142
_symmetry_space_group_name_H-M "P -1"
_symmetry_group_IT_number 2
_symmetry_cell_setting 'triclinic'
loop_
_space_group_symop_operation_xyz
x,y,z
-x,-y,-z
loop_
_atom_site_type_symbol
_atom_site_label
_atom_site_fract_x
_atom_site_fract_y
_atom_site_fract_z
Si Si1 0.343569 0.427035 0.893778
Si Si2 0.669713 0.157694 0.559327
Si Si3 0.927465 0.951317 0.950716
Si Si4 0.629469 0.662173 0.584558
Si Si5 0.233036 0.176161 0.616990
Si Si6 0.214485 0.820254 0.926760
Si Si7 0.670221 0.419801 0.108367
Si Si8 0.754915 0.349783 0.406176
O O1 0.478662 0.253822 0.736144
O O2 0.588304 0.720338 0.970530
O O3 0.341520 0.431959 0.841464
O O4 0.039029 0.333266 0.007028
O O5 0.977730 0.405322 0.545600
O O6 0.500000 0.000000 0.500000
O O7 0.721669 0.981831 0.461107
O O8 0.137204 0.850979 0.772536
O O9 0.935680 0.152459 0.031465
O O10 0.000000 0.000000 0.000000
O O11 0.500000 0.500000 0.500000
O O12 0.390339 0.683763 0.743224
O O13 0.740235 0.493948 0.455068
O O14 0.896085 0.970616 0.639276
O O15 0.349024 0.459433 0.759212
O O16 0.445479 0.220956 0.500154
O O17 0.440403 0.110830 0.018598
O O18 0.000000 0.500000 0.000000
#
# Coordination Sequence:
#
# PCOD9101222 Si02
#       8
#     2   2   2   2   2   2   2   2
#     4  10  23  39  60  91 122 155 201 244 296 356
#     4  10  20  38  57  88 123 153 192 243 289 350
#     4  10  22  43  63  88 122 156 204 254 293 350
#     4  11  25  43  61  89 122 154 203 255 296 353
#     4  11  23  40  62  89 123 158 199 244 300 359
#     4  11  24  39  64  92 118 162 201 242 306 356
#     4  11  23  39  58  88 128 158 194 247 293 359
#     4  10  24  39  62  91 116 161 201 238 305 356
#
# _framework density 20.295010000000001
#
# number of rings (size 3 to 8) (size 9 to 14) (size 15 to 20)
#    0.000    1.500    2.500    1.500    3.500    3.000 
#    0.000    0.000    0.000    0.000    0.000    0.000 
#    0.000    0.000    0.000    0.000    0.000    0.000 
#
# Total GULP energy -89188.455608 kJ/mol
# GULP energy per Si atom -5574.278475 kJ/mol
# Density = 2.024882 g / cm^3
# Si number density = 20.295010 Si / 1000 Ang^3
#
#
#
# Elastic Constant Matrix: (Units=GPa)
#
#
# Indices 1 2 3 4 5 6 
#
# 1 69.3576 23.1743 -17.5021 9.0967 6.4902 27.1096
# 2 23.1743 59.2323 37.8129 -31.5321 19.9660 12.6985
# 3 -17.5021 37.8129 36.7737 -9.3539 -8.7850 8.3673
# 4 9.0967 -31.5321 -9.3539 30.4837 0.8367 -2.6337
# 5 6.4902 19.9660 -8.7850 0.8367 31.9009 1.2412
# 6 27.1096 12.6985 8.3673 -2.6337 1.2412 19.1132
#
#
#
# Elastic Compliance Matrix: (Units=1/GPa)
#
#
# Indices 1 2 3 4 5 6 
#
# 1 0.012961 0.023232 -0.013240 0.014521 -0.020243 -0.024707
# 2 0.023232 -0.001910 0.022254 -0.005874 0.004406 -0.042521
# 3 -0.013240 0.022254 0.000305 0.028137 -0.012221 0.008531
# 4 0.014521 -0.005874 0.028137 0.028574 0.008719 -0.025640
# 5 -0.020243 0.004406 -0.012221 0.008719 0.027926 0.030523
# 6 -0.024707 -0.042521 0.008531 -0.025640 0.030523 0.106364
#
#
# Mechanical properties :
#
#
# Convention : Reuss Voigt Hill
#
# Bulk Modulus (GPa) = 13.18411 28.03710 20.61061
# Shear Modulus (GPa) = 37.03398 24.42480 30.72939
#
# Velocity S-wave (km/s) = 4.27638 3.47290 3.89541
# Velocity P-wave (km/s) = 5.55820 5.47048 5.51451
#
# Compressibility (1/GPa) = 0.07584888
#
# Stress axis : x y z
#
# Youngs Moduli (GPa) = 77.15202 -523.53650 3278.01607
#
# Poissons Ratio (x) = 12.16283 43.40133
# Poissons Ratio (y) = -1.79240 -72.94995
# Poissons Ratio (z) = 1.02150 11.65094
#
# Static dielectric constant tensor:
#      x y z
#    x 1.797460 -0.014000 -0.003370 
#    y -0.014000 1.714160 0.093040 
#    z -0.003370 0.093040 1.449070 
# 
# From -- ./inp_files/70057.got.cif
#   From: 2010.05.17/outbox.cif.g08.bks.cpg/sg2_36_cif.got.tgz:70057.got - 2010.06.03 11:33:40.
