data_PCOD9101970
_publ_section_title
;
Structure prediction by ZEFSAII (Michael W. Deem and Ramdas Pophale) SiO2 
 PCOD9101970
Probable space group: P -1
;
_chemical_formula_sum "Si O2"
_cell_formula_units_Z 16
_cell_length_a 17.929676
_cell_length_b 13.174525
_cell_length_c 9.644221
_cell_angle_alpha 148.568114
_cell_angle_beta 38.576727
_cell_angle_gamma 146.138107
_cell_volume 640.571379
_symmetry_space_group_name_H-M "P -1"
_symmetry_group_IT_number 2
_symmetry_cell_setting 'triclinic'
loop_
_space_group_symop_operation_xyz
x,y,z
-x,-y,-z
loop_
_atom_site_type_symbol
_atom_site_label
_atom_site_fract_x
_atom_site_fract_y
_atom_site_fract_z
Si Si1 0.316351 0.275862 0.780354
Si Si2 0.535560 0.255722 0.236698
Si Si3 0.175678 0.817076 0.606807
Si Si4 0.893646 0.625970 0.929640
Si Si5 0.755542 0.610695 0.520595
Si Si6 0.476143 0.265736 0.015515
Si Si7 0.717013 0.200139 0.267287
Si Si8 0.026942 0.730503 0.158630
O O1 0.430660 0.262548 0.507235
O O2 0.398116 0.533625 0.016184
O O3 0.253307 0.072559 0.741744
O O4 0.199146 0.263664 0.835730
O O5 0.686205 0.444750 0.294202
O O6 0.509167 0.307488 0.180045
O O7 0.500000 0.000000 0.000000
O O8 0.189111 0.644753 0.283251
O O9 0.226775 0.788367 0.648168
O O10 0.012501 0.725206 0.754452
O O11 0.967736 0.686654 0.039038
O O12 0.659872 0.719483 0.808819
O O13 0.736336 0.435710 0.464442
O O14 0.919444 0.782615 0.458570
O O15 0.437641 0.009736 0.753530
O O16 0.807604 0.142769 0.957602
O O17 0.000000 0.500000 0.000000
#
# Coordination Sequence:
#
# PCOD9101970 Si02
#       8
#     2   2   2   2   2   2   2   2
#     4  11  24  38  65  93 120 163 209 248 307 368
#     4  11  22  39  64  91 124 159 199 256 312 368
#     4  10  24  41  64  90 120 169 210 250 300 359
#     4  10  21  43  65  89 128 156 206 261 299 357
#     4  10  20  38  61  89 124 156 202 253 311 367
#     4  11  23  38  60  90 124 158 198 257 309 363
#     4  10  22  40  57  87 126 161 205 250 300 362
#     4   9  19  36  63  92 119 155 199 248 310 368
#
# _framework density 24.977702000000001
#
# number of rings (size 3 to 8) (size 9 to 14) (size 15 to 20)
#    0.000    1.750    1.250    3.375    3.500    2.000 
#    0.000   10.625    0.000    0.000    0.000    0.000 
#    0.000    0.000    0.000    0.000    0.000    0.000 
#
# Total GULP energy -89514.364763 kJ/mol
# GULP energy per Si atom -5594.647798 kJ/mol
# Density = 2.492085 g / cm^3
# Si number density = 24.977702 Si / 1000 Ang^3
#
#
#
# Elastic Constant Matrix: (Units=GPa)
#
#
# Indices 1 2 3 4 5 6 
#
# 1 89.4066 32.7281 8.4373 4.2558 -19.1911 -23.0884
# 2 32.7281 165.2642 24.6957 18.2792 -10.0879 -26.6815
# 3 8.4373 24.6957 53.4255 -9.9011 -14.8635 -7.4298
# 4 4.2558 18.2792 -9.9011 34.3547 3.1870 -7.1182
# 5 -19.1911 -10.0879 -14.8635 3.1870 35.0889 9.1746
# 6 -23.0884 -26.6815 -7.4298 -7.1182 9.1746 34.4442
#
#
#
# Elastic Compliance Matrix: (Units=1/GPa)
#
#
# Indices 1 2 3 4 5 6 
#
# 1 0.014889 -0.001584 0.001202 0.000303 0.006230 0.007416
# 2 -0.001584 0.007968 -0.003969 -0.004376 -0.000790 0.003561
# 3 0.001202 -0.003969 0.024733 0.008847 0.008502 0.002630
# 4 0.000303 -0.004376 0.008847 0.035550 -0.002322 0.006687
# 5 0.006230 -0.000790 0.008502 -0.002322 0.036766 -0.004875
# 6 0.007416 0.003561 0.002630 0.006687 -0.004875 0.040009
#
#
# Mechanical properties :
#
#
# Convention : Reuss Voigt Hill
#
# Bulk Modulus (GPa) = 25.71475 48.86873 37.29174
# Shear Modulus (GPa) = 27.53586 36.92657 32.23121
#
# Velocity S-wave (km/s) = 3.32387 3.84914 3.59611
# Velocity P-wave (km/s) = 5.00482 6.27391 5.67495
#
# Compressibility (1/GPa) = 0.03888818
#
# Stress axis : x y z
#
# Youngs Moduli (GPa) = 67.16223 125.49602 40.43162
#
# Poissons Ratio (x) = 0.19881 -0.04859
# Poissons Ratio (y) = 0.10640 0.16047
# Poissons Ratio (z) = -0.08071 0.49808
#
# Static dielectric constant tensor:
#      x y z
#    x 1.916230 0.051310 0.003630 
#    y 0.051310 2.023690 -0.020350 
#    z 0.003630 -0.020350 2.073250 
# 
# From -- ./inp_files/471979.got.cif
#   From: 2010.05.17/outbox.cif.g08.bks.cpg/sg2_236_cif.got.tgz:471979.got - 2010.06.03 11:33:40.
