data_PCOD9101655
_publ_section_title
;
Structure prediction by ZEFSAII (Michael W. Deem and Ramdas Pophale) SiO2 
 PCOD9101655
Probable space group: P -1
;
_chemical_formula_sum "Si O2"
_cell_formula_units_Z 14
_cell_length_a 9.048108
_cell_length_b 19.531861
_cell_length_c 9.436023
_cell_angle_alpha 40.858511
_cell_angle_beta 138.552480
_cell_angle_gamma 150.314658
_cell_volume 517.781001
_symmetry_space_group_name_H-M "P -1"
_symmetry_group_IT_number 2
_symmetry_cell_setting 'triclinic'
loop_
_space_group_symop_operation_xyz
x,y,z
-x,-y,-z
loop_
_atom_site_type_symbol
_atom_site_label
_atom_site_fract_x
_atom_site_fract_y
_atom_site_fract_z
Si Si1 0.129891 0.818779 0.828307
Si Si2 0.125610 0.786896 0.439446
Si Si3 0.597972 0.630242 0.962630
Si Si4 0.741517 0.965513 0.256769
Si Si5 0.212649 0.661743 0.463944
Si Si6 0.877689 0.571622 0.843078
Si Si7 0.137562 0.976143 0.330881
O O1 0.043271 0.857263 0.566561
O O2 0.921062 0.760329 0.911712
O O3 0.096551 0.693658 0.934056
O O4 0.396494 0.979419 0.834970
O O5 0.074494 0.717141 0.359118
O O6 0.078391 0.895262 0.267989
O O7 0.903911 0.651429 0.599153
O O8 0.489222 0.886750 0.595697
O O9 0.395623 0.663061 0.717815
O O10 0.500000 0.500000 0.000000
O O11 0.461134 0.554155 0.135201
O O12 0.452589 0.789094 0.324585
O O13 0.930053 0.007228 0.180098
O O14 0.000000 0.000000 0.500000
O O15 0.000000 0.500000 0.500000
O O16 0.000000 0.500000 0.000000
#
# Coordination Sequence:
#
# PCOD9101655 Si02
#       7
#     2   2   2   2   2   2   2
#     4   9  16  29  52  78 100 135 193 225 260 313
#     4  10  18  31  48  88 108 135 179 240 279 313
#     4  10  19  34  53  77 108 147 188 220 265 335
#     4  10  16  32  54  77 104 142 191 227 264 320
#     4  12  22  34  54  86 120 143 176 236 291 328
#     4  10  19  27  49  80 114 138 177 236 275 310
#     4   9  16  28  56  76 105 131 193 243 262 297
#
# _framework density 27.038457999999999
#
# number of rings (size 3 to 8) (size 9 to 14) (size 15 to 20)
#    0.000    2.000    7.143    0.000    0.000    0.000 
#    0.000    0.714    0.000    3.429    0.000    2.000 
#    0.000    0.000    0.000    0.000    0.000    0.000 
#
# Total GULP energy -77976.398774 kJ/mol
# GULP energy per Si atom -5569.742770 kJ/mol
# Density = 2.697692 g / cm^3
# Si number density = 27.038458 Si / 1000 Ang^3
#
#
#
# Elastic Constant Matrix: (Units=GPa)
#
#
# Indices 1 2 3 4 5 6 
#
# 1 206.3097 67.5785 32.1395 -11.4467 -4.6621 -30.2812
# 2 67.5785 98.8996 10.4558 -15.0437 5.9079 -17.7614
# 3 32.1395 10.4558 72.5695 -6.1925 -35.5774 2.9787
# 4 -11.4467 -15.0437 -6.1925 28.5361 -9.3418 -0.9460
# 5 -4.6621 5.9079 -35.5774 -9.3418 57.9725 -22.2105
# 6 -30.2812 -17.7614 2.9787 -0.9460 -22.2105 69.6641
#
#
#
# Elastic Compliance Matrix: (Units=1/GPa)
#
#
# Indices 1 2 3 4 5 6 
#
# 1 0.006882 -0.004035 -0.002304 0.000356 0.000455 0.002211
# 2 -0.004035 0.014093 0.000221 0.005947 0.000074 0.001934
# 3 -0.002304 0.000221 0.024230 0.010408 0.017810 0.003839
# 4 0.000356 0.005947 0.010408 0.046005 0.015871 0.006911
# 5 0.000455 0.000074 0.017810 0.015871 0.034903 0.010799
# 6 0.002211 0.001934 0.003839 0.006911 0.010799 0.019182
#
#
# Mechanical properties :
#
#
# Convention : Reuss Voigt Hill
#
# Bulk Modulus (GPa) = 30.33058 66.45847 48.39453
# Shear Modulus (GPa) = 29.66997 49.07486 39.37241
#
# Velocity S-wave (km/s) = 3.31618 4.26491 3.82011
# Velocity P-wave (km/s) = 5.08966 6.99179 6.11514
#
# Compressibility (1/GPa) = 0.03297003
#
# Stress axis : x y z
#
# Youngs Moduli (GPa) = 145.30019 70.95918 41.27044
#
# Poissons Ratio (x) = 0.28633 0.09508
# Poissons Ratio (y) = 0.58630 -0.00913
# Poissons Ratio (z) = 0.33474 -0.01570
#
# Static dielectric constant tensor:
#      x y z
#    x 2.168570 0.097500 0.025300 
#    y 0.097500 2.681660 -0.341460 
#    z 0.025300 -0.341460 2.727520 
# 
# From -- ./inp_files/253218.got.cif
#   From: 2010.05.17/outbox.cif.g08.bks.cpg/sg2_127_cif.got.tgz:253218.got - 2010.06.03 11:33:40.
