data_PCOD9101363
_publ_section_title
;
Structure prediction by ZEFSAII (Michael W. Deem and Ramdas Pophale) SiO2 
 PCOD9101363
Probable space group: P -1
;
_chemical_formula_sum "Si O2"
_cell_formula_units_Z 12
_cell_length_a 4.967152
_cell_length_b 10.943690
_cell_length_c 15.226037
_cell_angle_alpha 132.379816
_cell_angle_beta 67.347675
_cell_angle_gamma 87.181748
_cell_volume 503.037994
_symmetry_space_group_name_H-M "P -1"
_symmetry_group_IT_number 2
_symmetry_cell_setting 'triclinic'
loop_
_space_group_symop_operation_xyz
x,y,z
-x,-y,-z
loop_
_atom_site_type_symbol
_atom_site_label
_atom_site_fract_x
_atom_site_fract_y
_atom_site_fract_z
Si Si1 0.278982 0.624779 0.691387
Si Si2 0.540697 0.860583 0.850341
Si Si3 0.476656 0.161428 0.346133
Si Si4 0.720409 0.378368 0.834400
Si Si5 0.414477 0.349238 0.691993
Si Si6 0.955760 0.048010 0.390328
O O1 0.295794 0.767532 0.832914
O O2 0.517269 0.653457 0.604086
O O3 0.379281 0.439410 0.643681
O O4 0.917636 0.703883 0.735347
O O5 0.486313 0.950975 0.803954
O O6 0.500000 0.000000 0.000000
O O7 0.774269 0.068623 0.330234
O O8 0.145962 0.173923 0.433032
O O9 0.553203 0.439231 0.790069
O O10 0.500000 0.500000 0.000000
O O11 0.070633 0.375276 0.783454
O O12 0.793525 0.164766 0.732304
O O13 0.671672 0.134870 0.540514
#
# Coordination Sequence:
#
# PCOD9101363 Si02
#       6
#     2   2   2   2   2   2
#     4  10  22  40  62 103 135 173 223 271 335 402
#     4  10  20  38  58  94 141 184 217 257 334 405
#     4  10  22  40  64 106 134 176 222 274 338 402
#     4  12  28  49  70 100 133 181 235 289 338 400
#     4  12  26  47  72 101 136 182 227 286 339 404
#     4  12  24  45  73 100 138 181 228 282 336 408
#
# _framework density 23.855056999999999
#
# number of rings (size 3 to 8) (size 9 to 14) (size 15 to 20)
#    1.000    0.000    1.667    5.000    0.000    5.333 
#    0.000    0.000    0.000    0.000    0.000    0.000 
#    0.000    0.000    0.000    0.000    0.000    0.000 
#
# Total GULP energy -67070.690962 kJ/mol
# GULP energy per Si atom -5589.224247 kJ/mol
# Density = 2.380076 g / cm^3
# Si number density = 23.855057 Si / 1000 Ang^3
#
#
#
# Elastic Constant Matrix: (Units=GPa)
#
#
# Indices 1 2 3 4 5 6 
#
# 1 123.2765 25.8579 20.3525 -1.5666 -2.9028 -11.8109
# 2 25.8579 92.3556 44.5934 -10.4414 -8.6653 -20.6220
# 3 20.3525 44.5934 106.5617 -13.9205 -13.4617 -2.9098
# 4 -1.5666 -10.4414 -13.9205 22.0956 -3.1591 6.5118
# 5 -2.9028 -8.6653 -13.4617 -3.1591 37.8128 -15.8767
# 6 -11.8109 -20.6220 -2.9098 6.5118 -15.8767 35.1949
#
#
#
# Elastic Compliance Matrix: (Units=1/GPa)
#
#
# Indices 1 2 3 4 5 6 
#
# 1 0.008857 -0.001395 -0.001083 -0.001388 0.001028 0.002786
# 2 -0.001395 0.017552 -0.005550 0.002130 0.007255 0.012236
# 3 -0.001083 -0.005550 0.013071 0.006675 0.002805 -0.002504
# 4 -0.001388 0.002130 0.006675 0.052908 0.004476 -0.006436
# 5 0.001028 0.007255 0.002805 0.004476 0.038539 0.021385
# 6 0.002786 0.012236 -0.002504 -0.006436 0.021385 0.047148
#
#
# Mechanical properties :
#
#
# Convention : Reuss Voigt Hill
#
# Bulk Modulus (GPa) = 42.69090 55.97794 49.33442
# Shear Modulus (GPa) = 24.76004 34.44668 29.60336
#
# Velocity S-wave (km/s) = 3.22520 3.80412 3.52656
# Velocity P-wave (km/s) = 5.63950 6.54308 6.10802
#
# Compressibility (1/GPa) = 0.02342420
#
# Stress axis : x y z
#
# Youngs Moduli (GPa) = 112.90787 56.97515 76.50319
#
# Poissons Ratio (x) = 0.07949 0.08286
# Poissons Ratio (y) = 0.15752 0.42456
# Poissons Ratio (z) = 0.12228 0.31619
#
# Static dielectric constant tensor:
#      x y z
#    x 1.891740 0.017790 0.034150 
#    y 0.017790 1.966050 -0.009200 
#    z 0.034150 -0.009200 1.988450 
# 
# From -- ./inp_files/371796.got.cif
#   From: 2010.05.17/outbox.cif.g08.bks.cpg/sg2_186_cif.got.tgz:371796.got - 2010.06.03 11:33:40.
