data_PCOD9101490
_publ_section_title
;
Structure prediction by ZEFSAII (Michael W. Deem and Ramdas Pophale) SiO2 
 PCOD9101490
Probable space group: P -1
;
_chemical_formula_sum "Si O2"
_cell_formula_units_Z 16
_cell_length_a 11.065564
_cell_length_b 20.360850
_cell_length_c 6.981539
_cell_angle_alpha 41.475632
_cell_angle_beta 50.564785
_cell_angle_gamma 38.384691
_cell_volume 642.477185
_symmetry_space_group_name_H-M "P -1"
_symmetry_group_IT_number 2
_symmetry_cell_setting 'triclinic'
loop_
_space_group_symop_operation_xyz
x,y,z
-x,-y,-z
loop_
_atom_site_type_symbol
_atom_site_label
_atom_site_fract_x
_atom_site_fract_y
_atom_site_fract_z
Si Si1 0.653456 0.342718 0.360698
Si Si2 0.370616 0.242562 0.459069
Si Si3 0.481518 0.811577 0.124101
Si Si4 0.957019 0.724474 0.834006
Si Si5 0.530950 0.392444 0.954277
Si Si6 0.868057 0.565243 0.177126
Si Si7 0.547241 0.985026 0.759638
Si Si8 0.064141 0.673236 0.387916
O O1 0.655483 0.230103 0.683234
O O2 0.871304 0.287476 0.201679
O O3 0.578342 0.462751 0.303796
O O4 0.525538 0.389892 0.195793
O O5 0.446486 0.217060 0.660235
O O6 0.152960 0.273778 0.600081
O O7 0.505272 0.115437 0.479565
O O8 0.410037 0.340003 0.133420
O O9 0.676262 0.706053 0.043679
O O10 0.414058 0.951182 0.865536
O O11 0.761876 0.860910 0.773329
O O12 0.006043 0.708271 0.593301
O O13 0.975864 0.599318 0.138043
O O14 0.763536 0.309958 0.850759
O O15 0.819774 0.471375 0.475708
O O16 0.000000 0.500000 0.000000
O O17 0.500000 0.000000 0.000000
#
# Coordination Sequence:
#
# PCOD9101490 Si02
#       8
#     2   2   2   2   2   2   2   2
#     4  10  20  38  59  89 123 146 194 252 287 357
#     4  10  22  39  59  84 121 158 199 247 282 350
#     4   9  18  37  60  85 113 152 199 243 295 337
#     4  10  22  38  60  87 117 157 199 239 296 351
#     4  10  22  38  59  94 121 152 193 240 304 350
#     4   9  18  34  54  85 116 148 194 233 290 361
#     4   9  20  40  61  84 109 157 209 241 287 342
#     4  11  22  38  60  89 124 159 189 240 306 352
#
# _framework density 24.903606
#
# number of rings (size 3 to 8) (size 9 to 14) (size 15 to 20)
#    0.000    2.250    1.250    0.750    5.250    1.500 
#    9.000    2.500    0.000    0.000    0.000    0.000 
#    0.000    0.000    0.000    0.000    0.000    0.000 
#
# Total GULP energy -89096.977928 kJ/mol
# GULP energy per Si atom -5568.561120 kJ/mol
# Density = 2.484692 g / cm^3
# Si number density = 24.903606 Si / 1000 Ang^3
#
#
#
# Elastic Constant Matrix: (Units=GPa)
#
#
# Indices 1 2 3 4 5 6 
#
# 1 95.5054 44.2255 30.6065 -7.4757 -12.2154 12.7771
# 2 44.2255 171.5218 55.5599 -15.7879 -23.4193 26.5241
# 3 30.6065 55.5599 84.8223 -16.2546 -48.6758 6.8797
# 4 -7.4757 -15.7879 -16.2546 50.5772 14.3204 -6.2531
# 5 -12.2154 -23.4193 -48.6758 14.3204 49.5710 8.9717
# 6 12.7771 26.5241 6.8797 -6.2531 8.9717 37.0979
#
#
#
# Elastic Compliance Matrix: (Units=1/GPa)
#
#
# Indices 1 2 3 4 5 6 
#
# 1 0.012698 -0.001863 -0.003892 0.000155 -0.001258 -0.001989
# 2 -0.001863 0.008490 -0.004632 0.000431 -0.000321 -0.004419
# 3 -0.003892 -0.004632 0.037800 -0.001629 0.036515 -0.011462
# 4 0.000155 0.000431 -0.001629 0.022684 -0.008986 0.005937
# 5 -0.001258 -0.000321 0.036515 -0.008986 0.062268 -0.022682
# 6 -0.001989 -0.004419 -0.011462 0.005937 -0.022682 0.039412
#
#
# Mechanical properties :
#
#
# Convention : Reuss Voigt Hill
#
# Bulk Modulus (GPa) = 26.16946 68.07037 47.11991
# Shear Modulus (GPa) = 23.05582 42.21305 32.63444
#
# Velocity S-wave (km/s) = 3.04600 4.12157 3.62391
# Velocity P-wave (km/s) = 4.78560 7.07409 6.03923
#
# Compressibility (1/GPa) = 0.03821249
#
# Stress axis : x y z
#
# Youngs Moduli (GPa) = 78.75192 117.78180 26.45521
#
# Poissons Ratio (x) = 0.21945 0.10297
# Poissons Ratio (y) = 0.14673 0.12255
# Poissons Ratio (z) = 0.30652 0.54561
#
# Static dielectric constant tensor:
#      x y z
#    x 2.071370 -0.030400 0.022990 
#    y -0.030400 1.934700 0.000290 
#    z 0.022990 0.000290 2.258050 
# 
# From -- ./inp_files/282681.got.cif
#   From: 2010.05.17/outbox.cif.g08.bks.cpg/sg2_142_cif.got.tgz:282681.got - 2010.06.03 11:33:40.
