data_PCOD9101067
_publ_section_title
;
Structure prediction by ZEFSAII (Michael W. Deem and Ramdas Pophale) SiO2 
 PCOD9101067
Probable space group: P -1
;
_chemical_formula_sum "Si O2"
_cell_formula_units_Z 14
_cell_length_a 12.007970
_cell_length_b 20.914669
_cell_length_c 7.053325
_cell_angle_alpha 79.838525
_cell_angle_beta 117.194135
_cell_angle_gamma 149.923408
_cell_volume 687.700340
_symmetry_space_group_name_H-M "P -1"
_symmetry_group_IT_number 2
_symmetry_cell_setting 'triclinic'
loop_
_space_group_symop_operation_xyz
x,y,z
-x,-y,-z
loop_
_atom_site_type_symbol
_atom_site_label
_atom_site_fract_x
_atom_site_fract_y
_atom_site_fract_z
Si Si1 0.455679 0.336429 0.774407
Si Si2 0.288529 0.166227 0.064679
Si Si3 0.196726 0.677309 0.537226
Si Si4 0.718323 0.409722 0.561421
Si Si5 0.145128 0.318363 0.448947
Si Si6 0.724845 0.588587 0.912282
Si Si7 0.219288 0.833458 0.422578
O O1 0.638810 0.387278 0.726581
O O2 0.237793 0.285666 0.531916
O O3 0.654934 0.481086 0.965317
O O4 0.298906 0.214750 0.858324
O O5 0.521542 0.217746 0.194604
O O6 0.428226 0.273903 0.285728
O O7 0.000000 0.000000 0.000000
O O8 0.150859 0.600901 0.379920
O O9 0.250647 0.771917 0.442349
O O10 0.944536 0.560783 0.554427
O O11 0.413471 0.473495 0.693034
O O12 0.140279 0.347084 0.224889
O O13 0.861609 0.194472 0.407949
O O14 0.938492 0.723575 0.146163
O O15 0.500000 0.000000 0.500000
#
# Coordination Sequence:
#
# PCOD9101067 Si02
#       7
#     2   2   2   2   2   2   2
#     4  10  20  37  70  90 115 163 208 256 311 356
#     4  10  22  38  59  90 126 160 201 253 307 370
#     4   9  22  41  57  93 124 157 210 249 303 378
#     4   9  20  40  62  88 123 152 204 259 304 359
#     4   9  22  39  63  94 119 156 220 254 293 368
#     4   9  21  40  64  94 117 160 216 257 295 366
#     4  12  24  40  62  88 134 170 194 255 321 366
#
# _framework density 20.357703999999998
#
# number of rings (size 3 to 8) (size 9 to 14) (size 15 to 20)
#    1.714    0.571    0.000    2.143    2.000    2.857 
#    2.571    0.000    0.000    0.000    0.000    0.000 
#    0.000    0.000    0.000    0.000    0.000    0.000 
#
# Total GULP energy -77963.800595 kJ/mol
# GULP energy per Si atom -5568.842900 kJ/mol
# Density = 2.031137 g / cm^3
# Si number density = 20.357704 Si / 1000 Ang^3
#
#
#
# Elastic Constant Matrix: (Units=GPa)
#
#
# Indices 1 2 3 4 5 6 
#
# 1 53.1204 25.7283 -1.6523 -10.0199 -6.7759 4.6493
# 2 25.7283 186.7445 39.1865 -4.0691 -16.0785 7.3770
# 3 -1.6523 39.1865 38.1984 -7.3518 -5.2662 1.9204
# 4 -10.0199 -4.0691 -7.3518 20.1528 -0.0281 1.1366
# 5 -6.7759 -16.0785 -5.2662 -0.0281 18.3654 -9.8383
# 6 4.6493 7.3770 1.9204 1.1366 -9.8383 29.3413
#
#
#
# Elastic Compliance Matrix: (Units=1/GPa)
#
#
# Indices 1 2 3 4 5 6 
#
# 1 0.025275 -0.004498 0.009749 0.015318 0.007322 -0.001650
# 2 -0.004498 0.007962 -0.008700 -0.003824 0.003052 0.000452
# 3 0.009749 -0.008700 0.039955 0.017687 0.007362 -0.000189
# 4 0.015318 -0.003824 0.017687 0.063101 0.005798 -0.003123
# 5 0.007322 0.003052 0.007362 0.005798 0.073786 0.022107
# 6 -0.001650 0.000452 -0.000189 -0.003123 0.022107 0.041775
#
#
# Mechanical properties :
#
#
# Convention : Reuss Voigt Hill
#
# Bulk Modulus (GPa) = 15.08499 44.95425 30.01962
# Shear Modulus (GPa) = 17.80292 27.89195 22.84744
#
# Velocity S-wave (km/s) = 2.96041 3.70549 3.35371
# Velocity P-wave (km/s) = 4.37166 6.35906 5.45661
#
# Compressibility (1/GPa) = 0.06629108
#
# Stress axis : x y z
#
# Youngs Moduli (GPa) = 39.56496 125.59651 25.02820
#
# Poissons Ratio (x) = 0.56499 -0.24399
# Poissons Ratio (y) = 0.17798 0.21776
# Poissons Ratio (z) = -0.38570 1.09275
#
# Static dielectric constant tensor:
#      x y z
#    x 1.775450 -0.007500 0.010340 
#    y -0.007500 1.698050 -0.007750 
#    z 0.010340 -0.007750 1.791040 
# 
# From -- ./inp_files/101511.got.cif
#   From: 2010.05.17/outbox.cif.g08.bks.cpg/sg2_51_cif.got.tgz:101511.got - 2010.06.03 11:33:40.
