data_PCOD9101166
_publ_section_title
;
Structure prediction by ZEFSAII (Michael W. Deem and Ramdas Pophale) SiO2 
 PCOD9101166
Probable space group: P -1
;
_chemical_formula_sum "Si O2"
_cell_formula_units_Z 14
_cell_length_a 9.351312
_cell_length_b 10.189540
_cell_length_c 17.714018
_cell_angle_alpha 134.804847
_cell_angle_beta 46.498722
_cell_angle_gamma 99.213403
_cell_volume 673.579676
_symmetry_space_group_name_H-M "P -1"
_symmetry_group_IT_number 2
_symmetry_cell_setting 'triclinic'
loop_
_space_group_symop_operation_xyz
x,y,z
-x,-y,-z
loop_
_atom_site_type_symbol
_atom_site_label
_atom_site_fract_x
_atom_site_fract_y
_atom_site_fract_z
Si Si1 0.642749 0.599064 0.459266
Si Si2 0.442376 0.529747 0.943517
Si Si3 0.274472 0.647451 0.816696
Si Si4 0.441640 0.272045 0.716110
Si Si5 0.905300 0.796917 0.276477
Si Si6 0.327778 0.985189 0.844643
Si Si7 0.171058 0.413572 0.161060
O O1 0.500000 0.500000 0.500000
O O2 0.628522 0.572807 0.364430
O O3 0.944596 0.443886 0.300780
O O4 0.499584 0.850673 0.654151
O O5 0.465206 0.311003 0.810903
O O6 0.658679 0.539411 0.837965
O O7 0.500000 0.500000 0.000000
O O8 0.145874 0.759311 0.138330
O O9 0.365977 0.518105 0.810134
O O10 0.368222 0.785810 0.804963
O O11 0.968676 0.839835 0.001619
O O12 0.228084 0.253144 0.758533
O O13 0.698554 0.046743 0.493587
O O14 0.024425 0.602361 0.221833
O O15 0.355269 0.153478 0.951023
#
# Coordination Sequence:
#
# PCOD9101166 Si02
#       7
#     2   2   2   2   2   2   2
#     4   9  17  31  56  85 110 143 189 237 282 332
#     4  10  24  40  58  83 120 162 194 229 294 352
#     4   9  18  34  54  89 112 146 191 238 286 335
#     4  11  21  39  60  86 123 146 197 249 280 345
#     4  10  22  39  59  88 114 154 196 241 293 335
#     4   9  17  32  58  82 118 145 186 238 285 340
#     4  10  20  38  56  89 116 149 199 229 290 351
#
# _framework density 20.784476000000002
#
# number of rings (size 3 to 8) (size 9 to 14) (size 15 to 20)
#    0.000    2.286    2.857    1.286    0.000    6.857 
#    0.000    0.714    0.000    4.286    0.000    0.000 
#    0.000    0.000    0.000    0.000    0.000    0.000 
#
# Total GULP energy -77993.694788 kJ/mol
# GULP energy per Si atom -5570.978199 kJ/mol
# Density = 2.073717 g / cm^3
# Si number density = 20.784476 Si / 1000 Ang^3
#
#
#
# Elastic Constant Matrix: (Units=GPa)
#
#
# Indices 1 2 3 4 5 6 
#
# 1 119.4841 18.9682 52.1959 -6.4700 2.2613 26.0482
# 2 18.9682 52.5937 13.3547 6.0169 -8.6522 5.9991
# 3 52.1959 13.3547 126.1756 -4.6731 8.1959 8.3097
# 4 -6.4700 6.0169 -4.6731 32.3920 11.5141 -5.5569
# 5 2.2613 -8.6522 8.1959 11.5141 26.2422 -12.6151
# 6 26.0482 5.9991 8.3097 -5.5569 -12.6151 23.6105
#
#
#
# Elastic Compliance Matrix: (Units=1/GPa)
#
#
# Indices 1 2 3 4 5 6 
#
# 1 0.016101 -0.005498 -0.003468 0.005301 -0.014969 -0.021896
# 2 -0.005498 0.025009 -0.002460 -0.011215 0.018054 0.007584
# 3 -0.003468 -0.002460 0.010204 0.003022 -0.005746 -0.001499
# 4 0.005301 -0.011215 0.003022 0.042956 -0.028310 -0.009079
# 5 -0.014969 0.018054 -0.005746 -0.028310 0.084865 0.052629
# 6 -0.021896 0.007584 -0.001499 -0.009079 0.052629 0.091094
#
#
# Mechanical properties :
#
#
# Convention : Reuss Voigt Hill
#
# Bulk Modulus (GPa) = 35.13401 51.92123 43.52762
# Shear Modulus (GPa) = 16.52522 30.69791 23.61157
#
# Velocity S-wave (km/s) = 2.82277 3.84730 3.37415
# Velocity P-wave (km/s) = 5.25021 6.69108 6.01395
#
# Compressibility (1/GPa) = 0.02846245
#
# Stress axis : x y z
#
# Youngs Moduli (GPa) = 62.10889 39.98501 97.99753
#
# Poissons Ratio (x) = 0.21983 0.33985
# Poissons Ratio (y) = 0.34146 0.24110
# Poissons Ratio (z) = 0.21539 0.09838
#
# Static dielectric constant tensor:
#      x y z
#    x 1.822060 0.003200 0.030440 
#    y 0.003200 1.831100 -0.052070 
#    z 0.030440 -0.052070 1.787720 
# 
# From -- ./inp_files/337737.got.cif
#   From: 2010.05.17/outbox.cif.g08.bks.cpg/sg2_169_cif.got.tgz:337737.got - 2010.06.03 11:33:40.
