data_PCOD9101667
_publ_section_title
;
Structure prediction by ZEFSAII (Michael W. Deem and Ramdas Pophale) SiO2 
 PCOD9101667
Probable space group: P -1
;
_chemical_formula_sum "Si O2"
_cell_formula_units_Z 14
_cell_length_a 14.554103
_cell_length_b 16.779278
_cell_length_c 11.228691
_cell_angle_alpha 25.684188
_cell_angle_beta 40.265368
_cell_angle_gamma 36.850459
_cell_volume 703.428021
_symmetry_space_group_name_H-M "P -1"
_symmetry_group_IT_number 2
_symmetry_cell_setting 'triclinic'
loop_
_space_group_symop_operation_xyz
x,y,z
-x,-y,-z
loop_
_atom_site_type_symbol
_atom_site_label
_atom_site_fract_x
_atom_site_fract_y
_atom_site_fract_z
Si Si1 0.607857 0.266809 0.205887
Si Si2 0.600928 0.560140 0.227206
Si Si3 0.878736 0.397006 0.347257
Si Si4 0.568932 0.996455 0.305355
Si Si5 0.825697 0.101915 0.982385
Si Si6 0.069467 0.228335 0.159542
Si Si7 0.772084 0.200621 0.375538
O O1 0.705306 0.203874 0.071692
O O2 0.732076 0.210594 0.264304
O O3 0.491498 0.155453 0.493865
O O4 0.500000 0.500000 0.000000
O O5 0.500000 0.500000 0.500000
O O6 0.753972 0.524767 0.199582
O O7 0.646329 0.396730 0.297715
O O8 0.516005 0.783660 0.963235
O O9 0.015113 0.252152 0.320812
O O10 0.824802 0.263638 0.667037
O O11 0.913206 0.564520 0.160595
O O12 0.750234 0.957458 0.191458
O O13 0.500000 0.000000 0.500000
O O14 0.000000 0.000000 0.000000
O O15 0.935314 0.212111 0.231587
O O16 0.213584 0.013553 0.297372
#
# Coordination Sequence:
#
# PCOD9101667 Si02
#       7
#     2   2   2   2   2   2   2
#     4  11  24  42  63  90 129 171 209 257 319 382
#     4  11  21  38  66  88 119 161 214 260 299 373
#     4  10  20  38  63  91 122 161 213 256 313 377
#     4  10  22  42  65  90 125 173 209 248 322 384
#     4  11  23  40  65  92 125 166 217 260 305 383
#     4   9  20  37  62  89 122 160 195 263 327 374
#     4  10  20  38  60  87 122 159 203 254 315 372
#
# _framework density 19.902533999999999
#
# number of rings (size 3 to 8) (size 9 to 14) (size 15 to 20)
#    0.000    1.714    1.429    3.429    0.000    6.857 
#    2.571    2.857    0.000    0.000    0.000    0.000 
#    0.000    0.000    0.000    0.000    0.000    0.000 
#
# Total GULP energy -78067.759237 kJ/mol
# GULP energy per Si atom -5576.268517 kJ/mol
# Density = 1.985724 g / cm^3
# Si number density = 19.902534 Si / 1000 Ang^3
#
#
#
# Elastic Constant Matrix: (Units=GPa)
#
#
# Indices 1 2 3 4 5 6 
#
# 1 94.7258 18.3370 53.4875 -7.0845 -6.8957 -0.8896
# 2 18.3370 54.4745 34.8987 -10.7735 -7.9507 -14.0939
# 3 53.4875 34.8987 148.2568 -4.1951 -10.5692 -4.7208
# 4 -7.0845 -10.7735 -4.1951 34.3351 1.5530 4.3375
# 5 -6.8957 -7.9507 -10.5692 1.5530 37.0523 -3.3951
# 6 -0.8896 -14.0939 -4.7208 4.3375 -3.3951 24.7482
#
#
#
# Elastic Compliance Matrix: (Units=1/GPa)
#
#
# Indices 1 2 3 4 5 6 
#
# 1 0.013567 -0.001631 -0.004457 0.001906 0.000683 -0.001532
# 2 -0.001631 0.027729 -0.004935 0.005685 0.005331 0.014526
# 3 -0.004457 -0.004935 0.009510 -0.001237 0.000800 -0.000830
# 4 0.001906 0.005685 -0.001237 0.031480 -0.000326 -0.002492
# 5 0.000683 0.005331 0.000800 -0.000326 0.029168 0.007272
# 6 -0.001532 0.014526 -0.000830 -0.002492 0.007272 0.049901
#
#
# Mechanical properties :
#
#
# Convention : Reuss Voigt Hill
#
# Bulk Modulus (GPa) = 34.77120 56.76706 45.76913
# Shear Modulus (GPa) = 25.90833 31.94270 28.92551
#
# Velocity S-wave (km/s) = 3.61191 4.01054 3.81643
# Velocity P-wave (km/s) = 5.90789 7.07321 6.51665
#
# Compressibility (1/GPa) = 0.02875944
#
# Stress axis : x y z
#
# Youngs Moduli (GPa) = 73.70826 36.06368 105.14973
#
# Poissons Ratio (x) = 0.05883 0.46863
# Poissons Ratio (y) = 0.12025 0.51893
# Poissons Ratio (z) = 0.32850 0.17798
#
# Static dielectric constant tensor:
#      x y z
#    x 1.791610 -0.031150 -0.043760 
#    y -0.031150 1.735070 -0.018020 
#    z -0.043760 -0.018020 1.696210 
# 
# From -- ./inp_files/261906.got.cif
#   From: 2010.05.17/outbox.cif.g08.bks.cpg/sg2_131_cif.got.tgz:261906.got - 2010.06.03 11:33:40.
