data_PCOD9101192
_publ_section_title
;
Structure prediction by ZEFSAII (Michael W. Deem and Ramdas Pophale) SiO2 
 PCOD9101192
Probable space group: P -1
;
_chemical_formula_sum "Si O2"
_cell_formula_units_Z 16
_cell_length_a 28.515052
_cell_length_b 5.457543
_cell_length_c 4.968797
_cell_angle_alpha 97.002849
_cell_angle_beta 76.529243
_cell_angle_gamma 71.661757
_cell_volume 697.649645
_symmetry_space_group_name_H-M "P -1"
_symmetry_group_IT_number 2
_symmetry_cell_setting 'triclinic'
loop_
_space_group_symop_operation_xyz
x,y,z
-x,-y,-z
loop_
_atom_site_type_symbol
_atom_site_label
_atom_site_fract_x
_atom_site_fract_y
_atom_site_fract_z
Si Si1 0.197554 0.457654 0.623386
Si Si2 0.686334 0.859250 0.528629
Si Si3 0.581279 0.898179 0.819216
Si Si4 0.549680 0.449454 0.609302
Si Si5 0.361897 0.880404 0.877919
Si Si6 0.144758 0.375491 0.197572
Si Si7 0.886963 0.995552 0.216857
Si Si8 0.059933 0.923423 0.358353
O O1 0.258619 0.346776 0.499921
O O2 0.174366 0.290981 0.429156
O O3 0.165015 0.756196 0.621530
O O4 0.183121 0.454969 0.956405
O O5 0.638994 0.755181 0.602335
O O6 0.682523 0.972685 0.252009
O O7 0.666275 0.104552 0.798995
O O8 0.548748 0.709669 0.807735
O O9 0.558792 0.188316 0.745991
O O10 0.598309 0.961436 0.100011
O O11 0.500000 0.500000 0.500000
O O12 0.599044 0.381732 0.336666
O O13 0.093204 0.624443 0.357699
O O14 0.129121 0.189186 0.990020
O O15 0.916867 0.909292 0.447460
O O16 0.926324 0.068935 0.973278
O O17 0.000000 0.000000 0.500000
#
# Coordination Sequence:
#
# PCOD9101192 Si02
#       8
#     2   2   2   2   2   2   2   2
#     4  10  20  38  57  83 115 153 201 241 308 354
#     4   9  19  42  60  85 121 159 199 261 307 377
#     4   9  23  40  63  95 129 165 214 266 317 385
#     4  11  22  42  68  95 130 172 213 264 325 386
#     4   9  21  41  60  91 125 156 208 257 312 373
#     4  10  21  36  58  83 119 150 200 251 293 371
#     4  10  21  37  55  85 115 150 204 245 298 365
#     4  10  21  36  57  82 118 155 195 250 301 359
#
# _framework density 22.934148
#
# number of rings (size 3 to 8) (size 9 to 14) (size 15 to 20)
#    0.750    1.500    0.000    2.250    0.000    4.000 
#    6.750    0.000    0.000    0.000    0.000    0.000 
#    0.000    0.000    0.000    0.000    0.000    0.000 
#
# Total GULP energy -89129.261259 kJ/mol
# GULP energy per Si atom -5570.578829 kJ/mol
# Density = 2.288195 g / cm^3
# Si number density = 22.934148 Si / 1000 Ang^3
#
#
#
# Elastic Constant Matrix: (Units=GPa)
#
#
# Indices 1 2 3 4 5 6 
#
# 1 104.5379 52.3865 32.4449 12.0666 10.3434 -20.6411
# 2 52.3865 64.2582 35.2708 12.2511 0.7750 -4.2010
# 3 32.4449 35.2708 113.5853 -4.9475 20.3863 -12.5463
# 4 12.0666 12.2511 -4.9475 31.0235 -3.5461 8.2362
# 5 10.3434 0.7750 20.3863 -3.5461 44.2195 9.0410
# 6 -20.6411 -4.2010 -12.5463 8.2362 9.0410 33.2452
#
#
#
# Elastic Compliance Matrix: (Units=1/GPa)
#
#
# Indices 1 2 3 4 5 6 
#
# 1 0.022771 -0.017085 0.002241 -0.007565 -0.010241 0.017484
# 2 -0.017085 0.034354 -0.008894 -0.004311 0.009422 -0.011117
# 3 0.002241 -0.008894 0.013139 0.002057 -0.007650 0.006797
# 4 -0.007565 -0.004311 0.002057 0.042657 0.007826 -0.017161
# 5 -0.010241 0.009422 -0.007650 0.007826 0.032871 -0.018933
# 6 0.017484 -0.011117 0.006797 -0.017161 -0.018933 0.051495
#
#
# Mechanical properties :
#
#
# Convention : Reuss Voigt Hill
#
# Bulk Modulus (GPa) = 43.88460 58.06510 50.97485
# Shear Modulus (GPa) = 19.81288 32.51624 26.16456
#
# Velocity S-wave (km/s) = 2.94241 3.76947 3.38132
# Velocity P-wave (km/s) = 5.54259 6.65720 6.12530
#
# Compressibility (1/GPa) = 0.02278704
#
# Stress axis : x y z
#
# Youngs Moduli (GPa) = 43.91566 29.10832 76.10744
#
# Poissons Ratio (x) = 0.49732 -0.17054
# Poissons Ratio (y) = 0.75030 0.67694
# Poissons Ratio (z) = -0.09840 0.25890
#
# Static dielectric constant tensor:
#      x y z
#    x 1.899410 0.087310 0.027870 
#    y 0.087310 1.901380 -0.018850 
#    z 0.027870 -0.018850 1.921930 
# 
# From -- ./inp_files/127999.got.cif
#   From: 2010.05.17/outbox.cif.g08.bks.cpg/sg2_64_cif.got.tgz:127999.got - 2010.06.03 11:33:40.
