data_PCOD9101424
_publ_section_title
;
Structure prediction by ZEFSAII (Michael W. Deem and Ramdas Pophale) SiO2 
 PCOD9101424
Probable space group: P -1
;
_chemical_formula_sum "Si O2"
_cell_formula_units_Z 16
_cell_length_a 9.479540
_cell_length_b 12.573137
_cell_length_c 11.746387
_cell_angle_alpha 57.466535
_cell_angle_beta 49.696392
_cell_angle_gamma 49.237462
_cell_volume 792.378080
_symmetry_space_group_name_H-M "P -1"
_symmetry_group_IT_number 2
_symmetry_cell_setting 'triclinic'
loop_
_space_group_symop_operation_xyz
x,y,z
-x,-y,-z
loop_
_atom_site_type_symbol
_atom_site_label
_atom_site_fract_x
_atom_site_fract_y
_atom_site_fract_z
Si Si1 0.447796 0.205717 0.398668
Si Si2 0.153485 0.443793 0.787482
Si Si3 0.122697 0.718050 0.549746
Si Si4 0.588028 0.492158 0.834541
Si Si5 0.379127 0.110502 0.253182
Si Si6 0.294023 0.376438 0.001449
Si Si7 0.982980 0.354421 0.595108
Si Si8 0.533294 0.192127 0.614198
O O1 0.433193 0.356333 0.279822
O O2 0.484751 0.114531 0.316952
O O3 0.218920 0.231032 0.544054
O O4 0.577958 0.163672 0.471442
O O5 0.190336 0.582254 0.676239
O O6 0.307819 0.329059 0.681715
O O7 0.898952 0.519908 0.873870
O O8 0.207227 0.371767 0.925029
O O9 0.282055 0.781536 0.445188
O O10 0.874864 0.825788 0.637445
O O11 0.125960 0.658443 0.455903
O O12 0.828967 0.372215 0.767045
O O13 0.500000 0.500000 0.000000
O O14 0.448423 0.442508 0.862554
O O15 0.402046 0.222384 0.093497
O O16 0.466624 0.949792 0.257262
O O17 0.000000 0.500000 0.500000
#
# Coordination Sequence:
#
# PCOD9101424 Si02
#       8
#     2   2   2   2   2   2   2   2
#     4  10  21  37  57  87 117 150 196 243 289 335
#     4  10  21  35  58  84 114 147 184 254 283 342
#     4  10  20  38  59  85 112 145 204 236 290 333
#     4  11  19  31  60  84 110 149 196 233 285 342
#     4  10  22  39  56  83 117 161 188 238 287 357
#     4  10  21  38  55  84 119 148 194 231 302 340
#     4   9  19  34  57  86 115 147 186 242 286 339
#     4  12  22  35  61  85 116 151 201 237 291 336
#
# _framework density 20.192381000000001
#
# number of rings (size 3 to 8) (size 9 to 14) (size 15 to 20)
#    0.000    1.750    1.250    4.125    3.500    0.500 
#    0.000    0.000    0.000    4.500    0.000    0.000 
#    0.000    0.000    0.000    0.000    0.000    0.000 
#
# Total GULP energy -89222.272958 kJ/mol
# GULP energy per Si atom -5576.392060 kJ/mol
# Density = 2.014642 g / cm^3
# Si number density = 20.192381 Si / 1000 Ang^3
#
#
#
# Elastic Constant Matrix: (Units=GPa)
#
#
# Indices 1 2 3 4 5 6 
#
# 1 99.6648 17.9290 18.0759 -13.8112 -0.6375 20.0399
# 2 17.9290 81.1746 13.7281 -17.0425 -11.0678 10.7284
# 3 18.0759 13.7281 68.6059 1.2429 -9.0629 4.0847
# 4 -13.8112 -17.0425 1.2429 14.7260 -0.4903 -4.0165
# 5 -0.6375 -11.0678 -9.0629 -0.4903 38.0315 -6.1576
# 6 20.0399 10.7284 4.0847 -4.0165 -6.1576 20.2868
#
#
#
# Elastic Compliance Matrix: (Units=1/GPa)
#
#
# Indices 1 2 3 4 5 6 
#
# 1 0.014731 0.001341 -0.003902 0.012149 -0.002198 -0.012737
# 2 0.001341 0.018354 -0.003602 0.021624 0.004006 -0.004808
# 3 -0.003902 -0.003602 0.016789 -0.008715 0.003029 0.001573
# 4 0.012149 0.021624 -0.008715 0.105538 0.005945 0.001017
# 5 -0.002198 0.004006 0.003029 0.005945 0.029786 0.009661
# 6 -0.012737 -0.004808 0.001573 0.001017 0.009661 0.067235
#
#
# Mechanical properties :
#
#
# Convention : Reuss Voigt Hill
#
# Bulk Modulus (GPa) = 26.63299 38.76792 32.70046
# Shear Modulus (GPa) = 18.03271 27.92303 22.97787
#
# Velocity S-wave (km/s) = 2.99163 3.72270 3.37701
# Velocity P-wave (km/s) = 5.01512 6.14158 5.60671
#
# Compressibility (1/GPa) = 0.03754741
#
# Stress axis : x y z
#
# Youngs Moduli (GPa) = 67.88585 54.48459 59.56208
#
# Poissons Ratio (x) = -0.07304 0.23238
# Poissons Ratio (y) = -0.09101 0.21455
# Poissons Ratio (z) = 0.26486 0.19626
#
# Static dielectric constant tensor:
#      x y z
#    x 1.819070 -0.001790 0.010130 
#    y -0.001790 1.724600 0.025800 
#    z 0.010130 0.025800 1.720810 
# 
# From -- ./inp_files/392310.got.cif
#   From: 2010.05.17/outbox.cif.g08.bks.cpg/sg2_197_cif.got.tgz:392310.got - 2010.06.03 11:33:40.
