data_PCOD9101430
_publ_section_title
;
Structure prediction by ZEFSAII (Michael W. Deem and Ramdas Pophale) SiO2 
 PCOD9101430
Probable space group: P -1
;
_chemical_formula_sum "Si O2"
_cell_formula_units_Z 16
_cell_length_a 11.046561
_cell_length_b 9.245370
_cell_length_c 11.757864
_cell_angle_alpha 130.199363
_cell_angle_beta 53.464443
_cell_angle_gamma 102.983569
_cell_volume 711.604567
_symmetry_space_group_name_H-M "P -1"
_symmetry_group_IT_number 2
_symmetry_cell_setting 'triclinic'
loop_
_space_group_symop_operation_xyz
x,y,z
-x,-y,-z
loop_
_atom_site_type_symbol
_atom_site_label
_atom_site_fract_x
_atom_site_fract_y
_atom_site_fract_z
Si Si1 0.519723 0.008117 0.721081
Si Si2 0.860540 0.645543 0.586250
Si Si3 0.219098 0.365108 0.685994
Si Si4 0.347665 0.967049 0.003730
Si Si5 0.513948 0.721030 0.333811
Si Si6 0.371896 0.673438 0.029454
Si Si7 0.656539 0.425160 0.451735
Si Si8 0.969331 0.231539 0.660285
O O1 0.498075 0.098293 0.652829
O O2 0.557290 0.180414 0.862311
O O3 0.666460 0.819578 0.540228
O O4 0.385444 0.948233 0.839413
O O5 0.789156 0.841982 0.796675
O O6 0.719127 0.557367 0.577788
O O7 0.000000 0.500000 0.500000
O O8 0.947842 0.695050 0.452904
O O9 0.314421 0.349489 0.741271
O O10 0.218205 0.560971 0.712265
O O11 0.058730 0.301587 0.751395
O O12 0.324043 0.778854 0.987194
O O13 0.500000 0.000000 0.000000
O O14 0.392239 0.729550 0.511466
O O15 0.509929 0.535196 0.163056
O O16 0.212475 0.668657 0.177482
O O17 0.500000 0.500000 0.500000
O O18 0.000000 0.000000 0.500000
#
# Coordination Sequence:
#
# PCOD9101430 Si02
#       8
#     2   2   2   2   2   2   2   2
#     4  11  21  35  60  86 119 144 198 249 292 332
#     4  11  23  35  60  95 123 148 195 263 302 337
#     4  10  21  40  59  84 114 160 193 234 293 362
#     4  10  20  38  59  85 117 160 200 240 295 357
#     4  11  23  35  59  91 116 147 198 249 289 340
#     4  11  21  36  60  84 115 157 195 237 287 360
#     4   9  19  38  58  82 115 160 197 228 290 368
#     4  11  20  39  60  83 115 156 197 230 295 369
#
# _framework density 22.484399
#
# number of rings (size 3 to 8) (size 9 to 14) (size 15 to 20)
#    0.000    1.500    2.500    5.250    3.500    0.500 
#    0.000    0.000    0.000    0.750    0.000    0.000 
#    0.000    0.000    0.000    0.000    0.000    0.000 
#
# Total GULP energy -89158.641790 kJ/mol
# GULP energy per Si atom -5572.415112 kJ/mol
# Density = 2.243322 g / cm^3
# Si number density = 22.484399 Si / 1000 Ang^3
#
#
#
# Elastic Constant Matrix: (Units=GPa)
#
#
# Indices 1 2 3 4 5 6 
#
# 1 72.2049 39.4574 6.6839 -7.6500 12.6873 -1.2524
# 2 39.4574 155.5525 29.0574 -22.9343 -1.9325 -19.7166
# 3 6.6839 29.0574 78.9068 -13.1409 5.2141 -17.0655
# 4 -7.6500 -22.9343 -13.1409 35.7529 -1.6676 -0.6636
# 5 12.6873 -1.9325 5.2141 -1.6676 33.1148 -3.3644
# 6 -1.2524 -19.7166 -17.0655 -0.6636 -3.3644 37.9147
#
#
#
# Elastic Compliance Matrix: (Units=1/GPa)
#
#
# Indices 1 2 3 4 5 6 
#
# 1 0.017809 -0.004928 0.000321 0.000377 -0.007394 -0.002479
# 2 -0.004928 0.009220 -0.001505 0.004542 0.003332 0.004329
# 3 0.000321 -0.001505 0.015438 0.004808 -0.001780 0.006103
# 4 0.000377 0.004542 0.004808 0.032901 0.001554 0.005252
# 5 -0.007394 0.003332 -0.001780 0.001554 0.033963 0.003728
# 6 -0.002479 0.004329 0.006103 0.005252 0.003728 0.031714
#
#
# Mechanical properties :
#
#
# Convention : Reuss Voigt Hill
#
# Bulk Modulus (GPa) = 33.06496 50.78462 41.92479
# Shear Modulus (GPa) = 30.60913 36.78751 33.69832
#
# Velocity S-wave (km/s) = 3.69365 4.04930 3.87556
# Velocity P-wave (km/s) = 5.73833 6.67069 6.22200
#
# Compressibility (1/GPa) = 0.03024350
#
# Stress axis : x y z
#
# Youngs Moduli (GPa) = 56.15177 108.46293 64.77335
#
# Poissons Ratio (x) = 0.53451 -0.02081
# Poissons Ratio (y) = 0.27672 0.09749
# Poissons Ratio (z) = -0.01804 0.16325
#
# Static dielectric constant tensor:
#      x y z
#    x 1.917000 0.057680 0.091230 
#    y 0.057680 1.886360 0.009960 
#    z 0.091230 0.009960 1.878880 
# 
# From -- ./inp_files/358846.got.cif
#   From: 2010.05.17/outbox.cif.g08.bks.cpg/sg2_180_cif.got.tgz:358846.got - 2010.06.03 11:33:40.
