data_PCOD9101349
_publ_section_title
;
Structure prediction by ZEFSAII (Michael W. Deem and Ramdas Pophale) SiO2 
 PCOD9101349
Probable space group: P -1
;
_chemical_formula_sum "Si O2"
_cell_formula_units_Z 16
_cell_length_a 7.899592
_cell_length_b 8.092546
_cell_length_c 13.228114
_cell_angle_alpha 126.358224
_cell_angle_beta 65.897776
_cell_angle_gamma 95.954336
_cell_volume 610.537586
_symmetry_space_group_name_H-M "P -1"
_symmetry_group_IT_number 2
_symmetry_cell_setting 'triclinic'
loop_
_space_group_symop_operation_xyz
x,y,z
-x,-y,-z
loop_
_atom_site_type_symbol
_atom_site_label
_atom_site_fract_x
_atom_site_fract_y
_atom_site_fract_z
Si Si1 0.053331 0.218735 0.194483
Si Si2 0.359263 0.704707 0.194890
Si Si3 0.484623 0.521327 0.392996
Si Si4 0.155453 0.324566 0.608213
Si Si5 0.090242 0.168034 0.936260
Si Si6 0.700747 0.081179 0.500975
Si Si7 0.251477 0.545130 0.966261
Si Si8 0.669922 0.863649 0.718307
O O1 0.183509 0.141384 0.229325
O O2 0.993702 0.468910 0.303940
O O3 0.137741 0.175021 0.045443
O O4 0.893497 0.073033 0.184866
O O5 0.285218 0.808838 0.354739
O O6 0.522913 0.512023 0.116181
O O7 0.430291 0.899301 0.192793
O O8 0.223171 0.628292 0.119169
O O9 0.500000 0.500000 0.500000
O O10 0.680033 0.586235 0.339006
O O11 0.313118 0.716456 0.491037
O O12 0.456115 0.302282 0.278649
O O13 0.231785 0.227569 0.445019
O O14 0.136872 0.123042 0.607243
O O15 0.190996 0.318818 0.898160
O O16 0.871780 0.287320 0.015240
O O17 0.500000 0.000000 0.500000
#
# Coordination Sequence:
#
# PCOD9101349 Si02
#       8
#     2   2   2   2   2   2   2   2
#     4  11  22  40  59  86 119 165 190 247 290 352
#     4  10  21  38  67  85 119 152 201 242 300 338
#     4   9  19  35  56  88 121 148 188 237 292 347
#     4   9  20  37  61  85 120 156 190 232 308 354
#     4  10  24  41  59  81 123 152 210 240 293 340
#     4   9  19  36  59  91 121 144 187 245 291 360
#     4  10  22  43  60  87 109 164 199 252 288 347
#     4  10  20  38  58  91 123 148 192 249 290 358
#
# _framework density 26.206413000000001
#
# number of rings (size 3 to 8) (size 9 to 14) (size 15 to 20)
#    0.000    2.250    1.250    1.125    7.000    0.000 
#    0.000    1.250    0.000    0.000    0.000    0.000 
#    0.000    0.000    0.000    0.000    0.000    0.000 
#
# Total GULP energy -89385.644009 kJ/mol
# GULP energy per Si atom -5586.602751 kJ/mol
# Density = 2.614677 g / cm^3
# Si number density = 26.206413 Si / 1000 Ang^3
#
#
#
# Elastic Constant Matrix: (Units=GPa)
#
#
# Indices 1 2 3 4 5 6 
#
# 1 48.0726 16.7226 31.2889 0.9055 16.5242 -15.1845
# 2 16.7226 164.7120 31.9959 32.6998 4.9792 -19.1384
# 3 31.2889 31.9959 95.6152 7.3782 13.1920 -13.0590
# 4 0.9055 32.6998 7.3782 34.4637 -7.1734 2.0514
# 5 16.5242 4.9792 13.1920 -7.1734 38.7837 10.5136
# 6 -15.1845 -19.1384 -13.0590 2.0514 10.5136 37.4873
#
#
#
# Elastic Compliance Matrix: (Units=1/GPa)
#
#
# Indices 1 2 3 4 5 6 
#
# 1 0.038524 0.001804 -0.006999 -0.006818 -0.021046 0.020363
# 2 0.001804 0.009045 -0.001183 -0.009879 -0.005237 0.006946
# 3 -0.006999 -0.001183 0.014024 -0.002400 -0.002714 0.002338
# 4 -0.006818 -0.009879 -0.002400 0.043645 0.017373 -0.015902
# 5 -0.021046 -0.005237 -0.002714 0.017373 0.046656 -0.026180
# 6 0.020363 0.006946 0.002338 -0.015902 -0.026180 0.047497
#
#
# Mechanical properties :
#
#
# Convention : Reuss Voigt Hill
#
# Bulk Modulus (GPa) = 20.47683 52.04608 36.26145
# Shear Modulus (GPa) = 21.88881 37.37311 29.63096
#
# Velocity S-wave (km/s) = 2.89320 3.78048 3.36620
# Velocity P-wave (km/s) = 4.35792 6.24173 5.38287
#
# Compressibility (1/GPa) = 0.04883570
#
# Stress axis : x y z
#
# Youngs Moduli (GPa) = 25.95758 110.56352 71.30599
#
# Poissons Ratio (x) = -0.19948 0.49910
# Poissons Ratio (y) = -0.04683 0.08439
# Poissons Ratio (z) = 0.18169 0.13085
#
# Static dielectric constant tensor:
#      x y z
#    x 2.210230 0.125220 -0.088970 
#    y 0.125220 2.084500 -0.035120 
#    z -0.088970 -0.035120 2.114600 
# 
# From -- ./inp_files/197999.got.cif
#   From: 2010.05.17/outbox.cif.g08.bks.cpg/sg2_99_cif.got.tgz:197999.got - 2010.06.03 11:33:40.
