data_PCOD9101749
_publ_section_title
;
Structure prediction by ZEFSAII (Michael W. Deem and Ramdas Pophale) SiO2 
 PCOD9101749
Probable space group: P -1
;
_chemical_formula_sum "Si O2"
_cell_formula_units_Z 16
_cell_length_a 8.407548
_cell_length_b 6.512479
_cell_length_c 17.060901
_cell_angle_alpha 51.226669
_cell_angle_beta 100.743826
_cell_angle_gamma 84.981362
_cell_volume 689.624884
_symmetry_space_group_name_H-M "P -1"
_symmetry_group_IT_number 2
_symmetry_cell_setting 'triclinic'
loop_
_space_group_symop_operation_xyz
x,y,z
-x,-y,-z
loop_
_atom_site_type_symbol
_atom_site_label
_atom_site_fract_x
_atom_site_fract_y
_atom_site_fract_z
Si Si1 0.713513 0.832712 0.132972
Si Si2 0.506734 0.420851 0.927266
Si Si3 0.838262 0.629803 0.505189
Si Si4 0.215739 0.319889 0.119389
Si Si5 0.233300 0.896122 0.325913
Si Si6 0.995281 0.073056 0.071601
Si Si7 0.327816 0.911426 0.511179
Si Si8 0.587791 0.716212 0.316869
O O1 0.659144 0.600332 0.131047
O O2 0.636360 0.841708 0.211143
O O3 0.904717 0.858798 0.153406
O O4 0.624946 0.112421 0.012101
O O5 0.606719 0.627582 0.852079
O O6 0.500000 0.500000 0.000000
O O7 0.825852 0.377810 0.619437
O O8 0.696165 0.727083 0.402159
O O9 0.000000 0.500000 0.500000
O O10 0.812649 0.888435 0.497018
O O11 0.179167 0.104212 0.104342
O O12 0.134411 0.197050 0.214711
O O13 0.121844 0.617437 0.005872
O O14 0.267231 0.910371 0.417038
O O15 0.399910 0.830949 0.303519
O O16 0.000000 0.000000 0.000000
O O17 0.374079 0.605555 0.620602
O O18 0.500000 0.000000 0.500000
#
# Coordination Sequence:
#
# PCOD9101749 Si02
#       8
#     2   2   2   2   2   2   2   2
#     4  10  23  37  62  94 127 166 221 274 331 390
#     4  10  20  38  60  90 124 161 213 273 320 391
#     4  11  25  44  66  94 138 173 222 292 341 404
#     4  10  23  38  64  93 126 170 224 269 334 398
#     4  11  23  40  67 100 127 173 232 277 335 417
#     4  10  22  44  60  89 137 180 216 276 340 405
#     4  11  21  43  68  91 131 180 218 279 346 401
#     4  11  23  40  65 100 131 170 230 280 339 408
#
# _framework density 23.201017
#
# number of rings (size 3 to 8) (size 9 to 14) (size 15 to 20)
#    0.000    1.500    2.500    2.250    3.500    6.000 
#    2.250    0.000    0.000    0.000    0.000    0.000 
#    0.000    0.000    0.000    0.000    0.000    0.000 
#
# Total GULP energy -89124.047173 kJ/mol
# GULP energy per Si atom -5570.252948 kJ/mol
# Density = 2.314821 g / cm^3
# Si number density = 23.201017 Si / 1000 Ang^3
#
#
#
# Elastic Constant Matrix: (Units=GPa)
#
#
# Indices 1 2 3 4 5 6 
#
# 1 79.5557 55.0934 33.4346 -0.7715 -21.3777 3.9289
# 2 55.0934 132.1846 18.2599 -3.0377 -9.5234 14.7203
# 3 33.4346 18.2599 97.4354 -3.2899 -20.0462 8.4710
# 4 -0.7715 -3.0377 -3.2899 25.7825 5.1828 -5.0598
# 5 -21.3777 -9.5234 -20.0462 5.1828 38.9916 2.4990
# 6 3.9289 14.7203 8.4710 -5.0598 2.4990 44.4217
#
#
#
# Elastic Compliance Matrix: (Units=1/GPa)
#
#
# Indices 1 2 3 4 5 6 
#
# 1 0.022323 -0.008239 -0.004605 -0.002342 0.008112 0.000911
# 2 -0.008239 0.011146 0.000747 0.000855 -0.001336 -0.002935
# 3 -0.004605 0.000747 0.012831 0.000213 0.004387 -0.002510
# 4 -0.002342 0.000855 0.000213 0.041174 -0.006756 0.004953
# 5 0.008112 -0.001336 0.004387 -0.006756 0.033161 -0.003746
# 6 0.000911 -0.002935 -0.002510 0.004953 -0.003746 0.024657
#
#
# Mechanical properties :
#
#
# Convention : Reuss Voigt Hill
#
# Bulk Modulus (GPa) = 45.23453 58.08350 51.65901
# Shear Modulus (GPa) = 28.27184 35.33167 31.80175
#
# Velocity S-wave (km/s) = 3.49458 3.90660 3.70632
# Velocity P-wave (km/s) = 5.98514 6.74077 6.37416
#
# Compressibility (1/GPa) = 0.02210701
#
# Stress axis : x y z
#
# Youngs Moduli (GPa) = 44.79748 89.71896 77.93373
#
# Poissons Ratio (x) = 0.73915 0.35891
# Poissons Ratio (y) = 0.36907 -0.05825
# Poissons Ratio (z) = 0.20631 -0.06706
#
# Static dielectric constant tensor:
#      x y z
#    x 2.031610 0.059200 0.045090 
#    y 0.059200 1.873370 -0.071410 
#    z 0.045090 -0.071410 2.332900 
# 
# From -- ./inp_files/273037.got.cif
#   From: 2010.05.17/outbox.cif.g08.bks.cpg/sg2_137_cif.got.tgz:273037.got - 2010.06.03 11:33:40.
