data_PCOD9101257
_publ_section_title
;
Structure prediction by ZEFSAII (Michael W. Deem and Ramdas Pophale) SiO2 
 PCOD9101257
Probable space group: P -1
;
_chemical_formula_sum "Si O2"
_cell_formula_units_Z 16
_cell_length_a 5.555064
_cell_length_b 22.134393
_cell_length_c 14.377724
_cell_angle_alpha 25.196021
_cell_angle_beta 117.867730
_cell_angle_gamma 121.116468
_cell_volume 644.319291
_symmetry_space_group_name_H-M "P -1"
_symmetry_group_IT_number 2
_symmetry_cell_setting 'triclinic'
loop_
_space_group_symop_operation_xyz
x,y,z
-x,-y,-z
loop_
_atom_site_type_symbol
_atom_site_label
_atom_site_fract_x
_atom_site_fract_y
_atom_site_fract_z
Si Si1 0.326005 0.573979 0.463510
Si Si2 0.214159 0.822549 0.971198
Si Si3 0.940105 0.148040 0.822725
Si Si4 0.425389 0.325901 0.207196
Si Si5 0.679983 0.740059 0.086412
Si Si6 0.393689 0.147528 0.623845
Si Si7 0.769669 0.640810 0.576650
Si Si8 0.864698 0.378085 0.067258
O O1 0.441739 0.429262 0.668529
O O2 0.437102 0.608752 0.539458
O O3 0.000000 0.500000 0.500000
O O4 0.353709 0.727622 0.201911
O O5 0.262850 0.989796 0.776792
O O6 0.414512 0.810816 0.936249
O O7 0.879645 0.752019 0.015063
O O8 0.611337 0.125927 0.772319
O O9 0.087505 0.180593 0.904442
O O10 0.090646 0.286726 0.593285
O O11 0.000000 0.000000 0.000000
O O12 0.534641 0.248678 0.421929
O O13 0.576253 0.298466 0.177801
O O14 0.085500 0.286275 0.205572
O O15 0.500000 0.500000 0.000000
O O16 0.181359 0.234595 0.509198
O O17 0.828098 0.487481 0.826400
O O18 0.000000 0.500000 0.000000
#
# Coordination Sequence:
#
# PCOD9101257 Si02
#       8
#     2   2   2   2   2   2   2   2
#     4  10  22  42  61  86 125 169 212 252 286 365
#     4  11  23  39  59  87 122 165 203 245 300 366
#     4  12  23  35  56  90 133 158 200 247 306 374
#     4  10  20  38  58  81 127 151 196 252 310 367
#     4  11  23  42  58  80 129 164 204 250 286 348
#     4  12  23  35  61  91 127 164 196 252 325 370
#     4  12  23  36  63  89 123 168 204 252 314 364
#     4  10  20  39  56  88 119 153 199 256 306 365
#
# _framework density 24.832409999999999
#
# number of rings (size 3 to 8) (size 9 to 14) (size 15 to 20)
#    0.000    1.000    5.000    4.125    0.000    1.500 
#    0.000    0.000    0.000    0.000    0.000   12.250 
#    0.000    0.000    0.000    0.000    0.000    0.000 
#
# Total GULP energy -89272.309676 kJ/mol
# GULP energy per Si atom -5579.519355 kJ/mol
# Density = 2.477589 g / cm^3
# Si number density = 24.832410 Si / 1000 Ang^3
#
#
#
# Elastic Constant Matrix: (Units=GPa)
#
#
# Indices 1 2 3 4 5 6 
#
# 1 161.8971 -5.8346 14.8155 6.5531 13.2000 -0.2258
# 2 -5.8346 33.0771 26.3111 3.0357 7.0837 5.0379
# 3 14.8155 26.3111 89.9321 -8.2601 -2.1990 -4.0286
# 4 6.5531 3.0357 -8.2601 39.5481 -6.3796 9.6421
# 5 13.2000 7.0837 -2.1990 -6.3796 41.9860 -4.6278
# 6 -0.2258 5.0379 -4.0286 9.6421 -4.6278 17.6961
#
#
#
# Elastic Compliance Matrix: (Units=1/GPa)
#
#
# Indices 1 2 3 4 5 6 
#
# 1 0.007019 0.004856 -0.002958 -0.002349 -0.003721 -0.001659
# 2 0.004856 0.051647 -0.017671 -0.006105 -0.014193 -0.019050
# 3 -0.002958 -0.017671 0.017723 0.004585 0.006442 0.008215
# 4 -0.002349 -0.006105 0.004585 0.031078 0.005321 -0.012790
# 5 -0.003721 -0.014193 0.006442 0.005321 0.029665 0.010318
# 6 -0.001659 -0.019050 0.008215 -0.012790 0.010318 0.073449
#
#
# Mechanical properties :
#
#
# Convention : Reuss Voigt Hill
#
# Bulk Modulus (GPa) = 22.30020 39.49891 30.89955
# Shear Modulus (GPa) = 19.44954 36.48697 27.96826
#
# Velocity S-wave (km/s) = 2.80166 3.83734 3.35965
# Velocity P-wave (km/s) = 4.41198 5.96442 5.24594
#
# Compressibility (1/GPa) = 0.04484265
#
# Stress axis : x y z
#
# Youngs Moduli (GPa) = 142.47837 19.36218 56.42237
#
# Poissons Ratio (x) = -0.09403 0.16690
# Poissons Ratio (y) = -0.69190 0.99706
# Poissons Ratio (z) = 0.42146 0.34216
#
# Static dielectric constant tensor:
#      x y z
#    x 2.172490 -0.036790 -0.042320 
#    y -0.036790 2.057940 0.025680 
#    z -0.042320 0.025680 1.931190 
# 
# From -- ./inp_files/551396.got.cif
#   From: 2010.05.17/outbox.cif.g08.bks.cpg/sg2_276_cif.got.tgz:551396.got - 2010.06.03 11:33:40.
