data_PCOD9101107
_publ_section_title
;
Structure prediction by ZEFSAII (Michael W. Deem and Ramdas Pophale) SiO2 
 PCOD9101107
Probable space group: P -1
;
_chemical_formula_sum "Si O2"
_cell_formula_units_Z 14
_cell_length_a 9.135376
_cell_length_b 14.879378
_cell_length_c 13.009543
_cell_angle_alpha 37.986729
_cell_angle_beta 72.552759
_cell_angle_gamma 42.487326
_cell_volume 541.139409
_symmetry_space_group_name_H-M "P -1"
_symmetry_group_IT_number 2
_symmetry_cell_setting 'triclinic'
loop_
_space_group_symop_operation_xyz
x,y,z
-x,-y,-z
loop_
_atom_site_type_symbol
_atom_site_label
_atom_site_fract_x
_atom_site_fract_y
_atom_site_fract_z
Si Si1 0.372233 0.708471 0.752452
Si Si2 0.198771 0.338638 0.851978
Si Si3 0.288057 0.784670 0.484056
Si Si4 0.925953 0.250903 0.601510
Si Si5 0.095253 0.270029 0.738507
Si Si6 0.173615 0.198702 0.180851
Si Si7 0.447657 0.237741 0.179505
O O1 0.475698 0.591376 0.720356
O O2 0.480439 0.779248 0.703342
O O3 0.500000 0.500000 0.000000
O O4 0.030238 0.988396 0.602496
O O5 0.064594 0.325893 0.815055
O O6 0.142029 0.543448 0.631493
O O7 0.082903 0.389922 0.940747
O O8 0.552325 0.037739 0.064555
O O9 0.271990 0.712419 0.444960
O O10 0.302384 0.949014 0.327331
O O11 0.921230 0.290643 0.689160
O O12 0.269388 0.942291 0.783154
O O13 0.000000 0.500000 0.500000
O O14 0.399089 0.107375 0.283039
O O15 0.852937 0.432233 0.087275
#
# Coordination Sequence:
#
# PCOD9101107 Si02
#       7
#     2   2   2   2   2   2   2
#     4  10  20  38  54  77 118 175 196 231 279 365
#     4  10  21  37  66  88 118 152 209 250 297 358
#     4  10  23  35  57  86 124 157 207 239 292 353
#     4  10  21  38  63  89 116 168 203 240 291 370
#     4   9  19  41  64  89 111 155 207 253 295 360
#     4  11  22  37  56  96 124 159 194 256 299 352
#     4  10  22  35  59  83 130 158 202 233 300 354
#
# _framework density 25.871338000000002
#
# number of rings (size 3 to 8) (size 9 to 14) (size 15 to 20)
#    0.000    2.000    2.857    0.000    2.000    5.714 
#    0.000    0.714    0.000    7.714    0.000    0.000 
#    0.000    0.000    0.000    0.000    0.000    0.000 
#
# Total GULP energy -78106.572395 kJ/mol
# GULP energy per Si atom -5579.040885 kJ/mol
# Density = 2.581245 g / cm^3
# Si number density = 25.871338 Si / 1000 Ang^3
#
#
#
# Elastic Constant Matrix: (Units=GPa)
#
#
# Indices 1 2 3 4 5 6 
#
# 1 155.2381 32.8805 15.3996 10.6181 7.2034 52.4458
# 2 32.8805 68.5637 12.1842 14.3897 2.8510 46.0973
# 3 15.3996 12.1842 83.2050 9.0272 -8.4081 8.3018
# 4 10.6181 14.3897 9.0272 39.3626 4.9316 19.1004
# 5 7.2034 2.8510 -8.4081 4.9316 28.7520 -2.8843
# 6 52.4458 46.0973 8.3018 19.1004 -2.8843 58.1232
#
#
#
# Elastic Compliance Matrix: (Units=1/GPa)
#
#
# Indices 1 2 3 4 5 6 
#
# 1 0.010505 0.004235 -0.002136 0.003618 -0.005702 -0.014005
# 2 0.004235 0.034758 -0.004042 0.004133 -0.009674 -0.032648
# 3 -0.002136 -0.004042 0.013593 -0.004195 0.006119 0.004874
# 4 0.003618 0.004133 -0.004195 0.033630 -0.010066 -0.017494
# 5 -0.005702 -0.009674 0.006119 -0.010066 0.042425 0.017356
# 6 -0.014005 -0.032648 0.004874 -0.017494 0.017356 0.061649
#
#
# Mechanical properties :
#
#
# Convention : Reuss Voigt Hill
#
# Bulk Modulus (GPa) = 18.19163 47.54837 32.87000
# Shear Modulus (GPa) = 22.85525 41.68374 32.26949
#
# Velocity S-wave (km/s) = 2.97546 4.01832 3.53555
# Velocity P-wave (km/s) = 4.34181 6.32044 5.42214
#
# Compressibility (1/GPa) = 0.05497033
#
# Stress axis : x y z
#
# Youngs Moduli (GPa) = 95.19293 28.77073 73.56751
#
# Poissons Ratio (x) = -0.12185 0.15713
# Poissons Ratio (y) = -0.40317 0.29736
# Poissons Ratio (z) = 0.20332 0.11629
#
# Static dielectric constant tensor:
#      x y z
#    x 2.160410 0.061960 0.073290 
#    y 0.061960 2.101400 -0.003710 
#    z 0.073290 -0.003710 2.119360 
# 
# From -- ./inp_files/503833.got.cif
#   From: 2010.05.17/outbox.cif.g08.bks.cpg/sg2_252_cif.got.tgz:503833.got - 2010.06.03 11:33:40.
