data_PCOD9101553
_publ_section_title
;
Structure prediction by ZEFSAII (Michael W. Deem and Ramdas Pophale) SiO2 
 PCOD9101553
Probable space group: P -1
;
_chemical_formula_sum "Si O2"
_cell_formula_units_Z 14
_cell_length_a 22.282729
_cell_length_b 22.720651
_cell_length_c 12.336874
_cell_angle_alpha 153.055017
_cell_angle_beta 18.612217
_cell_angle_gamma 162.700708
_cell_volume 586.849356
_symmetry_space_group_name_H-M "P -1"
_symmetry_group_IT_number 2
_symmetry_cell_setting 'triclinic'
loop_
_space_group_symop_operation_xyz
x,y,z
-x,-y,-z
loop_
_atom_site_type_symbol
_atom_site_label
_atom_site_fract_x
_atom_site_fract_y
_atom_site_fract_z
Si Si1 0.177905 0.562762 0.577660
Si Si2 0.178686 0.959434 0.117800
Si Si3 0.423172 0.138497 0.440683
Si Si4 0.500060 0.193280 0.151355
Si Si5 0.329453 0.667706 0.253973
Si Si6 0.778677 0.667028 0.147540
Si Si7 0.086298 0.234333 0.161132
O O1 0.284116 0.691369 0.713199
O O2 0.329298 0.693843 0.425040
O O3 0.253860 0.449837 0.267318
O O4 0.833509 0.379143 0.852296
O O5 0.308319 0.005687 0.090460
O O6 0.453841 0.129395 0.849183
O O7 0.000000 0.000000 0.500000
O O8 0.966955 0.753850 0.076972
O O9 0.469339 0.129006 0.221233
O O10 0.270989 0.200806 0.801499
O O11 0.200463 0.933497 0.552357
O O12 0.384178 0.281116 0.486028
O O13 0.000000 0.500000 0.500000
O O14 0.417665 0.563178 0.909242
O O15 0.967681 0.772629 0.886592
#
# Coordination Sequence:
#
# PCOD9101553 Si02
#       7
#     2   2   2   2   2   2   2
#     4  11  21  38  58  87 118 148 195 247 291 337
#     4  10  21  40  59  86 120 157 192 240 290 349
#     4  10  20  38  60  81 116 156 191 236 298 341
#     4  10  21  38  56  88 122 151 196 240 283 363
#     4  11  22  40  62  89 116 151 203 246 287 353
#     4   9  21  40  63  83 119 157 193 243 298 339
#     4   9  20  38  60  86 110 150 201 241 282 355
#
# _framework density 23.856206
#
# number of rings (size 3 to 8) (size 9 to 14) (size 15 to 20)
#    0.000    2.000    1.429    1.714    0.000    4.571 
#    2.571    2.857    0.000    0.000    0.000    0.000 
#    0.000    0.000    0.000    0.000    0.000    0.000 
#
# Total GULP energy -78345.833875 kJ/mol
# GULP energy per Si atom -5596.130991 kJ/mol
# Density = 2.380191 g / cm^3
# Si number density = 23.856206 Si / 1000 Ang^3
#
#
#
# Elastic Constant Matrix: (Units=GPa)
#
#
# Indices 1 2 3 4 5 6 
#
# 1 160.4554 38.5400 26.5257 5.6634 25.4439 34.7305
# 2 38.5400 25.3116 11.6665 8.5436 6.6422 4.5724
# 3 26.5257 11.6665 72.1725 -1.0903 7.2348 -5.3546
# 4 5.6634 8.5436 -1.0903 29.2757 -4.1246 -6.1003
# 5 25.4439 6.6422 7.2348 -4.1246 35.0011 2.2214
# 6 34.7305 4.5724 -5.3546 -6.1003 2.2214 36.8103
#
#
#
# Elastic Compliance Matrix: (Units=1/GPa)
#
#
# Indices 1 2 3 4 5 6 
#
# 1 0.014029 -0.015885 -0.002863 -0.001442 -0.006029 -0.011555
# 2 -0.015885 0.073093 -0.005746 -0.018497 -0.003456 0.002216
# 3 -0.002863 -0.005746 0.016396 0.004176 -0.000138 0.006500
# 4 -0.001442 -0.018497 0.004176 0.043420 0.008115 0.010971
# 5 -0.006029 -0.003456 -0.000138 0.008115 0.034252 0.005375
# 6 -0.011555 0.002216 0.006500 0.010971 0.005375 0.040232
#
#
# Mechanical properties :
#
#
# Convention : Reuss Voigt Hill
#
# Bulk Modulus (GPa) = 18.33847 45.71156 32.02502
# Shear Modulus (GPa) = 17.32580 32.29790 24.81185
#
# Velocity S-wave (km/s) = 2.69784 3.68347 3.22849
# Velocity P-wave (km/s) = 4.17232 6.10684 5.22981
#
# Compressibility (1/GPa) = 0.05453016
#
# Stress axis : x y z
#
# Youngs Moduli (GPa) = 71.28147 13.68119 60.99086
#
# Poissons Ratio (x) = 0.21733 0.17462
# Poissons Ratio (y) = 1.13232 0.35043
# Poissons Ratio (z) = 0.20408 0.07861
#
# Static dielectric constant tensor:
#      x y z
#    x 1.898110 -0.007950 -0.027510 
#    y -0.007950 1.868460 0.054950 
#    z -0.027510 0.054950 1.939390 
# 
# From -- ./inp_files/37178.got.cif
#   From: 2010.05.17/outbox.cif.g08.bks.cpg/sg2_19_cif.got.tgz:37178.got - 2010.06.03 11:33:40.
