data_PCOD9101447
_publ_section_title
;
Structure prediction by ZEFSAII (Michael W. Deem and Ramdas Pophale) SiO2 
 PCOD9101447
Probable space group: P -1
;
_chemical_formula_sum "Si O2"
_cell_formula_units_Z 14
_cell_length_a 12.701107
_cell_length_b 11.749853
_cell_length_c 5.575817
_cell_angle_alpha 73.087595
_cell_angle_beta 56.200813
_cell_angle_gamma 56.244245
_cell_volume 574.706596
_symmetry_space_group_name_H-M "P -1"
_symmetry_group_IT_number 2
_symmetry_cell_setting 'triclinic'
loop_
_space_group_symop_operation_xyz
x,y,z
-x,-y,-z
loop_
_atom_site_type_symbol
_atom_site_label
_atom_site_fract_x
_atom_site_fract_y
_atom_site_fract_z
Si Si1 0.007687 0.639020 0.878196
Si Si2 0.390396 0.658725 0.913810
Si Si3 0.826224 0.085605 0.677404
Si Si4 0.701274 0.363147 0.454925
Si Si5 0.602528 0.770257 0.548635
Si Si6 0.899600 0.664130 0.496941
Si Si7 0.623044 0.963475 0.064205
O O1 0.173929 0.600900 0.668028
O O2 0.930286 0.710464 0.684343
O O3 0.000000 0.500000 0.000000
O O4 0.951597 0.710888 0.164509
O O5 0.598815 0.403145 0.795156
O O6 0.353877 0.595940 0.768681
O O7 0.528313 0.677935 0.659942
O O8 0.248078 0.811120 0.063465
O O9 0.772115 0.198258 0.466912
O O10 0.000000 0.000000 0.500000
O O11 0.750553 0.992904 0.804991
O O12 0.732298 0.708745 0.618218
O O13 0.662382 0.817196 0.218028
O O14 0.465193 0.913242 0.713213
O O15 0.000000 0.500000 0.500000
O O16 0.500000 0.000000 0.000000
#
# Coordination Sequence:
#
# PCOD9101447 Si02
#       7
#     2   2   2   2   2   2   2
#     4  10  22  41  64  92 122 159 213 273 321 377
#     4   9  21  37  57  89 120 167 205 251 319 380
#     4   9  21  35  55  89 128 165 206 256 309 385
#     4  10  20  38  59  86 123 163 204 257 321 375
#     4  10  22  37  63  89 130 170 212 265 314 383
#     4  10  23  40  65  93 123 161 215 265 319 373
#     4  10  21  38  58  95 129 171 217 255 323 385
#
# _framework density 24.360256
#
# number of rings (size 3 to 8) (size 9 to 14) (size 15 to 20)
#    0.857    1.429    0.000    1.714    4.000    0.571 
#    0.000    0.000    0.000   20.571    0.000    0.000 
#    0.000    0.000    0.000    0.000    0.000    0.000 
#
# Total GULP energy -78092.333024 kJ/mol
# GULP energy per Si atom -5578.023787 kJ/mol
# Density = 2.430481 g / cm^3
# Si number density = 24.360256 Si / 1000 Ang^3
#
#
#
# Elastic Constant Matrix: (Units=GPa)
#
#
# Indices 1 2 3 4 5 6 
#
# 1 185.6192 32.6792 90.3267 -24.1028 -6.2862 -12.3888
# 2 32.6792 84.4276 26.8812 -16.8908 -7.5441 -7.7141
# 3 90.3267 26.8812 137.3900 -6.6879 1.5921 -10.5336
# 4 -24.1028 -16.8908 -6.6879 36.6286 1.1134 -6.6874
# 5 -6.2862 -7.5441 1.5921 1.1134 62.8026 -5.9457
# 6 -12.3888 -7.7141 -10.5336 -6.6874 -5.9457 38.6087
#
#
#
# Elastic Compliance Matrix: (Units=1/GPa)
#
#
# Indices 1 2 3 4 5 6 
#
# 1 0.008936 -0.000408 -0.005377 0.005110 0.001116 0.002376
# 2 -0.000408 0.014478 -0.001982 0.006658 0.001979 0.003679
# 3 -0.005377 -0.001982 0.011127 -0.002325 -0.000983 0.000361
# 4 0.005110 0.006658 -0.002325 0.034834 0.001568 0.008611
# 5 0.001116 0.001979 -0.000983 0.001568 0.016583 0.003311
# 6 0.002376 0.003679 0.000361 0.008611 0.003311 0.029498
#
#
# Mechanical properties :
#
#
# Convention : Reuss Voigt Hill
#
# Bulk Modulus (GPa) = 52.60714 78.57902 65.59308
# Shear Modulus (GPa) = 36.41015 44.77796 40.59405
#
# Velocity S-wave (km/s) = 3.87027 4.29202 4.08659
# Velocity P-wave (km/s) = 6.45092 7.54248 7.01796
#
# Compressibility (1/GPa) = 0.01900883
#
# Stress axis : x y z
#
# Youngs Moduli (GPa) = 111.91187 69.06957 89.86982
#
# Poissons Ratio (x) = 0.02815 0.48323
# Poissons Ratio (y) = 0.04561 0.17808
# Poissons Ratio (z) = 0.60175 0.13686
#
# Static dielectric constant tensor:
#      x y z
#    x 1.894390 0.013820 0.082980 
#    y 0.013820 2.125780 0.200850 
#    z 0.082980 0.200850 2.251120 
# 
# From -- ./inp_files/63693.got.cif
#   From: 2010.05.17/outbox.cif.g08.bks.cpg/sg2_32_cif.got.tgz:63693.got - 2010.06.03 11:33:40.
