data_PCOD9101011
_publ_section_title
;
Structure prediction by ZEFSAII (Michael W. Deem and Ramdas Pophale) SiO2 
 PCOD9101011
Probable space group: P -1
;
_chemical_formula_sum "Si O2"
_cell_formula_units_Z 16
_cell_length_a 6.645060
_cell_length_b 19.079817
_cell_length_c 12.584608
_cell_angle_alpha 146.339211
_cell_angle_beta 66.097318
_cell_angle_gamma 133.950530
_cell_volume 574.146152
_symmetry_space_group_name_H-M "P -1"
_symmetry_group_IT_number 2
_symmetry_cell_setting 'triclinic'
loop_
_space_group_symop_operation_xyz
x,y,z
-x,-y,-z
loop_
_atom_site_type_symbol
_atom_site_label
_atom_site_fract_x
_atom_site_fract_y
_atom_site_fract_z
Si Si1 0.680724 0.978114 0.774976
Si Si2 0.723579 0.396863 0.324137
Si Si3 0.476635 0.581260 0.002490
Si Si4 0.243309 0.990100 0.964422
Si Si5 0.032066 0.881226 0.619400
Si Si6 0.541882 0.508778 0.664871
Si Si7 0.230836 0.729622 0.256496
Si Si8 0.708362 0.216824 0.935028
O O1 0.449728 0.797411 0.837834
O O2 0.798695 0.884105 0.614208
O O3 0.785164 0.108680 0.822802
O O4 0.824322 0.068898 0.973396
O O5 0.779616 0.506865 0.554381
O O6 0.520504 0.408680 0.305572
O O7 0.897642 0.398491 0.190657
O O8 0.615472 0.590463 0.870877
O O9 0.122908 0.450062 0.869717
O O10 0.500000 0.500000 0.000000
O O11 0.502215 0.738198 0.233302
O O12 0.330081 0.077051 0.850699
O O13 0.330220 0.891527 0.763409
O O14 0.000000 0.000000 0.000000
O O15 0.227359 0.862122 0.482907
O O16 0.780874 0.703399 0.520361
O O17 0.225232 0.746082 0.153792
#
# Coordination Sequence:
#
# PCOD9101011 Si02
#       8
#     2   2   2   2   2   2   2   2
#     4  10  21  35  60  95 128 169 223 267 328 405
#     4  10  20  37  68  92 134 172 212 277 334 403
#     4  10  22  44  71  93 132 182 224 280 340 407
#     4  10  20  39  63  90 131 178 218 269 342 395
#     4  11  23  40  66  95 138 178 222 280 337 400
#     4  10  21  39  66  97 127 174 225 271 337 399
#     4  10  23  43  65  98 134 174 231 282 337 390
#     4  11  23  40  68  98 135 177 220 279 346 396
#
# _framework density 27.867464999999999
#
# number of rings (size 3 to 8) (size 9 to 14) (size 15 to 20)
#    0.000    1.750    2.500    1.875    0.000    3.500 
#    2.250    0.000    0.000    2.250    0.000    0.000 
#    0.000    0.000    0.000    0.000    0.000    0.000 
#
# Total GULP energy -89088.602236 kJ/mol
# GULP energy per Si atom -5568.037640 kJ/mol
# Density = 2.780404 g / cm^3
# Si number density = 27.867465 Si / 1000 Ang^3
#
#
#
# Elastic Constant Matrix: (Units=GPa)
#
#
# Indices 1 2 3 4 5 6 
#
# 1 152.7393 46.2499 65.2019 -3.0912 -36.4453 -10.7621
# 2 46.2499 126.3977 48.6445 -16.0187 -10.3337 -30.8090
# 3 65.2019 48.6445 173.3405 -34.9780 -37.8285 -11.3196
# 4 -3.0912 -16.0187 -34.9780 44.1537 0.2352 -3.7088
# 5 -36.4453 -10.3337 -37.8285 0.2352 56.6575 10.6541
# 6 -10.7621 -30.8090 -11.3196 -3.7088 10.6541 66.7168
#
#
#
# Elastic Compliance Matrix: (Units=1/GPa)
#
#
# Indices 1 2 3 4 5 6 
#
# 1 0.009210 -0.002641 -0.002359 -0.002280 0.004047 -0.000907
# 2 -0.002641 0.010859 -0.001497 0.002977 -0.001625 0.004759
# 3 -0.002359 -0.001497 0.009417 0.006745 0.004433 0.000193
# 4 -0.002280 0.002977 0.006745 0.029176 0.002834 0.003321
# 5 0.004047 -0.001625 0.004433 0.002834 0.023457 -0.002934
# 6 -0.000907 0.004759 0.000193 0.003321 -0.002934 0.017726
#
#
# Mechanical properties :
#
#
# Convention : Reuss Voigt Hill
#
# Bulk Modulus (GPa) = 60.63785 85.85223 73.24504
# Shear Modulus (GPa) = 42.25284 52.99768 47.62526
#
# Velocity S-wave (km/s) = 3.89807 4.36567 4.13848
# Velocity P-wave (km/s) = 6.48588 7.50242 7.01259
#
# Compressibility (1/GPa) = 0.01649135
#
# Stress axis : x y z
#
# Youngs Moduli (GPa) = 108.58249 92.09321 106.18595
#
# Poissons Ratio (x) = 0.24324 0.25050
# Poissons Ratio (y) = 0.28679 0.15895
# Poissons Ratio (z) = 0.25615 0.13785
#
# Static dielectric constant tensor:
#      x y z
#    x 2.296070 0.025060 0.031670 
#    y 0.025060 2.282890 -0.037660 
#    z 0.031670 -0.037660 2.623250 
# 
# From -- ./inp_files/402284.got.cif
#   From: 2010.05.17/outbox.cif.g08.bks.cpg/sg2_202_cif.got.tgz:402284.got - 2010.06.03 11:33:40.
