data_PCOD9101066
_publ_section_title
;
Structure prediction by ZEFSAII (Michael W. Deem and Ramdas Pophale) SiO2 
 PCOD9101066
Probable space group: P -1
;
_chemical_formula_sum "Si O2"
_cell_formula_units_Z 14
_cell_length_a 14.756522
_cell_length_b 9.186420
_cell_length_c 14.529947
_cell_angle_alpha 109.761034
_cell_angle_beta 19.649088
_cell_angle_gamma 103.987196
_cell_volume 604.728596
_symmetry_space_group_name_H-M "P -1"
_symmetry_group_IT_number 2
_symmetry_cell_setting 'triclinic'
loop_
_space_group_symop_operation_xyz
x,y,z
-x,-y,-z
loop_
_atom_site_type_symbol
_atom_site_label
_atom_site_fract_x
_atom_site_fract_y
_atom_site_fract_z
Si Si1 0.321195 0.927193 0.390371
Si Si2 0.082471 0.213199 0.150000
Si Si3 0.912188 0.550918 0.475350
Si Si4 0.382945 0.735650 0.100895
Si Si5 0.785445 0.386419 0.295155
Si Si6 0.511291 0.214350 0.183710
Si Si7 0.190873 0.608237 0.931248
O O1 0.324970 0.831549 0.270506
O O2 0.047519 0.920080 0.706452
O O3 0.382181 0.093225 0.338003
O O4 0.586192 0.838710 0.178650
O O5 0.999845 0.366440 0.329332
O O6 0.942299 0.269145 0.198464
O O7 0.685831 0.611438 0.784833
O O8 0.729633 0.631526 0.580046
O O9 0.159345 0.635849 0.270889
O O10 0.383476 0.845845 0.032758
O O11 0.460248 0.456768 0.640973
O O12 0.819547 0.316208 0.144247
O O13 0.926762 0.536757 0.184338
O O14 0.743390 0.275063 0.029781
#
# Coordination Sequence:
#
# PCOD9101066 Si02
#       7
#     2   2   2   2   2   2   2
#     4  12  27  37  61  85 132 159 197 234 324 339
#     4  12  24  41  57  94 124 157 189 259 297 363
#     4  10  22  38  66  79 122 150 213 245 292 330
#     4  10  22  40  62  86 114 164 208 252 273 359
#     4  10  20  39  63  96 114 151 194 259 286 354
#     4  10  24  41  62  90 116 163 203 252 276 371
#     4  10  20  37  70  89 114 150 209 239 298 339
#
# _framework density 23.150883
#
# number of rings (size 3 to 8) (size 9 to 14) (size 15 to 20)
#    0.857    0.571    1.429    3.857    2.000    4.000 
#    0.000    1.429    0.000    0.000    0.000    0.000 
#    0.000    0.000    0.000    0.000    0.000    0.000 
#
# Total GULP energy -78327.248282 kJ/mol
# GULP energy per Si atom -5594.803449 kJ/mol
# Density = 2.309819 g / cm^3
# Si number density = 23.150883 Si / 1000 Ang^3
#
#
#
# Elastic Constant Matrix: (Units=GPa)
#
#
# Indices 1 2 3 4 5 6 
#
# 1 118.4095 17.0886 -2.7464 -9.6522 3.8895 -34.2297
# 2 17.0886 55.7527 0.4650 -8.7857 -14.5778 -4.6018
# 3 -2.7464 0.4650 72.4939 -16.2487 -8.6099 6.1989
# 4 -9.6522 -8.7857 -16.2487 26.4126 5.5610 -5.1451
# 5 3.8895 -14.5778 -8.6099 5.5610 26.3328 -5.9650
# 6 -34.2297 -4.6018 6.1989 -5.1451 -5.9650 11.8297
#
#
#
# Elastic Compliance Matrix: (Units=1/GPa)
#
#
# Indices 1 2 3 4 5 6 
#
# 1 -0.064331 -0.024066 -0.002580 -0.071869 -0.045777 -0.248495
# 2 -0.024066 0.017285 0.001518 -0.016003 0.001119 -0.070103
# 3 -0.002580 0.001518 0.016521 0.007000 0.002615 -0.011168
# 4 -0.071869 -0.016003 0.007000 -0.028982 -0.047459 -0.254386
# 5 -0.045777 0.001119 0.002615 -0.047459 0.024094 -0.141885
# 6 -0.248495 -0.070103 -0.011168 -0.254386 -0.141885 -0.838100
#
#
# Mechanical properties :
#
#
# Convention : Reuss Voigt Hill
#
# Bulk Modulus (GPa) = -12.37925 30.69673 9.15874
# Shear Modulus (GPa) = -5.88108 28.37159 11.24525
#
# Velocity S-wave (km/s) = -1.59557 3.50452 2.20634
# Velocity P-wave (km/s) = 2.95859 5.44645 3.23346
#
# Compressibility (1/GPa) = -0.08078034
#
# Stress axis : x y z
#
# Youngs Moduli (GPa) = -15.54466 57.85483 60.52800
#
# Poissons Ratio (x) = 1.39233 0.15614
# Poissons Ratio (y) = -0.37410 -0.09188
# Poissons Ratio (z) = -0.04010 -0.08782
#
# Static dielectric constant tensor:
#      x y z
#    x 1.887230 -0.036750 0.039080 
#    y -0.036750 1.852830 0.023360 
#    z 0.039080 0.023360 1.868410 
# 
# From -- ./inp_files/133240.got.cif
#   From: 2010.05.17/outbox.cif.g08.bks.cpg/sg2_67_cif.got.tgz:133240.got - 2010.06.03 11:33:40.
