data_PCOD9101472
_publ_section_title
;
Structure prediction by ZEFSAII (Michael W. Deem and Ramdas Pophale) SiO2 
 PCOD9101472
Probable space group: P -1
;
_chemical_formula_sum "Si O2"
_cell_formula_units_Z 16
_cell_length_a 15.980086
_cell_length_b 17.200094
_cell_length_c 11.904807
_cell_angle_alpha 32.481208
_cell_angle_beta 130.779963
_cell_angle_gamma 153.121870
_cell_volume 724.968247
_symmetry_space_group_name_H-M "P -1"
_symmetry_group_IT_number 2
_symmetry_cell_setting 'triclinic'
loop_
_space_group_symop_operation_xyz
x,y,z
-x,-y,-z
loop_
_atom_site_type_symbol
_atom_site_label
_atom_site_fract_x
_atom_site_fract_y
_atom_site_fract_z
Si Si1 0.400896 0.417496 0.877694
Si Si2 0.675285 0.765269 0.496054
Si Si3 0.910211 0.040825 0.683852
Si Si4 0.832406 0.545675 0.388398
Si Si5 0.542597 0.358831 0.742011
Si Si6 0.505172 0.997959 0.142369
Si Si7 0.878138 0.216509 0.237229
Si Si8 0.136919 0.995395 0.955504
O O1 0.609231 0.649856 0.705666
O O2 0.320344 0.491793 0.732483
O O3 0.255783 0.187345 0.934293
O O4 0.321951 0.240368 0.133172
O O5 0.688457 0.632342 0.598439
O O6 0.487620 0.639178 0.419030
O O7 0.860201 0.081244 0.283457
O O8 0.932745 0.180020 0.435486
O O9 0.039643 0.252212 0.641067
O O10 0.006485 0.989078 0.805482
O O11 0.708298 0.271708 0.657420
O O12 0.985554 0.705872 0.222269
O O13 0.313260 0.134170 0.859789
O O14 0.593460 0.250831 0.944749
O O15 0.650711 0.029092 0.268603
O O16 0.500000 0.000000 0.000000
O O17 0.000000 0.500000 0.000000
#
# Coordination Sequence:
#
# PCOD9101472 Si02
#       8
#     2   2   2   2   2   2   2   2
#     4   8  14  33  60  87 113 148 208 241 282 343
#     4  10  20  38  59  88 114 158 203 245 288 350
#     4   9  19  34  60  92 120 153 188 255 296 351
#     4   9  16  33  61  87 117 155 203 242 286 349
#     4  10  21  37  64  89 116 155 207 249 288 348
#     4  12  22  38  61  86 119 159 204 246 292 357
#     4  12  25  38  58  93 126 155 197 245 311 350
#     4   8  17  34  59  91 117 153 200 243 291 351
#
# _framework density 22.069931
#
# number of rings (size 3 to 8) (size 9 to 14) (size 15 to 20)
#    0.000    2.250    2.500    2.250    0.000    4.000 
#    0.000    2.500    0.000    6.750    0.000    0.000 
#    0.000    0.000    0.000    0.000    0.000    0.000 
#
# Total GULP energy -89194.580984 kJ/mol
# GULP energy per Si atom -5574.661312 kJ/mol
# Density = 2.201970 g / cm^3
# Si number density = 22.069931 Si / 1000 Ang^3
#
#
#
# Elastic Constant Matrix: (Units=GPa)
#
#
# Indices 1 2 3 4 5 6 
#
# 1 55.1960 13.5260 32.3078 -1.4898 -4.6435 -5.3262
# 2 13.5260 34.8067 31.3130 -11.1019 2.6003 -12.0647
# 3 32.3078 31.3130 158.4342 -13.3456 -3.3348 -16.7161
# 4 -1.4898 -11.1019 -13.3456 49.7198 -2.3273 4.6148
# 5 -4.6435 2.6003 -3.3348 -2.3273 42.6843 -4.7524
# 6 -5.3262 -12.0647 -16.7161 4.6148 -4.7524 29.7200
#
#
#
# Elastic Compliance Matrix: (Units=1/GPa)
#
#
# Indices 1 2 3 4 5 6 
#
# 1 0.021707 -0.006072 -0.003280 -0.001491 0.002416 0.000198
# 2 -0.006072 0.042225 -0.005357 0.006630 -0.001988 0.011693
# 3 -0.003280 -0.005357 0.008330 0.000803 0.000880 0.001939
# 4 -0.001491 0.006630 0.000803 0.021832 0.000641 -0.000412
# 5 0.002416 -0.001988 0.000880 0.000641 0.024351 0.003915
# 6 0.000198 0.011693 0.001939 -0.000412 0.003915 0.040210
#
#
# Mechanical properties :
#
#
# Convention : Reuss Voigt Hill
#
# Bulk Modulus (GPa) = 23.34031 44.74782 34.04406
# Shear Modulus (GPa) = 24.70893 35.84415 30.27654
#
# Velocity S-wave (km/s) = 3.34963 4.03441 3.70786
# Velocity P-wave (km/s) = 5.05556 6.48239 5.81292
#
# Compressibility (1/GPa) = 0.04284434
#
# Stress axis : x y z
#
# Youngs Moduli (GPa) = 46.06720 23.68259 120.04596
#
# Poissons Ratio (x) = 0.14380 0.39379
# Poissons Ratio (y) = 0.27972 0.64307
# Poissons Ratio (z) = 0.15112 0.12686
#
# Static dielectric constant tensor:
#      x y z
#    x 1.830150 0.017850 -0.058990 
#    y 0.017850 1.908330 -0.037760 
#    z -0.058990 -0.037760 1.877820 
# 
# From -- ./inp_files/279518.got.cif
#   From: 2010.05.17/outbox.cif.g08.bks.cpg/sg2_140_cif.got.tgz:279518.got - 2010.06.03 11:33:40.
