data_PCOD9101373
_publ_section_title
;
Structure prediction by ZEFSAII (Michael W. Deem and Ramdas Pophale) SiO2 
 PCOD9101373
Probable space group: P -1
;
_chemical_formula_sum "Si O2"
_cell_formula_units_Z 16
_cell_length_a 13.289838
_cell_length_b 11.257346
_cell_length_c 6.950312
_cell_angle_alpha 38.804932
_cell_angle_beta 109.007277
_cell_angle_gamma 106.282357
_cell_volume 615.479461
_symmetry_space_group_name_H-M "P -1"
_symmetry_group_IT_number 2
_symmetry_cell_setting 'triclinic'
loop_
_space_group_symop_operation_xyz
x,y,z
-x,-y,-z
loop_
_atom_site_type_symbol
_atom_site_label
_atom_site_fract_x
_atom_site_fract_y
_atom_site_fract_z
Si Si1 0.910715 0.835711 0.182022
Si Si2 0.135899 0.560008 0.318020
Si Si3 0.787334 0.144255 0.731398
Si Si4 0.886171 0.890051 0.546276
Si Si5 0.806321 0.495967 0.016383
Si Si6 0.375247 0.528122 0.509103
Si Si7 0.668355 0.071148 0.122156
Si Si8 0.418857 0.325270 0.427039
O O1 0.937254 0.620624 0.439019
O O2 0.877818 0.834102 0.387309
O O3 0.814169 0.948250 0.891152
O O4 0.000000 0.000000 0.000000
O O5 0.131436 0.757903 0.176577
O O6 0.145578 0.566395 0.083394
O O7 0.254186 0.494940 0.540520
O O8 0.688803 0.093149 0.875477
O O9 0.792477 0.309747 0.370797
O O10 0.879139 0.679644 0.903646
O O11 0.780727 0.009191 0.360941
O O12 0.000000 0.000000 0.500000
O O13 0.689347 0.583632 0.824416
O O14 0.407401 0.357702 0.609662
O O15 0.465829 0.573960 0.665039
O O16 0.366528 0.716971 0.127794
O O17 0.587542 0.897369 0.338617
#
# Coordination Sequence:
#
# PCOD9101373 Si02
#       8
#     2   2   2   2   2   2   2   2
#     4  10  22  40  55  82 110 147 189 232 280 330
#     4   9  20  39  57  79 116 144 185 227 283 328
#     4  10  20  38  59  79 113 150 180 233 280 325
#     4   9  19  37  56  79 114 147 182 235 279 324
#     4   9  19  37  57  84 112 147 185 231 274 331
#     4   9  16  31  57  83 101 152 184 218 280 331
#     4   9  18  34  55  78 113 145 182 227 277 328
#     4   9  17  32  57  79 115 140 184 230 271 329
#
# _framework density 25.995995000000001
#
# number of rings (size 3 to 8) (size 9 to 14) (size 15 to 20)
#    0.000    2.750    0.000    2.625    1.750    0.500 
#   13.500    3.750    0.000   12.000    0.000    0.000 
#    0.000    0.000    0.000    0.000    0.000    0.000 
#
# Total GULP energy -89158.836622 kJ/mol
# GULP energy per Si atom -5572.427289 kJ/mol
# Density = 2.593683 g / cm^3
# Si number density = 25.995995 Si / 1000 Ang^3
#
#
#
# Elastic Constant Matrix: (Units=GPa)
#
#
# Indices 1 2 3 4 5 6 
#
# 1 51.8392 0.1505 -6.9909 7.2784 9.5119 -0.8617
# 2 0.1505 70.0914 28.3791 -15.4289 6.8192 -0.5473
# 3 -6.9909 28.3791 132.9094 -8.8619 -6.2799 -14.1431
# 4 7.2784 -15.4289 -8.8619 48.7994 -8.2187 2.7202
# 5 9.5119 6.8192 -6.2799 -8.2187 35.0500 -6.5145
# 6 -0.8617 -0.5473 -14.1431 2.7202 -6.5145 41.7925
#
#
#
# Elastic Compliance Matrix: (Units=1/GPa)
#
#
# Indices 1 2 3 4 5 6 
#
# 1 0.021188 -0.000623 0.000639 -0.004339 -0.006549 -0.000094
# 2 -0.000623 0.017027 -0.003718 0.004377 -0.003122 -0.001819
# 3 0.000639 -0.003718 0.008893 0.000648 0.002925 0.003388
# 4 -0.004339 0.004377 0.000648 0.023660 0.005910 -0.000432
# 5 -0.006549 -0.003122 0.002925 0.005910 0.033887 0.005711
# 6 -0.000094 -0.001819 0.003388 -0.000432 0.005711 0.025967
#
#
# Mechanical properties :
#
#
# Convention : Reuss Voigt Hill
#
# Bulk Modulus (GPa) = 25.18623 33.10194 29.14409
# Shear Modulus (GPa) = 33.05591 40.68181 36.86886
#
# Velocity S-wave (km/s) = 3.56979 3.96021 3.77005
# Velocity P-wave (km/s) = 5.16727 5.80277 5.49422
#
# Compressibility (1/GPa) = 0.03970423
#
# Stress axis : x y z
#
# Youngs Moduli (GPa) = 47.19724 58.73179 112.44521
#
# Poissons Ratio (x) = 0.03658 -0.07182
# Poissons Ratio (y) = 0.02939 0.41802
# Poissons Ratio (z) = -0.03015 0.21834
#
# Static dielectric constant tensor:
#      x y z
#    x 2.055420 0.133920 -0.070570 
#    y 0.133920 2.054430 0.145310 
#    z -0.070570 0.145310 1.932420 
# 
# From -- ./inp_files/220851.got.cif
#   From: 2010.05.17/outbox.cif.g08.bks.cpg/sg2_111_cif.got.tgz:220851.got - 2010.06.03 11:33:40.
