data_PCOD9101361
_publ_section_title
;
Structure prediction by ZEFSAII (Michael W. Deem and Ramdas Pophale) SiO2 
 PCOD9101361
Probable space group: P -1
;
_chemical_formula_sum "Si O2"
_cell_formula_units_Z 16
_cell_length_a 10.916620
_cell_length_b 6.505499
_cell_length_c 20.318616
_cell_angle_alpha 132.574329
_cell_angle_beta 134.411597
_cell_angle_gamma 65.845248
_cell_volume 753.377344
_symmetry_space_group_name_H-M "P -1"
_symmetry_group_IT_number 2
_symmetry_cell_setting 'triclinic'
loop_
_space_group_symop_operation_xyz
x,y,z
-x,-y,-z
loop_
_atom_site_type_symbol
_atom_site_label
_atom_site_fract_x
_atom_site_fract_y
_atom_site_fract_z
Si Si1 0.915694 0.314346 0.985922
Si Si2 0.846923 0.690770 0.799445
Si Si3 0.546831 0.887175 0.908792
Si Si4 0.734924 0.776043 0.071453
Si Si5 0.510490 0.253104 0.292831
Si Si6 0.040607 0.217476 0.719223
Si Si7 0.677119 0.710939 0.273675
Si Si8 0.840191 0.675302 0.467841
O O1 0.762468 0.457460 0.994718
O O2 0.063159 0.314980 0.096485
O O3 0.000000 0.500000 0.000000
O O4 0.857074 0.022169 0.865603
O O5 0.643026 0.598182 0.701037
O O6 0.954834 0.503794 0.754839
O O7 0.561247 0.849967 0.828794
O O8 0.439835 0.592091 0.830282
O O9 0.435090 0.139588 0.937904
O O10 0.719267 0.922263 0.025713
O O11 0.887525 0.864486 0.199820
O O12 0.675247 0.482710 0.393527
O O13 0.568622 0.977702 0.290100
O O14 0.202364 0.258679 0.739078
O O15 0.898362 0.972031 0.587953
O O16 0.798438 0.722802 0.386080
O O17 0.000000 0.500000 0.500000
#
# Coordination Sequence:
#
# PCOD9101361 Si02
#       8
#     2   2   2   2   2   2   2   2
#     4  10  21  40  60  84 130 175 203 245 309 377
#     4  10  24  40  60  92 128 165 208 250 312 372
#     4  10  21  36  61  95 126 161 211 259 313 360
#     4  10  20  38  58  94 125 162 207 256 311 364
#     4  11  22  42  64  91 129 166 207 261 309 370
#     4  11  22  41  62  95 123 164 214 256 307 377
#     4  11  22  39  68  89 122 161 209 263 313 369
#     4  11  23  43  69  92 121 163 213 264 315 360
#
# _framework density 21.237696
#
# number of rings (size 3 to 8) (size 9 to 14) (size 15 to 20)
#    0.000    1.500    2.500    2.625    1.750    2.000 
#    6.750    0.625    0.000    0.000    0.000    0.000 
#    0.000    0.000    0.000    0.000    0.000    0.000 
#
# Total GULP energy -89341.839652 kJ/mol
# GULP energy per Si atom -5583.864978 kJ/mol
# Density = 2.118936 g / cm^3
# Si number density = 21.237696 Si / 1000 Ang^3
#
#
#
# Elastic Constant Matrix: (Units=GPa)
#
#
# Indices 1 2 3 4 5 6 
#
# 1 39.6743 34.3060 23.8678 0.5058 14.3119 -21.4313
# 2 34.3060 99.8554 41.3633 -6.1949 1.6293 -18.3942
# 3 23.8678 41.3633 108.4622 -7.3051 -9.0621 -1.0569
# 4 0.5058 -6.1949 -7.3051 41.4804 -2.7025 0.7988
# 5 14.3119 1.6293 -9.0621 -2.7025 28.2838 -2.9482
# 6 -21.4313 -18.3942 -1.0569 0.7988 -2.9482 43.9062
#
#
#
# Elastic Compliance Matrix: (Units=1/GPa)
#
#
# Indices 1 2 3 4 5 6 
#
# 1 0.077913 -0.015077 -0.015180 -0.009119 -0.041296 0.028742
# 2 -0.015077 0.016077 -0.002118 0.002624 0.006244 -0.000304
# 3 -0.015180 -0.002118 0.014528 0.003350 0.012028 -0.007200
# 4 -0.009119 0.002624 0.003350 0.025762 0.007662 -0.003225
# 5 -0.041296 0.006244 0.012028 0.007662 0.059079 -0.013424
# 6 0.028742 -0.000304 -0.007200 -0.003225 -0.013424 0.035662
#
#
# Mechanical properties :
#
#
# Convention : Reuss Voigt Hill
#
# Bulk Modulus (GPa) = 22.84737 49.67399 36.26068
# Shear Modulus (GPa) = 16.21484 32.63105 24.42294
#
# Velocity S-wave (km/s) = 2.76614 3.92403 3.39482
# Velocity P-wave (km/s) = 4.58075 6.63107 5.69887
#
# Compressibility (1/GPa) = 0.04376871
#
# Stress axis : x y z
#
# Youngs Moduli (GPa) = 12.83479 62.20250 68.83164
#
# Poissons Ratio (x) = 0.93783 1.04486
# Poissons Ratio (y) = 0.19351 0.14577
# Poissons Ratio (z) = 0.19483 0.13173
#
# Static dielectric constant tensor:
#      x y z
#    x 1.796820 0.012540 0.032210 
#    y 0.012540 1.838810 0.057190 
#    z 0.032210 0.057190 1.832300 
# 
# From -- ./inp_files/592872.got.cif
#   From: 2010.05.17/outbox.cif.g08.bks.cpg/sg2_297_cif.got.tgz:592872.got - 2010.06.03 11:33:40.
