data_PCOD9101344
_publ_section_title
;
Structure prediction by ZEFSAII (Michael W. Deem and Ramdas Pophale) SiO2 
 PCOD9101344
Probable space group: P -1
;
_chemical_formula_sum "Si O2"
_cell_formula_units_Z 15
_cell_length_a 10.365221
_cell_length_b 8.376484
_cell_length_c 9.918664
_cell_angle_alpha 113.311839
_cell_angle_beta 56.370616
_cell_angle_gamma 122.049501
_cell_volume 601.401810
_symmetry_space_group_name_H-M "P -1"
_symmetry_group_IT_number 2
_symmetry_cell_setting 'triclinic'
loop_
_space_group_symop_operation_xyz
x,y,z
-x,-y,-z
loop_
_atom_site_type_symbol
_atom_site_label
_atom_site_fract_x
_atom_site_fract_y
_atom_site_fract_z
Si Si1 0.400320 0.632026 0.083334
Si Si2 0.500000 0.500000 0.500000
Si Si3 0.035137 0.199602 0.621927
Si Si4 0.149538 0.257335 0.024590
Si Si5 0.685639 0.809025 0.363145
Si Si6 0.166638 0.913185 0.021520
Si Si7 0.251402 0.848174 0.389779
Si Si8 0.515568 0.190222 0.186695
O O1 0.366072 0.730969 0.267594
O O2 0.500000 0.500000 0.000000
O O3 0.219248 0.478392 0.086998
O O4 0.481643 0.778409 0.964515
O O5 0.495599 0.675282 0.462639
O O6 0.534261 0.386933 0.308745
O O7 0.940046 0.276334 0.593180
O O8 0.000000 0.000000 0.500000
O O9 0.230745 0.282147 0.593655
O O10 0.932914 0.173319 0.811827
O O11 0.247226 0.221102 0.827135
O O12 0.181724 0.130276 0.079661
O O13 0.957171 0.178728 0.063314
O O14 0.739514 0.028464 0.441987
O O15 0.327634 0.865623 0.893581
O O16 0.345931 0.020811 0.284321
#
# Coordination Sequence:
#
# PCOD9101344 Si02
#       8
#     2   1   2   2   2   2   2   2
#     4  12  24  37  57  89 122 154 202 251 293 353
#     4  10  20  38  58  90 120 154 206 258 284 348
#     4   9  18  34  62  87 112 156 199 244 292 366
#     4  10  22  40  62  92 122 155 201 253 299 355
#     4   9  19  38  60  88 121 155 204 244 302 356
#     4  10  21  39  65  88 120 161 199 248 303 362
#     4  10  21  37  60  88 120 161 200 241 301 361
#     4  11  22  39  61  88 120 162 206 239 304 358
#
# _framework density 24.941727
#
# number of rings (size 3 to 8) (size 9 to 14) (size 15 to 20)
#    0.000    1.867    2.667    1.200    1.867    1.600 
#    2.400    2.000    0.000   12.800    0.000    0.000 
#    0.000    0.000    0.000    0.000    0.000    0.000 
#
# Total GULP energy -83525.637693 kJ/mol
# GULP energy per Si atom -5568.375846 kJ/mol
# Density = 2.488496 g / cm^3
# Si number density = 24.941727 Si / 1000 Ang^3
#
#
#
# Elastic Constant Matrix: (Units=GPa)
#
#
# Indices 1 2 3 4 5 6 
#
# 1 80.9453 8.2637 7.2234 9.7243 -16.9504 -9.6683
# 2 8.2637 45.1272 5.4115 13.2692 9.8596 8.4419
# 3 7.2234 5.4115 110.5502 30.4473 -6.8411 -5.4106
# 4 9.7243 13.2692 30.4473 46.3425 2.5124 4.3059
# 5 -16.9504 9.8596 -6.8411 2.5124 32.0695 6.4828
# 6 -9.6683 8.4419 -5.4106 4.3059 6.4828 20.5590
#
#
#
# Elastic Compliance Matrix: (Units=1/GPa)
#
#
# Indices 1 2 3 4 5 6 
#
# 1 0.016155 -0.005481 0.001247 -0.003889 0.009156 0.008103
# 2 -0.005481 0.028778 -0.000738 -0.005116 -0.009366 -0.010564
# 3 0.001247 -0.000738 0.011727 -0.008364 0.003082 0.004756
# 4 -0.003889 -0.005116 -0.008364 0.030201 -0.003166 -0.007256
# 5 0.009156 -0.009366 0.003082 -0.003166 0.040439 -0.003125
# 6 0.008103 -0.010564 0.004756 -0.007256 -0.003125 0.060546
#
#
# Mechanical properties :
#
#
# Convention : Reuss Voigt Hill
#
# Bulk Modulus (GPa) = 21.40544 30.93551 26.17048
# Shear Modulus (GPa) = 23.43443 34.17582 28.80512
#
# Velocity S-wave (km/s) = 3.06856 3.70567 3.40206
# Velocity P-wave (km/s) = 4.59952 5.54431 5.09387
#
# Compressibility (1/GPa) = 0.04671710
#
# Stress axis : x y z
#
# Youngs Moduli (GPa) = 61.90156 34.74829 85.27001
#
# Poissons Ratio (x) = 0.19044 -0.10634
# Poissons Ratio (y) = 0.33925 0.06295
# Poissons Ratio (z) = -0.07719 0.02565
#
# Static dielectric constant tensor:
#      x y z
#    x 2.031320 -0.086460 0.067140 
#    y -0.086460 1.904260 0.104330 
#    z 0.067140 0.104330 1.923420 
# 
# From -- ./inp_files/285621.got.cif
#   From: 2010.05.17/outbox.cif.g08.bks.cpg/sg2_143_cif.got.tgz:285621.got - 2010.06.03 11:33:40.
