data_PCOD9101866
_publ_section_title
;
Structure prediction by ZEFSAII (Michael W. Deem and Ramdas Pophale) SiO2 
 PCOD9101866
Probable space group: P -1
;
_chemical_formula_sum "Si O2"
_cell_formula_units_Z 14
_cell_length_a 8.605094
_cell_length_b 13.684057
_cell_length_c 9.731076
_cell_angle_alpha 49.923066
_cell_angle_beta 134.365190
_cell_angle_gamma 113.001581
_cell_volume 623.106058
_symmetry_space_group_name_H-M "P -1"
_symmetry_group_IT_number 2
_symmetry_cell_setting 'triclinic'
loop_
_space_group_symop_operation_xyz
x,y,z
-x,-y,-z
loop_
_atom_site_type_symbol
_atom_site_label
_atom_site_fract_x
_atom_site_fract_y
_atom_site_fract_z
Si Si1 0.683955 0.065110 0.299629
Si Si2 0.002000 0.142751 0.210769
Si Si3 0.988363 0.294253 0.810800
Si Si4 0.967992 0.277049 0.334528
Si Si5 0.722062 0.772073 0.197399
Si Si6 0.702415 0.537235 0.000794
Si Si7 0.567702 0.497631 0.385701
O O1 0.781698 0.182452 0.333761
O O2 0.826450 0.061003 0.250030
O O3 0.762957 0.938138 0.548720
O O4 0.437885 0.108827 0.065546
O O5 0.990678 0.266431 0.193142
O O6 0.935486 0.181602 0.981958
O O7 0.067344 0.249491 0.750738
O O8 0.792158 0.407185 0.583357
O O9 0.193551 0.348529 0.964281
O O10 0.188708 0.224083 0.596587
O O11 0.888462 0.417240 0.212563
O O12 0.596637 0.643823 0.228086
O O13 0.609721 0.557001 0.772345
O O14 0.500000 0.500000 0.000000
O O15 0.500000 0.500000 0.500000
#
# Coordination Sequence:
#
# PCOD9101866 Si02
#       7
#     2   2   2   2   2   2   2
#     4   9  20  44  62  82 118 157 205 239 299 342
#     4   9  22  43  62  82 121 157 198 253 283 355
#     4  12  24  39  58  95 124 153 200 242 299 359
#     4  10  20  38  61  85 113 157 199 238 292 348
#     4  12  22  37  62  88 120 154 197 248 294 349
#     4  12  22  38  60  87 127 160 189 242 307 353
#     4  12  24  37  59  90 122 160 196 240 295 357
#
# _framework density 22.468083
#
# number of rings (size 3 to 8) (size 9 to 14) (size 15 to 20)
#    0.857    0.286    4.286    3.000    2.000    2.286 
#    0.000    0.714    0.000    0.000    0.000    0.000 
#    0.000    0.000    0.000    0.000    0.000    0.000 
#
# Total GULP energy -78218.083892 kJ/mol
# GULP energy per Si atom -5587.005992 kJ/mol
# Density = 2.241694 g / cm^3
# Si number density = 22.468083 Si / 1000 Ang^3
#
#
#
# Elastic Constant Matrix: (Units=GPa)
#
#
# Indices 1 2 3 4 5 6 
#
# 1 28.3955 12.3339 -1.9912 -8.9538 4.4848 -18.6000
# 2 12.3339 10.1708 11.8089 4.4171 -6.7723 0.8115
# 3 -1.9912 11.8089 92.0297 -5.2891 18.7238 -9.8979
# 4 -8.9538 4.4171 -5.2891 37.5581 -2.5330 5.6700
# 5 4.4848 -6.7723 18.7238 -2.5330 36.7353 2.7779
# 6 -18.6000 0.8115 -9.8979 5.6700 2.7779 24.6705
#
#
#
# Elastic Compliance Matrix: (Units=1/GPa)
#
#
# Indices 1 2 3 4 5 6 
#
# 1 -0.020973 0.070355 -0.018164 -0.010147 0.026056 -0.026016
# 2 0.070355 -0.042474 0.020818 0.013063 -0.030914 0.063271
# 3 -0.018164 0.020818 0.005536 -0.003977 0.003843 -0.011677
# 4 -0.010147 0.013063 -0.003977 0.025175 0.008653 -0.016436
# 5 0.026056 -0.030914 0.003843 0.008653 0.015584 0.018460
# 6 -0.026016 0.063271 -0.011677 -0.016436 0.018460 0.015853
#
#
# Mechanical properties :
#
#
# Convention : Reuss Voigt Hill
#
# Bulk Modulus (GPa) = 11.34990 19.43326 15.39158
# Shear Modulus (GPa) = -42.39165 27.02242 -7.68461
#
# Velocity S-wave (km/s) = -4.34839 3.47176 -1.85139
# Velocity P-wave (km/s) = 4.48874 4.97382 1.51495
#
# Compressibility (1/GPa) = 0.08810650
#
# Stress axis : x y z
#
# Youngs Moduli (GPa) = -47.68128 -23.54402 180.65051
#
# Poissons Ratio (x) = 1.65644 3.28133
# Poissons Ratio (y) = 3.35462 -3.76070
# Poissons Ratio (z) = -0.86608 0.49013
#
# Static dielectric constant tensor:
#      x y z
#    x 1.866360 0.022600 -0.010010 
#    y 0.022600 1.832520 -0.006200 
#    z -0.010010 -0.006200 1.841680 
# 
# From -- ./inp_files/200412.got.cif
#   From: 2010.05.17/outbox.cif.g08.bks.cpg/sg2_101_cif.got.tgz:200412.got - 2010.06.03 11:33:40.
