data_PCOD9101658
_publ_section_title
;
Structure prediction by ZEFSAII (Michael W. Deem and Ramdas Pophale) SiO2 
 PCOD9101658
Probable space group: P -1
;
_chemical_formula_sum "Si O2"
_cell_formula_units_Z 16
_cell_length_a 5.566714
_cell_length_b 8.097210
_cell_length_c 17.920602
_cell_angle_alpha 71.153552
_cell_angle_beta 87.664155
_cell_angle_gamma 121.171887
_cell_volume 632.148819
_symmetry_space_group_name_H-M "P -1"
_symmetry_group_IT_number 2
_symmetry_cell_setting 'triclinic'
loop_
_space_group_symop_operation_xyz
x,y,z
-x,-y,-z
loop_
_atom_site_type_symbol
_atom_site_label
_atom_site_fract_x
_atom_site_fract_y
_atom_site_fract_z
Si Si1 0.670744 0.323401 0.457126
Si Si2 0.423428 0.139911 0.151072
Si Si3 0.695652 0.719915 0.385904
Si Si4 0.562759 0.342917 0.979185
Si Si5 0.952118 0.509719 0.165735
Si Si6 0.838537 0.043471 0.558918
Si Si7 0.357189 0.715322 0.251968
Si Si8 0.878263 0.880800 0.108264
O O1 0.770483 0.549334 0.392049
O O2 0.462067 0.302763 0.530339
O O3 0.493391 0.146975 0.421266
O O4 0.872484 0.260377 0.502435
O O5 0.620517 0.327312 0.178777
O O6 0.362660 0.926856 0.217109
O O7 0.621810 0.225300 0.060485
O O8 0.119843 0.079439 0.126446
O O9 0.470505 0.696650 0.332007
O O10 0.012003 0.932283 0.367299
O O11 0.287633 0.154716 0.963101
O O12 0.824777 0.480009 0.898588
O O13 0.500000 0.500000 0.000000
O O14 0.997838 0.733981 0.119441
O O15 0.065270 0.521344 0.246364
O O16 0.000000 0.000000 0.500000
O O17 0.608242 0.759709 0.185581
#
# Coordination Sequence:
#
# PCOD9101658 Si02
#       8
#     2   2   2   2   2   2   2   2
#     4   9  19  36  63  90 119 149 200 251 289 353
#     4  11  23  39  62  86 116 158 202 250 302 360
#     4  10  20  38  60  87 118 162 195 242 302 353
#     4  11  22  38  66  88 114 154 203 258 305 352
#     4  10  23  42  59  88 120 154 204 250 298 365
#     4   9  18  34  58  91 118 144 192 244 293 350
#     4  10  25  40  57  87 126 159 201 244 301 368
#     4  10  23  40  58  87 119 156 199 251 303 366
#
# _framework density 25.310495
#
# number of rings (size 3 to 8) (size 9 to 14) (size 15 to 20)
#    0.000    2.000    1.250    1.125    1.750    7.500 
#    0.000    3.750    0.000    0.000    0.000    0.000 
#    0.000    0.000    0.000    0.000    0.000    0.000 
#
# Total GULP energy -89283.209657 kJ/mol
# GULP energy per Si atom -5580.200604 kJ/mol
# Density = 2.525289 g / cm^3
# Si number density = 25.310495 Si / 1000 Ang^3
#
#
#
# Elastic Constant Matrix: (Units=GPa)
#
#
# Indices 1 2 3 4 5 6 
#
# 1 79.0208 48.1550 15.9663 11.4557 15.4053 10.1055
# 2 48.1550 161.6877 50.8329 19.9565 25.3717 44.9845
# 3 15.9663 50.8329 53.4365 27.6033 22.6170 21.6151
# 4 11.4557 19.9565 27.6033 36.2391 7.5648 22.6899
# 5 15.4053 25.3717 22.6170 7.5648 34.8570 16.5606
# 6 10.1055 44.9845 21.6151 22.6899 16.5606 62.3989
#
#
#
# Elastic Compliance Matrix: (Units=1/GPa)
#
#
# Indices 1 2 3 4 5 6 
#
# 1 0.017197 -0.006132 0.006229 -0.007972 -0.007527 0.004374
# 2 -0.006132 0.012712 -0.013639 0.009469 0.004034 -0.007961
# 3 0.006229 -0.013639 0.056639 -0.038497 -0.026024 0.010110
# 4 -0.007972 0.009469 -0.038497 0.062931 0.017300 -0.019675
# 5 -0.007527 0.004034 -0.026024 0.017300 0.047738 -0.011635
# 6 0.004374 -0.007961 0.010110 -0.019675 -0.011635 0.027797
#
#
# Mechanical properties :
#
#
# Convention : Reuss Voigt Hill
#
# Bulk Modulus (GPa) = 16.81705 58.22816 37.52261
# Shear Modulus (GPa) = 18.38789 38.64507 28.51648
#
# Velocity S-wave (km/s) = 2.69828 3.91172 3.36023
# Velocity P-wave (km/s) = 4.04553 6.59223 5.46918
#
# Compressibility (1/GPa) = 0.05946345
#
# Stress axis : x y z
#
# Youngs Moduli (GPa) = 58.15047 78.66493 17.65570
#
# Poissons Ratio (x) = 0.48238 -0.10998
# Poissons Ratio (y) = 0.35658 0.24081
# Poissons Ratio (z) = -0.36224 1.07295
#
# Static dielectric constant tensor:
#      x y z
#    x 2.049170 0.070890 -0.008700 
#    y 0.070890 2.057930 -0.038420 
#    z -0.008700 -0.038420 2.082680 
# 
# From -- ./inp_files/581870.got.cif
#   From: 2010.05.17/outbox.cif.g08.bks.cpg/sg2_291_cif.got.tgz:581870.got - 2010.06.03 11:33:40.
