data_PCOD9101590
_publ_section_title
;
Structure prediction by ZEFSAII (Michael W. Deem and Ramdas Pophale) SiO2 
 PCOD9101590
Probable space group: P -1
;
_chemical_formula_sum "Si O2"
_cell_formula_units_Z 14
_cell_length_a 8.153260
_cell_length_b 6.875625
_cell_length_c 17.779187
_cell_angle_alpha 112.621555
_cell_angle_beta 131.950936
_cell_angle_gamma 57.493692
_cell_volume 624.605400
_symmetry_space_group_name_H-M "P -1"
_symmetry_group_IT_number 2
_symmetry_cell_setting 'triclinic'
loop_
_space_group_symop_operation_xyz
x,y,z
-x,-y,-z
loop_
_atom_site_type_symbol
_atom_site_label
_atom_site_fract_x
_atom_site_fract_y
_atom_site_fract_z
Si Si1 0.511009 0.377282 0.814350
Si Si2 0.266755 0.301096 0.039555
Si Si3 0.061913 0.875017 0.277928
Si Si4 0.033001 0.847176 0.561293
Si Si5 0.372304 0.333452 0.603219
Si Si6 0.037810 0.974691 0.898950
Si Si7 0.804367 0.552488 0.124262
O O1 0.370987 0.339867 0.694732
O O2 0.771043 0.162140 0.865430
O O3 0.370135 0.401660 0.851712
O O4 0.561111 0.607587 0.849668
O O5 0.322380 0.319436 0.971591
O O6 0.228833 0.068673 0.004584
O O7 0.000000 0.500000 0.000000
O O8 0.350222 0.794975 0.354978
O O9 0.958099 0.014217 0.189400
O O10 0.003017 0.650515 0.219357
O O11 0.945660 0.018855 0.337903
O O12 0.799073 0.788836 0.493134
O O13 0.254475 0.599579 0.581333
O O14 0.000000 0.000000 0.500000
O O15 0.084108 0.719176 0.898662
#
# Coordination Sequence:
#
# PCOD9101590 Si02
#       7
#     2   2   2   2   2   2   2
#     4  10  20  38  60  84 115 150 194 237 278 337
#     4   9  20  38  56  85 121 150 190 236 278 335
#     4  10  22  39  59  86 119 149 187 235 283 340
#     4  11  23  40  62  87 113 146 192 238 285 343
#     4  10  23  41  60  84 116 151 186 236 292 336
#     4   9  21  39  59  84 118 154 188 233 284 334
#     4  11  21  36  60  87 115 154 193 229 280 335
#
# _framework density 22.414154
#
# number of rings (size 3 to 8) (size 9 to 14) (size 15 to 20)
#    0.000    2.000    0.000    3.429    0.000    8.000 
#    0.000   10.000    0.000    0.000    0.000    0.000 
#    0.000    0.000    0.000    0.000    0.000    0.000 
#
# Total GULP energy -78347.516562 kJ/mol
# GULP energy per Si atom -5596.251183 kJ/mol
# Density = 2.236314 g / cm^3
# Si number density = 22.414154 Si / 1000 Ang^3
#
#
#
# Elastic Constant Matrix: (Units=GPa)
#
#
# Indices 1 2 3 4 5 6 
#
# 1 51.3002 17.1936 2.2457 -6.5475 -17.3477 -5.2998
# 2 17.1936 120.1228 26.0363 15.5230 2.0394 7.7949
# 3 2.2457 26.0363 66.9925 23.1547 -10.1144 5.9199
# 4 -6.5475 15.5230 23.1547 26.1310 5.9442 1.6492
# 5 -17.3477 2.0394 -10.1144 5.9442 38.3428 1.2860
# 6 -5.2998 7.7949 5.9199 1.6492 1.2860 30.9603
#
#
#
# Elastic Compliance Matrix: (Units=1/GPa)
#
#
# Indices 1 2 3 4 5 6 
#
# 1 0.026316 -0.005156 -0.000056 0.006906 0.010928 0.004992
# 2 -0.005156 0.010403 -0.002518 -0.004442 -0.002772 -0.002669
# 3 -0.000056 -0.002518 0.026113 -0.023895 0.010820 -0.003545
# 4 0.006906 -0.004442 -0.023895 0.066615 -0.013400 0.003878
# 5 0.010928 -0.002772 0.010820 -0.013400 0.036113 -0.000287
# 6 0.004992 -0.002669 -0.003545 0.003878 -0.000287 0.034309
#
#
# Mechanical properties :
#
#
# Convention : Reuss Voigt Hill
#
# Bulk Modulus (GPa) = 21.10985 36.59632 28.85308
# Shear Modulus (GPa) = 21.63371 31.94948 26.79159
#
# Velocity S-wave (km/s) = 3.11011 3.77956 3.46106
# Velocity P-wave (km/s) = 4.72605 5.95059 5.37332
#
# Compressibility (1/GPa) = 0.04737126
#
# Stress axis : x y z
#
# Youngs Moduli (GPa) = 37.99922 96.12791 38.29483
#
# Poissons Ratio (x) = 0.49568 0.00216
# Poissons Ratio (y) = 0.19594 0.09641
# Poissons Ratio (z) = 0.00214 0.24202
#
# Static dielectric constant tensor:
#      x y z
#    x 1.829660 -0.010440 0.002990 
#    y -0.010440 1.826370 0.014170 
#    z 0.002990 0.014170 1.815720 
# 
# From -- ./inp_files/37090.got.cif
#   From: 2010.05.17/outbox.cif.g08.bks.cpg/sg2_19_cif.got.tgz:37090.got - 2010.06.03 11:33:40.
