data_PCOD9101639
_publ_section_title
;
Structure prediction by ZEFSAII (Michael W. Deem and Ramdas Pophale) SiO2 
 PCOD9101639
Probable space group: P -1
;
_chemical_formula_sum "Si O2"
_cell_formula_units_Z 16
_cell_length_a 11.379738
_cell_length_b 15.165639
_cell_length_c 8.988773
_cell_angle_alpha 55.330217
_cell_angle_beta 38.425946
_cell_angle_gamma 72.571116
_cell_volume 759.855409
_symmetry_space_group_name_H-M "P -1"
_symmetry_group_IT_number 2
_symmetry_cell_setting 'triclinic'
loop_
_space_group_symop_operation_xyz
x,y,z
-x,-y,-z
loop_
_atom_site_type_symbol
_atom_site_label
_atom_site_fract_x
_atom_site_fract_y
_atom_site_fract_z
Si Si1 0.201394 0.996839 0.226272
Si Si2 0.863174 0.186174 0.756814
Si Si3 0.218771 0.362860 0.073335
Si Si4 0.353142 0.670583 0.327569
Si Si5 0.183797 0.413118 0.714640
Si Si6 0.191952 0.733132 0.953196
Si Si7 0.396975 0.833937 0.371507
Si Si8 0.427335 0.561314 0.875802
O O1 0.166588 0.937570 0.156641
O O2 0.292632 0.915857 0.313125
O O3 0.000000 0.000000 0.500000
O O4 0.369204 0.114093 0.933352
O O5 0.686747 0.234757 0.828643
O O6 0.050281 0.265164 0.408825
O O7 0.877530 0.207844 0.895893
O O8 0.425637 0.334471 0.899603
O O9 0.172354 0.382719 0.929494
O O10 0.263715 0.473509 0.023822
O O11 0.214862 0.547015 0.547882
O O12 0.326485 0.712970 0.479005
O O13 0.382130 0.394583 0.462327
O O14 0.997838 0.341438 0.876033
O O15 0.327215 0.821324 0.621042
O O16 0.326458 0.653479 0.943415
O O17 0.500000 0.500000 0.000000
#
# Coordination Sequence:
#
# PCOD9101639 Si02
#       8
#     2   2   2   2   2   2   2   2
#     4  10  22  44  67  87 111 148 201 258 308 358
#     4  11  24  38  60  87 118 159 196 246 310 358
#     4  11  21  36  58  87 120 162 211 246 286 349
#     4  10  20  38  60  86 118 157 205 249 288 348
#     4  11  22  36  59  88 123 166 205 243 287 347
#     4  12  24  39  58  91 130 160 197 241 296 366
#     4  10  22  39  64  90 115 152 199 252 305 353
#     4  11  23  38  58  88 129 170 202 242 294 349
#
# _framework density 21.056638
#
# number of rings (size 3 to 8) (size 9 to 14) (size 15 to 20)
#    0.000    1.250    0.000    8.250    0.000    4.500 
#    0.000    0.625    0.000    0.000    0.000    0.000 
#    0.000    0.000    0.000    0.000    0.000    0.000 
#
# Total GULP energy -89508.308629 kJ/mol
# GULP energy per Si atom -5594.269289 kJ/mol
# Density = 2.100871 g / cm^3
# Si number density = 21.056638 Si / 1000 Ang^3
#
#
#
# Elastic Constant Matrix: (Units=GPa)
#
#
# Indices 1 2 3 4 5 6 
#
# 1 88.1426 35.8729 30.5960 6.8962 -4.0928 23.4365
# 2 35.8729 83.6338 32.0391 12.7768 -11.0154 27.9485
# 3 30.5960 32.0391 73.2200 5.3202 -9.5972 15.5249
# 4 6.8962 12.7768 5.3202 21.7079 4.8831 5.1378
# 5 -4.0928 -11.0154 -9.5972 4.8831 33.0065 11.8206
# 6 23.4365 27.9485 15.5249 5.1378 11.8206 30.1224
#
#
#
# Elastic Compliance Matrix: (Units=1/GPa)
#
#
# Indices 1 2 3 4 5 6 
#
# 1 0.016428 -0.000509 -0.003006 -0.002516 0.005893 -0.012644
# 2 -0.000509 0.028289 -0.001612 -0.013651 0.022172 -0.031393
# 3 -0.003006 -0.001612 0.018619 -0.002436 0.007887 -0.008442
# 4 -0.002516 -0.013651 -0.002436 0.056505 -0.018815 0.013624
# 5 0.005893 0.022172 0.007887 -0.018815 0.061457 -0.050129
# 6 -0.012644 -0.031393 -0.008442 0.013624 -0.050129 0.093861
#
#
# Mechanical properties :
#
#
# Convention : Reuss Voigt Hill
#
# Bulk Modulus (GPa) = 18.83819 49.11248 33.97533
# Shear Modulus (GPa) = 16.49580 26.73325 21.61453
#
# Velocity S-wave (km/s) = 2.80197 3.56699 3.20737
# Velocity P-wave (km/s) = 4.40839 6.35132 5.46686
#
# Compressibility (1/GPa) = 0.05308366
#
# Stress axis : x y z
#
# Youngs Moduli (GPa) = 60.87072 35.34929 53.70741
#
# Poissons Ratio (x) = 0.01800 0.16143
# Poissons Ratio (y) = 0.03100 0.08655
# Poissons Ratio (z) = 0.18297 0.05697
#
# Static dielectric constant tensor:
#      x y z
#    x 1.774630 -0.000140 -0.003030 
#    y -0.000140 1.782790 0.003350 
#    z -0.003030 0.003350 1.736920 
# 
# From -- ./inp_files/272054.got.cif
#   From: 2010.05.17/outbox.cif.g08.bks.cpg/sg2_137_cif.got.tgz:272054.got - 2010.06.03 11:33:40.
