data_PCOD9101810
_publ_section_title
;
Structure prediction by ZEFSAII (Michael W. Deem and Ramdas Pophale) SiO2 
 PCOD9101810
Probable space group: P -1
;
_chemical_formula_sum "Si O2"
_cell_formula_units_Z 16
_cell_length_a 9.736174
_cell_length_b 18.378992
_cell_length_c 11.871662
_cell_angle_alpha 34.979925
_cell_angle_beta 42.429887
_cell_angle_gamma 66.196734
_cell_volume 701.794175
_symmetry_space_group_name_H-M "P -1"
_symmetry_group_IT_number 2
_symmetry_cell_setting 'triclinic'
loop_
_space_group_symop_operation_xyz
x,y,z
-x,-y,-z
loop_
_atom_site_type_symbol
_atom_site_label
_atom_site_fract_x
_atom_site_fract_y
_atom_site_fract_z
Si Si1 0.795711 0.926797 0.452384
Si Si2 0.204350 0.033595 0.245705
Si Si3 0.835652 0.226972 0.086850
Si Si4 0.285643 0.707717 0.144265
Si Si5 0.301988 0.703130 0.470878
Si Si6 0.088398 0.845534 0.265942
Si Si7 0.256232 0.476132 0.633407
Si Si8 0.443769 0.853281 0.420394
O O1 0.041892 0.981477 0.300028
O O2 0.834260 0.833678 0.449798
O O3 0.795725 0.078006 0.240896
O O4 0.562558 0.829708 0.793539
O O5 0.314134 0.937264 0.343656
O O6 0.000000 0.000000 0.500000
O O7 0.439374 0.194747 0.877424
O O8 0.637412 0.190835 0.346787
O O9 0.829618 0.328446 0.863676
O O10 0.074791 0.311526 0.908591
O O11 0.144788 0.767112 0.228305
O O12 0.286760 0.581146 0.377006
O O13 0.152620 0.774780 0.423598
O O14 0.173514 0.537095 0.710808
O O15 0.365413 0.725847 0.535567
O O16 0.281287 0.019835 0.910144
O O17 0.500000 0.500000 0.500000
#
# Coordination Sequence:
#
# PCOD9101810 Si02
#       8
#     2   2   2   2   2   2   2   2
#     4  12  21  37  73 100 129 174 225 265 337 395
#     4  11  17  31  61 101 129 164 211 278 327 382
#     4  12  26  43  66  98 141 183 211 273 344 399
#     4  11  26  48  65  98 141 174 223 277 336 401
#     4  10  20  38  60  98 139 164 216 288 335 375
#     4  10  20  38  67 100 136 173 216 282 332 390
#     4  11  26  45  71  95 126 184 233 272 331 399
#     4  11  20  34  63  98 142 162 215 280 342 379
#
# _framework density 22.798708000000001
#
# number of rings (size 3 to 8) (size 9 to 14) (size 15 to 20)
#    0.000    1.000    5.000    3.750    1.750    1.000 
#    0.000    1.250    0.000    4.500    0.000    0.000 
#    0.000    0.000    0.000    0.000    0.000    0.000 
#
# Total GULP energy -89288.530837 kJ/mol
# GULP energy per Si atom -5580.533177 kJ/mol
# Density = 2.274682 g / cm^3
# Si number density = 22.798708 Si / 1000 Ang^3
#
#
#
# Elastic Constant Matrix: (Units=GPa)
#
#
# Indices 1 2 3 4 5 6 
#
# 1 70.6261 29.5046 3.3169 5.1858 2.4332 3.6520
# 2 29.5046 98.2689 42.1810 20.8836 12.8589 -7.0018
# 3 3.3169 42.1810 48.1371 12.0567 -3.1689 -8.3869
# 4 5.1858 20.8836 12.0567 32.7008 7.0819 0.5093
# 5 2.4332 12.8589 -3.1689 7.0819 34.6301 5.6014
# 6 3.6520 -7.0018 -8.3869 0.5093 5.6014 25.8753
#
#
#
# Elastic Compliance Matrix: (Units=1/GPa)
#
#
# Indices 1 2 3 4 5 6 
#
# 1 0.017441 -0.008276 0.005676 -0.000161 0.002966 -0.003500
# 2 -0.008276 0.023029 -0.018445 -0.004640 -0.009278 0.003521
# 3 0.005676 -0.018445 0.039614 -0.006082 0.010528 0.004888
# 4 -0.000161 -0.004640 -0.006082 0.037150 -0.005993 -0.002638
# 5 0.002966 -0.009278 0.010528 -0.005993 0.035446 -0.007072
# 6 -0.003500 0.003521 0.004888 -0.002638 -0.007072 0.043261
#
#
# Mechanical properties :
#
#
# Convention : Reuss Voigt Hill
#
# Bulk Modulus (GPa) = 26.32004 40.78189 33.55097
# Shear Modulus (GPa) = 19.94455 28.10986 24.02721
#
# Velocity S-wave (km/s) = 2.96093 3.51516 3.24988
# Velocity P-wave (km/s) = 4.82276 5.86530 5.36940
#
# Compressibility (1/GPa) = 0.03799386
#
# Stress axis : x y z
#
# Youngs Moduli (GPa) = 57.33773 43.42318 25.24387
#
# Poissons Ratio (x) = 0.35937 -0.14329
# Poissons Ratio (y) = 0.47453 0.46562
# Poissons Ratio (z) = -0.32545 0.80093
#
# Static dielectric constant tensor:
#      x y z
#    x 1.892960 0.078810 -0.036370 
#    y 0.078810 2.045650 -0.009670 
#    z -0.036370 -0.009670 1.897850 
# 
# From -- ./inp_files/436476.got.cif
#   From: 2010.05.17/outbox.cif.g08.bks.cpg/sg2_219_cif.got.tgz:436476.got - 2010.06.03 11:33:40.
