data_PCOD9101338
_publ_section_title
;
Structure prediction by ZEFSAII (Michael W. Deem and Ramdas Pophale) SiO2 
 PCOD9101338
Probable space group: P -1
;
_chemical_formula_sum "Si O2"
_cell_formula_units_Z 16
_cell_length_a 7.607701
_cell_length_b 23.357888
_cell_length_c 14.539662
_cell_angle_alpha 158.427035
_cell_angle_beta 103.563241
_cell_angle_gamma 66.809325
_cell_volume 804.215423
_symmetry_space_group_name_H-M "P -1"
_symmetry_group_IT_number 2
_symmetry_cell_setting 'triclinic'
loop_
_space_group_symop_operation_xyz
x,y,z
-x,-y,-z
loop_
_atom_site_type_symbol
_atom_site_label
_atom_site_fract_x
_atom_site_fract_y
_atom_site_fract_z
Si Si1 0.322753 0.076490 0.336286
Si Si2 0.641681 0.493241 0.380332
Si Si3 0.737122 0.940366 0.910370
Si Si4 0.586036 0.692868 0.863162
Si Si5 0.312788 0.707187 0.509529
Si Si6 0.038007 0.478002 0.671648
Si Si7 0.918139 0.359765 0.764812
Si Si8 0.325471 0.420501 0.786325
O O1 0.271067 0.041249 0.173651
O O2 0.374696 0.236651 0.568161
O O3 0.115220 0.163398 0.502582
O O4 0.503087 0.897863 0.134294
O O5 0.645762 0.581174 0.608529
O O6 0.603398 0.327445 0.147585
O O7 0.431413 0.626676 0.498542
O O8 0.834937 0.469072 0.307015
O O9 0.884078 0.734243 0.648404
O O10 0.500000 0.000000 0.000000
O O11 0.792779 0.079799 0.173227
O O12 0.793932 0.601901 0.813126
O O13 0.165279 0.639645 0.347073
O O14 0.494155 0.635953 0.349596
O O15 0.123575 0.487491 0.796341
O O16 0.737483 0.423393 0.913650
O O17 0.000000 0.500000 0.000000
#
# Coordination Sequence:
#
# PCOD9101338 Si02
#       8
#     2   2   2   2   2   2   2   2
#     4  10  20  38  58  89 125 148 197 251 296 365
#     4  10  22  35  56  92 126 159 197 236 302 384
#     4  11  18  36  62  93 120 149 197 252 312 354
#     4  11  22  37  56  87 133 164 190 237 309 373
#     4  11  20  36  67  88 118 156 198 259 297 363
#     4  10  21  38  64  86 126 164 191 250 305 362
#     4  10  23  38  60  88 118 154 206 258 298 342
#     4   9  20  40  63  88 112 158 210 247 296 351
#
# _framework density 19.895168999999999
#
# number of rings (size 3 to 8) (size 9 to 14) (size 15 to 20)
#    0.000    1.750    5.000    0.750    5.250    2.500 
#    2.250    0.625    0.000    1.500    0.000    0.000 
#    0.000    0.000    0.000    0.000    0.000    0.000 
#
# Total GULP energy -89234.316901 kJ/mol
# GULP energy per Si atom -5577.144806 kJ/mol
# Density = 1.984989 g / cm^3
# Si number density = 19.895169 Si / 1000 Ang^3
#
#
#
# Elastic Constant Matrix: (Units=GPa)
#
#
# Indices 1 2 3 4 5 6 
#
# 1 56.6969 12.6974 29.5812 6.7804 -5.1467 2.0434
# 2 12.6974 69.0587 45.9254 10.1542 2.9858 -10.5531
# 3 29.5812 45.9254 83.4017 0.3545 -11.4493 -10.7154
# 4 6.7804 10.1542 0.3545 37.3594 -4.7835 -1.3211
# 5 -5.1467 2.9858 -11.4493 -4.7835 29.1871 -3.6494
# 6 2.0434 -10.5531 -10.7154 -1.3211 -3.6494 34.8216
#
#
#
# Elastic Compliance Matrix: (Units=1/GPa)
#
#
# Indices 1 2 3 4 5 6 
#
# 1 0.023118 0.003045 -0.010624 -0.005295 -0.001782 -0.004091
# 2 0.003045 0.027548 -0.017475 -0.009167 -0.010470 0.001348
# 3 -0.010624 -0.017475 0.027827 0.008259 0.012878 0.005554
# 4 -0.005295 -0.009167 0.008259 0.031326 0.008649 0.002169
# 5 -0.001782 -0.010470 0.012878 0.008649 0.042194 0.005645
# 6 -0.004091 0.001348 0.005554 0.002169 0.005645 0.031749
#
#
# Mechanical properties :
#
#
# Convention : Reuss Voigt Hill
#
# Bulk Modulus (GPa) = 35.22881 42.84059 39.03470
# Shear Modulus (GPa) = 20.54826 28.33715 24.44271
#
# Velocity S-wave (km/s) = 3.21725 3.77812 3.50891
# Velocity P-wave (km/s) = 5.61663 6.37276 6.00661
#
# Compressibility (1/GPa) = 0.02838586
#
# Stress axis : x y z
#
# Youngs Moduli (GPa) = 43.25705 36.30025 35.93626
#
# Poissons Ratio (x) = -0.11054 0.38178
# Poissons Ratio (y) = -0.13173 0.62797
# Poissons Ratio (z) = 0.45956 0.63433
#
# Static dielectric constant tensor:
#      x y z
#    x 1.829190 0.011550 0.008720 
#    y 0.011550 1.684400 -0.011150 
#    z 0.008720 -0.011150 1.683250 
# 
# From -- ./inp_files/278578.got.cif
#   From: 2010.05.17/outbox.cif.g08.bks.cpg/sg2_140_cif.got.tgz:278578.got - 2010.06.03 11:33:40.
