data_PCOD9101471
_publ_section_title
;
Structure prediction by ZEFSAII (Michael W. Deem and Ramdas Pophale) SiO2 
 PCOD9101471
Probable space group: P -1
;
_chemical_formula_sum "Si O2"
_cell_formula_units_Z 16
_cell_length_a 14.451502
_cell_length_b 8.214762
_cell_length_c 11.256270
_cell_angle_alpha 134.176361
_cell_angle_beta 80.905167
_cell_angle_gamma 120.398344
_cell_volume 784.690713
_symmetry_space_group_name_H-M "P -1"
_symmetry_group_IT_number 2
_symmetry_cell_setting 'triclinic'
loop_
_space_group_symop_operation_xyz
x,y,z
-x,-y,-z
loop_
_atom_site_type_symbol
_atom_site_label
_atom_site_fract_x
_atom_site_fract_y
_atom_site_fract_z
Si Si1 0.488236 0.472255 0.246231
Si Si2 0.767959 0.376189 0.580640
Si Si3 0.873169 0.045383 0.481042
Si Si4 0.297534 0.429804 0.851908
Si Si5 0.547040 0.226140 0.408684
Si Si6 0.865623 0.633209 0.448509
Si Si7 0.653563 0.152617 0.125727
Si Si8 0.636724 0.361561 0.802423
O O1 0.619946 0.604951 0.266667
O O2 0.451136 0.518839 0.405852
O O3 0.458109 0.635914 0.248688
O O4 0.415559 0.167338 0.050411
O O5 0.813861 0.200314 0.533307
O O6 0.645245 0.221069 0.459419
O O7 0.848378 0.589779 0.571430
O O8 0.744273 0.489914 0.760857
O O9 0.007397 0.255162 0.557079
O O10 0.829588 0.815521 0.270334
O O11 0.842362 0.853497 0.508131
O O12 0.321181 0.709139 0.937580
O O13 0.335073 0.468605 0.997843
O O14 0.577938 0.211799 0.258324
O O15 0.422425 0.958483 0.321043
O O16 0.774957 0.333009 0.258099
#
# Coordination Sequence:
#
# PCOD9101471 Si02
#       8
#     2   2   2   2   2   2   2   2
#     4  11  21  36  60  84 118 162 188 243 301 346
#     4  10  20  38  59  88 114 156 200 243 294 354
#     4  10  20  39  66  85 114 159 200 250 300 343
#     4  11  22  36  57  90 116 155 202 239 295 365
#     4  10  21  37  59  87 122 158 200 235 296 366
#     4   9  21  39  64  88 114 154 209 244 295 360
#     4  10  22  39  57  87 122 150 199 251 293 356
#     4  11  22  36  55  87 125 155 196 240 297 362
#
# _framework density 20.390198000000002
#
# number of rings (size 3 to 8) (size 9 to 14) (size 15 to 20)
#    0.000    1.750    1.250    4.125    3.500    0.500 
#    9.000    0.625    5.500    3.000    0.000    0.000 
#    0.000    0.000    0.000    0.000    0.000    0.000 
#
# Total GULP energy -89093.571943 kJ/mol
# GULP energy per Si atom -5568.348246 kJ/mol
# Density = 2.034379 g / cm^3
# Si number density = 20.390198 Si / 1000 Ang^3
#
#
#
# Elastic Constant Matrix: (Units=GPa)
#
#
# Indices 1 2 3 4 5 6 
#
# 1 64.7417 27.9627 25.8546 -1.4033 4.3490 -2.4059
# 2 27.9627 76.4674 40.6825 -7.6354 -1.2268 -3.6656
# 3 25.8546 40.6825 85.8356 1.8334 -3.0225 15.6671
# 4 -1.4033 -7.6354 1.8334 25.8689 1.4471 13.3427
# 5 4.3490 -1.2268 -3.0225 1.4471 23.9555 4.0237
# 6 -2.4059 -3.6656 15.6671 13.3427 4.0237 25.6754
#
#
#
# Elastic Compliance Matrix: (Units=1/GPa)
#
#
# Indices 1 2 3 4 5 6 
#
# 1 0.020105 -0.004628 -0.005257 -0.003178 -0.005525 0.006948
# 2 -0.004628 0.020557 -0.009717 0.002923 -0.000689 0.007019
# 3 -0.005257 -0.009717 0.021240 0.004294 0.005900 -0.017996
# 4 -0.003178 0.002923 0.004294 0.055212 0.003258 -0.031703
# 5 -0.005525 -0.000689 0.005900 0.003258 0.045448 -0.013032
# 6 0.006948 0.007019 -0.017996 -0.031703 -0.013032 0.070100
#
#
# Mechanical properties :
#
#
# Convention : Reuss Voigt Hill
#
# Bulk Modulus (GPa) = 44.05799 46.22714 45.14257
# Shear Modulus (GPa) = 17.89343 23.93628 20.91486
#
# Velocity S-wave (km/s) = 2.96556 3.42996 3.20618
# Velocity P-wave (km/s) = 5.77758 6.19731 5.99112
#
# Compressibility (1/GPa) = 0.02269736
#
# Stress axis : x y z
#
# Youngs Moduli (GPa) = 49.73931 48.64576 47.08083
#
# Poissons Ratio (x) = 0.22512 0.24752
# Poissons Ratio (y) = 0.23018 0.45749
# Poissons Ratio (z) = 0.26150 0.47269
#
# Static dielectric constant tensor:
#      x y z
#    x 1.756120 -0.040750 -0.019000 
#    y -0.040750 1.756860 -0.002430 
#    z -0.019000 -0.002430 1.729080 
# 
# From -- ./inp_files/284786.got.cif
#   From: 2010.05.17/outbox.cif.g08.bks.cpg/sg2_143_cif.got.tgz:284786.got - 2010.06.03 11:33:40.
