data_PCOD9101337
_publ_section_title
;
Structure prediction by ZEFSAII (Michael W. Deem and Ramdas Pophale) SiO2 
 PCOD9101337
Probable space group: P -1
;
_chemical_formula_sum "Si O2"
_cell_formula_units_Z 16
_cell_length_a 14.065442
_cell_length_b 9.162536
_cell_length_c 10.570502
_cell_angle_alpha 99.630760
_cell_angle_beta 117.931214
_cell_angle_gamma 39.179545
_cell_volume 712.047513
_symmetry_space_group_name_H-M "P -1"
_symmetry_group_IT_number 2
_symmetry_cell_setting 'triclinic'
loop_
_space_group_symop_operation_xyz
x,y,z
-x,-y,-z
loop_
_atom_site_type_symbol
_atom_site_label
_atom_site_fract_x
_atom_site_fract_y
_atom_site_fract_z
Si Si1 0.179185 0.388887 0.550977
Si Si2 0.993396 0.127488 0.400580
Si Si3 0.575639 0.202121 0.033774
Si Si4 0.744478 0.441699 0.830741
Si Si5 0.352677 0.902493 0.643619
Si Si6 0.892113 0.520069 0.772371
Si Si7 0.213880 0.776344 0.938867
Si Si8 0.729925 0.773034 0.956440
O O1 0.152966 0.582273 0.618011
O O2 0.175944 0.406440 0.400535
O O3 0.000000 0.500000 0.500000
O O4 0.332321 0.101490 0.638999
O O5 0.941450 0.106739 0.234196
O O6 0.000000 0.000000 0.500000
O O7 0.185545 0.998501 0.495012
O O8 0.650509 0.122851 0.211604
O O9 0.720085 0.130028 0.027609
O O10 0.389131 0.491968 0.959225
O O11 0.570981 0.043482 0.952004
O O12 0.547082 0.633923 0.678997
O O13 0.875356 0.374441 0.802207
O O14 0.713265 0.615343 0.933690
O O15 0.807467 0.241091 0.929914
O O16 0.770771 0.747698 0.828451
O O17 0.089779 0.371176 0.881522
#
# Coordination Sequence:
#
# PCOD9101337 Si02
#       8
#     2   2   2   2   2   2   2   2
#     4  10  22  35  62  82 115 147 192 239 296 337
#     4  11  22  36  57  87 117 153 190 241 289 342
#     4  10  20  38  58  89 118 148 194 246 277 339
#     4   9  21  37  58  83 119 149 191 243 283 340
#     4  10  21  35  56  89 115 150 194 239 285 337
#     4   9  20  37  57  87 115 149 193 241 285 349
#     4  10  22  35  60  86 119 153 193 234 293 337
#     4   9  19  35  63  78 118 148 191 241 286 330
#
# _framework density 22.470410999999999
#
# number of rings (size 3 to 8) (size 9 to 14) (size 15 to 20)
#    0.750    1.500    1.250    1.500    7.000    1.500 
#    0.000    0.625    5.500    0.750    0.000    0.000 
#    0.000    0.000    0.000    0.000    0.000    0.000 
#
# Total GULP energy -89297.866515 kJ/mol
# GULP energy per Si atom -5581.116657 kJ/mol
# Density = 2.241927 g / cm^3
# Si number density = 22.470411 Si / 1000 Ang^3
#
#
#
# Elastic Constant Matrix: (Units=GPa)
#
#
# Indices 1 2 3 4 5 6 
#
# 1 83.7646 -1.5368 28.8010 -17.7149 4.1037 19.8127
# 2 -1.5368 66.3496 2.5408 -4.5873 6.8420 1.3967
# 3 28.8010 2.5408 96.2347 -8.1890 6.1491 10.3719
# 4 -17.7149 -4.5873 -8.1890 19.6522 3.7413 2.8710
# 5 4.1037 6.8420 6.1491 3.7413 34.7216 -8.2311
# 6 19.8127 1.3967 10.3719 2.8710 -8.2311 34.0932
#
#
#
# Elastic Compliance Matrix: (Units=1/GPa)
#
#
# Indices 1 2 3 4 5 6 
#
# 1 0.022395 0.003632 -0.002301 0.024356 -0.009568 -0.016824
# 2 0.003632 0.016485 0.000162 0.009039 -0.005869 -0.005013
# 3 -0.002301 0.000162 0.011988 0.004054 -0.003129 -0.003413
# 4 0.024356 0.009039 0.004054 0.084755 -0.021148 -0.028000
# 5 -0.009568 -0.005869 -0.003129 -0.021148 0.038126 0.017738
# 6 -0.016824 -0.005013 -0.003413 -0.028000 0.017738 0.046993
#
#
# Mechanical properties :
#
#
# Convention : Reuss Voigt Hill
#
# Bulk Modulus (GPa) = 18.56865 33.99544 26.28204
# Shear Modulus (GPa) = 21.21267 32.12965 26.67116
#
# Velocity S-wave (km/s) = 3.07584 3.78546 3.44895
# Velocity P-wave (km/s) = 4.57120 5.85389 5.25186
#
# Compressibility (1/GPa) = 0.05385423
#
# Stress axis : x y z
#
# Youngs Moduli (GPa) = 44.65287 60.66028 83.41398
#
# Poissons Ratio (x) = -0.22029 0.19194
# Poissons Ratio (y) = -0.16216 -0.01355
# Poissons Ratio (z) = 0.10275 -0.00985
#
# Static dielectric constant tensor:
#      x y z
#    x 1.848300 -0.012220 0.010780 
#    y -0.012220 1.892690 -0.036000 
#    z 0.010780 -0.036000 1.816290 
# 
# From -- ./inp_files/444620.got.cif
#   From: 2010.05.17/outbox.cif.g08.bks.cpg/sg2_223_cif.got.tgz:444620.got - 2010.06.03 11:33:40.
