data_PCOD9101181
_publ_section_title
;
Structure prediction by ZEFSAII (Michael W. Deem and Ramdas Pophale) SiO2 
 PCOD9101181
Probable space group: P -1
;
_chemical_formula_sum "Si O2"
_cell_formula_units_Z 16
_cell_length_a 24.643640
_cell_length_b 21.290098
_cell_length_c 8.039953
_cell_angle_alpha 47.115297
_cell_angle_beta 138.321855
_cell_angle_gamma 162.056389
_cell_volume 854.805267
_symmetry_space_group_name_H-M "P -1"
_symmetry_group_IT_number 2
_symmetry_cell_setting 'triclinic'
loop_
_space_group_symop_operation_xyz
x,y,z
-x,-y,-z
loop_
_atom_site_type_symbol
_atom_site_label
_atom_site_fract_x
_atom_site_fract_y
_atom_site_fract_z
Si Si1 0.281955 0.305633 0.410298
Si Si2 0.356679 0.735282 0.699070
Si Si3 0.928106 0.059397 0.918090
Si Si4 0.084326 0.752802 0.455244
Si Si5 0.763697 0.086551 0.114255
Si Si6 0.283664 0.306256 0.788751
Si Si7 0.927712 0.057628 0.541340
Si Si8 0.305639 0.879466 0.425746
O O1 0.500000 0.500000 0.500000
O O2 0.280769 0.335373 0.542089
O O3 0.177944 0.113793 0.503697
O O4 0.155756 0.251318 0.111462
O O5 0.321568 0.792597 0.606726
O O6 0.147583 0.491367 0.636341
O O7 0.475325 0.872119 0.553170
O O8 0.526473 0.847918 0.988518
O O9 0.893402 0.125191 0.757045
O O10 0.863599 0.981246 0.722008
O O11 0.817625 0.883992 0.091509
O O12 0.169669 0.821947 0.713389
O O13 0.199678 0.810161 0.474135
O O14 0.872312 0.101474 0.294876
O O15 0.802566 0.190459 0.865303
O O16 0.155545 0.250610 0.701309
O O17 0.500000 0.500000 0.000000
#
# Coordination Sequence:
#
# PCOD9101181 Si02
#       8
#     2   2   2   2   2   2   2   2
#     4  11  22  33  59  80 110 159 186 237 300 339
#     4   9  21  43  61  93 126 161 202 255 309 366
#     4  10  22  38  55  86 112 147 202 239 291 360
#     4  11  22  40  65  89 127 163 200 259 308 354
#     4   9  22  40  60  93 122 155 211 251 296 373
#     4  11  22  38  57  83 117 156 197 238 297 360
#     4  10  20  38  57  80 119 145 193 253 282 352
#     4   9  21  42  62  92 129 155 209 255 297 383
#
# _framework density 18.717714999999998
#
# number of rings (size 3 to 8) (size 9 to 14) (size 15 to 20)
#    0.750    1.250    0.000    4.875    5.250    1.000 
#    6.750    0.000    0.000    0.000    0.000    0.000 
#    0.000    0.000    0.000    0.000    0.000    0.000 
#
# Total GULP energy -89136.572683 kJ/mol
# GULP energy per Si atom -5571.035793 kJ/mol
# Density = 1.867511 g / cm^3
# Si number density = 18.717715 Si / 1000 Ang^3
#
#
#
# Elastic Constant Matrix: (Units=GPa)
#
#
# Indices 1 2 3 4 5 6 
#
# 1 86.0311 25.3683 28.9588 7.3384 7.1840 1.3374
# 2 25.3683 57.7728 11.6005 20.9101 4.9299 6.1128
# 3 28.9588 11.6005 68.9743 8.5998 11.4731 -7.3794
# 4 7.3384 20.9101 8.5998 30.7974 -0.5041 0.9228
# 5 7.1840 4.9299 11.4731 -0.5041 31.2284 1.5653
# 6 1.3374 6.1128 -7.3794 0.9228 1.5653 14.3212
#
#
#
# Elastic Compliance Matrix: (Units=1/GPa)
#
#
# Indices 1 2 3 4 5 6 
#
# 1 0.015240 -0.006086 -0.005806 0.002175 -0.000281 -0.001927
# 2 -0.006086 0.027455 -0.000651 -0.016746 -0.002457 -0.010138
# 3 -0.005806 -0.000651 0.019957 -0.004218 -0.006568 0.012093
# 4 0.002175 -0.016746 -0.004218 0.044528 0.004340 0.001428
# 5 -0.000281 -0.002457 -0.006568 0.004340 0.035281 -0.006445
# 6 -0.001927 -0.010138 0.012093 0.001428 -0.006445 0.081178
#
#
# Mechanical properties :
#
#
# Convention : Reuss Voigt Hill
#
# Bulk Modulus (GPa) = 26.61771 38.29261 32.45516
# Shear Modulus (GPa) = 19.13907 25.05944 22.09925
#
# Velocity S-wave (km/s) = 3.20114 3.66294 3.43980
# Velocity P-wave (km/s) = 5.28342 6.19612 5.75788
#
# Compressibility (1/GPa) = 0.03756897
#
# Stress axis : x y z
#
# Youngs Moduli (GPa) = 65.61538 36.42288 50.10705
#
# Poissons Ratio (x) = 0.22166 0.29091
# Poissons Ratio (y) = 0.39931 0.03260
# Poissons Ratio (z) = 0.38094 0.02370
#
# Static dielectric constant tensor:
#      x y z
#    x 1.634850 0.004570 0.009120 
#    y 0.004570 1.678510 0.000660 
#    z 0.009120 0.000660 1.659740 
# 
# From -- ./inp_files/355178.got.cif
#   From: 2010.05.17/outbox.cif.g08.bks.cpg/sg2_178_cif.got.tgz:355178.got - 2010.06.03 11:33:40.
