data_PCOD9101851
_publ_section_title
;
Structure prediction by ZEFSAII (Michael W. Deem and Ramdas Pophale) SiO2 
 PCOD9101851
Probable space group: P -1
;
_chemical_formula_sum "Si O2"
_cell_formula_units_Z 12
_cell_length_a 15.452739
_cell_length_b 15.407162
_cell_length_c 9.397199
_cell_angle_alpha 53.105082
_cell_angle_beta 64.373781
_cell_angle_gamma 18.705561
_cell_volume 486.314872
_symmetry_space_group_name_H-M "P -1"
_symmetry_group_IT_number 2
_symmetry_cell_setting 'triclinic'
loop_
_space_group_symop_operation_xyz
x,y,z
-x,-y,-z
loop_
_atom_site_type_symbol
_atom_site_label
_atom_site_fract_x
_atom_site_fract_y
_atom_site_fract_z
Si Si1 0.226989 0.308052 0.647663
Si Si2 0.723343 0.580536 0.030211
Si Si3 0.847014 0.760771 0.753812
Si Si4 0.152936 0.924809 0.863615
Si Si5 0.873926 0.912505 0.011574
Si Si6 0.138150 0.861782 0.383009
O O1 0.000000 0.500000 0.500000
O O2 0.016036 0.571586 0.669537
O O3 0.465884 0.953199 0.868812
O O4 0.477522 0.136257 0.615994
O O5 0.033394 0.262367 0.222293
O O6 0.863173 0.445500 0.901891
O O7 0.493925 0.728434 0.095306
O O8 0.000000 0.500000 0.000000
O O9 0.500000 0.500000 0.000000
O O10 0.957271 0.136488 0.648872
O O11 0.125175 0.061756 0.846051
O O12 0.000000 0.000000 0.000000
O O13 0.968672 0.917515 0.848768
O O14 0.500000 0.500000 0.500000
O O15 0.000000 0.000000 0.500000
#
# Coordination Sequence:
#
# PCOD9101851 Si02
#       6
#     2   2   2   2   2   2
#     4  11  22  39  63  91 121 160 204 247 295 355
#     4  11  21  38  62  89 120 159 204 250 294 354
#     4  10  20  38  62  86 118 165 204 234 293 375
#     4  10  20  38  61  84 115 160 200 232 294 378
#     4  11  22  38  62  90 119 158 203 250 299 355
#     4  11  22  39  62  88 117 154 199 249 298 355
#
# _framework density 24.675371999999999
#
# number of rings (size 3 to 8) (size 9 to 14) (size 15 to 20)
#    0.000    1.333    0.000   10.500    0.000    0.000 
#    0.000    6.667    0.000    4.000    0.000    0.000 
#    0.000    0.000    0.000    0.000    0.000    0.000 
#
# Total GULP energy -66947.833633 kJ/mol
# GULP energy per Si atom -5578.986136 kJ/mol
# Density = 2.461921 g / cm^3
# Si number density = 24.675372 Si / 1000 Ang^3
#
#
#
# Elastic Constant Matrix: (Units=GPa)
#
#
# Indices 1 2 3 4 5 6 
#
# 1 102.2759 65.5412 43.2856 13.6212 53.7271 -19.1699
# 2 65.5412 249.4605 45.4090 28.4221 44.0157 -23.3974
# 3 43.2856 45.4090 78.2138 11.3747 45.3690 -7.7477
# 4 13.6212 28.4221 11.3747 36.1206 8.3560 18.4045
# 5 53.7271 44.0157 45.3690 8.3560 59.1846 -4.8061
# 6 -19.1699 -23.3974 -7.7477 18.4045 -4.8061 36.5281
#
#
#
# Elastic Compliance Matrix: (Units=1/GPa)
#
#
# Indices 1 2 3 4 5 6 
#
# 1 0.025375 0.000115 0.002187 -0.014917 -0.021182 0.018583
# 2 0.000115 0.006139 -0.000003 -0.008131 -0.002893 0.007708
# 3 0.002187 -0.000003 0.024613 -0.008258 -0.019033 0.008023
# 4 -0.014917 -0.008131 -0.008258 0.061579 0.013649 -0.044018
# 5 -0.021182 -0.002893 -0.019033 0.013649 0.049530 -0.017367
# 6 0.018583 0.007708 0.008023 -0.044018 -0.017367 0.063660
#
#
# Mechanical properties :
#
#
# Convention : Reuss Voigt Hill
#
# Bulk Modulus (GPa) = 16.46772 82.04685 49.25728
# Shear Modulus (GPa) = 20.28061 44.74763 32.51412
#
# Velocity S-wave (km/s) = 2.86998 4.26309 3.63392
# Velocity P-wave (km/s) = 4.20365 7.58647 6.13291
#
# Compressibility (1/GPa) = 0.06072486
#
# Stress axis : x y z
#
# Youngs Moduli (GPa) = 39.40842 162.89667 40.62883
#
# Poissons Ratio (x) = -0.01872 -0.08886
# Poissons Ratio (y) = -0.00453 0.00014
# Poissons Ratio (z) = -0.08620 0.00055
#
# Static dielectric constant tensor:
#      x y z
#    x 2.322220 0.060580 -0.023490 
#    y 0.060580 1.913270 -0.022190 
#    z -0.023490 -0.022190 2.011950 
# 
# From -- ./inp_files/311614.got.cif
#   From: 2010.05.17/outbox.cif.g08.bks.cpg/sg2_156_cif.got.tgz:311614.got - 2010.06.03 11:33:40.
