data_PCOD9101889
_publ_section_title
;
Structure prediction by ZEFSAII (Michael W. Deem and Ramdas Pophale) SiO2 
 PCOD9101889
Probable space group: P -1
;
_chemical_formula_sum "Si O2"
_cell_formula_units_Z 12
_cell_length_a 9.645164
_cell_length_b 9.362211
_cell_length_c 8.091253
_cell_angle_alpha 113.122167
_cell_angle_beta 54.715620
_cell_angle_gamma 91.184136
_cell_volume 527.418372
_symmetry_space_group_name_H-M "P -1"
_symmetry_group_IT_number 2
_symmetry_cell_setting 'triclinic'
loop_
_space_group_symop_operation_xyz
x,y,z
-x,-y,-z
loop_
_atom_site_type_symbol
_atom_site_label
_atom_site_fract_x
_atom_site_fract_y
_atom_site_fract_z
Si Si1 0.178884 0.354169 0.325672
Si Si2 0.821798 0.005859 0.732250
Si Si3 0.013434 0.765647 0.129919
Si Si4 0.609560 0.954988 0.572627
Si Si5 0.386105 0.376997 0.514978
Si Si6 0.156690 0.436745 0.034763
O O1 0.165608 0.172257 0.285445
O O2 0.279840 0.402889 0.430425
O O3 0.261336 0.366568 0.094250
O O4 0.000000 0.500000 0.500000
O O5 0.650698 0.054909 0.749627
O O6 0.844982 0.132758 0.913272
O O7 0.000000 0.000000 0.500000
O O8 0.066445 0.628822 0.175310
O O9 0.814919 0.877858 0.342709
O O10 0.990296 0.661041 0.938783
O O11 0.530105 0.815143 0.634036
O O12 0.500000 0.000000 0.500000
O O13 0.500000 0.500000 0.500000
O O14 0.276457 0.404771 0.774424
#
# Coordination Sequence:
#
# PCOD9101889 Si02
#       6
#     2   2   2   2   2   2
#     4  11  21  36  62  88 115 154 192 236 291 342
#     4   9  18  33  54  85 117 149 194 234 277 344
#     4   9  18  36  58  83 116 147 188 242 282 336
#     4   9  18  34  56  82 117 152 184 233 289 339
#     4  10  23  40  58  84 116 152 195 241 288 340
#     4  10  20  38  61  86 117 149 195 244 283 340
#
# _framework density 22.752336
#
# number of rings (size 3 to 8) (size 9 to 14) (size 15 to 20)
#    0.000    2.333    0.000    6.000    0.000    5.333 
#    0.000    5.000    0.000   13.000    0.000    0.000 
#    0.000    0.000    0.000    0.000    0.000    0.000 
#
# Total GULP energy -66806.446042 kJ/mol
# GULP energy per Si atom -5567.203837 kJ/mol
# Density = 2.270055 g / cm^3
# Si number density = 22.752336 Si / 1000 Ang^3
#
#
#
# Elastic Constant Matrix: (Units=GPa)
#
#
# Indices 1 2 3 4 5 6 
#
# 1 186.7277 132.1259 49.8160 -8.2524 40.9823 13.4983
# 2 132.1259 117.4381 28.8635 1.1952 33.2692 5.8542
# 3 49.8160 28.8635 61.7108 -16.4677 26.7517 5.2998
# 4 -8.2524 1.1952 -16.4677 34.4916 -4.6285 19.0835
# 5 40.9823 33.2692 26.7517 -4.6285 29.3254 2.3484
# 6 13.4983 5.8542 5.2998 19.0835 2.3484 51.4467
#
#
#
# Elastic Compliance Matrix: (Units=1/GPa)
#
#
# Indices 1 2 3 4 5 6 
#
# 1 0.033734 -0.036920 -0.008736 0.010116 0.004926 -0.007727
# 2 -0.036920 0.053157 0.009146 -0.013814 -0.019932 0.008730
# 3 -0.008736 0.009146 0.035322 0.014312 -0.027615 -0.006436
# 4 0.010116 -0.013814 0.014312 0.050118 -0.001925 -0.021059
# 5 0.004926 -0.019932 -0.027615 -0.001925 0.074626 0.001128
# 6 -0.007727 0.008730 -0.006436 -0.021059 0.001128 0.028895
#
#
# Mechanical properties :
#
#
# Convention : Reuss Voigt Hill
#
# Bulk Modulus (GPa) = 20.32819 87.49862 53.91341
# Shear Modulus (GPa) = 13.68847 33.39082 23.53964
#
# Velocity S-wave (km/s) = 2.45547 3.83505 3.22001
# Velocity P-wave (km/s) = 4.12227 7.62566 6.12959
#
# Compressibility (1/GPa) = 0.04919278
#
# Stress axis : x y z
#
# Youngs Moduli (GPa) = 29.64324 18.81233 28.31081
#
# Poissons Ratio (x) = 0.69454 0.24733
# Poissons Ratio (y) = 1.09442 -0.25892
# Poissons Ratio (z) = 0.25897 -0.17205
#
# Static dielectric constant tensor:
#      x y z
#    x 1.880920 -0.003390 0.037510 
#    y -0.003390 1.878010 0.060700 
#    z 0.037510 0.060700 2.101620 
# 
# From -- ./inp_files/158827.got.cif
#   From: 2010.05.17/outbox.cif.g08.bks.cpg/sg2_80_cif.got.tgz:158827.got - 2010.06.03 11:33:40.
