data_PCOD9101304
_publ_section_title
;
Structure prediction by ZEFSAII (Michael W. Deem and Ramdas Pophale) SiO2 
 PCOD9101304
Probable space group: P -1
;
_chemical_formula_sum "Si O2"
_cell_formula_units_Z 15
_cell_length_a 7.322741
_cell_length_b 20.025188
_cell_length_c 7.073477
_cell_angle_alpha 61.416767
_cell_angle_beta 124.327206
_cell_angle_gamma 133.650660
_cell_volume 612.855157
_symmetry_space_group_name_H-M "P -1"
_symmetry_group_IT_number 2
_symmetry_cell_setting 'triclinic'
loop_
_space_group_symop_operation_xyz
x,y,z
-x,-y,-z
loop_
_atom_site_type_symbol
_atom_site_label
_atom_site_fract_x
_atom_site_fract_y
_atom_site_fract_z
Si Si1 0.313472 0.402687 0.768013
Si Si2 0.184925 0.977183 0.910004
Si Si3 0.627397 0.132738 0.704089
Si Si4 0.550080 0.295644 0.003337
Si Si5 0.594412 0.898539 0.782457
Si Si6 0.000000 0.500000 0.500000
Si Si7 0.280193 0.675980 0.516825
Si Si8 0.846157 0.570395 0.978951
O O1 0.233752 0.382938 0.972338
O O2 0.055000 0.400891 0.548164
O O3 0.363570 0.331239 0.801120
O O4 0.594312 0.504296 0.784474
O O5 0.892750 0.954966 0.789822
O O6 0.342349 0.044442 0.736104
O O7 0.163024 0.881938 0.049911
O O8 0.377628 0.036340 0.121796
O O9 0.617197 0.129084 0.473466
O O10 0.678728 0.230408 0.657506
O O11 0.448026 0.192465 0.024860
O O12 0.555767 0.294898 0.236391
O O13 0.866328 0.362150 0.041692
O O14 0.709032 0.391348 0.527588
O O15 0.865242 0.499851 0.218581
#
# Coordination Sequence:
#
# PCOD9101304 Si02
#       8
#     2   2   2   2   2   1   2   2
#     4  10  21  39  58  84 120 159 205 251 291 366
#     4  10  21  39  65  88 119 164 195 254 317 360
#     4  10  21  39  63  90 122 160 200 255 306 365
#     4  11  22  41  61  89 123 164 197 261 304 360
#     4  10  22  38  62  91 125 150 208 251 304 379
#     4  10  20  38  58  86 124 160 200 254 288 364
#     4  10  22  37  62  89 124 157 208 249 303 365
#     4  10  22  39  60  86 121 163 209 245 305 355
#
# _framework density 24.475604000000001
#
# number of rings (size 3 to 8) (size 9 to 14) (size 15 to 20)
#    0.000    1.867    1.333    2.000    3.733    0.533 
#    4.800    0.000   17.600    0.000    0.000    0.000 
#    0.000    0.000    0.000    0.000    0.000    0.000 
#
# Total GULP energy -83516.697672 kJ/mol
# GULP energy per Si atom -5567.779845 kJ/mol
# Density = 2.441990 g / cm^3
# Si number density = 24.475604 Si / 1000 Ang^3
#
#
#
# Elastic Constant Matrix: (Units=GPa)
#
#
# Indices 1 2 3 4 5 6 
#
# 1 77.1836 6.4643 13.2217 -15.3047 7.8853 9.1989
# 2 6.4643 81.6638 20.6255 -17.8156 6.3994 -10.4316
# 3 13.2217 20.6255 64.8059 -2.2484 3.5305 -5.9485
# 4 -15.3047 -17.8156 -2.2484 33.4425 -1.3272 12.9105
# 5 7.8853 6.3994 3.5305 -1.3272 22.0331 3.4823
# 6 9.1989 -10.4316 -5.9485 12.9105 3.4823 22.7611
#
#
#
# Elastic Compliance Matrix: (Units=1/GPa)
#
#
# Indices 1 2 3 4 5 6 
#
# 1 0.019078 0.001220 -0.005138 0.015417 -0.002773 -0.016815
# 2 0.001220 0.015506 -0.004545 0.007711 -0.004011 0.001665
# 3 -0.005138 -0.004545 0.018612 -0.007125 -0.001700 0.009159
# 4 0.015417 0.007711 -0.007125 0.054514 0.002332 -0.035837
# 5 -0.002773 -0.004011 -0.001700 0.002332 0.049547 -0.010065
# 6 -0.016815 0.001665 0.009159 -0.035837 -0.010065 0.075754
#
#
# Mechanical properties :
#
#
# Convention : Reuss Voigt Hill
#
# Bulk Modulus (GPa) = 27.57104 33.80847 30.68976
# Shear Modulus (GPa) = 19.08196 27.87012 23.47604
#
# Velocity S-wave (km/s) = 2.79522 3.37811 3.10039
# Velocity P-wave (km/s) = 4.65906 5.39060 5.03813
#
# Compressibility (1/GPa) = 0.03626994
#
# Stress axis : x y z
#
# Youngs Moduli (GPa) = 52.41521 64.49147 53.72971
#
# Poissons Ratio (x) = -0.07870 0.27608
# Poissons Ratio (y) = -0.06396 0.24421
# Poissons Ratio (z) = 0.26932 0.29312
#
# Static dielectric constant tensor:
#      x y z
#    x 1.684750 0.244080 -0.067750 
#    y 0.244080 1.724830 0.045710 
#    z -0.067750 0.045710 1.986180 
# 
# From -- ./inp_files/220586.got.cif
#   From: 2010.05.17/outbox.cif.g08.bks.cpg/sg2_111_cif.got.tgz:220586.got - 2010.06.03 11:33:40.
