data_PCOD9101040
_publ_section_title
;
Structure prediction by ZEFSAII (Michael W. Deem and Ramdas Pophale) SiO2 
 PCOD9101040
Probable space group: P -1
;
_chemical_formula_sum "Si O2"
_cell_formula_units_Z 16
_cell_length_a 12.663096
_cell_length_b 19.673586
_cell_length_c 9.462276
_cell_angle_alpha 135.906602
_cell_angle_beta 136.118948
_cell_angle_gamma 28.840879
_cell_volume 761.171178
_symmetry_space_group_name_H-M "P -1"
_symmetry_group_IT_number 2
_symmetry_cell_setting 'triclinic'
loop_
_space_group_symop_operation_xyz
x,y,z
-x,-y,-z
loop_
_atom_site_type_symbol
_atom_site_label
_atom_site_fract_x
_atom_site_fract_y
_atom_site_fract_z
Si Si1 0.054208 0.622387 0.476503
Si Si2 0.460507 0.412329 0.771115
Si Si3 0.416590 0.977768 0.754018
Si Si4 0.065876 0.304981 0.844548
Si Si5 0.688117 0.930266 0.697409
Si Si6 0.484493 0.784774 0.934695
Si Si7 0.743533 0.578142 0.130684
Si Si8 0.738447 0.151266 0.472628
O O1 0.278099 0.499131 0.598241
O O2 0.077751 0.619094 0.325298
O O3 0.926798 0.779940 0.644665
O O4 0.885965 0.610907 0.323411
O O5 0.366162 0.394499 0.784616
O O6 0.687251 0.264416 0.695833
O O7 0.500000 0.500000 0.000000
O O8 0.605019 0.902298 0.703816
O O9 0.387973 0.881280 0.628786
O O10 0.182514 0.143203 0.728606
O O11 0.500000 0.000000 0.000000
O O12 0.280444 0.277067 0.988243
O O13 0.915547 0.412866 0.991509
O O14 0.500000 0.000000 0.500000
O O15 0.664879 0.052417 0.910027
O O16 0.358908 0.792407 0.695574
O O17 0.555263 0.685049 0.986598
O O18 0.000000 0.000000 0.500000
#
# Coordination Sequence:
#
# PCOD9101040 Si02
#       8
#     2   2   2   2   2   2   2   2
#     4  11  22  40  69  96 131 167 213 270 331 379
#     4  12  30  46  62  95 135 173 222 270 319 386
#     4  11  22  38  67  99 130 166 220 264 324 378
#     4  10  20  37  69 100 126 164 209 272 328 388
#     4  11  19  37  67 104 132 158 213 276 323 382
#     4  10  21  41  65  99 131 164 214 271 323 387
#     4  11  22  41  71  94 127 164 219 270 334 377
#     4  12  27  47  66  91 134 180 219 262 321 394
#
# _framework density 21.020239
#
# number of rings (size 3 to 8) (size 9 to 14) (size 15 to 20)
#    0.000    1.000    6.250    4.125    5.250    0.000 
#    2.250    1.875    0.000    0.000    0.000    0.000 
#    0.000    0.000    0.000    0.000    0.000    0.000 
#
# Total GULP energy -89485.683875 kJ/mol
# GULP energy per Si atom -5592.855242 kJ/mol
# Density = 2.097240 g / cm^3
# Si number density = 21.020239 Si / 1000 Ang^3
#
#
#
# Elastic Constant Matrix: (Units=GPa)
#
#
# Indices 1 2 3 4 5 6 
#
# 1 18.5438 11.6835 22.0204 -8.1317 -20.9655 0.4904
# 2 11.6835 90.8714 26.2988 3.9677 -21.6550 -7.7505
# 3 22.0204 26.2988 105.1055 6.4244 -23.1987 -3.9808
# 4 -8.1317 3.9677 6.4244 48.8405 3.1048 -15.2391
# 5 -20.9655 -21.6550 -23.1987 3.1048 30.3588 9.1600
# 6 0.4904 -7.7505 -3.9808 -15.2391 9.1600 31.0717
#
#
#
# Elastic Compliance Matrix: (Units=1/GPa)
#
#
# Indices 1 2 3 4 5 6 
#
# 1 0.567000 0.025123 -0.041772 0.037886 0.406683 -0.109344
# 2 0.025123 0.014669 -0.003204 0.000147 0.026856 -0.004993
# 3 -0.041772 -0.003204 0.015084 -0.005818 -0.020516 0.004987
# 4 0.037886 0.000147 -0.005818 0.029015 0.016416 0.008084
# 5 0.406683 0.026856 -0.020516 0.016416 0.344514 -0.095860
# 6 -0.109344 -0.004993 0.004987 0.008084 -0.095860 0.065528
#
#
# Mechanical properties :
#
#
# Convention : Reuss Voigt Hill
#
# Bulk Modulus (GPa) = 1.79518 37.16957 19.48237
# Shear Modulus (GPa) = 3.96448 32.35540 18.15994
#
# Velocity S-wave (km/s) = 1.37482 3.92758 2.94245
# Velocity P-wave (km/s) = 1.83740 6.18781 4.56427
#
# Compressibility (1/GPa) = 0.55704657
#
# Stress axis : x y z
#
# Youngs Moduli (GPa) = 1.76367 68.16876 66.29682
#
# Poissons Ratio (x) = -1.71257 2.76932
# Poissons Ratio (y) = -0.04431 0.21244
# Poissons Ratio (z) = 0.07367 0.21844
#
# Static dielectric constant tensor:
#      x y z
#    x 1.731290 0.008960 0.008580 
#    y 0.008960 1.802660 0.025560 
#    z 0.008580 0.025560 1.720250 
# 
# From -- ./inp_files/279982.got.cif
#   From: 2010.05.17/outbox.cif.g08.bks.cpg/sg2_140_cif.got.tgz:279982.got - 2010.06.03 11:33:40.
