data_PCOD9101583
_publ_section_title
;
Structure prediction by ZEFSAII (Michael W. Deem and Ramdas Pophale) SiO2 
 PCOD9101583
Probable space group: P -1
;
_chemical_formula_sum "Si O2"
_cell_formula_units_Z 15
_cell_length_a 10.047478
_cell_length_b 11.450698
_cell_length_c 12.483199
_cell_angle_alpha 50.439810
_cell_angle_beta 144.452875
_cell_angle_gamma 112.440372
_cell_volume 613.156628
_symmetry_space_group_name_H-M "P -1"
_symmetry_group_IT_number 2
_symmetry_cell_setting 'triclinic'
loop_
_space_group_symop_operation_xyz
x,y,z
-x,-y,-z
loop_
_atom_site_type_symbol
_atom_site_label
_atom_site_fract_x
_atom_site_fract_y
_atom_site_fract_z
Si Si1 0.264491 0.987455 0.793184
Si Si2 0.486241 0.256529 0.051166
Si Si3 0.500672 0.580333 0.818441
Si Si4 0.500000 0.500000 0.500000
Si Si5 0.169543 0.997346 0.212494
Si Si6 0.917467 0.263851 0.046338
Si Si7 0.986374 0.758599 0.378291
Si Si8 0.399215 0.262567 0.423696
O O1 0.333958 0.916911 0.761620
O O2 0.191502 0.855754 0.891441
O O3 0.085404 0.161341 0.599242
O O4 0.500000 0.000000 0.000000
O O5 0.439103 0.312492 0.110386
O O6 0.601791 0.391121 0.006087
O O7 0.240842 0.260439 0.824796
O O8 0.562199 0.640190 0.711708
O O9 0.213787 0.604617 0.625322
O O10 0.513598 0.324178 0.563348
O O11 0.717042 0.413280 0.778790
O O12 0.441633 0.919094 0.395281
O O13 0.100032 0.877333 0.319345
O O14 0.084526 0.166600 0.115175
O O15 0.000000 0.000000 0.000000
O O16 0.118462 0.294071 0.237052
#
# Coordination Sequence:
#
# PCOD9101583 Si02
#       8
#     2   2   2   1   2   2   2   2
#     4   9  20  42  63  88 123 162 208 260 303 375
#     4  10  20  38  60  83 121 162 200 250 302 365
#     4  10  22  37  60  90 118 158 205 251 305 365
#     4  12  24  40  62  92 134 170 198 260 322 380
#     4  10  20  40  63  90 123 161 207 257 316 369
#     4  11  23  42  65  96 128 165 214 256 323 377
#     4   9  20  37  60  86 116 155 202 254 302 360
#     4  11  24  41  64  95 128 164 212 265 313 381
#
# _framework density 24.463569
#
# number of rings (size 3 to 8) (size 9 to 14) (size 15 to 20)
#    0.000    1.867    1.333    2.000    1.867    0.533 
#    0.000   12.000    0.000    0.000    0.000    0.000 
#    0.000    0.000    0.000    0.000    0.000    0.000 
#
# Total GULP energy -83555.101828 kJ/mol
# GULP energy per Si atom -5570.340122 kJ/mol
# Density = 2.440789 g / cm^3
# Si number density = 24.463569 Si / 1000 Ang^3
#
#
#
# Elastic Constant Matrix: (Units=GPa)
#
#
# Indices 1 2 3 4 5 6 
#
# 1 62.3073 51.0574 25.1392 10.6408 19.8313 -12.5932
# 2 51.0574 100.5712 21.1391 24.1868 17.2762 -28.8689
# 3 25.1392 21.1391 91.1204 12.0918 11.0533 -5.7989
# 4 10.6408 24.1868 12.0918 47.5381 -6.8998 -2.0603
# 5 19.8313 17.2762 11.0533 -6.8998 15.3696 3.2328
# 6 -12.5932 -28.8689 -5.7989 -2.0603 3.2328 46.3814
#
#
#
# Elastic Compliance Matrix: (Units=1/GPa)
#
#
# Indices 1 2 3 4 5 6 
#
# 1 0.045729 -0.004238 -0.000833 -0.016561 -0.063892 0.013392
# 2 -0.004238 0.029298 0.003564 -0.020293 -0.043270 0.019645
# 3 -0.000833 0.003564 0.013722 -0.007399 -0.017084 0.004570
# 4 -0.016561 -0.020293 -0.007399 0.046920 0.075022 -0.021198
# 5 -0.063892 -0.043270 -0.017084 0.075022 0.254905 -0.060850
# 6 0.013392 0.019645 0.004570 -0.021198 -0.060850 0.041295
#
#
# Mechanical properties :
#
#
# Convention : Reuss Voigt Hill
#
# Bulk Modulus (GPa) = 11.66359 49.85225 30.75792
# Shear Modulus (GPa) = 10.78840 32.30205 21.54523
#
# Velocity S-wave (km/s) = 2.10228 3.63769 2.97089
# Velocity P-wave (km/s) = 3.26662 6.16978 4.93645
#
# Compressibility (1/GPa) = 0.08573689
#
# Stress axis : x y z
#
# Youngs Moduli (GPa) = 21.86802 34.13191 72.87370
#
# Poissons Ratio (x) = 0.14465 0.06067
# Poissons Ratio (y) = 0.09268 -0.25975
# Poissons Ratio (z) = 0.01821 -0.12166
#
# Static dielectric constant tensor:
#      x y z
#    x 1.941550 -0.047600 0.072920 
#    y -0.047600 1.899210 -0.025020 
#    z 0.072920 -0.025020 1.941180 
# 
# From -- ./inp_files/518805.got.cif
#   From: 2010.05.17/outbox.cif.g08.bks.cpg/sg2_260_cif.got.tgz:518805.got - 2010.06.03 11:33:40.
