data_PCOD9101904
_publ_section_title
;
Structure prediction by ZEFSAII (Michael W. Deem and Ramdas Pophale) SiO2 
 PCOD9101904
Probable space group: P -1
;
_chemical_formula_sum "Si O2"
_cell_formula_units_Z 16
_cell_length_a 5.541992
_cell_length_b 22.307914
_cell_length_c 8.859423
_cell_angle_alpha 45.321893
_cell_angle_beta 119.991349
_cell_angle_gamma 98.788952
_cell_volume 638.479804
_symmetry_space_group_name_H-M "P -1"
_symmetry_group_IT_number 2
_symmetry_cell_setting 'triclinic'
loop_
_space_group_symop_operation_xyz
x,y,z
-x,-y,-z
loop_
_atom_site_type_symbol
_atom_site_label
_atom_site_fract_x
_atom_site_fract_y
_atom_site_fract_z
Si Si1 0.667436 0.141219 0.476419
Si Si2 0.632636 0.760854 0.506097
Si Si3 0.622463 0.514691 0.179951
Si Si4 0.603161 0.270036 0.783985
Si Si5 0.280573 0.071096 0.913666
Si Si6 0.170929 0.445920 0.297676
Si Si7 0.678804 0.074341 0.284199
Si Si8 0.769283 0.316839 0.068285
O O1 0.441261 0.184825 0.458167
O O2 0.580894 0.095125 0.388481
O O3 0.751264 0.222873 0.285181
O O4 0.951807 0.077509 0.761875
O O5 0.363868 0.739464 0.373707
O O6 0.710508 0.830231 0.297535
O O7 0.916015 0.678493 0.785855
O O8 0.490950 0.456598 0.352843
O O9 0.968598 0.488576 0.301910
O O10 0.500000 0.500000 0.000000
O O11 0.479493 0.610429 0.042898
O O12 0.263995 0.339106 0.545601
O O13 0.685901 0.168389 0.048711
O O14 0.741102 0.313827 0.883818
O O15 0.426469 0.050097 0.158458
O O16 0.500000 0.000000 0.000000
O O17 0.000000 0.500000 0.000000
O O18 0.000000 0.000000 0.500000
#
# Coordination Sequence:
#
# PCOD9101904 Si02
#       8
#     2   2   2   2   2   2   2   2
#     4  10  22  38  65  92 124 177 218 276 337 404
#     4  10  22  40  63  91 129 169 226 274 337 406
#     4  10  22  39  69  98 137 180 231 285 353 413
#     4  10  23  43  64  98 131 180 224 281 345 415
#     4  10  20  38  61  86 126 167 214 269 338 401
#     4  10  22  42  67 100 138 182 234 287 354 415
#     4  10  20  41  67  92 136 173 220 283 337 411
#     4  10  23  41  64  95 133 174 220 280 339 411
#
# _framework density 25.059525000000001
#
# number of rings (size 3 to 8) (size 9 to 14) (size 15 to 20)
#    0.000    2.000    1.250    1.500    5.250    2.500 
#    4.500    0.625    0.000    0.000    0.000    0.000 
#    0.000    0.000    0.000    0.000    0.000    0.000 
#
# Total GULP energy -89164.628389 kJ/mol
# GULP energy per Si atom -5572.789274 kJ/mol
# Density = 2.500249 g / cm^3
# Si number density = 25.059525 Si / 1000 Ang^3
#
#
#
# Elastic Constant Matrix: (Units=GPa)
#
#
# Indices 1 2 3 4 5 6 
#
# 1 88.9138 25.0790 34.3401 0.5380 -0.6056 -23.8391
# 2 25.0790 170.8630 74.6807 25.5014 6.7327 -23.9271
# 3 34.3401 74.6807 170.0605 0.7457 1.2766 -6.5031
# 4 0.5380 25.5014 0.7457 62.8586 -3.2094 0.1913
# 5 -0.6056 6.7327 1.2766 -3.2094 24.6961 -10.3438
# 6 -23.8391 -23.9271 -6.5031 0.1913 -10.3438 34.4618
#
#
#
# Elastic Compliance Matrix: (Units=1/GPa)
#
#
# Indices 1 2 3 4 5 6 
#
# 1 0.015548 0.000501 -0.002934 -0.000058 0.005499 0.012200
# 2 0.000501 0.008724 -0.003699 -0.003531 -0.000270 0.005644
# 3 -0.002934 -0.003699 0.007969 0.001407 -0.000677 -0.003305
# 4 -0.000058 -0.003531 0.001407 0.017457 0.002498 -0.001573
# 5 0.005499 -0.000270 -0.000677 0.002498 0.048629 0.018071
# 6 0.012200 0.005644 -0.003305 -0.001573 0.018071 0.046185
#
#
# Mechanical properties :
#
#
# Convention : Reuss Voigt Hill
#
# Bulk Modulus (GPa) = 50.05780 77.55964 63.80872
# Shear Modulus (GPa) = 30.59324 44.11914 37.35619
#
# Velocity S-wave (km/s) = 3.49782 4.20047 3.86514
# Velocity P-wave (km/s) = 6.02759 7.38530 6.74072
#
# Compressibility (1/GPa) = 0.01997691
#
# Stress axis : x y z
#
# Youngs Moduli (GPa) = 64.31897 114.63011 125.47843
#
# Poissons Ratio (x) = -0.05739 0.36814
# Poissons Ratio (y) = -0.03220 0.46411
# Poissons Ratio (z) = 0.18870 0.42398
#
# Static dielectric constant tensor:
#      x y z
#    x 1.971160 0.194300 -0.048370 
#    y 0.194300 2.001060 0.008200 
#    z -0.048370 0.008200 2.032410 
# 
# From -- ./inp_files/53900.got.cif
#   From: 2010.05.17/outbox.cif.g08.bks.cpg/sg2_27_cif.got.tgz:53900.got - 2010.06.03 11:33:40.
