data_PCOD9101201
_publ_section_title
;
Structure prediction by ZEFSAII (Michael W. Deem and Ramdas Pophale) SiO2 
 PCOD9101201
Probable space group: P -1
;
_chemical_formula_sum "Si O2"
_cell_formula_units_Z 16
_cell_length_a 7.453094
_cell_length_b 17.022672
_cell_length_c 5.927650
_cell_angle_alpha 103.842850
_cell_angle_beta 90.667273
_cell_angle_gamma 80.356202
_cell_volume 719.570655
_symmetry_space_group_name_H-M "P -1"
_symmetry_group_IT_number 2
_symmetry_cell_setting 'triclinic'
loop_
_space_group_symop_operation_xyz
x,y,z
-x,-y,-z
loop_
_atom_site_type_symbol
_atom_site_label
_atom_site_fract_x
_atom_site_fract_y
_atom_site_fract_z
Si Si1 0.201662 0.702398 0.687658
Si Si2 0.049847 0.377480 0.690402
Si Si3 0.716219 0.889096 0.872662
Si Si4 0.929220 0.770331 0.106673
Si Si5 0.508489 0.571351 0.729201
Si Si6 0.616224 0.034479 0.331025
Si Si7 0.937629 0.129361 0.453953
Si Si8 0.768462 0.503341 0.042752
O O1 0.408837 0.657285 0.684571
O O2 0.169162 0.784811 0.593724
O O3 0.080541 0.640557 0.525271
O O4 0.105272 0.728011 0.941565
O O5 0.124893 0.291025 0.749224
O O6 0.200116 0.435718 0.708543
O O7 0.931146 0.434199 0.913161
O O8 0.531175 0.893912 0.733840
O O9 0.889214 0.898758 0.725497
O O10 0.774390 0.804518 0.949867
O O11 0.675982 0.963899 0.099102
O O12 0.983372 0.847590 0.291356
O O13 0.500000 0.500000 0.500000
O O14 0.373085 0.552070 0.911618
O O15 0.697383 0.558615 0.860126
O O16 0.795751 0.067868 0.432790
O O17 0.500000 0.000000 0.500000
#
# Coordination Sequence:
#
# PCOD9101201 Si02
#       8
#     2   2   2   2   2   2   2   2
#     4  10  21  38  60  85 121 163 206 248 306 372
#     4  10  20  38  57  86 114 155 201 252 301 356
#     4  10  23  42  66  96 128 165 208 255 307 381
#     4  10  21  40  63  87 125 163 206 251 305 369
#     4  11  21  37  55  85 120 157 200 254 306 363
#     4  11  24  42  67  99 130 160 207 259 309 377
#     4  10  23  42  66  92 128 171 205 257 315 369
#     4  10  22  34  58  84 116 152 202 253 304 355
#
# _framework density 22.235482999999999
#
# number of rings (size 3 to 8) (size 9 to 14) (size 15 to 20)
#    0.000    1.750    2.500    1.125    0.000    8.500 
#    0.000    7.500    0.000    0.000    0.000    0.000 
#    0.000    0.000    0.000    0.000    0.000    0.000 
#
# Total GULP energy -89301.236184 kJ/mol
# GULP energy per Si atom -5581.327262 kJ/mol
# Density = 2.218487 g / cm^3
# Si number density = 22.235483 Si / 1000 Ang^3
#
#
#
# Elastic Constant Matrix: (Units=GPa)
#
#
# Indices 1 2 3 4 5 6 
#
# 1 71.4773 24.1527 22.0168 7.6622 7.3915 -5.9975
# 2 24.1527 55.8928 6.2886 -2.4808 0.2014 -25.6646
# 3 22.0168 6.2886 85.5063 14.0212 1.4851 1.8187
# 4 7.6622 -2.4808 14.0212 30.9874 -3.7720 8.4776
# 5 7.3915 0.2014 1.4851 -3.7720 26.6013 4.5522
# 6 -5.9975 -25.6646 1.8187 8.4776 4.5522 40.3016
#
#
#
# Elastic Compliance Matrix: (Units=1/GPa)
#
#
# Indices 1 2 3 4 5 6 
#
# 1 0.018784 -0.008278 -0.003429 -0.004188 -0.005417 -0.000828
# 2 -0.008278 0.029720 -0.000344 -0.000447 -0.001036 0.017921
# 3 -0.003429 -0.000344 0.013485 -0.005300 -0.000521 -0.000164
# 4 -0.004188 -0.000447 -0.005300 0.039460 0.008763 -0.009959
# 5 -0.005417 -0.001036 -0.000521 0.008763 0.041746 -0.008001
# 6 -0.000828 0.017921 -0.000164 -0.009959 -0.008001 0.039108
#
#
# Mechanical properties :
#
#
# Convention : Reuss Voigt Hill
#
# Bulk Modulus (GPa) = 26.39511 35.31027 30.85269
# Shear Modulus (GPa) = 22.82757 30.27262 26.55009
#
# Velocity S-wave (km/s) = 3.20758 3.69379 3.45924
# Velocity P-wave (km/s) = 5.06108 5.84010 5.46449
#
# Compressibility (1/GPa) = 0.03788580
#
# Stress axis : x y z
#
# Youngs Moduli (GPa) = 53.23812 33.64764 74.15694
#
# Poissons Ratio (x) = 0.27853 0.25430
# Poissons Ratio (y) = 0.44069 0.02552
# Poissons Ratio (z) = 0.18256 0.01158
#
# Static dielectric constant tensor:
#      x y z
#    x 2.001540 0.013080 0.050930 
#    y 0.013080 1.874780 -0.041200 
#    z 0.050930 -0.041200 1.821140 
# 
# From -- ./inp_files/45469.got.cif
#   From: 2010.05.17/outbox.cif.g08.bks.cpg/sg2_23_cif.got.tgz:45469.got - 2010.06.03 11:33:40.
