data_PCOD9101214
_publ_section_title
;
Structure prediction by ZEFSAII (Michael W. Deem and Ramdas Pophale) SiO2 
 PCOD9101214
Probable space group: P -1
;
_chemical_formula_sum "Si O2"
_cell_formula_units_Z 16
_cell_length_a 27.165229
_cell_length_b 5.242490
_cell_length_c 15.714330
_cell_angle_alpha 119.511834
_cell_angle_beta 22.629433
_cell_angle_gamma 106.017803
_cell_volume 633.668980
_symmetry_space_group_name_H-M "P -1"
_symmetry_group_IT_number 2
_symmetry_cell_setting 'triclinic'
loop_
_space_group_symop_operation_xyz
x,y,z
-x,-y,-z
loop_
_atom_site_type_symbol
_atom_site_label
_atom_site_fract_x
_atom_site_fract_y
_atom_site_fract_z
Si Si1 0.808212 0.475826 0.238862
Si Si2 0.442470 0.767732 0.256410
Si Si3 0.374031 0.018760 0.583913
Si Si4 0.080566 0.715361 0.398034
Si Si5 0.144573 0.771435 0.052011
Si Si6 0.643634 0.998811 0.196296
Si Si7 0.736873 0.310965 0.618924
Si Si8 0.908873 0.497233 0.256058
O O1 0.824538 0.219987 0.096037
O O2 0.869045 0.338156 0.212771
O O3 0.644047 0.823138 0.558945
O O4 0.921766 0.596256 0.044092
O O5 0.366569 0.628953 0.290117
O O6 0.404664 0.764874 0.415490
O O7 0.619220 0.564088 0.919177
O O8 0.210754 0.371490 0.899842
O O9 0.406566 0.897358 0.608627
O O10 0.498812 0.129308 0.390050
O O11 0.000000 0.500000 0.500000
O O12 0.251868 0.417148 0.054887
O O13 0.000000 0.000000 0.500000
O O14 0.029805 0.955895 0.602668
O O15 0.245598 0.859994 0.964685
O O16 0.859089 0.396612 0.404821
O O17 0.810698 0.914250 0.465164
#
# Coordination Sequence:
#
# PCOD9101214 Si02
#       8
#     2   2   2   2   2   2   2   2
#     4   9  21  38  62  91 121 159 210 251 309 363
#     4   9  21  38  62  91 120 167 201 257 301 377
#     4  10  20  38  57  87 122 152 211 246 307 352
#     4  10  20  38  59  82 115 152 194 242 297 351
#     4  10  20  38  59  85 117 162 201 251 301 368
#     4  10  21  35  60  86 117 162 199 257 298 361
#     4  10  22  42  65  88 131 161 205 248 316 362
#     4  10  22  42  61  93 125 164 199 260 303 370
#
# _framework density 25.249777000000002
#
# number of rings (size 3 to 8) (size 9 to 14) (size 15 to 20)
#    0.000    2.250    1.250    0.375    1.750   10.000 
#    4.500    2.500    0.000    0.000    0.000    0.000 
#    0.000    0.000    0.000    0.000    0.000    0.000 
#
# Total GULP energy -89372.699351 kJ/mol
# GULP energy per Si atom -5585.793709 kJ/mol
# Density = 2.519231 g / cm^3
# Si number density = 25.249777 Si / 1000 Ang^3
#
#
#
# Elastic Constant Matrix: (Units=GPa)
#
#
# Indices 1 2 3 4 5 6 
#
# 1 59.1697 -4.0428 8.2678 12.6854 7.0720 10.7673
# 2 -4.0428 95.7639 30.7173 4.6898 -1.6851 -8.6231
# 3 8.2678 30.7173 165.3746 26.7148 25.4273 -3.7054
# 4 12.6854 4.6898 26.7148 28.2087 -3.0990 -0.2520
# 5 7.0720 -1.6851 25.4273 -3.0990 39.5267 -4.3432
# 6 10.7673 -8.6231 -3.7054 -0.2520 -4.3432 26.5515
#
#
#
# Elastic Compliance Matrix: (Units=1/GPa)
#
#
# Indices 1 2 3 4 5 6 
#
# 1 0.021989 -0.000065 0.001805 -0.012464 -0.007172 -0.009978
# 2 -0.000065 0.011638 -0.002636 0.000922 0.002703 0.003889
# 3 0.001805 -0.002636 0.009108 -0.009809 -0.007239 -0.001594
# 4 -0.012464 0.000922 -0.009809 0.051719 0.013366 0.006663
# 5 -0.007172 0.002703 -0.007239 0.013366 0.033320 0.008353
# 6 -0.009978 0.003889 -0.001594 0.006663 0.008353 0.044179
#
#
# Mechanical properties :
#
#
# Convention : Reuss Voigt Hill
#
# Bulk Modulus (GPa) = 24.42382 43.35476 33.88929
# Shear Modulus (GPa) = 26.68207 37.88178 32.28193
#
# Velocity S-wave (km/s) = 3.25426 3.87755 3.57950
# Velocity P-wave (km/s) = 4.87997 6.10367 5.52580
#
# Compressibility (1/GPa) = 0.04094363
#
# Stress axis : x y z
#
# Youngs Moduli (GPa) = 45.47746 85.92792 109.79348
#
# Poissons Ratio (x) = 0.00559 -0.19823
# Poissons Ratio (y) = 0.00296 0.28940
# Poissons Ratio (z) = -0.08211 0.22649
#
# Static dielectric constant tensor:
#      x y z
#    x 2.040790 0.059790 0.026450 
#    y 0.059790 2.086270 -0.056220 
#    z 0.026450 -0.056220 2.059300 
# 
# From -- ./inp_files/543624.got.cif
#   From: 2010.05.17/outbox.cif.g08.bks.cpg/sg2_272_cif.got.tgz:543624.got - 2010.06.03 11:33:40.
