data_PCOD9101722
_publ_section_title
;
Structure prediction by ZEFSAII (Michael W. Deem and Ramdas Pophale) SiO2 
 PCOD9101722
Probable space group: P -1
;
_chemical_formula_sum "Si O2"
_cell_formula_units_Z 14
_cell_length_a 10.148576
_cell_length_b 18.284425
_cell_length_c 5.236037
_cell_angle_alpha 65.400794
_cell_angle_beta 77.064644
_cell_angle_gamma 36.316566
_cell_volume 511.852898
_symmetry_space_group_name_H-M "P -1"
_symmetry_group_IT_number 2
_symmetry_cell_setting 'triclinic'
loop_
_space_group_symop_operation_xyz
x,y,z
-x,-y,-z
loop_
_atom_site_type_symbol
_atom_site_label
_atom_site_fract_x
_atom_site_fract_y
_atom_site_fract_z
Si Si1 0.803085 0.279028 0.107100
Si Si2 0.728113 0.634412 0.251418
Si Si3 0.596864 0.523592 0.607559
Si Si4 0.216164 0.292340 0.387469
Si Si5 0.224876 0.858463 0.986930
Si Si6 0.260433 0.984876 0.525277
Si Si7 0.340838 0.072596 0.715438
O O1 0.612617 0.348618 0.302947
O O2 0.753988 0.244898 0.936653
O O3 0.061953 0.131536 0.271475
O O4 0.767584 0.390127 0.907260
O O5 0.727852 0.536485 0.402102
O O6 0.818818 0.630145 0.478334
O O7 0.819487 0.643066 0.956666
O O8 0.455627 0.775633 0.142710
O O9 0.500000 0.500000 0.500000
O O10 0.141178 0.235139 0.542235
O O11 0.483853 0.140434 0.507744
O O12 0.218918 0.909826 0.649460
O O13 0.000000 0.000000 0.000000
O O14 0.249901 0.026533 0.759722
O O15 0.500000 0.000000 0.500000
O O16 0.500000 0.000000 0.000000
#
# Coordination Sequence:
#
# PCOD9101722 Si02
#       7
#     2   2   2   2   2   2   2
#     4  11  23  38  58  87 125 165 207 251 295 365
#     4  11  21  37  60  84 116 163 202 245 301 360
#     4  11  23  40  58  82 122 166 217 248 290 356
#     4  10  21  37  61  90 119 153 199 253 311 366
#     4  11  20  34  57  89 127 154 192 245 311 373
#     4  10  21  35  59  89 121 156 194 246 313 365
#     4  10  20  38  60  89 124 155 195 246 307 375
#
# _framework density 27.351610999999998
#
# number of rings (size 3 to 8) (size 9 to 14) (size 15 to 20)
#    0.000    1.429    1.429    6.429    2.000    1.143 
#    0.000    0.000    0.000    1.714    0.000    0.000 
#    0.000    0.000    0.000    0.000    0.000    0.000 
#
# Total GULP energy -78159.767930 kJ/mol
# GULP energy per Si atom -5582.840566 kJ/mol
# Density = 2.728936 g / cm^3
# Si number density = 27.351611 Si / 1000 Ang^3
#
#
#
# Elastic Constant Matrix: (Units=GPa)
#
#
# Indices 1 2 3 4 5 6 
#
# 1 75.7565 15.2912 24.8999 0.3713 -9.2474 34.0159
# 2 15.2912 165.7200 27.2156 -12.9435 -13.2038 25.5277
# 3 24.8999 27.2156 151.9196 -2.5785 -27.3702 30.8274
# 4 0.3713 -12.9435 -2.5785 58.8540 17.9690 -1.0391
# 5 -9.2474 -13.2038 -27.3702 17.9690 41.5597 -12.9169
# 6 34.0159 25.5277 30.8274 -1.0391 -12.9169 53.2523
#
#
#
# Elastic Compliance Matrix: (Units=1/GPa)
#
#
# Indices 1 2 3 4 5 6 
#
# 1 0.018593 0.000161 -0.000692 -0.000421 0.000347 -0.011477
# 2 0.000161 0.006682 -0.000557 0.001289 0.000341 -0.002876
# 3 -0.000692 -0.000557 0.008217 -0.001248 0.004710 -0.002930
# 4 -0.000421 0.001289 -0.001248 0.020161 -0.009717 -0.001590
# 5 0.000347 0.000341 0.004710 -0.009717 0.033013 0.004706
# 6 -0.011477 -0.002876 -0.002930 -0.001590 0.004706 0.030295
#
#
# Mechanical properties :
#
#
# Convention : Reuss Voigt Hill
#
# Bulk Modulus (GPa) = 31.93159 58.68996 45.31077
# Shear Modulus (GPa) = 38.58736 52.46585 45.52660
#
# Velocity S-wave (km/s) = 3.76012 4.38448 4.08425
# Velocity P-wave (km/s) = 5.52731 6.86554 6.23245
#
# Compressibility (1/GPa) = 0.03131695
#
# Stress axis : x y z
#
# Youngs Moduli (GPa) = 53.78365 149.66331 121.69190
#
# Poissons Ratio (x) = -0.02406 0.08419
# Poissons Ratio (y) = -0.00865 0.06772
# Poissons Ratio (z) = 0.03721 0.08329
#
# Static dielectric constant tensor:
#      x y z
#    x -14.689160 -0.741330 6.139550 
#    y -0.741330 2.153900 0.203640 
#    z 6.139550 0.203640 0.015730 
# 
# From -- ./inp_files/70879.got.cif
#   From: 2010.05.17/outbox.cif.g08.bks.cpg/sg2_36_cif.got.tgz:70879.got - 2010.06.03 11:33:40.
