data_PCOD9101319
_publ_section_title
;
Structure prediction by ZEFSAII (Michael W. Deem and Ramdas Pophale) SiO2 
 PCOD9101319
Probable space group: P -1
;
_chemical_formula_sum "Si O2"
_cell_formula_units_Z 16
_cell_length_a 7.473691
_cell_length_b 12.334438
_cell_length_c 18.294387
_cell_angle_alpha 143.491170
_cell_angle_beta 119.853595
_cell_angle_gamma 87.158442
_cell_volume 638.588906
_symmetry_space_group_name_H-M "P -1"
_symmetry_group_IT_number 2
_symmetry_cell_setting 'triclinic'
loop_
_space_group_symop_operation_xyz
x,y,z
-x,-y,-z
loop_
_atom_site_type_symbol
_atom_site_label
_atom_site_fract_x
_atom_site_fract_y
_atom_site_fract_z
Si Si1 0.103884 0.345854 0.386823
Si Si2 0.864419 0.877508 0.258579
Si Si3 0.324435 0.443308 0.332210
Si Si4 0.298676 0.451612 0.826117
Si Si5 0.402261 0.051602 0.398059
Si Si6 0.744016 0.163076 0.340040
Si Si7 0.899883 0.285343 0.044245
Si Si8 0.623617 0.338936 0.753188
O O1 0.174010 0.295305 0.296653
O O2 0.378684 0.482485 0.567824
O O3 0.095798 0.551611 0.474288
O O4 0.831799 0.129805 0.260288
O O5 0.898907 0.791050 0.294176
O O6 0.874895 0.100549 0.390169
O O7 0.555089 0.663573 0.046626
O O8 0.082225 0.927198 0.271812
O O9 0.428917 0.719587 0.500097
O O10 0.110962 0.293491 0.140750
O O11 0.146632 0.550263 0.833136
O O12 0.443622 0.408627 0.773505
O O13 0.519430 0.192079 0.576212
O O14 0.411783 0.838389 0.288399
O O15 0.409043 0.978933 0.174206
O O16 0.054891 0.421217 0.072774
#
# Coordination Sequence:
#
# PCOD9101319 Si02
#       8
#     2   2   2   2   2   2   2   2
#     4  10  22  41  62  86 114 157 208 252 306 352
#     4  10  20  38  58  87 126 157 199 248 292 365
#     4  10  22  40  61  87 119 156 202 254 301 354
#     4  10  22  38  59  91 126 161 197 240 301 367
#     4  10  20  38  58  87 126 157 199 248 292 365
#     4  10  22  40  61  87 119 156 202 254 301 354
#     4  10  22  43  60  92 126 155 200 250 296 372
#     4  10  22  38  59  91 126 161 197 240 301 367
#
# _framework density 25.055243000000001
#
# number of rings (size 3 to 8) (size 9 to 14) (size 15 to 20)
#    0.000    2.000    2.500    0.000    1.750    4.000 
#    4.500    0.000    0.000    0.000    0.000    0.000 
#    0.000    0.000    0.000    0.000    0.000    0.000 
#
# Total GULP energy -89424.511483 kJ/mol
# GULP energy per Si atom -5589.031968 kJ/mol
# Density = 2.499822 g / cm^3
# Si number density = 25.055243 Si / 1000 Ang^3
#
#
#
# Elastic Constant Matrix: (Units=GPa)
#
#
# Indices 1 2 3 4 5 6 
#
# 1 93.6521 10.4815 27.8305 6.2703 9.6306 4.6939
# 2 10.4815 70.4560 16.5394 4.2675 1.7898 -9.0806
# 3 27.8305 16.5394 47.1420 0.0147 12.9265 -0.3213
# 4 6.2703 4.2675 0.0147 30.9115 5.1065 11.3029
# 5 9.6306 1.7898 12.9265 5.1065 32.0631 10.2084
# 6 4.6939 -9.0806 -0.3213 11.3029 10.2084 44.3261
#
#
#
# Elastic Compliance Matrix: (Units=1/GPa)
#
#
# Indices 1 2 3 4 5 6 
#
# 1 0.013197 -0.000119 -0.007694 -0.002314 -0.000221 -0.000837
# 2 -0.000119 0.016328 -0.005844 -0.003863 0.000784 0.004120
# 3 -0.007694 -0.005844 0.030772 0.003623 -0.010793 0.001402
# 4 -0.002314 -0.003863 0.003623 0.037308 -0.003558 -0.009214
# 5 -0.000221 0.000784 -0.010793 -0.003558 0.038639 -0.007886
# 6 -0.000837 0.004120 0.001402 -0.009214 -0.007886 0.027668
#
#
# Mechanical properties :
#
#
# Convention : Reuss Voigt Hill
#
# Bulk Modulus (GPa) = 30.31764 35.66143 32.98953
# Shear Modulus (GPa) = 24.72537 31.88675 28.30606
#
# Velocity S-wave (km/s) = 3.14480 3.57130 3.36482
# Velocity P-wave (km/s) = 5.03120 5.59192 5.31895
#
# Compressibility (1/GPa) = 0.03298410
#
# Stress axis : x y z
#
# Youngs Moduli (GPa) = 75.77460 61.24508 32.49656
#
# Poissons Ratio (x) = 0.00731 0.25002
# Poissons Ratio (y) = 0.00904 0.18990
# Poissons Ratio (z) = 0.58298 0.35790
#
# Static dielectric constant tensor:
#      x y z
#    x 2.016560 0.002370 -0.027250 
#    y 0.002370 2.019250 0.045940 
#    z -0.027250 0.045940 2.024040 
# 
# From -- ./inp_files/589646.got.cif
#   From: 2010.05.17/outbox.cif.g08.bks.cpg/sg2_295_cif.got.tgz:589646.got - 2010.06.03 11:33:40.
