data_PCOD9101330
_publ_section_title
;
Structure prediction by ZEFSAII (Michael W. Deem and Ramdas Pophale) SiO2 
 PCOD9101330
Probable space group: P -1
;
_chemical_formula_sum "Si O2"
_cell_formula_units_Z 14
_cell_length_a 9.861422
_cell_length_b 16.874090
_cell_length_c 5.860147
_cell_angle_alpha 109.480265
_cell_angle_beta 138.207921
_cell_angle_gamma 72.279336
_cell_volume 610.247436
_symmetry_space_group_name_H-M "P -1"
_symmetry_group_IT_number 2
_symmetry_cell_setting 'triclinic'
loop_
_space_group_symop_operation_xyz
x,y,z
-x,-y,-z
loop_
_atom_site_type_symbol
_atom_site_label
_atom_site_fract_x
_atom_site_fract_y
_atom_site_fract_z
Si Si1 0.899949 0.026290 0.143605
Si Si2 0.574442 0.930120 0.839507
Si Si3 0.486922 0.633235 0.687703
Si Si4 0.324100 0.512551 0.982525
Si Si5 0.698336 0.214737 0.641570
Si Si6 0.968911 0.812279 0.359283
Si Si7 0.858546 0.339017 0.335778
O O1 0.904920 0.126460 0.267362
O O2 0.000000 0.000000 0.500000
O O3 0.691264 0.981491 0.847903
O O4 0.000000 0.000000 0.000000
O O5 0.393865 0.872538 0.495856
O O6 0.752142 0.863154 0.096911
O O7 0.500000 0.000000 0.000000
O O8 0.414689 0.572608 0.341748
O O9 0.679392 0.579719 0.995934
O O10 0.475957 0.726727 0.660751
O O11 0.305139 0.641512 0.651180
O O12 0.500000 0.500000 0.000000
O O13 0.133769 0.571256 0.694882
O O14 0.898023 0.197577 0.715200
O O15 0.760025 0.276001 0.976544
O O16 0.961812 0.721237 0.379989
#
# Coordination Sequence:
#
# PCOD9101330 Si02
#       7
#     2   2   2   2   2   2   2
#     4  10  23  43  64  87 122 164 210 269 325 380
#     4  11  23  42  64  88 119 167 214 262 323 378
#     4   8  15  29  51  86 120 152 197 249 294 368
#     4   8  13  26  52  85 118 153 196 237 303 364
#     4  10  20  38  58  88 122 160 209 254 315 370
#     4  10  22  38  60  83 124 156 209 265 314 371
#     4   9  18  31  55  84 119 160 196 254 303 370
#
# _framework density 22.941514000000002
#
# number of rings (size 3 to 8) (size 9 to 14) (size 15 to 20)
#    0.000    2.571    1.429    0.000    4.000    0.000 
#   10.286    3.571    0.000    0.857    0.000   90.000 
#    0.000    0.000    0.000    0.000    0.000    0.143 
#
# Total GULP energy -77982.361525 kJ/mol
# GULP energy per Si atom -5570.168680 kJ/mol
# Density = 2.288930 g / cm^3
# Si number density = 22.941514 Si / 1000 Ang^3
#
#
#
# Elastic Constant Matrix: (Units=GPa)
#
#
# Indices 1 2 3 4 5 6 
#
# 1 124.1782 68.7651 59.2556 20.0451 -24.9239 -7.3480
# 2 68.7651 161.4941 30.0653 -17.0976 5.3704 -6.6763
# 3 59.2556 30.0653 76.3330 -8.2347 -2.9164 -18.8687
# 4 20.0451 -17.0976 -8.2347 55.1035 -13.8660 0.4505
# 5 -24.9239 5.3704 -2.9164 -13.8660 35.0342 13.3463
# 6 -7.3480 -6.6763 -18.8687 0.4505 13.3463 47.1454
#
#
#
# Elastic Compliance Matrix: (Units=1/GPa)
#
#
# Indices 1 2 3 4 5 6 
#
# 1 0.031234 -0.011553 -0.023242 -0.012902 0.021538 -0.012044
# 2 -0.011553 0.011131 0.006075 0.006348 -0.008658 0.004597
# 3 -0.023242 0.006075 0.033016 0.011132 -0.015976 0.014868
# 4 -0.012902 0.006348 0.011132 0.026470 0.000083 0.003067
# 5 0.021538 -0.008658 -0.015976 0.000083 0.051023 -0.018708
# 6 -0.012044 0.004597 0.014868 0.003067 -0.018708 0.031202
#
#
# Mechanical properties :
#
#
# Convention : Reuss Voigt Hill
#
# Bulk Modulus (GPa) = 55.74183 75.35303 65.54743
# Shear Modulus (GPa) = 20.20231 41.05125 30.62678
#
# Velocity S-wave (km/s) = 2.97071 4.23470 3.65772
# Velocity P-wave (km/s) = 6.00974 7.53839 6.81705
#
# Compressibility (1/GPa) = 0.01793985
#
# Stress axis : x y z
#
# Youngs Moduli (GPa) = 32.01630 89.84308 30.28839
#
# Poissons Ratio (x) = 1.03793 0.70397
# Poissons Ratio (y) = 0.36988 -0.18399
# Poissons Ratio (z) = 0.74413 -0.54575
#
# Static dielectric constant tensor:
#      x y z
#    x 1.996400 -0.131500 -0.192960 
#    y -0.131500 2.129160 0.039180 
#    z -0.192960 0.039180 2.114890 
# 
# From -- ./inp_files/40989.got.cif
#   From: 2010.05.17/outbox.cif.g08.bks.cpg/sg2_21_cif.got.tgz:40989.got - 2010.06.03 11:33:40.
