data_PCOD9101923
_publ_section_title
;
Structure prediction by ZEFSAII (Michael W. Deem and Ramdas Pophale) SiO2 
 PCOD9101923
Probable space group: P -1
;
_chemical_formula_sum "Si O2"
_cell_formula_units_Z 16
_cell_length_a 11.490202
_cell_length_b 9.836865
_cell_length_c 15.255209
_cell_angle_alpha 84.788785
_cell_angle_beta 28.768621
_cell_angle_gamma 95.885892
_cell_volume 764.392877
_symmetry_space_group_name_H-M "P -1"
_symmetry_group_IT_number 2
_symmetry_cell_setting 'triclinic'
loop_
_space_group_symop_operation_xyz
x,y,z
-x,-y,-z
loop_
_atom_site_type_symbol
_atom_site_label
_atom_site_fract_x
_atom_site_fract_y
_atom_site_fract_z
Si Si1 0.641754 0.054370 0.692799
Si Si2 0.359436 0.701471 0.452722
Si Si3 0.193981 0.916293 0.231550
Si Si4 0.903683 0.968841 0.877671
Si Si5 0.151230 0.293610 0.776153
Si Si6 0.611225 0.266502 0.203485
Si Si7 0.711926 0.165851 0.332438
Si Si8 0.788069 0.612747 0.464868
O O1 0.687644 0.167725 0.575849
O O2 0.838010 0.081601 0.643356
O O3 0.547419 0.885151 0.734556
O O4 0.395481 0.077467 0.898959
O O5 0.649267 0.697473 0.277263
O O6 0.290446 0.723724 0.596584
O O7 0.200066 0.546110 0.522144
O O8 0.061007 0.747725 0.296892
O O9 0.053983 0.997450 0.256186
O O10 0.500000 0.000000 0.000000
O O11 0.014396 0.851921 0.844268
O O12 0.044208 0.121739 0.827795
O O13 0.268729 0.375873 0.602434
O O14 0.901803 0.332624 0.965792
O O15 0.652854 0.216949 0.275853
O O16 0.433100 0.361623 0.330912
O O17 0.500000 0.000000 0.500000
#
# Coordination Sequence:
#
# PCOD9101923 Si02
#       8
#     2   2   2   2   2   2   2   2
#     4  10  21  37  61  90 110 155 211 247 294 348
#     4  12  23  36  58  91 131 159 189 247 308 358
#     4   9  20  41  68  83 113 157 207 256 296 342
#     4   9  18  36  60  89 114 151 205 256 281 345
#     4  10  20  38  61  87 122 162 199 236 293 360
#     4  11  22  38  65  91 118 160 207 242 288 360
#     4  12  19  34  59  90 125 157 194 244 301 349
#     4  11  24  42  58  90 128 156 196 251 303 356
#
# _framework density 20.931646000000001
#
# number of rings (size 3 to 8) (size 9 to 14) (size 15 to 20)
#    0.000    1.500    3.750    2.625    0.000    3.500 
#    2.250    0.000    0.000    1.500    0.000    0.000 
#    0.000    0.000    0.000    0.000    0.000    0.000 
#
# Total GULP energy -89254.404174 kJ/mol
# GULP energy per Si atom -5578.400261 kJ/mol
# Density = 2.088400 g / cm^3
# Si number density = 20.931646 Si / 1000 Ang^3
#
#
#
# Elastic Constant Matrix: (Units=GPa)
#
#
# Indices 1 2 3 4 5 6 
#
# 1 82.0058 10.0239 2.9267 -5.1299 14.3787 27.2274
# 2 10.0239 80.6277 22.2602 19.4284 -8.3503 12.9479
# 3 2.9267 22.2602 65.1048 22.2496 -5.1431 3.8420
# 4 -5.1299 19.4284 22.2496 22.0275 1.7421 -0.8701
# 5 14.3787 -8.3503 -5.1431 1.7421 24.6432 0.4871
# 6 27.2274 12.9479 3.8420 -0.8701 0.4871 18.6850
#
#
#
# Elastic Compliance Matrix: (Units=1/GPa)
#
#
# Indices 1 2 3 4 5 6 
#
# 1 0.030358 -0.000662 -0.004137 0.011665 -0.018797 -0.041895
# 2 -0.000662 0.020543 0.002068 -0.021713 0.009609 -0.014958
# 3 -0.004137 0.002068 0.026129 -0.030127 0.010746 -0.002460
# 4 0.011665 -0.021713 -0.030127 0.100269 -0.027729 0.009635
# 5 -0.018797 0.009609 0.010746 -0.027729 0.058696 0.015701
# 6 -0.041895 -0.014958 -0.002460 0.009635 0.015701 0.125478
#
#
# Mechanical properties :
#
#
# Convention : Reuss Voigt Hill
#
# Bulk Modulus (GPa) = 13.97272 33.12887 23.55079
# Shear Modulus (GPa) = 12.79457 25.90633 19.35045
#
# Velocity S-wave (km/s) = 2.47504 3.52186 3.04379
# Velocity P-wave (km/s) = 3.85456 5.69206 4.86092
#
# Compressibility (1/GPa) = 0.07156805
#
# Stress axis : x y z
#
# Youngs Moduli (GPa) = 32.93998 48.67741 38.27228
#
# Poissons Ratio (x) = 0.03221 0.15835
# Poissons Ratio (y) = 0.02179 -0.07915
# Poissons Ratio (z) = 0.13629 -0.10066
#
# Static dielectric constant tensor:
#      x y z
#    x 1.836380 -0.008760 -0.017980 
#    y -0.008760 1.743390 -0.006420 
#    z -0.017980 -0.006420 1.849940 
# 
# From -- ./inp_files/378030.got.cif
#   From: 2010.05.17/outbox.cif.g08.bks.cpg/sg2_190_cif.got.tgz:378030.got - 2010.06.03 11:33:40.
