data_PCOD9101189
_publ_section_title
;
Structure prediction by ZEFSAII (Michael W. Deem and Ramdas Pophale) SiO2 
 PCOD9101189
Probable space group: P -1
;
_chemical_formula_sum "Si O2"
_cell_formula_units_Z 14
_cell_length_a 17.176836
_cell_length_b 4.858362
_cell_length_c 23.393077
_cell_angle_alpha 88.368537
_cell_angle_beta 19.387266
_cell_angle_gamma 91.451391
_cell_volume 639.706069
_symmetry_space_group_name_H-M "P -1"
_symmetry_group_IT_number 2
_symmetry_cell_setting 'triclinic'
loop_
_space_group_symop_operation_xyz
x,y,z
-x,-y,-z
loop_
_atom_site_type_symbol
_atom_site_label
_atom_site_fract_x
_atom_site_fract_y
_atom_site_fract_z
Si Si1 0.568363 0.136040 0.014471
Si Si2 0.085693 0.274552 0.400643
Si Si3 0.155584 0.324581 0.131354
Si Si4 0.721599 0.587305 0.081363
Si Si5 0.208694 0.894554 0.890234
Si Si6 0.222306 0.436016 0.469337
Si Si7 0.285732 0.934973 0.497617
O O1 0.345118 0.235272 0.199770
O O2 0.228869 0.588227 0.121940
O O3 0.500000 0.000000 0.000000
O O4 0.655791 0.885455 0.989728
O O5 0.000000 0.500000 0.500000
O O6 0.972218 0.396302 0.422082
O O7 0.000000 0.000000 0.500000
O O8 0.169545 0.424319 0.056139
O O9 0.901105 0.141711 0.322359
O O10 0.843424 0.409515 0.044063
O O11 0.443377 0.449276 0.272762
O O12 0.731312 0.896623 0.098213
O O13 0.444248 0.909390 0.687567
O O14 0.000000 0.000000 0.000000
O O15 0.163815 0.125121 0.535544
O O16 0.321230 0.632777 0.451916
#
# Coordination Sequence:
#
# PCOD9101189 Si02
#       7
#     2   2   2   2   2   2   2
#     4  12  26  42  62  91 130 175 219 274 328 369
#     4  12  24  39  60  87 119 162 216 274 320 362
#     4  12  24  42  62  92 129 168 218 267 317 388
#     4  10  21  38  64  91 122 164 205 257 320 376
#     4  10  21  41  66  95 125 159 205 257 316 389
#     4  10  20  38  57  82 115 159 210 253 305 380
#     4  10  22  38  62  86 119 163 203 248 311 382
#
# _framework density 21.885052999999999
#
# number of rings (size 3 to 8) (size 9 to 14) (size 15 to 20)
#    0.000    1.143    0.000    6.857    0.000    4.571 
#    0.000    1.429    0.000    0.000    0.000    0.000 
#    0.000    0.000    0.000    0.000    0.000    0.000 
#
# Total GULP energy -78078.037531 kJ/mol
# GULP energy per Si atom -5577.002681 kJ/mol
# Density = 2.183524 g / cm^3
# Si number density = 21.885053 Si / 1000 Ang^3
#
#
#
# Elastic Constant Matrix: (Units=GPa)
#
#
# Indices 1 2 3 4 5 6 
#
# 1 50.1103 20.4122 44.0626 0.5455 7.6013 -9.8249
# 2 20.4122 149.3658 36.9869 11.6234 2.2439 -5.8476
# 3 44.0626 36.9869 139.3349 -1.3242 19.9557 -26.8151
# 4 0.5455 11.6234 -1.3242 39.2826 -11.3764 4.4679
# 5 7.6013 2.2439 19.9557 -11.3764 29.1818 8.2638
# 6 -9.8249 -5.8476 -26.8151 4.4679 8.2638 39.0316
#
#
#
# Elastic Compliance Matrix: (Units=1/GPa)
#
#
# Indices 1 2 3 4 5 6 
#
# 1 0.028316 -0.001746 -0.007529 -0.001397 -0.003364 0.002566
# 2 -0.001746 0.007467 -0.001478 -0.002207 0.000057 -0.000095
# 3 -0.007529 -0.001478 0.013423 -0.003375 -0.011214 0.009866
# 4 -0.001397 -0.002207 -0.003375 0.032608 0.018574 -0.010666
# 5 -0.003364 0.000057 -0.011214 0.018574 0.056455 -0.022621
# 6 0.002566 -0.000095 0.009866 -0.010666 -0.022621 0.039040
#
#
# Mechanical properties :
#
#
# Convention : Reuss Voigt Hill
#
# Bulk Modulus (GPa) = 36.09958 60.19271 48.14614
# Shear Modulus (GPa) = 24.03319 37.32249 30.67784
#
# Velocity S-wave (km/s) = 3.31744 4.13411 3.74809
# Velocity P-wave (km/s) = 5.58612 7.09589 6.38578
#
# Compressibility (1/GPa) = 0.02770116
#
# Stress axis : x y z
#
# Youngs Moduli (GPa) = 35.31605 133.92991 74.50077
#
# Poissons Ratio (x) = 0.23379 0.56090
# Poissons Ratio (y) = 0.06165 0.11008
# Poissons Ratio (z) = 0.26589 0.19789
#
# Static dielectric constant tensor:
#      x y z
#    x 1.941050 0.024260 0.002210 
#    y 0.024260 1.773760 -0.045520 
#    z 0.002210 -0.045520 1.851340 
# 
# From -- ./inp_files/612565.got.cif
#   From: 2010.05.17/outbox.cif.g08.bks.cpg/sg2_307_cif.got.tgz:612565.got - 2010.06.03 11:33:40.
