data_PCOD9101761
_publ_section_title
;
Structure prediction by ZEFSAII (Michael W. Deem and Ramdas Pophale) SiO2 
 PCOD9101761
Probable space group: P -1
;
_chemical_formula_sum "Si O2"
_cell_formula_units_Z 16
_cell_length_a 19.707959
_cell_length_b 9.590699
_cell_length_c 15.712238
_cell_angle_alpha 157.228085
_cell_angle_beta 34.751640
_cell_angle_gamma 143.655827
_cell_volume 639.625378
_symmetry_space_group_name_H-M "P -1"
_symmetry_group_IT_number 2
_symmetry_cell_setting 'triclinic'
loop_
_space_group_symop_operation_xyz
x,y,z
-x,-y,-z
loop_
_atom_site_type_symbol
_atom_site_label
_atom_site_fract_x
_atom_site_fract_y
_atom_site_fract_z
Si Si1 0.013681 0.305994 0.584453
Si Si2 0.755265 0.019721 0.105694
Si Si3 0.111010 0.318752 0.750254
Si Si4 0.782606 0.538563 0.965901
Si Si5 0.318474 0.593756 0.823259
Si Si6 0.442955 0.969675 0.136296
Si Si7 0.502038 0.800810 0.295256
Si Si8 0.249756 0.364393 0.278617
O O1 0.924040 0.559890 0.847899
O O2 0.148051 0.465769 0.501350
O O3 0.948929 0.088846 0.445787
O O4 0.000000 0.000000 0.500000
O O5 0.772452 0.835591 0.072937
O O6 0.787607 0.776652 0.857357
O O7 0.611433 0.022597 0.250080
O O8 0.834874 0.424939 0.241005
O O9 0.225560 0.363375 0.721288
O O10 0.000000 0.500000 0.000000
O O11 0.703054 0.137653 0.787710
O O12 0.719323 0.578380 0.142777
O O13 0.465908 0.692313 0.720987
O O14 0.283064 0.998765 0.081848
O O15 0.464765 0.595914 0.946498
O O16 0.500000 0.000000 0.000000
O O17 0.368102 0.691912 0.333698
O O18 0.500000 0.000000 0.500000
#
# Coordination Sequence:
#
# PCOD9101761 Si02
#       8
#     2   2   2   2   2   2   2   2
#     4  12  23  39  66  88 118 164 214 242 294 374
#     4  10  22  39  62  89 125 155 197 251 313 344
#     4  11  21  40  62  89 119 159 209 244 295 366
#     4  10  20  38  60  91 122 161 199 247 309 353
#     4   9  17  37  62  85 117 165 205 241 295 366
#     4   8  17  34  60  83 123 158 194 241 303 350
#     4  10  21  36  62  93 117 152 206 255 294 354
#     4  10  20  39  61  85 123 164 200 242 304 364
#
# _framework density 25.014643
#
# number of rings (size 3 to 8) (size 9 to 14) (size 15 to 20)
#    0.000    2.000    3.750    0.375    1.750    1.500 
#    0.000    6.875    0.000    0.000    0.000    0.000 
#    0.000    0.000    0.000    0.000    0.000    0.000 
#
# Total GULP energy -89428.061018 kJ/mol
# GULP energy per Si atom -5589.253814 kJ/mol
# Density = 2.495771 g / cm^3
# Si number density = 25.014643 Si / 1000 Ang^3
#
#
#
# Elastic Constant Matrix: (Units=GPa)
#
#
# Indices 1 2 3 4 5 6 
#
# 1 98.3601 21.5896 3.6180 7.6667 5.4535 -7.3296
# 2 21.5896 136.0083 14.8003 -18.8649 -3.7709 1.0660
# 3 3.6180 14.8003 48.2422 -11.2064 7.3814 -1.5984
# 4 7.6667 -18.8649 -11.2064 25.1008 3.5527 -2.2537
# 5 5.4535 -3.7709 7.3814 3.5527 32.9392 1.5622
# 6 -7.3296 1.0660 -1.5984 -2.2537 1.5622 43.0655
#
#
#
# Elastic Compliance Matrix: (Units=1/GPa)
#
#
# Indices 1 2 3 4 5 6 
#
# 1 0.011392 -0.002504 -0.001087 -0.005492 -0.001419 0.001725
# 2 -0.002504 0.008836 -0.001118 0.006736 0.000968 -0.000369
# 3 -0.001087 -0.001118 0.024998 0.011776 -0.006898 0.001637
# 4 -0.005492 0.006736 0.011776 0.053009 -0.006788 0.002356
# 5 -0.001419 0.000968 -0.006898 -0.006788 0.033081 -0.002077
# 6 0.001725 -0.000369 0.001637 0.002356 -0.002077 0.023782
#
#
# Mechanical properties :
#
#
# Convention : Reuss Voigt Hill
#
# Bulk Modulus (GPa) = 27.92895 40.29180 34.11038
# Shear Modulus (GPa) = 28.33597 36.39460 32.36529
#
# Velocity S-wave (km/s) = 3.36932 3.81850 3.60092
# Velocity P-wave (km/s) = 5.13086 5.96519 5.56369
#
# Compressibility (1/GPa) = 0.03580514
#
# Stress axis : x y z
#
# Youngs Moduli (GPa) = 87.78366 113.17561 40.00247
#
# Poissons Ratio (x) = 0.28345 0.04350
# Poissons Ratio (y) = 0.21985 0.04474
# Poissons Ratio (z) = 0.09546 0.12658
#
# Static dielectric constant tensor:
#      x y z
#    x 1.940250 0.170580 0.075250 
#    y 0.170580 1.896480 -0.033500 
#    z 0.075250 -0.033500 1.985010 
# 
# From -- ./inp_files/537704.got.cif
#   From: 2010.05.17/outbox.cif.g08.bks.cpg/sg2_269_cif.got.tgz:537704.got - 2010.06.03 11:33:40.
