data_PCOD9101013
_publ_section_title
;
Structure prediction by ZEFSAII (Michael W. Deem and Ramdas Pophale) SiO2 
 PCOD9101013
Probable space group: P -1
;
_chemical_formula_sum "Si O2"
_cell_formula_units_Z 16
_cell_length_a 16.190911
_cell_length_b 9.741375
_cell_length_c 14.448780
_cell_angle_alpha 146.773359
_cell_angle_beta 145.276215
_cell_angle_gamma 33.496853
_cell_volume 628.221593
_symmetry_space_group_name_H-M "P -1"
_symmetry_group_IT_number 2
_symmetry_cell_setting 'triclinic'
loop_
_space_group_symop_operation_xyz
x,y,z
-x,-y,-z
loop_
_atom_site_type_symbol
_atom_site_label
_atom_site_fract_x
_atom_site_fract_y
_atom_site_fract_z
Si Si1 0.947224 0.829513 0.648371
Si Si2 0.074495 0.577338 0.263169
Si Si3 0.156475 0.073263 0.906447
Si Si4 0.640167 0.078575 0.388936
Si Si5 0.587087 0.716287 0.532655
Si Si6 0.183996 0.463345 0.885534
Si Si7 0.396471 0.200178 0.099295
Si Si8 0.284561 0.900286 0.238699
O O1 0.807409 0.044550 0.568894
O O2 0.000000 0.500000 0.500000
O O3 0.851039 0.926398 0.711029
O O4 0.109119 0.860224 0.794887
O O5 0.248580 0.560147 0.438983
O O6 0.947196 0.847578 0.240627
O O7 0.109710 0.328232 0.080719
O O8 0.986510 0.536545 0.250061
O O9 0.331750 0.026401 0.005654
O O10 0.529146 0.101642 0.388148
O O11 0.501643 0.302271 0.317084
O O12 0.710410 0.796819 0.231108
O O13 0.461805 0.689901 0.330529
O O14 0.666896 0.900257 0.664648
O O15 0.247813 0.436838 0.037119
O O16 0.205907 0.725656 0.017086
O O17 0.500000 0.000000 0.000000
#
# Coordination Sequence:
#
# PCOD9101013 Si02
#       8
#     2   2   2   2   2   2   2   2
#     4  11  25  43  61  90 130 167 209 260 310 367
#     4  10  20  37  68  93 119 155 215 254 308 369
#     4  10  20  40  65  93 121 165 206 259 311 369
#     4  10  22  41  61  90 127 161 208 254 310 375
#     4  10  22  40  60  89 128 164 204 258 307 374
#     4  10  21  39  65  92 123 161 202 262 309 369
#     4   9  19  40  61  94 127 153 202 262 311 368
#     4  10  23  42  60  87 127 166 212 254 309 366
#
# _framework density 25.468719
#
# number of rings (size 3 to 8) (size 9 to 14) (size 15 to 20)
#    0.000    2.000    2.500    0.000    1.750    3.000 
#   13.500    8.125    0.000    0.000    0.000    0.000 
#    0.000    0.000    0.000    0.000    0.000    0.000 
#
# Total GULP energy -89351.571302 kJ/mol
# GULP energy per Si atom -5584.473206 kJ/mol
# Density = 2.541075 g / cm^3
# Si number density = 25.468719 Si / 1000 Ang^3
#
#
#
# Elastic Constant Matrix: (Units=GPa)
#
#
# Indices 1 2 3 4 5 6 
#
# 1 170.6018 16.4725 58.4092 4.9233 34.3279 -19.4688
# 2 16.4725 57.0138 12.8627 -32.8997 0.2107 -1.5360
# 3 58.4092 12.8627 72.9331 -15.3449 26.3744 -3.0775
# 4 4.9233 -32.8997 -15.3449 43.5236 -1.0997 -5.1555
# 5 34.3279 0.2107 26.3744 -1.0997 52.8273 -6.1185
# 6 -19.4688 -1.5360 -3.0775 -5.1555 -6.1185 43.9518
#
#
#
# Elastic Compliance Matrix: (Units=1/GPa)
#
#
# Indices 1 2 3 4 5 6 
#
# 1 0.010064 -0.005657 -0.007698 -0.007905 -0.002556 0.002438
# 2 -0.005657 0.035034 0.003550 0.028763 0.002677 0.002714
# 3 -0.007698 0.003550 0.024204 0.011771 -0.006988 -0.001183
# 4 -0.007905 0.028763 0.011771 0.050292 0.000693 0.004324
# 5 -0.002556 0.002677 -0.006988 0.000693 0.024307 0.001937
# 6 0.002438 0.002714 -0.001183 0.004324 0.001937 0.024621
#
#
# Mechanical properties :
#
#
# Convention : Reuss Voigt Hill
#
# Bulk Modulus (GPa) = 20.12424 52.89305 36.50865
# Shear Modulus (GPa) = 24.42637 42.24750 33.33694
#
# Velocity S-wave (km/s) = 3.10025 4.07725 3.62185
# Velocity P-wave (km/s) = 4.55347 6.55578 5.64413
#
# Compressibility (1/GPa) = 0.04969131
#
# Stress axis : x y z
#
# Youngs Moduli (GPa) = 99.36272 28.54369 41.31575
#
# Poissons Ratio (x) = 0.16148 0.31805
# Poissons Ratio (y) = 0.56211 -0.14667
# Poissons Ratio (z) = 0.76491 -0.10133
#
# Static dielectric constant tensor:
#      x y z
#    x 1.961060 0.085240 0.022560 
#    y 0.085240 2.206410 -0.092200 
#    z 0.022560 -0.092200 2.017250 
# 
# From -- ./inp_files/202107.got.cif
#   From: 2010.05.17/outbox.cif.g08.bks.cpg/sg2_102_cif.got.tgz:202107.got - 2010.06.03 11:33:40.
