data_PCOD9101401
_publ_section_title
;
Structure prediction by ZEFSAII (Michael W. Deem and Ramdas Pophale) SiO2 
 PCOD9101401
Probable space group: P -1
;
_chemical_formula_sum "Si O2"
_cell_formula_units_Z 16
_cell_length_a 6.729721
_cell_length_b 7.799181
_cell_length_c 16.411946
_cell_angle_alpha 135.536447
_cell_angle_beta 91.736704
_cell_angle_gamma 85.922474
_cell_volume 601.589120
_symmetry_space_group_name_H-M "P -1"
_symmetry_group_IT_number 2
_symmetry_cell_setting 'triclinic'
loop_
_space_group_symop_operation_xyz
x,y,z
-x,-y,-z
loop_
_atom_site_type_symbol
_atom_site_label
_atom_site_fract_x
_atom_site_fract_y
_atom_site_fract_z
Si Si1 0.457156 0.896971 0.741015
Si Si2 0.274852 0.345555 0.791692
Si Si3 0.603332 0.298677 0.668286
Si Si4 0.122821 0.356338 0.127870
Si Si5 0.826543 0.903012 0.659902
Si Si6 0.937764 0.235371 0.238378
Si Si7 0.910534 0.240778 0.532501
Si Si8 0.518050 0.799060 0.003832
O O1 0.333123 0.090458 0.748132
O O2 0.545846 0.070126 0.869301
O O3 0.636253 0.765930 0.646318
O O4 0.294674 0.755599 0.739389
O O5 0.372454 0.313251 0.692167
O O6 0.043944 0.425786 0.817199
O O7 0.390689 0.565720 0.908053
O O8 0.696867 0.548842 0.783041
O O9 0.679101 0.247179 0.560500
O O10 0.714079 0.107529 0.669613
O O11 0.003063 0.185172 0.128700
O O12 0.243450 0.275405 0.020918
O O13 0.001612 0.780239 0.563934
O O14 0.942356 0.949090 0.760749
O O15 0.009026 0.506377 0.349031
O O16 0.000000 0.000000 0.500000
O O17 0.500000 0.000000 0.000000
#
# Coordination Sequence:
#
# PCOD9101401 Si02
#       8
#     2   2   2   2   2   2   2   2
#     4  11  24  38  58  88 117 150 193 240 289 341
#     4  10  21  39  60  84 116 153 193 238 287 339
#     4   8  18  37  60  84 112 150 192 238 285 339
#     4  10  21  37  59  85 115 153 196 235 282 341
#     4  10  20  38  59  83 118 150 188 239 291 341
#     4  11  22  36  59  87 115 150 190 237 289 342
#     4   9  19  38  62  85 114 154 192 232 287 344
#     4  11  23  39  59  85 118 155 195 237 284 339
#
# _framework density 26.596222999999998
#
# number of rings (size 3 to 8) (size 9 to 14) (size 15 to 20)
#    0.000    2.000    0.000    3.000    0.000    6.000 
#    0.000    2.500    0.000   13.500    0.000    0.000 
#    0.000    0.000    0.000    0.000    0.000    0.000 
#
# Total GULP energy -89403.215923 kJ/mol
# GULP energy per Si atom -5587.700995 kJ/mol
# Density = 2.653569 g / cm^3
# Si number density = 26.596223 Si / 1000 Ang^3
#
#
#
# Elastic Constant Matrix: (Units=GPa)
#
#
# Indices 1 2 3 4 5 6 
#
# 1 108.5593 28.0332 34.0608 -6.9064 -22.9464 14.3343
# 2 28.0332 119.2568 22.8507 -4.8723 -12.1503 0.2582
# 3 34.0608 22.8507 100.0675 -16.7441 -26.7204 18.3155
# 4 -6.9064 -4.8723 -16.7441 33.7245 16.8388 -4.0619
# 5 -22.9464 -12.1503 -26.7204 16.8388 42.2781 -0.1970
# 6 14.3343 0.2582 18.3155 -4.0619 -0.1970 47.4441
#
#
#
# Elastic Compliance Matrix: (Units=1/GPa)
#
#
# Indices 1 2 3 4 5 6 
#
# 1 0.011693 -0.001913 -0.001895 -0.001828 0.005314 -0.002925
# 2 -0.001913 0.009182 -0.001465 0.000000 0.000680 0.001096
# 3 -0.001895 -0.001465 0.013921 0.002629 0.006281 -0.004543
# 4 -0.001828 0.000000 0.002629 0.038162 -0.014517 0.002744
# 5 0.005314 0.000680 0.006281 -0.014517 0.036460 -0.005125
# 6 -0.002925 0.001096 -0.004543 0.002744 -0.005125 0.023923
#
#
# Mechanical properties :
#
#
# Convention : Reuss Voigt Hill
#
# Bulk Modulus (GPa) = 41.23363 55.30813 48.27088
# Shear Modulus (GPa) = 32.90127 40.88527 36.89327
#
# Velocity S-wave (km/s) = 3.52101 3.92504 3.72850
# Velocity P-wave (km/s) = 5.66279 6.43288 6.06008
#
# Compressibility (1/GPa) = 0.02425205
#
# Stress axis : x y z
#
# Youngs Moduli (GPa) = 85.52065 108.90346 71.83298
#
# Poissons Ratio (x) = 0.20828 0.13612
# Poissons Ratio (y) = 0.16356 0.10522
# Poissons Ratio (z) = 0.16206 0.15953
#
# Static dielectric constant tensor:
#      x y z
#    x 2.089450 -0.003630 -0.018480 
#    y -0.003630 2.107080 0.014960 
#    z -0.018480 0.014960 2.147120 
# 
# From -- ./inp_files/135691.got.cif
#   From: 2010.05.17/outbox.cif.g08.bks.cpg/sg2_68_cif.got.tgz:135691.got - 2010.06.03 11:33:40.
