data_PCOD9101296
_publ_section_title
;
Structure prediction by ZEFSAII (Michael W. Deem and Ramdas Pophale) SiO2 
 PCOD9101296
Probable space group: P -1
;
_chemical_formula_sum "Si O2"
_cell_formula_units_Z 16
_cell_length_a 12.431464
_cell_length_b 8.369440
_cell_length_c 7.802052
_cell_angle_alpha 90.712230
_cell_angle_beta 97.034702
_cell_angle_gamma 55.528262
_cell_volume 662.574092
_symmetry_space_group_name_H-M "P -1"
_symmetry_group_IT_number 2
_symmetry_cell_setting 'triclinic'
loop_
_space_group_symop_operation_xyz
x,y,z
-x,-y,-z
loop_
_atom_site_type_symbol
_atom_site_label
_atom_site_fract_x
_atom_site_fract_y
_atom_site_fract_z
Si Si1 0.991648 0.262777 0.435933
Si Si2 0.720653 0.398330 0.973741
Si Si3 0.090493 0.869169 0.277172
Si Si4 0.764238 0.756260 0.620244
Si Si5 0.597828 0.017246 0.276637
Si Si6 0.721918 0.466117 0.491663
Si Si7 0.683614 0.807957 0.950187
Si Si8 0.557975 0.417873 0.254548
O O1 0.095848 0.313337 0.430281
O O2 0.996921 0.186962 0.632053
O O3 0.837184 0.429936 0.386346
O O4 0.027390 0.091650 0.307691
O O5 0.852024 0.226180 0.898644
O O6 0.716119 0.594925 0.993157
O O7 0.589476 0.456120 0.842390
O O8 0.677102 0.354721 0.143205
O O9 0.221096 0.745048 0.422076
O O10 0.655487 0.897414 0.460992
O O11 0.732212 0.595256 0.634878
O O12 0.768445 0.815562 0.815716
O O13 0.459509 0.067868 0.173096
O O14 0.581730 0.217202 0.308703
O O15 0.688805 0.900356 0.128798
O O16 0.581772 0.542714 0.391888
#
# Coordination Sequence:
#
# PCOD9101296 Si02
#       8
#     2   2   2   2   2   2   2   2
#     4   9  21  37  59  86 117 155 199 249 292 350
#     4  10  20  39  60  87 117 159 196 246 303 355
#     4   9  19  38  59  82 114 152 196 246 290 347
#     4  12  21  38  64  88 118 163 199 243 306 358
#     4  10  23  38  59  89 127 157 197 250 293 363
#     4  10  20  38  58  86 117 152 196 247 294 348
#     4  10  21  41  58  89 126 157 199 244 303 357
#     4  10  22  38  60  88 122 156 197 249 303 352
#
# _framework density 24.148240999999999
#
# number of rings (size 3 to 8) (size 9 to 14) (size 15 to 20)
#    0.750    1.250    1.250    2.250    1.750    1.500 
#    2.250    1.875    0.000    3.750    0.000    0.000 
#    0.000    0.000    0.000    0.000    0.000    0.000 
#
# Total GULP energy -89142.202609 kJ/mol
# GULP energy per Si atom -5571.387663 kJ/mol
# Density = 2.409328 g / cm^3
# Si number density = 24.148241 Si / 1000 Ang^3
#
#
#
# Elastic Constant Matrix: (Units=GPa)
#
#
# Indices 1 2 3 4 5 6 
#
# 1 96.3034 7.0850 28.0855 15.4330 -12.9555 8.9604
# 2 7.0850 41.3862 28.6635 17.7647 -6.2144 -7.6877
# 3 28.0855 28.6635 70.9809 21.0112 -22.1327 -3.0265
# 4 15.4330 17.7647 21.0112 35.0746 -9.6338 -6.0320
# 5 -12.9555 -6.2144 -22.1327 -9.6338 39.1176 13.6935
# 6 8.9604 -7.6877 -3.0265 -6.0320 13.6935 15.9818
#
#
#
# Elastic Compliance Matrix: (Units=1/GPa)
#
#
# Indices 1 2 3 4 5 6 
#
# 1 0.014893 -0.001047 -0.001757 -0.005774 0.009040 -0.019111
# 2 -0.001047 0.044304 -0.018119 -0.010687 -0.016063 0.028196
# 3 -0.001757 -0.018119 0.028657 -0.005629 0.018452 -0.020239
# 4 -0.005774 -0.010687 -0.005629 0.041865 -0.001395 0.014027
# 5 0.009040 -0.016063 0.018452 -0.001395 0.056485 -0.058225
# 6 -0.019111 0.028196 -0.020239 0.014027 -0.058225 0.138199
#
#
# Mechanical properties :
#
#
# Convention : Reuss Voigt Hill
#
# Bulk Modulus (GPa) = 21.73531 37.37093 29.55312
# Shear Modulus (GPa) = 13.10320 27.69057 20.39688
#
# Velocity S-wave (km/s) = 2.33194 3.38996 2.90944
# Velocity P-wave (km/s) = 4.03372 5.55262 4.85296
#
# Compressibility (1/GPa) = 0.04600808
#
# Stress axis : x y z
#
# Youngs Moduli (GPa) = 67.14629 22.57127 34.89491
#
# Poissons Ratio (x) = 0.02363 0.06131
# Poissons Ratio (y) = 0.07029 0.63227
# Poissons Ratio (z) = 0.11797 0.40898
#
# Static dielectric constant tensor:
#      x y z
#    x 1.922480 -0.054380 -0.039610 
#    y -0.054380 1.974310 0.063620 
#    z -0.039610 0.063620 2.079820 
# 
# From -- ./inp_files/244044.got.cif
#   From: 2010.05.17/outbox.cif.g08.bks.cpg/sg2_123_cif.got.tgz:244044.got - 2010.06.03 11:33:40.
