data_PCOD9101701
_publ_section_title
;
Structure prediction by ZEFSAII (Michael W. Deem and Ramdas Pophale) SiO2 
 PCOD9101701
Probable space group: P -1
;
_chemical_formula_sum "Si O2"
_cell_formula_units_Z 16
_cell_length_a 11.499928
_cell_length_b 12.847615
_cell_length_c 13.513100
_cell_angle_alpha 37.156256
_cell_angle_beta 107.438723
_cell_angle_gamma 78.480103
_cell_volume 746.255307
_symmetry_space_group_name_H-M "P -1"
_symmetry_group_IT_number 2
_symmetry_cell_setting 'triclinic'
loop_
_space_group_symop_operation_xyz
x,y,z
-x,-y,-z
loop_
_atom_site_type_symbol
_atom_site_label
_atom_site_fract_x
_atom_site_fract_y
_atom_site_fract_z
Si Si1 0.759737 0.365720 0.705910
Si Si2 0.990313 0.427259 0.658773
Si Si3 0.836890 0.237270 0.046036
Si Si4 0.176266 0.115512 0.589128
Si Si5 0.925871 0.267114 0.245169
Si Si6 0.565873 0.163733 0.486744
Si Si7 0.501899 0.170435 0.250770
Si Si8 0.670312 0.112725 0.758211
O O1 0.885592 0.358056 0.680753
O O2 0.862291 0.229403 0.941383
O O3 0.725805 0.226736 0.743332
O O4 0.552737 0.667760 0.445951
O O5 0.868950 0.674794 0.513548
O O6 0.000000 0.500000 0.500000
O O7 0.198469 0.176324 0.945302
O O8 0.618078 0.519935 0.791457
O O9 0.938394 0.253462 0.139290
O O10 0.866750 0.010804 0.263744
O O11 0.044644 0.267362 0.343129
O O12 0.386811 0.887855 0.772720
O O13 0.707558 0.529053 0.019565
O O14 0.000000 0.000000 0.500000
O O15 0.615012 0.107609 0.426017
O O16 0.699004 0.085454 0.667720
O O17 0.513480 0.020764 0.606278
#
# Coordination Sequence:
#
# PCOD9101701 Si02
#       8
#     2   2   2   2   2   2   2   2
#     4  10  22  43  66  87 119 161 202 252 307 362
#     4  12  26  42  62  91 122 155 202 259 310 360
#     4   9  19  38  59  87 122 155 199 246 293 357
#     4  11  22  37  61  88 119 162 200 242 307 361
#     4   9  20  36  58  92 126 155 197 245 292 356
#     4   9  19  37  61  88 120 158 200 244 291 355
#     4  10  20  38  60  88 126 160 197 248 299 353
#     4  10  21  41  65  90 119 159 206 247 301 365
#
# _framework density 21.440384999999999
#
# number of rings (size 3 to 8) (size 9 to 14) (size 15 to 20)
#    0.000    2.000    0.000    3.375    0.000    6.000 
#    0.000   20.625    0.000    0.000    0.000    0.000 
#    0.000    0.000    0.000    0.000    0.000    0.000 
#
# Total GULP energy -89350.690917 kJ/mol
# GULP energy per Si atom -5584.418182 kJ/mol
# Density = 2.139159 g / cm^3
# Si number density = 21.440385 Si / 1000 Ang^3
#
#
#
# Elastic Constant Matrix: (Units=GPa)
#
#
# Indices 1 2 3 4 5 6 
#
# 1 53.9828 19.6744 19.9963 8.9999 2.5838 -18.6114
# 2 19.6744 118.7813 37.1453 18.0021 6.1147 -5.5792
# 3 19.9963 37.1453 110.4630 9.3725 8.4193 -5.1952
# 4 8.9999 18.0021 9.3725 38.4201 -3.1168 3.8267
# 5 2.5838 6.1147 8.4193 -3.1168 25.1428 2.1599
# 6 -18.6114 -5.5792 -5.1952 3.8267 2.1599 26.3415
#
#
#
# Elastic Compliance Matrix: (Units=1/GPa)
#
#
# Indices 1 2 3 4 5 6 
#
# 1 0.028860 -0.001524 -0.002717 -0.007841 -0.004465 0.021038
# 2 -0.001524 0.010285 -0.002608 -0.004132 -0.002100 0.001359
# 3 -0.002717 -0.002608 0.010719 -0.000985 -0.002799 0.000015
# 4 -0.007841 -0.004132 -0.000985 0.031793 0.007096 -0.011810
# 5 -0.004465 -0.002100 -0.002799 0.007096 0.043310 -0.008733
# 6 0.021038 0.001359 0.000015 -0.011810 -0.008733 0.055550
#
#
# Mechanical properties :
#
#
# Convention : Reuss Voigt Hill
#
# Bulk Modulus (GPa) = 27.65000 48.53987 38.09494
# Shear Modulus (GPa) = 24.23998 31.74161 27.99080
#
# Velocity S-wave (km/s) = 3.36605 3.85185 3.61711
# Velocity P-wave (km/s) = 5.29446 6.51697 5.93726
#
# Compressibility (1/GPa) = 0.03616636
#
# Stress axis : x y z
#
# Youngs Moduli (GPa) = 34.64966 97.22840 93.29015
#
# Poissons Ratio (x) = 0.14821 0.25345
# Poissons Ratio (y) = 0.05282 0.24330
# Poissons Ratio (z) = 0.09413 0.25357
#
# Static dielectric constant tensor:
#      x y z
#    x 1.767380 0.002970 0.029650 
#    y 0.002970 1.799390 0.010730 
#    z 0.029650 0.010730 1.772590 
# 
# From -- ./inp_files/427438.got.cif
#   From: 2010.05.17/outbox.cif.g08.bks.cpg/sg2_214_cif.got.tgz:427438.got - 2010.06.03 11:33:40.
