data_PCOD9101086
_publ_section_title
;
Structure prediction by ZEFSAII (Michael W. Deem and Ramdas Pophale) SiO2 
 PCOD9101086
Probable space group: P -1
;
_chemical_formula_sum "Si O2"
_cell_formula_units_Z 16
_cell_length_a 12.263100
_cell_length_b 7.697140
_cell_length_c 12.790121
_cell_angle_alpha 43.465874
_cell_angle_beta 50.177352
_cell_angle_gamma 70.286709
_cell_volume 619.007528
_symmetry_space_group_name_H-M "P -1"
_symmetry_group_IT_number 2
_symmetry_cell_setting 'triclinic'
loop_
_space_group_symop_operation_xyz
x,y,z
-x,-y,-z
loop_
_atom_site_type_symbol
_atom_site_label
_atom_site_fract_x
_atom_site_fract_y
_atom_site_fract_z
Si Si1 0.950916 0.244554 0.710067
Si Si2 0.909927 0.880919 0.709254
Si Si3 0.344116 0.101258 0.267262
Si Si4 0.434090 0.385764 0.393495
Si Si5 0.821079 0.759407 0.243532
Si Si6 0.931651 0.320956 0.996921
Si Si7 0.360044 0.661619 0.115991
Si Si8 0.707634 0.189823 0.366278
O O1 0.782800 0.228428 0.844452
O O2 0.000000 0.500000 0.500000
O O3 0.063914 0.276468 0.721499
O O4 0.969334 0.019091 0.719287
O O5 0.752679 0.937317 0.760032
O O6 0.906867 0.580787 0.848353
O O7 0.000000 0.000000 0.500000
O O8 0.326660 0.376616 0.205791
O O9 0.287685 0.877577 0.484868
O O10 0.512054 0.149892 0.110612
O O11 0.336869 0.393043 0.553294
O O12 0.414995 0.596527 0.226453
O O13 0.597777 0.372098 0.327497
O O14 0.362968 0.099885 0.511547
O O15 0.900860 0.697444 0.117235
O O16 0.834585 0.067455 0.107220
O O17 0.141645 0.703065 0.833858
#
# Coordination Sequence:
#
# PCOD9101086 Si02
#       8
#     2   2   2   2   2   2   2   2
#     4  12  24  42  68  99 133 178 225 283 338 402
#     4  12  27  42  67  96 138 177 226 282 340 401
#     4  10  22  41  65 104 131 176 223 277 337 404
#     4   9  17  32  62  95 127 177 215 273 321 392
#     4  10  21  38  68 100 138 170 228 275 334 407
#     4  10  22  41  66  97 131 176 219 278 337 403
#     4  10  20  37  71  93 137 173 227 272 333 404
#     4   9  19  36  64  94 136 170 223 267 334 401
#
# _framework density 25.847828
#
# number of rings (size 3 to 8) (size 9 to 14) (size 15 to 20)
#    0.000    1.750    1.250    3.000    3.500    9.000 
#    0.000    0.000    0.000    1.500    0.000    0.000 
#    0.000    0.000    0.000    0.000    0.000    0.000 
#
# Total GULP energy -89698.922100 kJ/mol
# GULP energy per Si atom -5606.182631 kJ/mol
# Density = 2.578900 g / cm^3
# Si number density = 25.847828 Si / 1000 Ang^3
#
#
#
# Elastic Constant Matrix: (Units=GPa)
#
#
# Indices 1 2 3 4 5 6 
#
# 1 107.8643 46.6136 46.7007 6.1696 7.2334 -25.0892
# 2 46.6136 144.3401 59.3542 24.0396 3.1766 -11.0566
# 3 46.7007 59.3542 160.4962 31.7388 24.4218 -23.1327
# 4 6.1696 24.0396 31.7388 43.5516 -14.2014 -5.0406
# 5 7.2334 3.1766 24.4218 -14.2014 35.3378 1.3112
# 6 -25.0892 -11.0566 -23.1327 -5.0406 1.3112 39.2087
#
#
#
# Elastic Compliance Matrix: (Units=1/GPa)
#
#
# Indices 1 2 3 4 5 6 
#
# 1 0.012925 -0.003185 -0.001970 0.001967 -0.000448 0.006478
# 2 -0.003185 0.009249 -0.001935 -0.003418 -0.000178 -0.001006
# 3 -0.001970 -0.001935 0.012284 -0.011193 -0.012575 0.004423
# 4 0.001967 -0.003418 -0.011193 0.040299 0.023907 -0.001928
# 5 -0.000448 -0.000178 -0.012575 0.023907 0.046936 -0.006252
# 6 0.006478 -0.001006 0.004423 -0.001928 -0.006252 0.031937
#
#
# Mechanical properties :
#
#
# Convention : Reuss Voigt Hill
#
# Bulk Modulus (GPa) = 49.31923 79.78199 64.55061
# Shear Modulus (GPa) = 28.64203 40.95509 34.79856
#
# Velocity S-wave (km/s) = 3.33243 3.98486 3.67316
# Velocity P-wave (km/s) = 5.82484 7.21839 6.55873
#
# Compressibility (1/GPa) = 0.02027607
#
# Stress axis : x y z
#
# Youngs Moduli (GPa) = 77.37203 108.12251 81.40685
#
# Poissons Ratio (x) = 0.34441 0.16036
# Poissons Ratio (y) = 0.24646 0.15756
# Poissons Ratio (z) = 0.15241 0.20926
#
# Static dielectric constant tensor:
#      x y z
#    x 2.014580 0.111910 -0.044630 
#    y 0.111910 1.908050 0.031290 
#    z -0.044630 0.031290 2.009600 
# 
# From -- ./inp_files/514883.got.cif
#   From: 2010.05.17/outbox.cif.g08.bks.cpg/sg2_258_cif.got.tgz:514883.got - 2010.06.03 11:33:40.
