data_PCOD9101859
_publ_section_title
;
Structure prediction by ZEFSAII (Michael W. Deem and Ramdas Pophale) SiO2 
 PCOD9101859
Probable space group: P -1
;
_chemical_formula_sum "Si O2"
_cell_formula_units_Z 16
_cell_length_a 18.279738
_cell_length_b 5.227980
_cell_length_c 21.981003
_cell_angle_alpha 67.904378
_cell_angle_beta 19.687898
_cell_angle_gamma 61.426742
_cell_volume 601.658979
_symmetry_space_group_name_H-M "P -1"
_symmetry_group_IT_number 2
_symmetry_cell_setting 'triclinic'
loop_
_space_group_symop_operation_xyz
x,y,z
-x,-y,-z
loop_
_atom_site_type_symbol
_atom_site_label
_atom_site_fract_x
_atom_site_fract_y
_atom_site_fract_z
Si Si1 0.241266 0.772120 0.738544
Si Si2 0.076690 0.673943 0.499822
Si Si3 0.946971 0.677195 0.805078
Si Si4 0.533961 0.268776 0.119565
Si Si5 0.480758 0.915425 0.426357
Si Si6 0.311036 0.339303 0.115081
Si Si7 0.808329 0.302758 0.024908
Si Si8 0.345998 0.528334 0.425002
O O1 0.293058 0.846258 0.621926
O O2 0.332712 0.415897 0.706765
O O3 0.391349 0.911743 0.648700
O O4 0.966232 0.964143 0.950600
O O5 0.261169 0.400227 0.340782
O O6 0.210950 0.689105 0.455793
O O7 0.856447 0.605513 0.701035
O O8 0.000000 0.000000 0.500000
O O9 0.862435 0.602831 0.812792
O O10 0.190820 0.694967 0.590294
O O11 0.991364 0.442254 0.845874
O O12 0.707647 0.939744 0.992627
O O13 0.660732 0.310897 0.078515
O O14 0.553536 0.456687 0.028849
O O15 0.368014 0.180349 0.441159
O O16 0.500000 0.000000 0.000000
O O17 0.615573 0.491795 0.208003
#
# Coordination Sequence:
#
# PCOD9101859 Si02
#       8
#     2   2   2   2   2   2   2   2
#     4  10  22  40  69  96 137 175 225 281 337 403
#     4  10  20  40  64  90 129 166 212 270 322 394
#     4  10  22  40  61  90 126 165 220 264 326 392
#     4  10  22  38  63  90 122 171 210 266 324 388
#     4  10  22  42  65 101 132 179 224 279 340 402
#     4  10  20  38  61  84 123 165 208 264 328 388
#     4  10  22  40  64  92 129 171 208 271 326 390
#     4  10  22  42  63  93 129 172 215 269 332 400
#
# _framework density 26.593140999999999
#
# number of rings (size 3 to 8) (size 9 to 14) (size 15 to 20)
#    0.000    2.000    2.500    0.000    1.750    3.500 
#    4.500    0.625    0.000    0.000    0.000    0.000 
#    0.000    0.000    0.000    0.000    0.000    0.000 
#
# Total GULP energy -89479.717692 kJ/mol
# GULP energy per Si atom -5592.482356 kJ/mol
# Density = 2.653261 g / cm^3
# Si number density = 26.593141 Si / 1000 Ang^3
#
#
#
# Elastic Constant Matrix: (Units=GPa)
#
#
# Indices 1 2 3 4 5 6 
#
# 1 87.6949 33.4986 40.0641 -1.9654 19.1094 -11.4934
# 2 33.4986 146.9778 52.2228 25.7318 9.3943 -25.3777
# 3 40.0641 52.2228 231.2430 20.9322 34.3697 -8.2228
# 4 -1.9654 25.7318 20.9322 45.3387 -9.5614 -2.4216
# 5 19.1094 9.3943 34.3697 -9.5614 41.0229 0.8665
# 6 -11.4934 -25.3777 -8.2228 -2.4216 0.8665 40.7551
#
#
#
# Elastic Compliance Matrix: (Units=1/GPa)
#
#
# Indices 1 2 3 4 5 6 
#
# 1 0.014288 -0.002360 -0.001316 0.001716 -0.004666 0.002495
# 2 -0.002360 0.009487 -0.000843 -0.005195 -0.001679 0.004798
# 3 -0.001316 -0.000843 0.005750 -0.003229 -0.004768 0.000174
# 4 0.001716 -0.005195 -0.003229 0.028531 0.009786 -0.001915
# 5 -0.004666 -0.001679 -0.004768 0.009786 0.033283 -0.003449
# 6 0.002495 0.004798 0.000174 -0.001915 -0.003449 0.028223
#
#
# Mechanical properties :
#
#
# Convention : Reuss Voigt Hill
#
# Bulk Modulus (GPa) = 48.81231 79.72075 64.26653
# Shear Modulus (GPa) = 36.91981 48.09868 42.50924
#
# Velocity S-wave (km/s) = 3.73006 4.25748 4.00247
# Velocity P-wave (km/s) = 6.07834 7.36283 6.75120
#
# Compressibility (1/GPa) = 0.02048664
#
# Stress axis : x y z
#
# Youngs Moduli (GPa) = 69.98876 105.41239 173.91528
#
# Poissons Ratio (x) = 0.24881 0.22879
# Poissons Ratio (y) = 0.16520 0.14662
# Poissons Ratio (z) = 0.09207 0.08887
#
# Static dielectric constant tensor:
#      x y z
#    x 2.132850 0.104240 0.001240 
#    y 0.104240 1.921260 -0.115500 
#    z 0.001240 -0.115500 2.080510 
# 
# From -- ./inp_files/53852.got.cif
#   From: 2010.05.17/outbox.cif.g08.bks.cpg/sg2_27_cif.got.tgz:53852.got - 2010.06.03 11:33:40.
