data_PCOD9101112
_publ_section_title
;
Structure prediction by ZEFSAII (Michael W. Deem and Ramdas Pophale) SiO2 
 PCOD9101112
Probable space group: P -1
;
_chemical_formula_sum "Si O2"
_cell_formula_units_Z 15
_cell_length_a 10.851668
_cell_length_b 5.447868
_cell_length_c 11.571067
_cell_angle_alpha 92.209541
_cell_angle_beta 57.584818
_cell_angle_gamma 74.501235
_cell_volume 542.403779
_symmetry_space_group_name_H-M "P -1"
_symmetry_group_IT_number 2
_symmetry_cell_setting 'triclinic'
loop_
_space_group_symop_operation_xyz
x,y,z
-x,-y,-z
loop_
_atom_site_type_symbol
_atom_site_label
_atom_site_fract_x
_atom_site_fract_y
_atom_site_fract_z
Si Si1 0.967931 0.399074 0.218917
Si Si2 0.273228 0.542921 0.458950
Si Si3 0.296409 0.867024 0.107169
Si Si4 0.000000 0.000000 0.000000
Si Si5 0.251556 0.124507 0.781218
Si Si6 0.320339 0.020364 0.483305
Si Si7 0.388580 0.307043 0.930608
Si Si8 0.947522 0.267250 0.644124
O O1 0.071580 0.485147 0.260503
O O2 0.818847 0.408875 0.371171
O O3 0.914480 0.649370 0.163233
O O4 0.032889 0.152522 0.100470
O O5 0.371564 0.237112 0.397194
O O6 0.143199 0.628407 0.426222
O O7 0.377039 0.723124 0.413718
O O8 0.429009 0.770732 0.137503
O O9 0.134811 0.916070 0.257019
O O10 0.319628 0.608819 0.012136
O O11 0.334842 0.101009 0.030258
O O12 0.814278 0.085060 0.134435
O O13 0.331815 0.044289 0.615914
O O14 0.335613 0.252673 0.830063
O O15 0.133283 0.121502 0.546473
#
# Coordination Sequence:
#
# PCOD9101112 Si02
#       8
#     2   2   2   1   2   2   2   2
#     4  10  22  35  50  90 115 154 185 232 290 343
#     4  10  20  38  54  82 119 153 186 232 283 338
#     4  10  23  40  57  86 105 154 197 235 282 339
#     4  12  20  32  54  82 120 144 192 222 288 352
#     4  10  22  33  55  80 117 150 182 236 288 349
#     4  10  21  35  54  87 116 148 186 227 293 340
#     4  10  23  40  59  78 120 146 189 240 291 334
#     4  10  21  37  60  80 117 149 198 234 276 343
#
# _framework density 27.654674
#
# number of rings (size 3 to 8) (size 9 to 14) (size 15 to 20)
#    0.000    2.133    1.333    3.200    5.600    3.200 
#    0.000    0.000    0.000    4.000    0.000    0.000 
#    0.000    0.000    0.000    0.000    0.000    0.000 
#
# Total GULP energy -83800.677344 kJ/mol
# GULP energy per Si atom -5586.711823 kJ/mol
# Density = 2.759173 g / cm^3
# Si number density = 27.654674 Si / 1000 Ang^3
#
#
#
# Elastic Constant Matrix: (Units=GPa)
#
#
# Indices 1 2 3 4 5 6 
#
# 1 102.7111 39.7386 37.9926 15.7038 24.8703 29.0803
# 2 39.7386 167.7168 32.7403 -5.5524 15.4845 34.7726
# 3 37.9926 32.7403 74.4765 2.4405 14.4663 18.0406
# 4 15.7038 -5.5524 2.4405 30.5686 11.3448 11.7818
# 5 24.8703 15.4845 14.4663 11.3448 64.9174 6.3707
# 6 29.0803 34.7726 18.0406 11.7818 6.3707 42.9079
#
#
#
# Elastic Compliance Matrix: (Units=1/GPa)
#
#
# Indices 1 2 3 4 5 6 
#
# 1 0.015037 -0.001337 -0.005062 -0.004388 -0.003024 -0.005325
# 2 -0.001337 0.008162 -0.001242 0.005281 -0.001451 -0.006421
# 3 -0.005062 -0.001242 0.017682 0.003031 -0.001886 -0.003550
# 4 -0.004388 0.005281 0.003031 0.043301 -0.006496 -0.013506
# 5 -0.003024 -0.001451 -0.001886 -0.006496 0.018160 0.003106
# 6 -0.005325 -0.006421 -0.003550 -0.013506 0.003106 0.036858
#
#
# Mechanical properties :
#
#
# Convention : Reuss Voigt Hill
#
# Bulk Modulus (GPa) = 39.06311 62.87191 50.96751
# Shear Modulus (GPa) = 30.67242 43.30764 36.99003
#
# Velocity S-wave (km/s) = 3.33396 3.96158 3.66125
# Velocity P-wave (km/s) = 5.38297 6.61132 6.02851
#
# Compressibility (1/GPa) = 0.02559960
#
# Stress axis : x y z
#
# Youngs Moduli (GPa) = 66.50467 122.52519 56.55442
#
# Poissons Ratio (x) = 0.16376 0.28627
# Poissons Ratio (y) = 0.08889 0.07024
# Poissons Ratio (z) = 0.33663 0.15217
#
# Static dielectric constant tensor:
#      x y z
#    x 2.213430 -0.075490 -0.006610 
#    y -0.075490 2.374180 -0.183400 
#    z -0.006610 -0.183400 2.296050 
# 
# From -- ./inp_files/408332.got.cif
#   From: 2010.05.17/outbox.cif.g08.bks.cpg/sg2_205_cif.got.tgz:408332.got - 2010.06.03 11:33:40.
