data_PCOD9101952
_publ_section_title
;
Structure prediction by ZEFSAII (Michael W. Deem and Ramdas Pophale) SiO2 
 PCOD9101952
Probable space group: P -1
;
_chemical_formula_sum "Si O2"
_cell_formula_units_Z 16
_cell_length_a 9.201627
_cell_length_b 15.379075
_cell_length_c 16.886627
_cell_angle_alpha 36.848516
_cell_angle_beta 26.897474
_cell_angle_gamma 50.621180
_cell_volume 620.075717
_symmetry_space_group_name_H-M "P -1"
_symmetry_group_IT_number 2
_symmetry_cell_setting 'triclinic'
loop_
_space_group_symop_operation_xyz
x,y,z
-x,-y,-z
loop_
_atom_site_type_symbol
_atom_site_label
_atom_site_fract_x
_atom_site_fract_y
_atom_site_fract_z
Si Si1 0.477173 0.665799 0.178367
Si Si2 0.988402 0.286163 0.427095
Si Si3 0.585010 0.438241 0.418591
Si Si4 0.265285 0.120000 0.976362
Si Si5 0.704073 0.581930 0.668281
Si Si6 0.604391 0.891669 0.463599
Si Si7 0.992214 0.164161 0.914096
Si Si8 0.311464 0.064763 0.356668
O O1 0.616908 0.569400 0.245700
O O2 0.680630 0.830247 0.993920
O O3 0.501629 0.579360 0.148918
O O4 0.076995 0.636869 0.406280
O O5 0.881328 0.364948 0.345661
O O6 0.636386 0.180760 0.713170
O O7 0.186873 0.416193 0.295208
O O8 0.214009 0.177541 0.381714
O O9 0.500000 0.500000 0.500000
O O10 0.271077 0.301233 0.641422
O O11 0.059151 0.184120 0.962282
O O12 0.013856 0.951091 0.219720
O O13 0.521999 0.713216 0.648775
O O14 0.500000 0.000000 0.500000
O O15 0.435426 0.935890 0.434632
O O16 0.616304 0.160978 0.084662
O O17 0.000000 0.000000 0.000000
O O18 0.000000 0.000000 0.500000
#
# Coordination Sequence:
#
# PCOD9101952 Si02
#       8
#     2   2   2   2   2   2   2   2
#     4  10  21  38  63  90 124 160 212 248 303 368
#     4  10  20  38  61  88 124 157 203 255 307 360
#     4  11  19  38  66  88 120 164 208 249 305 368
#     4   9  20  38  62  89 116 163 209 254 300 370
#     4  10  21  38  59  93 120 162 201 256 302 365
#     4  11  23  41  64  87 125 164 205 256 319 358
#     4  10  21  37  62  94 120 160 205 255 309 369
#     4  11  23  40  59  91 130 155 199 265 314 362
#
# _framework density 25.803301000000001
#
# number of rings (size 3 to 8) (size 9 to 14) (size 15 to 20)
#    0.000    1.750    5.000    1.500    5.250    2.000 
#    0.000    2.500    2.750    0.000    0.000    0.000 
#    0.000    0.000    0.000    0.000    0.000    0.000 
#
# Total GULP energy -89394.278620 kJ/mol
# GULP energy per Si atom -5587.142414 kJ/mol
# Density = 2.574457 g / cm^3
# Si number density = 25.803301 Si / 1000 Ang^3
#
#
#
# Elastic Constant Matrix: (Units=GPa)
#
#
# Indices 1 2 3 4 5 6 
#
# 1 110.3777 38.8068 26.8746 -5.5616 -35.5123 -11.7609
# 2 38.8068 112.2813 27.9818 1.0975 -11.8144 -10.7009
# 3 26.8746 27.9818 44.4506 -3.7825 -29.2041 5.0708
# 4 -5.5616 1.0975 -3.7825 29.0740 3.6250 -4.4725
# 5 -35.5123 -11.8144 -29.2041 3.6250 37.7013 -8.9428
# 6 -11.7609 -10.7009 5.0708 -4.4725 -8.9428 51.6766
#
#
#
# Elastic Compliance Matrix: (Units=1/GPa)
#
#
# Indices 1 2 3 4 5 6 
#
# 1 0.016159 -0.004276 0.004757 0.002428 0.018702 0.005772
# 2 -0.004276 0.012330 -0.010733 -0.001503 -0.008072 0.001106
# 3 0.004757 -0.010733 0.055466 0.003239 0.044086 0.001327
# 4 0.002428 -0.001503 0.003239 0.035635 0.001680 0.003298
# 5 0.018702 -0.008072 0.044086 0.001680 0.078441 0.011979
# 6 0.005772 0.001106 0.001327 0.003298 0.011979 0.023122
#
#
# Mechanical properties :
#
#
# Convention : Reuss Voigt Hill
#
# Bulk Modulus (GPa) = 15.76028 50.49285 33.12657
# Shear Modulus (GPa) = 19.02527 35.25348 27.13937
#
# Velocity S-wave (km/s) = 2.71831 3.70028 3.24663
# Velocity P-wave (km/s) = 3.99667 6.15361 5.18846
#
# Compressibility (1/GPa) = 0.06345063
#
# Stress axis : x y z
#
# Youngs Moduli (GPa) = 61.88384 81.10344 18.02900
#
# Poissons Ratio (x) = 0.34683 -0.08577
# Poissons Ratio (y) = 0.26464 0.19351
# Poissons Ratio (z) = -0.29441 0.87052
#
# Static dielectric constant tensor:
#      x y z
#    x 2.094870 0.075930 0.063970 
#    y 0.075930 2.209050 -0.036720 
#    z 0.063970 -0.036720 2.082030 
# 
# From -- ./inp_files/416386.got.cif
#   From: 2010.05.17/outbox.cif.g08.bks.cpg/sg2_209_cif.got.tgz:416386.got - 2010.06.03 11:33:40.
