data_PCOD9101436
_publ_section_title
;
Structure prediction by ZEFSAII (Michael W. Deem and Ramdas Pophale) SiO2 
 PCOD9101436
Probable space group: P -1
;
_chemical_formula_sum "Si O2"
_cell_formula_units_Z 16
_cell_length_a 5.322115
_cell_length_b 9.123970
_cell_length_c 18.954565
_cell_angle_alpha 75.459071
_cell_angle_beta 113.195644
_cell_angle_gamma 127.571007
_cell_volume 670.470947
_symmetry_space_group_name_H-M "P -1"
_symmetry_group_IT_number 2
_symmetry_cell_setting 'triclinic'
loop_
_space_group_symop_operation_xyz
x,y,z
-x,-y,-z
loop_
_atom_site_type_symbol
_atom_site_label
_atom_site_fract_x
_atom_site_fract_y
_atom_site_fract_z
Si Si1 0.375949 0.202498 0.159296
Si Si2 0.461256 0.603835 0.329891
Si Si3 0.177201 0.798264 0.986377
Si Si4 0.749095 0.791977 0.689980
Si Si5 0.279993 0.583418 0.460192
Si Si6 0.214019 0.511225 0.929321
Si Si7 0.468429 0.918964 0.249929
Si Si8 0.237960 0.886968 0.384295
O O1 0.299582 0.205063 0.232063
O O2 0.698140 0.404051 0.148806
O O3 0.103593 0.181344 0.078714
O O4 0.394879 0.027875 0.173594
O O5 0.407761 0.416570 0.322875
O O6 0.197714 0.544995 0.371889
O O7 0.431019 0.728944 0.254277
O O8 0.848327 0.749698 0.380145
O O9 0.192854 0.660982 0.951782
O O10 0.100178 0.693981 0.065115
O O11 0.500000 0.000000 0.000000
O O12 0.147419 0.922979 0.705938
O O13 0.621553 0.898098 0.619475
O O14 0.500000 0.500000 0.500000
O O15 0.000000 0.500000 0.500000
O O16 0.426730 0.803021 0.448939
O O17 0.500000 0.500000 0.000000
O O18 0.252294 0.873659 0.302348
#
# Coordination Sequence:
#
# PCOD9101436 Si02
#       8
#     2   2   2   2   2   2   2   2
#     4  10  20  38  59  85 126 159 206 262 328 389
#     4  10  21  40  66  92 126 171 219 266 332 379
#     4  10  21  40  62  85 118 163 207 258 324 385
#     4  10  21  40  63  92 124 169 215 270 322 392
#     4  11  21  39  67  96 136 179 221 274 327 391
#     4   9  20  39  58  83 117 155 192 261 315 376
#     4   9  20  38  59  86 126 165 205 269 322 380
#     4   9  20  39  63  89 130 169 211 274 323 372
#
# _framework density 23.863824999999999
#
# number of rings (size 3 to 8) (size 9 to 14) (size 15 to 20)
#    0.000    2.250    1.250    0.750    0.000    6.000 
#    0.000   31.250    0.000    0.000    0.000    0.000 
#    0.000    0.000    0.000    0.000    0.000    0.000 
#
# Total GULP energy -89180.549829 kJ/mol
# GULP energy per Si atom -5573.784364 kJ/mol
# Density = 2.380951 g / cm^3
# Si number density = 23.863825 Si / 1000 Ang^3
#
#
#
# Elastic Constant Matrix: (Units=GPa)
#
#
# Indices 1 2 3 4 5 6 
#
# 1 93.7707 38.3798 48.5870 -34.2426 4.4316 -5.7153
# 2 38.3798 161.6829 68.0147 -59.7174 12.8629 -14.1007
# 3 48.5870 68.0147 133.0910 -60.2175 11.0272 -11.8177
# 4 -34.2426 -59.7174 -60.2175 55.0290 -11.3329 9.8469
# 5 4.4316 12.8629 11.0272 -11.3329 48.1297 -28.5053
# 6 -5.7153 -14.1007 -11.8177 9.8469 -28.5053 35.2648
#
#
#
# Elastic Compliance Matrix: (Units=1/GPa)
#
#
# Indices 1 2 3 4 5 6 
#
# 1 0.014193 -0.000100 -0.002312 0.006310 0.001097 0.000610
# 2 -0.000100 0.010389 -0.000352 0.010694 0.000851 0.001722
# 3 -0.002312 -0.000352 0.015322 0.014934 0.001111 0.001347
# 4 0.006310 0.010694 0.014934 0.051087 0.005414 0.000415
# 5 0.001097 0.000851 0.001111 0.005414 0.040481 0.032100
# 6 0.000610 0.001722 0.001347 0.000415 0.032100 0.055427
#
#
# Mechanical properties :
#
#
# Convention : Reuss Voigt Hill
#
# Bulk Modulus (GPa) = 29.08961 77.61194 53.35077
# Shear Modulus (GPa) = 24.52372 43.25557 33.88965
#
# Velocity S-wave (km/s) = 3.20918 4.26208 3.77254
# Velocity P-wave (km/s) = 5.09393 7.53750 6.43281
#
# Compressibility (1/GPa) = 0.03437654
#
# Stress axis : x y z
#
# Youngs Moduli (GPa) = 70.45864 96.25597 65.26601
#
# Poissons Ratio (x) = 0.00962 0.15089
# Poissons Ratio (y) = 0.00704 0.02295
# Poissons Ratio (z) = 0.16290 0.03385
#
# Static dielectric constant tensor:
#      x y z
#    x 2.013160 -0.011210 0.034040 
#    y -0.011210 1.916470 0.027950 
#    z 0.034040 0.027950 1.947540 
# 
# From -- ./inp_files/55399.got.cif
#   From: 2010.05.17/outbox.cif.g08.bks.cpg/sg2_28_cif.got.tgz:55399.got - 2010.06.03 11:33:40.
