data_PCOD9101981
_publ_section_title
;
Structure prediction by ZEFSAII (Michael W. Deem and Ramdas Pophale) SiO2 
 PCOD9101981
Probable space group: P -1
;
_chemical_formula_sum "Si O2"
_cell_formula_units_Z 16
_cell_length_a 9.375958
_cell_length_b 13.188343
_cell_length_c 13.125276
_cell_angle_alpha 43.134046
_cell_angle_beta 79.768178
_cell_angle_gamma 110.988652
_cell_volume 752.104358
_symmetry_space_group_name_H-M "P -1"
_symmetry_group_IT_number 2
_symmetry_cell_setting 'triclinic'
loop_
_space_group_symop_operation_xyz
x,y,z
-x,-y,-z
loop_
_atom_site_type_symbol
_atom_site_label
_atom_site_fract_x
_atom_site_fract_y
_atom_site_fract_z
Si Si1 0.299817 0.956949 0.541792
Si Si2 0.070534 0.076512 0.756251
Si Si3 0.861898 0.531610 0.537125
Si Si4 0.062985 0.658845 0.964650
Si Si5 0.910025 0.580368 0.736836
Si Si6 0.723545 0.585075 0.184276
Si Si7 0.722372 0.738354 0.622761
Si Si8 0.491511 0.666342 0.407807
O O1 0.200525 0.876786 0.726606
O O2 0.147018 0.777287 0.606010
O O3 0.500000 0.000000 0.500000
O O4 0.316267 0.146085 0.387312
O O5 0.072205 0.250503 0.663121
O O6 0.111676 0.115543 0.599563
O O7 0.268722 0.129976 0.737786
O O8 0.862982 0.836213 0.994169
O O9 0.623538 0.336987 0.667486
O O10 0.000000 0.500000 0.500000
O O11 0.884574 0.550117 0.642035
O O12 0.000000 0.500000 0.000000
O O13 0.176145 0.636517 0.046807
O O14 0.862219 0.586094 0.092420
O O15 0.795941 0.646033 0.739664
O O16 0.498625 0.458347 0.259326
O O17 0.666271 0.447852 0.392213
O O18 0.500000 0.500000 0.500000
#
# Coordination Sequence:
#
# PCOD9101981 Si02
#       8
#     2   2   2   2   2   2   2   2
#     4  11  22  41  65  91 126 173 213 259 322 386
#     4   9  20  38  63  95 122 167 216 251 311 391
#     4  10  20  38  61  89 129 162 206 265 328 363
#     4  10  21  39  61  93 125 164 219 253 310 392
#     4  10  22  40  61  91 131 163 210 269 316 381
#     4  11  20  39  68  93 129 169 216 261 310 382
#     4  10  20  39  64  95 132 162 205 267 316 373
#     4   9  20  37  63  90 123 168 212 256 311 375
#
# _framework density 21.273644000000001
#
# number of rings (size 3 to 8) (size 9 to 14) (size 15 to 20)
#    0.000    2.000    1.250    3.375    0.000    3.000 
#    4.500    3.125    0.000   12.000    0.000    0.000 
#    0.000    0.000    0.000    0.000    0.000    0.000 
#
# Total GULP energy -89190.294003 kJ/mol
# GULP energy per Si atom -5574.393375 kJ/mol
# Density = 2.122522 g / cm^3
# Si number density = 21.273644 Si / 1000 Ang^3
#
#
#
# Elastic Constant Matrix: (Units=GPa)
#
#
# Indices 1 2 3 4 5 6 
#
# 1 116.4599 18.1066 9.2164 16.7113 5.3521 -4.6751
# 2 18.1066 54.2831 11.3493 11.3847 -3.3704 5.2618
# 3 9.2164 11.3493 56.5897 0.7005 -1.9611 7.0227
# 4 16.7113 11.3847 0.7005 16.8550 -8.1473 1.3584
# 5 5.3521 -3.3704 -1.9611 -8.1473 24.8056 1.1300
# 6 -4.6751 5.2618 7.0227 1.3584 1.1300 50.4842
#
#
#
# Elastic Compliance Matrix: (Units=1/GPa)
#
#
# Indices 1 2 3 4 5 6 
#
# 1 0.011385 -0.001045 -0.001976 -0.014308 -0.007545 0.001992
# 2 -0.001045 0.022793 -0.004099 -0.014966 -0.001851 -0.001458
# 3 -0.001976 -0.004099 0.019191 0.005793 0.003410 -0.002658
# 4 -0.014308 -0.014966 0.005793 0.100482 0.034699 -0.004051
# 5 -0.007545 -0.001851 0.003410 0.034699 0.053498 -0.003111
# 6 0.001992 -0.001458 -0.002658 -0.004051 -0.003111 0.020693
#
#
# Mechanical properties :
#
#
# Convention : Reuss Voigt Hill
#
# Bulk Modulus (GPa) = 25.55678 33.85303 29.70491
# Shear Modulus (GPa) = 19.58280 31.00633 25.29456
#
# Velocity S-wave (km/s) = 3.03730 3.82186 3.45194
# Velocity P-wave (km/s) = 4.93352 5.95174 5.46639
#
# Compressibility (1/GPa) = 0.03912856
#
# Stress axis : x y z
#
# Youngs Moduli (GPa) = 87.83253 43.87358 52.10718
#
# Poissons Ratio (x) = 0.04586 0.10297
# Poissons Ratio (y) = 0.09182 0.21358
# Poissons Ratio (z) = 0.17357 0.17983
#
# Static dielectric constant tensor:
#      x y z
#    x 1.783220 0.008790 0.033250 
#    y 0.008790 1.854990 0.015250 
#    z 0.033250 0.015250 1.855920 
# 
# From -- ./inp_files/505267.got.cif
#   From: 2010.05.17/outbox.cif.g08.bks.cpg/sg2_253_cif.got.tgz:505267.got - 2010.06.03 11:33:40.
