data_PCOD9101746
_publ_section_title
;
Structure prediction by ZEFSAII (Michael W. Deem and Ramdas Pophale) SiO2 
 PCOD9101746
Probable space group: P -1
;
_chemical_formula_sum "Si O2"
_cell_formula_units_Z 16
_cell_length_a 22.452216
_cell_length_b 8.248413
_cell_length_c 19.132300
_cell_angle_alpha 48.974965
_cell_angle_beta 18.469781
_cell_angle_gamma 41.301595
_cell_volume 713.655023
_symmetry_space_group_name_H-M "P -1"
_symmetry_group_IT_number 2
_symmetry_cell_setting 'triclinic'
loop_
_space_group_symop_operation_xyz
x,y,z
-x,-y,-z
loop_
_atom_site_type_symbol
_atom_site_label
_atom_site_fract_x
_atom_site_fract_y
_atom_site_fract_z
Si Si1 0.289993 0.438482 0.303859
Si Si2 0.771976 0.189360 0.852717
Si Si3 0.292265 0.653864 0.526926
Si Si4 0.805259 0.346719 0.507170
Si Si5 0.460219 0.740508 0.520889
Si Si6 0.990457 0.795748 0.280000
Si Si7 0.965138 0.720340 0.178826
Si Si8 0.120544 0.377150 0.974162
O O1 0.260597 0.579902 0.224161
O O2 0.273745 0.614708 0.336763
O O3 0.102359 0.375483 0.541934
O O4 0.542299 0.198538 0.099705
O O5 0.839589 0.222160 0.845928
O O6 0.969661 0.927858 0.673787
O O7 0.352381 0.643620 0.382025
O O8 0.448097 0.392134 0.468306
O O9 0.041860 0.704759 0.792842
O O10 0.233840 0.915383 0.553880
O O11 0.845457 0.573345 0.379448
O O12 0.500000 0.500000 0.500000
O O13 0.218877 0.992845 0.720101
O O14 0.626787 0.808999 0.278687
O O15 0.079293 0.732082 0.119748
O O16 0.107703 0.565188 0.996237
O O17 0.000000 0.500000 0.000000
#
# Coordination Sequence:
#
# PCOD9101746 Si02
#       8
#     2   2   2   2   2   2   2   2
#     4  10  21  39  66  88 115 162 195 238 309 367
#     4  10  21  40  62  90 121 153 198 243 304 363
#     4   9  19  38  55  84 117 153 199 246 291 342
#     4   9  20  37  59  87 121 151 197 250 295 354
#     4  11  21  38  58  83 117 157 200 245 289 345
#     4  10  20  38  60  90 124 150 201 250 296 351
#     4  10  21  37  59  85 118 158 201 239 300 350
#     4   9  21  38  58  79 114 156 199 251 292 341
#
# _framework density 22.419796999999999
#
# number of rings (size 3 to 8) (size 9 to 14) (size 15 to 20)
#    0.000    2.250    1.250    0.750    0.000   11.000 
#    2.250    5.000    0.000   13.500    0.000    0.000 
#    0.000    0.000    0.000    0.000    0.000    0.000 
#
# Total GULP energy -89227.996406 kJ/mol
# GULP energy per Si atom -5576.749775 kJ/mol
# Density = 2.236877 g / cm^3
# Si number density = 22.419797 Si / 1000 Ang^3
#
#
#
# Elastic Constant Matrix: (Units=GPa)
#
#
# Indices 1 2 3 4 5 6 
#
# 1 147.9477 26.8315 19.7497 16.6247 15.5181 -14.9639
# 2 26.8315 57.5505 11.7433 8.1603 -8.9024 -7.3678
# 3 19.7497 11.7433 54.6223 11.4119 -2.9530 -12.1465
# 4 16.6247 8.1603 11.4119 27.1878 1.2219 -1.2367
# 5 15.5181 -8.9024 -2.9530 1.2219 25.2397 6.8504
# 6 -14.9639 -7.3678 -12.1465 -1.2367 6.8504 26.6680
#
#
#
# Elastic Compliance Matrix: (Units=1/GPa)
#
#
# Indices 1 2 3 4 5 6 
#
# 1 0.009628 -0.004440 -0.000981 -0.003469 -0.009030 0.005888
# 2 -0.004440 0.021928 -0.001822 -0.003577 0.010455 -0.000114
# 3 -0.000981 -0.001822 0.022710 -0.008016 0.000629 0.008757
# 4 -0.003469 -0.003577 -0.008016 0.043188 -0.000982 -0.004331
# 5 -0.009030 0.010455 0.000629 -0.000982 0.053217 -0.015608
# 6 0.005888 -0.000114 0.008757 -0.004331 -0.015608 0.048567
#
#
# Mechanical properties :
#
#
# Convention : Reuss Voigt Hill
#
# Bulk Modulus (GPa) = 25.13798 41.86328 33.50063
# Shear Modulus (GPa) = 22.02818 29.27217 25.65018
#
# Velocity S-wave (km/s) = 3.13794 3.61728 3.38610
# Velocity P-wave (km/s) = 4.93615 6.01326 5.50113
#
# Compressibility (1/GPa) = 0.03978045
#
# Stress axis : x y z
#
# Youngs Moduli (GPa) = 103.86635 45.60471 44.03395
#
# Poissons Ratio (x) = 0.20247 0.04318
# Poissons Ratio (y) = 0.46114 0.08022
# Poissons Ratio (z) = 0.10186 0.08309
#
# Static dielectric constant tensor:
#      x y z
#    x 1.943850 0.014240 -0.008390 
#    y 0.014240 1.850600 -0.017540 
#    z -0.008390 -0.017540 1.856600 
# 
# From -- ./inp_files/326764.got.cif
#   From: 2010.05.17/outbox.cif.g08.bks.cpg/sg2_164_cif.got.tgz:326764.got - 2010.06.03 11:33:40.
