data_PCOD9101010
_publ_section_title
;
Structure prediction by ZEFSAII (Michael W. Deem and Ramdas Pophale) SiO2 
 PCOD9101010
Probable space group: P -1
;
_chemical_formula_sum "Si O2"
_cell_formula_units_Z 16
_cell_length_a 16.043002
_cell_length_b 8.683615
_cell_length_c 8.354236
_cell_angle_alpha 34.561370
_cell_angle_beta 70.780510
_cell_angle_gamma 78.434849
_cell_volume 617.994224
_symmetry_space_group_name_H-M "P -1"
_symmetry_group_IT_number 2
_symmetry_cell_setting 'triclinic'
loop_
_space_group_symop_operation_xyz
x,y,z
-x,-y,-z
loop_
_atom_site_type_symbol
_atom_site_label
_atom_site_fract_x
_atom_site_fract_y
_atom_site_fract_z
Si Si1 0.086652 0.748807 0.523284
Si Si2 0.460082 0.190292 0.235762
Si Si3 0.228123 0.194976 0.655108
Si Si4 0.570500 0.302330 0.565533
Si Si5 0.719975 0.224396 0.798656
Si Si6 0.813098 0.134838 0.346752
Si Si7 0.702057 0.627363 0.947976
Si Si8 0.046879 0.176300 0.962141
O O1 0.183522 0.762849 0.359755
O O2 0.106703 0.723230 0.719061
O O3 0.023819 0.480424 0.730908
O O4 0.042313 0.007125 0.272751
O O5 0.500000 0.000000 0.500000
O O6 0.466015 0.993492 0.240717
O O7 0.500000 0.500000 0.000000
O O8 0.356591 0.232986 0.266082
O O9 0.271834 0.501482 0.335208
O O10 0.150183 0.215000 0.814315
O O11 0.179536 0.041938 0.665261
O O12 0.294531 0.025624 0.854394
O O13 0.500000 0.500000 0.500000
O O14 0.640662 0.238100 0.711973
O O15 0.628540 0.498259 0.232304
O O16 0.757783 0.374012 0.118339
O O17 0.769728 0.900948 0.701542
O O18 0.000000 0.000000 0.000000
#
# Coordination Sequence:
#
# PCOD9101010 Si02
#       8
#     2   2   2   2   2   2   2   2
#     4  10  20  37  68  92 128 180 215 263 324 398
#     4  12  25  47  66  92 129 174 217 278 362 418
#     4  10  24  41  66  99 132 168 223 277 323 398
#     4  12  28  46  70 100 133 175 233 293 348 416
#     4  10  22  43  64  92 129 169 224 273 336 395
#     4  12  23  42  70  97 128 175 230 274 333 401
#     4  12  24  44  68  90 131 172 224 284 341 401
#     4  10  21  40  65  99 137 175 213 264 328 394
#
# _framework density 25.890208000000001
#
# number of rings (size 3 to 8) (size 9 to 14) (size 15 to 20)
#    0.000    1.000    3.750    1.875    5.250    3.500 
#    2.250    1.250    0.000    0.000    0.000    0.000 
#    0.000    0.000    0.000    0.000    0.000    0.000 
#
# Total GULP energy -89318.668257 kJ/mol
# GULP energy per Si atom -5582.416766 kJ/mol
# Density = 2.583128 g / cm^3
# Si number density = 25.890208 Si / 1000 Ang^3
#
#
#
# Elastic Constant Matrix: (Units=GPa)
#
#
# Indices 1 2 3 4 5 6 
#
# 1 38.0385 17.8877 27.9108 -1.4767 14.7618 -1.4520
# 2 17.8877 111.8403 37.1963 -27.5535 3.3636 4.2333
# 3 27.9108 37.1963 154.0270 -29.7800 18.2580 1.3631
# 4 -1.4767 -27.5535 -29.7800 50.5702 10.8305 2.0817
# 5 14.7618 3.3636 18.2580 10.8305 35.2583 -1.9430
# 6 -1.4520 4.2333 1.3631 2.0817 -1.9430 43.1361
#
#
#
# Elastic Compliance Matrix: (Units=1/GPa)
#
#
# Indices 1 2 3 4 5 6 
#
# 1 0.036188 -0.004366 -0.004361 -0.001379 -0.011981 0.001311
# 2 -0.004366 0.011416 -0.000717 0.005904 -0.000790 -0.001565
# 3 -0.004361 -0.000717 0.009170 0.005929 -0.004723 -0.000865
# 4 -0.001379 0.005904 0.005929 0.029162 -0.012167 -0.002769
# 5 -0.011981 -0.000790 -0.004723 -0.012167 0.039758 0.002201
# 6 0.001311 -0.001565 -0.000865 -0.002769 0.002201 0.023640
#
#
# Mechanical properties :
#
#
# Convention : Reuss Voigt Hill
#
# Bulk Modulus (GPa) = 26.39571 52.21061 39.30316
# Shear Modulus (GPa) = 27.64714 40.52031 34.08372
#
# Velocity S-wave (km/s) = 3.27136 3.96040 3.63226
# Velocity P-wave (km/s) = 4.94838 6.41272 5.72754
#
# Compressibility (1/GPa) = 0.03788494
#
# Stress axis : x y z
#
# Youngs Moduli (GPa) = 27.63319 87.60011 109.05650
#
# Poissons Ratio (x) = 0.38250 0.47561
# Poissons Ratio (y) = 0.12066 0.07815
# Poissons Ratio (z) = 0.12051 0.06278
#
# Static dielectric constant tensor:
#      x y z
#    x 2.098920 -0.012840 -0.118430 
#    y -0.012840 2.082320 0.047730 
#    z -0.118430 0.047730 2.076130 
# 
# From -- ./inp_files/328285.got.cif
#   From: 2010.05.17/outbox.cif.g08.bks.cpg/sg2_165_cif.got.tgz:328285.got - 2010.06.03 11:33:40.
