data_PCOD9101703
_publ_section_title
;
Structure prediction by ZEFSAII (Michael W. Deem and Ramdas Pophale) SiO2 
 PCOD9101703
Probable space group: P -1
;
_chemical_formula_sum "Si O2"
_cell_formula_units_Z 15
_cell_length_a 7.865739
_cell_length_b 20.773453
_cell_length_c 5.004776
_cell_angle_alpha 100.166383
_cell_angle_beta 88.777194
_cell_angle_gamma 134.898679
_cell_volume 563.893420
_symmetry_space_group_name_H-M "P -1"
_symmetry_group_IT_number 2
_symmetry_cell_setting 'triclinic'
loop_
_space_group_symop_operation_xyz
x,y,z
-x,-y,-z
loop_
_atom_site_type_symbol
_atom_site_label
_atom_site_fract_x
_atom_site_fract_y
_atom_site_fract_z
Si Si1 0.500000 0.500000 0.500000
Si Si2 0.740707 0.829829 0.018024
Si Si3 0.306197 0.307509 0.431225
Si Si4 0.328513 0.815588 0.903606
Si Si5 0.760692 0.131801 0.528733
Si Si6 0.025905 0.935832 0.577143
Si Si7 0.776909 0.444530 0.763545
Si Si8 0.029829 0.393786 0.441304
O O1 0.390466 0.396817 0.342758
O O2 0.245822 0.434936 0.664565
O O3 0.647725 0.740221 0.805540
O O4 0.543447 0.832425 0.033881
O O5 0.949547 0.912341 0.869339
O O6 0.839324 0.846804 0.321903
O O7 0.024501 0.225242 0.461276
O O8 0.491247 0.353896 0.710952
O O9 0.409460 0.875607 0.677598
O O10 0.133763 0.707080 0.746655
O O11 0.243651 0.842532 0.152813
O O12 0.743074 0.048474 0.442786
O O13 0.000000 0.000000 0.500000
O O14 0.781826 0.521344 0.713396
O O15 0.862120 0.408415 0.538467
O O16 0.000000 0.500000 0.000000
#
# Coordination Sequence:
#
# PCOD9101703 Si02
#       8
#     1   2   2   2   2   2   2   2
#     4  10  20  38  60  88 132 172 240 276 336 370
#     4  11  24  45  75 104 140 186 227 279 353 424
#     4  10  21  41  64  94 131 185 235 283 340 407
#     4  12  24  44  67 103 140 186 227 288 344 412
#     4  11  25  43  71 100 138 178 228 289 347 414
#     4  11  25  49  77 107 139 177 224 281 352 433
#     4  10  22  38  55  88 125 180 237 290 333 393
#     4  10  22  36  57  85 131 175 230 284 334 389
#
# _framework density 26.600771000000002
#
# number of rings (size 3 to 8) (size 9 to 14) (size 15 to 20)
#    0.000    1.333    2.667    2.800    1.867    3.200 
#    2.400    6.667    0.000    0.000    0.000    0.000 
#    0.000    0.000    0.000    0.000    0.000    0.000 
#
# Total GULP energy -83554.230525 kJ/mol
# GULP energy per Si atom -5570.282035 kJ/mol
# Density = 2.654023 g / cm^3
# Si number density = 26.600771 Si / 1000 Ang^3
#
#
#
# Elastic Constant Matrix: (Units=GPa)
#
#
# Indices 1 2 3 4 5 6 
#
# 1 77.8718 10.3493 -6.0238 7.8755 -12.1997 -9.7674
# 2 10.3493 73.7177 23.5862 13.2340 -19.2818 -38.0595
# 3 -6.0238 23.5862 106.5591 5.3466 -5.9039 -8.1936
# 4 7.8755 13.2340 5.3466 21.6810 -5.3418 -6.6482
# 5 -12.1997 -19.2818 -5.9039 -5.3418 47.4940 12.5580
# 6 -9.7674 -38.0595 -8.1936 -6.6482 12.5580 49.1571
#
#
#
# Elastic Compliance Matrix: (Units=1/GPa)
#
#
# Indices 1 2 3 4 5 6 
#
# 1 0.014025 -0.000009 0.001293 -0.004186 0.002838 0.001704
# 2 -0.000009 0.026725 -0.003857 -0.008784 0.004712 0.017655
# 3 0.001293 -0.003857 0.010280 -0.000959 0.000257 -0.001211
# 4 -0.004186 -0.008784 -0.000959 0.053314 0.001490 -0.000963
# 5 0.002838 0.004712 0.000257 0.001490 0.024364 -0.001768
# 6 0.001704 0.017655 -0.001211 -0.000963 -0.001768 0.034471
#
#
# Mechanical properties :
#
#
# Convention : Reuss Voigt Hill
#
# Bulk Modulus (GPa) = 21.79365 34.88578 28.33971
# Shear Modulus (GPa) = 27.23029 39.01554 33.12292
#
# Velocity S-wave (km/s) = 3.20295 3.83392 3.53255
# Velocity P-wave (km/s) = 4.67858 5.72203 5.22641
#
# Compressibility (1/GPa) = 0.04588493
#
# Stress axis : x y z
#
# Youngs Moduli (GPa) = 71.30347 37.41803 97.27218
#
# Poissons Ratio (x) = 0.00034 -0.12578
# Poissons Ratio (y) = 0.00065 0.37514
# Poissons Ratio (z) = -0.09220 0.14431
#
# Static dielectric constant tensor:
#      x y z
#    x 2.002350 -0.010930 -0.189940 
#    y -0.010930 2.155080 -0.050860 
#    z -0.189940 -0.050860 1.959280 
# 
# From -- ./inp_files/51701.got.cif
#   From: 2010.05.17/outbox.cif.g08.bks.cpg/sg2_26_cif.got.tgz:51701.got - 2010.06.03 11:33:40.
