data_PCOD9101226
_publ_section_title
;
Structure prediction by ZEFSAII (Michael W. Deem and Ramdas Pophale) SiO2 
 PCOD9101226
Probable space group: P -1
;
_chemical_formula_sum "Si O2"
_cell_formula_units_Z 14
_cell_length_a 19.454211
_cell_length_b 10.717145
_cell_length_c 7.788358
_cell_angle_alpha 43.411437
_cell_angle_beta 32.006855
_cell_angle_gamma 41.189736
_cell_volume 548.355005
_symmetry_space_group_name_H-M "P -1"
_symmetry_group_IT_number 2
_symmetry_cell_setting 'triclinic'
loop_
_space_group_symop_operation_xyz
x,y,z
-x,-y,-z
loop_
_atom_site_type_symbol
_atom_site_label
_atom_site_fract_x
_atom_site_fract_y
_atom_site_fract_z
Si Si1 0.214561 0.233449 0.034896
Si Si2 0.862276 0.305961 0.196876
Si Si3 0.514676 0.966650 0.704577
Si Si4 0.909467 0.304291 0.701509
Si Si5 0.358923 0.751971 0.718371
Si Si6 0.105115 0.330449 0.824185
Si Si7 0.574009 0.359713 0.709869
O O1 0.072270 0.199863 0.413320
O O2 0.187352 0.457152 0.919628
O O3 0.353019 0.095138 0.975196
O O4 0.223400 0.220607 0.820356
O O5 0.722873 0.270985 0.580285
O O6 0.898853 0.260878 0.966356
O O7 0.007579 0.218475 0.078145
O O8 0.617497 0.048609 0.502161
O O9 0.500000 0.000000 0.500000
O O10 0.531422 0.747760 0.926728
O O11 0.867981 0.537892 0.515552
O O12 0.792077 0.246515 0.912601
O O13 0.487692 0.586030 0.708514
O O14 0.383898 0.678770 0.541303
O O15 0.000000 0.500000 0.000000
#
# Coordination Sequence:
#
# PCOD9101226 Si02
#       7
#     2   2   2   2   2   2   2
#     4  10  20  38  57  89 129 159 198 255 302 368
#     4   9  16  36  63  94 112 156 208 254 308 360
#     4  12  27  41  60  94 130 167 208 248 310 376
#     4   9  18  34  67  92 113 157 211 251 311 360
#     4  10  22  44  67  90 122 163 210 261 309 361
#     4   8  16  29  54  86 121 153 194 240 298 362
#     4  10  22  42  68  90 123 164 209 260 310 361
#
# _framework density 25.530905000000001
#
# number of rings (size 3 to 8) (size 9 to 14) (size 15 to 20)
#    0.000    2.571    1.429    2.143    2.000    4.000 
#    0.000    7.143    0.000    0.000    0.000    0.000 
#    0.000    0.000    0.000    0.000    0.000    0.000 
#
# Total GULP energy -78217.014560 kJ/mol
# GULP energy per Si atom -5586.929611 kJ/mol
# Density = 2.547280 g / cm^3
# Si number density = 25.530905 Si / 1000 Ang^3
#
#
#
# Elastic Constant Matrix: (Units=GPa)
#
#
# Indices 1 2 3 4 5 6 
#
# 1 -9.5214 34.8934 -51.4190 3.5011 -60.4358 12.5261
# 2 34.8934 25.6787 39.6227 7.5621 12.3718 -9.0951
# 3 -51.4190 39.6227 73.9101 -4.9592 -77.3580 25.3827
# 4 3.5011 7.5621 -4.9592 25.8552 -5.2795 -0.9389
# 5 -60.4358 12.3718 -77.3580 -5.2795 29.9194 16.4515
# 6 12.5261 -9.0951 25.3827 -0.9389 16.4515 10.0858
#
#
#
# Elastic Compliance Matrix: (Units=1/GPa)
#
#
# Indices 1 2 3 4 5 6 
#
# 1 0.012092 0.005067 -0.007073 -0.005134 -0.006263 0.017091
# 2 0.005067 0.023427 0.002326 -0.005464 0.009109 -0.006387
# 3 -0.007073 0.002326 0.005272 0.000940 -0.001831 0.000688
# 4 -0.005134 -0.005464 0.000940 0.041240 -0.000112 0.003106
# 5 -0.006263 0.009109 -0.001831 -0.000112 0.009016 0.005883
# 6 0.017091 -0.006387 0.000688 0.003106 0.005883 0.061124
#
#
# Mechanical properties :
#
#
# Convention : Reuss Voigt Hill
#
# Bulk Modulus (GPa) = 24.13723 15.14019 19.63871
# Shear Modulus (GPa) = 30.24002 17.63675 23.93838
#
# Velocity S-wave (km/s) = 3.44531 2.63116 3.06539
# Velocity P-wave (km/s) = 5.03007 3.89534 4.49862
#
# Compressibility (1/GPa) = 0.04142977
#
# Stress axis : x y z
#
# Youngs Moduli (GPa) = 82.70118 42.68508 189.67576
#
# Poissons Ratio (x) = -0.21627 1.34166
# Poissons Ratio (y) = -0.41903 -0.44118
# Poissons Ratio (z) = 0.58498 -0.09928
#
# Static dielectric constant tensor:
#      x y z
#    x 2.022800 -0.054750 -0.009190 
#    y -0.054750 2.061630 0.032120 
#    z -0.009190 0.032120 2.062990 
# 
# From -- ./inp_files/345815.got.cif
#   From: 2010.05.17/outbox.cif.g08.bks.cpg/sg2_173_cif.got.tgz:345815.got - 2010.06.03 11:33:40.
