data_PCOD9101478
_publ_section_title
;
Structure prediction by ZEFSAII (Michael W. Deem and Ramdas Pophale) SiO2 
 PCOD9101478
Probable space group: P -1
;
_chemical_formula_sum "Si O2"
_cell_formula_units_Z 12
_cell_length_a 13.977426
_cell_length_b 20.609301
_cell_length_c 7.192615
_cell_angle_alpha 138.488168
_cell_angle_beta 37.166890
_cell_angle_gamma 153.027595
_cell_volume 562.073305
_symmetry_space_group_name_H-M "P -1"
_symmetry_group_IT_number 2
_symmetry_cell_setting 'triclinic'
loop_
_space_group_symop_operation_xyz
x,y,z
-x,-y,-z
loop_
_atom_site_type_symbol
_atom_site_label
_atom_site_fract_x
_atom_site_fract_y
_atom_site_fract_z
Si Si1 0.476782 0.867137 0.388552
Si Si2 0.097741 0.579362 0.821322
Si Si3 0.251621 0.831976 0.296323
Si Si4 0.947789 0.990193 0.774359
Si Si5 0.818686 0.766690 0.778189
Si Si6 0.688749 0.417825 0.827421
O O1 0.293458 0.821809 0.424372
O O2 0.388410 0.730016 0.330704
O O3 0.567400 0.997424 0.653741
O O4 0.706152 0.938504 0.070568
O O5 0.208374 0.541033 0.450467
O O6 0.891816 0.528307 0.899272
O O7 0.277760 0.747824 0.951377
O O8 0.000000 0.500000 0.000000
O O9 0.990313 0.754030 0.509271
O O10 0.910322 0.870773 0.683096
O O11 0.000000 0.000000 0.500000
O O12 0.139078 0.140656 0.913286
O O13 0.543102 0.623467 0.881241
#
# Coordination Sequence:
#
# PCOD9101478 Si02
#       6
#     2   2   2   2   2   2
#     4   9  19  38  60  87 117 148 193 238 283 349
#     4  11  23  40  61  83 114 159 196 233 289 349
#     4  10  20  38  59  88 121 143 191 246 283 334
#     4   9  18  34  57  85 118 155 184 227 295 346
#     4   9  20  37  54  86 118 144 193 243 275 340
#     4  10  22  40  62  82 114 156 197 231 287 351
#
# _framework density 21.349527999999999
#
# number of rings (size 3 to 8) (size 9 to 14) (size 15 to 20)
#    0.000    2.333    1.667    1.000    2.333    1.333 
#    9.000    0.833    0.000    0.000    0.000    0.000 
#    0.000    0.000    0.000    0.000    0.000    0.000 
#
# Total GULP energy -67010.594557 kJ/mol
# GULP energy per Si atom -5584.216213 kJ/mol
# Density = 2.130094 g / cm^3
# Si number density = 21.349528 Si / 1000 Ang^3
#
#
#
# Elastic Constant Matrix: (Units=GPa)
#
#
# Indices 1 2 3 4 5 6 
#
# 1 81.1288 -0.8482 27.5985 -8.0307 1.6535 13.3710
# 2 -0.8482 54.2941 14.8411 16.5054 9.8379 9.3033
# 3 27.5985 14.8411 65.1175 11.5298 34.3349 -1.4008
# 4 -8.0307 16.5054 11.5298 25.9791 2.4745 -2.4345
# 5 1.6535 9.8379 34.3349 2.4745 39.7108 -7.3428
# 6 13.3710 9.3033 -1.4008 -2.4345 -7.3428 30.4850
#
#
#
# Elastic Compliance Matrix: (Units=1/GPa)
#
#
# Indices 1 2 3 4 5 6 
#
# 1 0.020093 0.000118 -0.017268 0.012096 0.012252 -0.005725
# 2 0.000118 0.027241 0.001535 -0.018200 -0.009157 -0.011953
# 3 -0.017268 0.001535 0.047292 -0.023742 -0.039465 -0.002123
# 4 0.012096 -0.018200 -0.023742 0.063099 0.022374 0.009586
# 5 0.012252 -0.009157 -0.039465 0.022374 0.061946 0.012315
# 6 -0.005725 -0.011953 -0.002123 0.009586 0.012315 0.042596
#
#
# Mechanical properties :
#
#
# Convention : Reuss Voigt Hill
#
# Bulk Modulus (GPa) = 15.77383 31.52479 23.64931
# Shear Modulus (GPa) = 15.89179 29.83158 22.86168
#
# Velocity S-wave (km/s) = 2.73126 3.74210 3.27590
# Velocity P-wave (km/s) = 4.16543 5.78525 5.04083
#
# Compressibility (1/GPa) = 0.06339614
#
# Stress axis : x y z
#
# Youngs Moduli (GPa) = 49.76926 36.71001 21.14503
#
# Poissons Ratio (x) = -0.00432 0.36513
# Poissons Ratio (y) = -0.00585 -0.03247
# Poissons Ratio (z) = 0.85940 -0.05636
#
# Static dielectric constant tensor:
#      x y z
#    x 1.784210 0.003650 -0.004220 
#    y 0.003650 1.815030 -0.003170 
#    z -0.004220 -0.003170 1.764590 
# 
# From -- ./inp_files/65356.got.cif
#   From: 2010.05.17/outbox.cif.g08.bks.cpg/sg2_33_cif.got.tgz:65356.got - 2010.06.03 11:33:40.
