data_PCOD9101200
_publ_section_title
;
Structure prediction by ZEFSAII (Michael W. Deem and Ramdas Pophale) SiO2 
 PCOD9101200
Probable space group: P -1
;
_chemical_formula_sum "Si O2"
_cell_formula_units_Z 14
_cell_length_a 14.010321
_cell_length_b 11.601478
_cell_length_c 11.237256
_cell_angle_alpha 94.464732
_cell_angle_beta 30.370935
_cell_angle_gamma 112.410644
_cell_volume 720.099719
_symmetry_space_group_name_H-M "P -1"
_symmetry_group_IT_number 2
_symmetry_cell_setting 'triclinic'
loop_
_space_group_symop_operation_xyz
x,y,z
-x,-y,-z
loop_
_atom_site_type_symbol
_atom_site_label
_atom_site_fract_x
_atom_site_fract_y
_atom_site_fract_z
Si Si1 0.996421 0.212313 0.820371
Si Si2 0.757017 0.798030 0.004026
Si Si3 0.468705 0.517151 0.674478
Si Si4 0.397948 0.743827 0.793493
Si Si5 0.706215 0.003074 0.639642
Si Si6 0.706551 0.970894 0.912290
Si Si7 0.679591 0.958197 0.298928
O O1 0.270083 0.353990 0.541610
O O2 0.826205 0.259478 0.995567
O O3 0.910979 0.100879 0.791730
O O4 0.928683 0.116451 0.006953
O O5 0.651653 0.634996 0.140230
O O6 0.680827 0.827292 0.963400
O O7 0.658675 0.855068 0.209040
O O8 0.048124 0.901033 0.692210
O O9 0.500000 0.500000 0.500000
O O10 0.328940 0.584828 0.843255
O O11 0.524123 0.829493 0.787466
O O12 0.609163 0.860453 0.483094
O O13 0.540722 0.052950 0.798801
O O14 0.767978 0.016633 0.713194
O O15 0.500000 0.000000 0.500000
#
# Coordination Sequence:
#
# PCOD9101200 Si02
#       7
#     2   2   2   2   2   2   2
#     4   9  21  38  60  80 117 154 192 247 289 337
#     4  11  22  37  58  88 120 155 192 241 293 347
#     4  12  25  37  52  87 127 161 189 225 293 362
#     4  10  20  38  57  85 115 153 196 239 290 340
#     4  10  21  38  70  88 110 149 202 253 286 345
#     4   9  20  43  64  91 110 146 203 252 297 328
#     4   9  18  36  58  83 109 150 199 243 287 328
#
# _framework density 19.441752000000001
#
# number of rings (size 3 to 8) (size 9 to 14) (size 15 to 20)
#    0.000    2.000    1.429    3.000    2.000    2.857 
#    0.000    2.857    0.000    5.143    0.000    0.000 
#    0.000    0.000    0.000    0.000    0.000    0.000 
#
# Total GULP energy -78053.855967 kJ/mol
# GULP energy per Si atom -5575.275426 kJ/mol
# Density = 1.939750 g / cm^3
# Si number density = 19.441752 Si / 1000 Ang^3
#
#
#
# Elastic Constant Matrix: (Units=GPa)
#
#
# Indices 1 2 3 4 5 6 
#
# 1 68.3261 26.5442 16.4390 -8.3879 2.4302 -8.0356
# 2 26.5442 102.1244 15.8711 -6.8838 10.4028 -34.0765
# 3 16.4390 15.8711 50.4070 1.1631 3.0095 -11.9425
# 4 -8.3879 -6.8838 1.1631 26.6744 -4.0224 7.8763
# 5 2.4302 10.4028 3.0095 -4.0224 15.1174 -0.8661
# 6 -8.0356 -34.0765 -11.9425 7.8763 -0.8661 36.2495
#
#
#
# Elastic Compliance Matrix: (Units=1/GPa)
#
#
# Indices 1 2 3 4 5 6 
#
# 1 0.018130 -0.005012 -0.005565 0.006240 0.003084 -0.003808
# 2 -0.005012 0.017130 0.000713 -0.003512 -0.011158 0.015724
# 3 -0.005565 0.000713 0.023897 -0.005930 -0.005446 0.008468
# 4 0.006240 -0.003512 -0.005930 0.044798 0.013753 -0.013277
# 5 0.003084 -0.011158 -0.005446 0.013753 0.077345 -0.012740
# 6 -0.003808 0.015724 0.008468 -0.013277 -0.012740 0.046894
#
#
# Mechanical properties :
#
#
# Convention : Reuss Voigt Hill
#
# Bulk Modulus (GPa) = 25.36078 37.61843 31.48961
# Shear Modulus (GPa) = 19.15238 26.40849 22.78043
#
# Velocity S-wave (km/s) = 3.14206 3.68956 3.42676
# Velocity P-wave (km/s) = 5.12213 6.12714 5.64704
#
# Compressibility (1/GPa) = 0.03943096
#
# Stress axis : x y z
#
# Youngs Moduli (GPa) = 55.15691 58.37606 41.84610
#
# Poissons Ratio (x) = 0.29256 0.23287
# Poissons Ratio (y) = 0.27643 -0.02985
# Poissons Ratio (z) = 0.30695 -0.04164
#
# Static dielectric constant tensor:
#      x y z
#    x 1.725390 0.000390 -0.004720 
#    y 0.000390 1.707040 0.047770 
#    z -0.004720 0.047770 1.686130 
# 
# From -- ./inp_files/257837.got.cif
#   From: 2010.05.17/outbox.cif.g08.bks.cpg/sg2_129_cif.got.tgz:257837.got - 2010.06.03 11:33:40.
