data_PCOD9101533
_publ_section_title
;
Structure prediction by ZEFSAII (Michael W. Deem and Ramdas Pophale) SiO2 
 PCOD9101533
Probable space group: P -1
;
_chemical_formula_sum "Si O2"
_cell_formula_units_Z 12
_cell_length_a 11.661416
_cell_length_b 17.808527
_cell_length_c 6.005688
_cell_angle_alpha 61.440461
_cell_angle_beta 111.861975
_cell_angle_gamma 152.834019
_cell_volume 495.771179
_symmetry_space_group_name_H-M "P -1"
_symmetry_group_IT_number 2
_symmetry_cell_setting 'triclinic'
loop_
_space_group_symop_operation_xyz
x,y,z
-x,-y,-z
loop_
_atom_site_type_symbol
_atom_site_label
_atom_site_fract_x
_atom_site_fract_y
_atom_site_fract_z
Si Si1 0.349118 0.037865 0.528949
Si Si2 0.064247 0.582253 0.677612
Si Si3 0.902165 0.651624 0.668693
Si Si4 0.528648 0.615268 0.917660
Si Si5 0.264279 0.134869 0.613138
Si Si6 0.901972 0.833026 0.229026
O O1 0.636493 0.215114 0.409448
O O2 0.324842 0.073215 0.696660
O O3 0.183236 0.850471 0.679526
O O4 0.186805 0.995819 0.291935
O O5 0.934770 0.596948 0.591515
O O6 0.000000 0.500000 0.500000
O O7 0.000000 0.500000 0.000000
O O8 0.702625 0.502484 0.920173
O O9 0.797778 0.679323 0.462514
O O10 0.814169 0.784302 0.984659
O O11 0.500000 0.500000 0.000000
O O12 0.531917 0.686725 0.627880
O O13 0.236389 0.166966 0.777232
O O14 0.000000 0.000000 0.500000
#
# Coordination Sequence:
#
# PCOD9101533 Si02
#       6
#     2   2   2   2   2   2
#     4   9  22  45  67  97 137 182 233 287 354 415
#     4  12  28  52  75 102 138 189 243 298 350 416
#     4  10  23  44  70  98 138 180 236 286 354 419
#     4  12  21  36  66 101 139 185 224 280 354 419
#     4  10  20  38  59  99 137 175 224 279 346 417
#     4   9  22  38  65  97 139 169 230 276 356 407
#
# _framework density 24.204715
#
# number of rings (size 3 to 8) (size 9 to 14) (size 15 to 20)
#    1.000    0.667    1.667    2.000    2.333    4.000 
#    9.000    1.667    0.000    0.000    0.000    0.000 
#    0.000    0.000    0.000    0.000    0.000    0.000 
#
# Total GULP energy -66804.882462 kJ/mol
# GULP energy per Si atom -5567.073538 kJ/mol
# Density = 2.414962 g / cm^3
# Si number density = 24.204715 Si / 1000 Ang^3
#
#
#
# Elastic Constant Matrix: (Units=GPa)
#
#
# Indices 1 2 3 4 5 6 
#
# 1 106.1226 50.7755 15.5098 0.3713 -39.6066 -21.2637
# 2 50.7755 134.5967 48.0946 -4.2153 -16.1156 10.1633
# 3 15.5098 48.0946 78.7586 -14.1456 -13.5414 2.9579
# 4 0.3713 -4.2153 -14.1456 33.0730 1.5682 -14.6878
# 5 -39.6066 -16.1156 -13.5414 1.5682 36.1692 -6.3792
# 6 -21.2637 10.1633 2.9579 -14.6878 -6.3792 50.8911
#
#
#
# Elastic Compliance Matrix: (Units=1/GPa)
#
#
# Indices 1 2 3 4 5 6 
#
# 1 0.032263 -0.012178 0.008334 0.010098 0.036630 0.022934
# 2 -0.012178 0.014503 -0.009214 -0.006151 -0.011948 -0.010722
# 3 0.008334 -0.009214 0.020694 0.010928 0.013884 0.009014
# 4 0.010098 -0.006151 0.010928 0.041596 0.013878 0.018557
# 5 0.036630 -0.011948 0.013884 0.013878 0.072314 0.029954
# 6 0.022934 -0.010722 0.009014 0.018557 0.029954 0.039960
#
#
# Mechanical properties :
#
#
# Convention : Reuss Voigt Hill
#
# Bulk Modulus (GPa) = 24.18882 60.91529 42.55206
# Shear Modulus (GPa) = 19.14035 37.69985 28.42010
#
# Velocity S-wave (km/s) = 2.81511 3.95085 3.43031
# Velocity P-wave (km/s) = 4.53670 6.78481 5.77128
#
# Compressibility (1/GPa) = 0.04134141
#
# Stress axis : x y z
#
# Youngs Moduli (GPa) = 30.99563 68.95283 48.32329
#
# Poissons Ratio (x) = 0.83973 -0.40271
# Poissons Ratio (y) = 0.37747 0.44526
# Poissons Ratio (z) = -0.25831 0.63535
#
# Static dielectric constant tensor:
#      x y z
#    x 1.989890 -0.012800 -0.094320 
#    y -0.012800 2.053060 -0.035930 
#    z -0.094320 -0.035930 2.093450 
# 
# From -- ./inp_files/79112.got.cif
#   From: 2010.05.17/outbox.cif.g08.bks.cpg/sg2_40_cif.got.tgz:79112.got - 2010.06.03 11:33:40.
