data_PCOD9101807
_publ_section_title
;
Structure prediction by ZEFSAII (Michael W. Deem and Ramdas Pophale) SiO2 
 PCOD9101807
Probable space group: P -1
;
_chemical_formula_sum "Si O2"
_cell_formula_units_Z 15
_cell_length_a 8.850252
_cell_length_b 14.626360
_cell_length_c 14.710808
_cell_angle_alpha 29.284559
_cell_angle_beta 73.530094
_cell_angle_gamma 54.440525
_cell_volume 626.669310
_symmetry_space_group_name_H-M "P -1"
_symmetry_group_IT_number 2
_symmetry_cell_setting 'triclinic'
loop_
_space_group_symop_operation_xyz
x,y,z
-x,-y,-z
loop_
_atom_site_type_symbol
_atom_site_label
_atom_site_fract_x
_atom_site_fract_y
_atom_site_fract_z
Si Si1 0.548438 0.353589 0.024583
Si Si2 0.222166 0.550675 0.223492
Si Si3 0.681557 0.112875 0.631393
Si Si4 0.277810 0.131842 0.476645
Si Si5 0.358387 0.195545 0.983639
Si Si6 0.238707 0.032532 0.977592
Si Si7 0.500000 0.500000 0.500000
Si Si8 0.868117 0.277973 0.358613
O O1 0.727497 0.317659 0.965122
O O2 0.312227 0.549247 0.840888
O O3 0.500000 0.500000 0.000000
O O4 0.650438 0.067768 0.281607
O O5 0.456422 0.310096 0.440099
O O6 0.170610 0.411421 0.292360
O O7 0.028150 0.755324 0.152404
O O8 0.625837 0.267147 0.600839
O O9 0.866058 0.071828 0.578917
O O10 0.721869 0.864926 0.867192
O O11 0.114754 0.155035 0.416614
O O12 0.500000 0.000000 0.500000
O O13 0.628115 0.003876 0.101852
O O14 0.296332 0.138297 0.952860
O O15 0.240626 0.494067 0.744863
O O16 0.359143 0.739166 0.239401
#
# Coordination Sequence:
#
# PCOD9101807 Si02
#       8
#     2   2   2   2   2   2   1   2
#     4  11  26  48  69 101 137 175 232 293 344 407
#     4  11  24  46  64 101 136 175 230 283 336 404
#     4  10  23  40  66  97 137 179 223 275 333 406
#     4  12  26  46  72 101 132 179 235 285 347 410
#     4  10  20  40  62  98 133 177 224 264 336 403
#     4  10  21  37  66  95 138 173 221 276 322 407
#     4  10  20  38  60  98 132 180 224 258 336 398
#     4  11  24  45  71 100 137 181 225 281 346 406
#
# _framework density 23.936067999999999
#
# number of rings (size 3 to 8) (size 9 to 14) (size 15 to 20)
#    0.000    1.333    4.000    0.800    3.733    2.133 
#    0.000    0.000    0.000    0.000    0.000    0.000 
#    0.000    0.000    0.000    0.000    0.000    0.000 
#
# Total GULP energy -83624.274762 kJ/mol
# GULP energy per Si atom -5574.951651 kJ/mol
# Density = 2.388159 g / cm^3
# Si number density = 23.936068 Si / 1000 Ang^3
#
#
#
# Elastic Constant Matrix: (Units=GPa)
#
#
# Indices 1 2 3 4 5 6 
#
# 1 141.5036 42.0826 44.4523 12.5145 3.5321 -27.9702
# 2 42.0826 31.2814 14.8261 -13.7897 -5.8222 -10.7637
# 3 44.4523 14.8261 95.8361 9.5237 -23.5892 -18.8056
# 4 12.5145 -13.7897 9.5237 37.9494 -0.3163 4.7593
# 5 3.5321 -5.8222 -23.5892 -0.3163 36.7174 0.5262
# 6 -27.9702 -10.7637 -18.8056 4.7593 0.5262 41.1483
#
#
#
# Elastic Compliance Matrix: (Units=1/GPa)
#
#
# Indices 1 2 3 4 5 6 
#
# 1 0.023596 -0.039292 -0.004247 -0.021904 -0.011511 0.006501
# 2 -0.039292 0.111214 0.000323 0.053974 0.022145 -0.003995
# 3 -0.004247 0.000323 0.016277 -0.003086 0.010821 0.004855
# 4 -0.021904 0.053974 -0.003086 0.055126 0.009282 -0.008675
# 5 -0.011511 0.022145 0.010821 0.009282 0.038866 0.001343
# 6 0.006501 -0.003995 0.004855 -0.008675 0.001343 0.030881
#
#
# Mechanical properties :
#
#
# Convention : Reuss Voigt Hill
#
# Bulk Modulus (GPa) = 15.46656 52.37145 33.91901
# Shear Modulus (GPa) = 13.02271 34.31369 23.66820
#
# Velocity S-wave (km/s) = 2.33504 3.79034 3.14794
# Velocity P-wave (km/s) = 3.70750 6.40959 5.23585
#
# Compressibility (1/GPa) = 0.06465561
#
# Stress axis : x y z
#
# Youngs Moduli (GPa) = 42.38031 8.99167 61.43544
#
# Poissons Ratio (x) = 0.35330 0.26092
# Poissons Ratio (y) = 1.66521 -0.01985
# Poissons Ratio (z) = 0.17999 -0.00291
#
# Static dielectric constant tensor:
#      x y z
#    x 1.988050 -0.024320 0.004100 
#    y -0.024320 1.909560 0.001990 
#    z 0.004100 0.001990 1.868910 
# 
# From -- ./inp_files/503630.got.cif
#   From: 2010.05.17/outbox.cif.g08.bks.cpg/sg2_252_cif.got.tgz:503630.got - 2010.06.03 11:33:40.
