data_PCOD9101782
_publ_section_title
;
Structure prediction by ZEFSAII (Michael W. Deem and Ramdas Pophale) SiO2 
 PCOD9101782
Probable space group: P -1
;
_chemical_formula_sum "Si O2"
_cell_formula_units_Z 15
_cell_length_a 9.794179
_cell_length_b 7.343414
_cell_length_c 13.665021
_cell_angle_alpha 92.482824
_cell_angle_beta 146.158876
_cell_angle_gamma 97.038357
_cell_volume 524.150743
_symmetry_space_group_name_H-M "P -1"
_symmetry_group_IT_number 2
_symmetry_cell_setting 'triclinic'
loop_
_space_group_symop_operation_xyz
x,y,z
-x,-y,-z
loop_
_atom_site_type_symbol
_atom_site_label
_atom_site_fract_x
_atom_site_fract_y
_atom_site_fract_z
Si Si1 0.377315 0.685576 0.553023
Si Si2 0.170834 0.358274 0.297186
Si Si3 0.178891 0.017388 0.409601
Si Si4 0.000000 0.500000 0.500000
Si Si5 0.083517 0.203586 0.943481
Si Si6 0.692314 0.786793 0.223120
Si Si7 0.274544 0.852606 0.102052
Si Si8 0.593311 0.369298 0.152943
O O1 0.199330 0.568356 0.356497
O O2 0.644079 0.649530 0.683394
O O3 0.385729 0.906716 0.557219
O O4 0.239953 0.581407 0.563578
O O5 0.892216 0.256592 0.091192
O O6 0.257186 0.236475 0.431490
O O7 0.066838 0.919196 0.237709
O O8 0.944183 0.939918 0.341490
O O9 0.832551 0.300772 0.325870
O O10 0.231131 0.061123 0.076845
O O11 0.327533 0.360006 0.048563
O O12 0.878322 0.246254 0.895648
O O13 0.769448 0.591441 0.285229
O O14 0.552181 0.842566 0.233978
O O15 0.510284 0.715445 0.016665
#
# Coordination Sequence:
#
# PCOD9101782 Si02
#       8
#     2   2   2   1   2   2   2   2
#     4  11  23  42  62  90 125 168 210 253 314 380
#     4  10  23  40  65  89 123 170 212 248 317 376
#     4  10  21  43  63  90 125 167 207 264 306 376
#     4  12  22  38  64  88 132 158 206 262 310 360
#     4   9  21  37  60  90 121 160 208 256 321 352
#     4  10  21  38  63  90 121 156 214 248 315 367
#     4  10  20  38  60  93 121 155 209 267 301 377
#     4  10  21  37  59  89 120 166 198 255 307 373
#
# _framework density 28.617719999999998
#
# number of rings (size 3 to 8) (size 9 to 14) (size 15 to 20)
#    0.000    1.867    1.333    2.000    3.733    6.400 
#    4.800    0.667    0.000    0.000    0.000    0.000 
#    0.000    0.000    0.000    0.000    0.000    0.000 
#
# Total GULP energy -83801.800806 kJ/mol
# GULP energy per Si atom -5586.786720 kJ/mol
# Density = 2.855259 g / cm^3
# Si number density = 28.617720 Si / 1000 Ang^3
#
#
#
# Elastic Constant Matrix: (Units=GPa)
#
#
# Indices 1 2 3 4 5 6 
#
# 1 227.7919 52.6076 25.1244 -14.7202 49.0935 -1.1692
# 2 52.6076 109.0605 4.9189 6.1541 8.8697 -11.0366
# 3 25.1244 4.9189 121.5530 -14.2424 4.9111 6.7284
# 4 -14.7202 6.1541 -14.2424 20.8030 5.6522 1.3784
# 5 49.0935 8.8697 4.9111 5.6522 46.2258 3.9758
# 6 -1.1692 -11.0366 6.7284 1.3784 3.9758 40.3391
#
#
#
# Elastic Compliance Matrix: (Units=1/GPa)
#
#
# Indices 1 2 3 4 5 6 
#
# 1 0.007566 -0.003469 -0.000062 0.008633 -0.008402 -0.000186
# 2 -0.003469 0.011436 -0.000859 -0.007233 0.002191 0.003203
# 3 -0.000062 -0.000859 0.009266 0.007075 -0.001457 -0.001881
# 4 0.008633 -0.007233 0.007075 0.065819 -0.016274 -0.003554
# 5 -0.008402 0.002191 -0.001457 -0.016274 0.032457 -0.002044
# 6 -0.000186 0.003203 -0.001881 -0.003554 -0.002044 0.026297
#
#
# Mechanical properties :
#
#
# Convention : Reuss Voigt Hill
#
# Bulk Modulus (GPa) = 51.31676 69.30082 60.30879
# Shear Modulus (GPa) = 29.74106 46.52386 38.13246
#
# Velocity S-wave (km/s) = 3.22724 4.03637 3.65427
# Velocity P-wave (km/s) = 5.64425 6.78172 6.23896
#
# Compressibility (1/GPa) = 0.01948681
#
# Stress axis : x y z
#
# Youngs Moduli (GPa) = 132.17287 87.44614 107.91709
#
# Poissons Ratio (x) = 0.30338 0.00670
# Poissons Ratio (y) = 0.45856 0.09270
# Poissons Ratio (z) = 0.00821 0.07512
#
# Static dielectric constant tensor:
#      x y z
#    x 2.244320 0.096690 -0.185100 
#    y 0.096690 2.324310 -0.132300 
#    z -0.185100 -0.132300 2.458410 
# 
# From -- ./inp_files/333740.got.cif
#   From: 2010.05.17/outbox.cif.g08.bks.cpg/sg2_167_cif.got.tgz:333740.got - 2010.06.03 11:33:40.
