data_PCOD9101958
_publ_section_title
;
Structure prediction by ZEFSAII (Michael W. Deem and Ramdas Pophale) SiO2 
 PCOD9101958
Probable space group: P -1
;
_chemical_formula_sum "Si O2"
_cell_formula_units_Z 12
_cell_length_a 16.714790
_cell_length_b 7.792058
_cell_length_c 12.233789
_cell_angle_alpha 48.334664
_cell_angle_beta 153.515525
_cell_angle_gamma 136.705292
_cell_volume 486.809784
_symmetry_space_group_name_H-M "P -1"
_symmetry_group_IT_number 2
_symmetry_cell_setting 'triclinic'
loop_
_space_group_symop_operation_xyz
x,y,z
-x,-y,-z
loop_
_atom_site_type_symbol
_atom_site_label
_atom_site_fract_x
_atom_site_fract_y
_atom_site_fract_z
Si Si1 0.311581 0.052401 0.719486
Si Si2 0.578595 0.864367 0.531226
Si Si3 0.724470 0.707050 0.204023
Si Si4 0.857884 0.282447 0.547148
Si Si5 0.846584 0.958016 0.015125
Si Si6 0.247358 0.393467 0.313778
O O1 0.248939 0.122705 0.729089
O O2 0.330589 0.283382 0.564099
O O3 0.190461 0.816871 0.594067
O O4 0.500000 0.000000 0.000000
O O5 0.350045 0.691461 0.316411
O O6 0.678799 0.693533 0.668403
O O7 0.674582 0.111787 0.471125
O O8 0.661271 0.914171 0.732478
O O9 0.861785 0.554210 0.450105
O O10 0.786039 0.869360 0.101217
O O11 0.500000 0.500000 0.000000
O O12 0.043408 0.215156 0.826553
O O13 0.015925 0.237122 0.099753
#
# Coordination Sequence:
#
# PCOD9101958 Si02
#       6
#     2   2   2   2   2   2
#     4  10  20  38  61  88 129 165 213 269 318 381
#     4   9  18  38  68  92 128 177 211 263 328 391
#     4  12  23  38  65  98 129 172 220 267 332 390
#     4  10  22  40  67  95 130 175 216 264 332 387
#     4  10  21  39  66  97 132 168 218 272 323 389
#     4   9  19  36  65  92 126 168 218 258 327 384
#
# _framework density 24.650288
#
# number of rings (size 3 to 8) (size 9 to 14) (size 15 to 20)
#    0.000    2.333    1.667    3.500    0.000    2.667 
#    0.000    3.333    3.667    9.000    0.000    0.000 
#    0.000    0.000    0.000    0.000    0.000    0.000 
#
# Total GULP energy -67120.978926 kJ/mol
# GULP energy per Si atom -5593.414911 kJ/mol
# Density = 2.459418 g / cm^3
# Si number density = 24.650288 Si / 1000 Ang^3
#
#
#
# Elastic Constant Matrix: (Units=GPa)
#
#
# Indices 1 2 3 4 5 6 
#
# 1 144.7894 65.6330 22.4676 -6.6213 -21.5015 -14.4477
# 2 65.6330 87.5480 19.9669 2.0703 -4.9454 -15.2569
# 3 22.4676 19.9669 98.2657 -1.0609 0.2020 -7.3265
# 4 -6.6213 2.0703 -1.0609 17.2122 -6.3104 12.1194
# 5 -21.5015 -4.9454 0.2020 -6.3104 39.5727 7.0557
# 6 -14.4477 -15.2569 -7.3265 12.1194 7.0557 36.5928
#
#
#
# Elastic Compliance Matrix: (Units=1/GPa)
#
#
# Indices 1 2 3 4 5 6 
#
# 1 0.013216 -0.010416 -0.001194 0.013502 0.009033 -0.005578
# 2 -0.010416 0.021636 -0.001282 -0.018266 -0.008047 0.012253
# 3 -0.001194 -0.001282 0.010842 -0.001554 -0.001462 0.001961
# 4 0.013502 -0.018266 -0.001554 0.107326 0.030009 -0.043928
# 5 0.009033 -0.008047 -0.001462 0.030009 0.037024 -0.017159
# 6 -0.005578 0.012253 0.001961 -0.043928 -0.017159 0.048484
#
#
# Mechanical properties :
#
#
# Convention : Reuss Voigt Hill
#
# Bulk Modulus (GPa) = 50.22499 60.74869 55.48684
# Shear Modulus (GPa) = 18.45355 33.51126 25.98241
#
# Velocity S-wave (km/s) = 2.73905 3.69110 3.25012
# Velocity P-wave (km/s) = 5.51565 6.54701 6.05333
#
# Compressibility (1/GPa) = 0.01991041
#
# Stress axis : x y z
#
# Youngs Moduli (GPa) = 75.66634 46.21844 92.23073
#
# Poissons Ratio (x) = 0.48143 0.11010
# Poissons Ratio (y) = 0.78818 0.11823
# Poissons Ratio (z) = 0.09033 0.05924
#
# Static dielectric constant tensor:
#      x y z
#    x 2.035070 -0.010820 0.149790 
#    y -0.010820 1.979440 -0.038870 
#    z 0.149790 -0.038870 2.083970 
# 
# From -- ./inp_files/177296.got.cif
#   From: 2010.05.17/outbox.cif.g08.bks.cpg/sg2_89_cif.got.tgz:177296.got - 2010.06.03 11:33:40.
