data_PCOD9101858
_publ_section_title
;
Structure prediction by ZEFSAII (Michael W. Deem and Ramdas Pophale) SiO2 
 PCOD9101858
Probable space group: P -1
;
_chemical_formula_sum "Si O2"
_cell_formula_units_Z 16
_cell_length_a 8.100591
_cell_length_b 20.437603
_cell_length_c 11.992757
_cell_angle_alpha 143.454317
_cell_angle_beta 63.114985
_cell_angle_gamma 139.360685
_cell_volume 703.722534
_symmetry_space_group_name_H-M "P -1"
_symmetry_group_IT_number 2
_symmetry_cell_setting 'triclinic'
loop_
_space_group_symop_operation_xyz
x,y,z
-x,-y,-z
loop_
_atom_site_type_symbol
_atom_site_label
_atom_site_fract_x
_atom_site_fract_y
_atom_site_fract_z
Si Si1 0.199556 0.671549 0.606350
Si Si2 0.239343 0.676362 0.032450
Si Si3 0.136362 0.120506 0.849127
Si Si4 0.030322 0.130746 0.284522
Si Si5 0.586351 0.130777 0.972853
Si Si6 0.400586 0.111870 0.401992
Si Si7 0.080592 0.688735 0.329399
Si Si8 0.770207 0.674132 0.708949
O O1 0.402270 0.726894 0.518891
O O2 0.000000 0.500000 0.500000
O O3 0.009516 0.688320 0.643623
O O4 0.384910 0.798669 0.822957
O O5 0.559850 0.799740 0.141153
O O6 0.227105 0.731330 0.992264
O O7 0.096298 0.682484 0.182797
O O8 0.094510 0.492960 0.821357
O O9 0.949273 0.966487 0.780355
O O10 0.207305 0.266964 0.092248
O O11 0.931753 0.015444 0.661287
O O12 0.058402 0.258124 0.517925
O O13 0.197941 0.211062 0.229488
O O14 0.716544 0.993973 0.153476
O O15 0.630258 0.021565 0.827951
O O16 0.604650 0.182690 0.541959
O O17 0.500000 0.500000 0.500000
#
# Coordination Sequence:
#
# PCOD9101858 Si02
#       8
#     2   2   2   2   2   2   2   2
#     4  12  24  37  60  91 126 167 202 247 307 374
#     4  10  23  42  66  90 120 163 208 254 305 367
#     4  11  24  38  60  93 127 160 201 257 310 356
#     4  10  22  38  62  85 121 162 204 249 301 368
#     4  10  20  38  61  84 119 160 205 244 297 367
#     4  11  22  40  62  90 124 161 203 255 303 363
#     4  10  21  44  67  87 120 164 211 251 301 371
#     4  12  24  38  58  91 129 165 200 252 307 369
#
# _framework density 22.736232999999999
#
# number of rings (size 3 to 8) (size 9 to 14) (size 15 to 20)
#    0.000    1.250    3.750    3.000    5.250    5.000 
#    0.000    0.000    0.000    3.000    0.000    0.000 
#    0.000    0.000    0.000    0.000    0.000    0.000 
#
# Total GULP energy -89195.936202 kJ/mol
# GULP energy per Si atom -5574.746013 kJ/mol
# Density = 2.268448 g / cm^3
# Si number density = 22.736233 Si / 1000 Ang^3
#
#
#
# Elastic Constant Matrix: (Units=GPa)
#
#
# Indices 1 2 3 4 5 6 
#
# 1 47.0474 5.1870 13.7616 8.3613 8.3238 6.3563
# 2 5.1870 61.7753 33.4798 -1.4582 -4.2402 -4.7980
# 3 13.7616 33.4798 93.1054 -1.3408 -0.6967 -3.5162
# 4 8.3613 -1.4582 -1.3408 32.5547 0.1019 3.1762
# 5 8.3238 -4.2402 -0.6967 0.1019 31.8159 7.2858
# 6 6.3563 -4.7980 -3.5162 3.1762 7.2858 19.7677
#
#
#
# Elastic Compliance Matrix: (Units=1/GPa)
#
#
# Indices 1 2 3 4 5 6 
#
# 1 0.025330 -0.001110 -0.003703 -0.006097 -0.005442 -0.006087
# 2 -0.001110 0.020522 -0.007070 0.000595 0.002136 0.003197
# 3 -0.003703 -0.007070 0.013913 0.001031 -0.000088 0.001816
# 4 -0.006097 0.000595 0.001031 0.032724 0.002482 -0.003884
# 5 -0.005442 0.002136 -0.000088 0.002482 0.035720 -0.011311
# 6 -0.006087 0.003197 0.001816 -0.003884 -0.011311 0.058437
#
#
# Mechanical properties :
#
#
# Convention : Reuss Voigt Hill
#
# Bulk Modulus (GPa) = 27.77958 34.08721 30.93339
# Shear Modulus (GPa) = 22.48096 26.79431 24.63763
#
# Velocity S-wave (km/s) = 3.14789 3.43663 3.29542
# Velocity P-wave (km/s) = 5.04549 5.54727 5.30232
#
# Compressibility (1/GPa) = 0.03599767
#
# Stress axis : x y z
#
# Youngs Moduli (GPa) = 39.47945 48.72923 71.87555
#
# Poissons Ratio (x) = 0.05410 0.26616
# Poissons Ratio (y) = 0.04383 0.50816
# Poissons Ratio (z) = 0.14620 0.34451
#
# Static dielectric constant tensor:
#      x y z
#    x 1.958550 -0.018830 0.012440 
#    y -0.018830 1.904790 0.040230 
#    z 0.012440 0.040230 1.876390 
# 
# From -- ./inp_files/185744.got.cif
#   From: 2010.05.17/outbox.cif.g08.bks.cpg/sg2_93_cif.got.tgz:185744.got - 2010.06.03 11:33:40.
