data_PCOD9101024
_publ_section_title
;
Structure prediction by ZEFSAII (Michael W. Deem and Ramdas Pophale) SiO2 
 PCOD9101024
Probable space group: P -1
;
_chemical_formula_sum "Si O2"
_cell_formula_units_Z 16
_cell_length_a 9.484745
_cell_length_b 17.075477
_cell_length_c 12.211565
_cell_angle_alpha 36.067415
_cell_angle_beta 116.753570
_cell_angle_gamma 134.420784
_cell_volume 799.564508
_symmetry_space_group_name_H-M "P -1"
_symmetry_group_IT_number 2
_symmetry_cell_setting 'triclinic'
loop_
_space_group_symop_operation_xyz
x,y,z
-x,-y,-z
loop_
_atom_site_type_symbol
_atom_site_label
_atom_site_fract_x
_atom_site_fract_y
_atom_site_fract_z
Si Si1 0.872873 0.690336 0.520127
Si Si2 0.106944 0.031108 0.323792
Si Si3 0.548886 0.424063 0.433940
Si Si4 0.460435 0.416373 0.964307
Si Si5 0.112132 0.425443 0.105298
Si Si6 0.188599 0.943237 0.677592
Si Si7 0.005699 0.362520 0.592581
Si Si8 0.550252 0.104298 0.787153
O O1 0.636141 0.612295 0.518368
O O2 0.889971 0.647851 0.696751
O O3 0.951666 0.621911 0.540294
O O4 0.027051 0.898185 0.346159
O O5 0.909170 0.989697 0.361227
O O6 0.220858 0.015412 0.482819
O O7 0.250658 0.223638 0.110041
O O8 0.517335 0.456798 0.261807
O O9 0.546578 0.262812 0.626902
O O10 0.783689 0.595920 0.344051
O O11 0.651975 0.421420 0.011424
O O12 0.500000 0.500000 0.000000
O O13 0.988620 0.264267 0.161104
O O14 0.000000 0.500000 0.000000
O O15 0.384633 0.995746 0.753947
O O16 0.779623 0.185465 0.738578
O O17 0.000000 0.500000 0.500000
O O18 0.500000 0.000000 0.000000
#
# Coordination Sequence:
#
# PCOD9101024 Si02
#       8
#     2   2   2   2   2   2   2   2
#     4  10  21  42  65  90 125 166 214 264 312 377
#     4  10  20  37  68  94 119 163 210 264 308 367
#     4  10  22  41  63  91 126 166 221 256 307 382
#     4  11  21  36  65  98 123 164 215 257 313 378
#     4  10  23  37  59  96 128 164 201 264 323 371
#     4  10  20  40  62  89 129 163 206 253 319 375
#     4  10  24  42  61  89 123 168 210 260 320 368
#     4  11  24  40  63  93 129 171 209 259 325 377
#
# _framework density 20.010892999999999
#
# number of rings (size 3 to 8) (size 9 to 14) (size 15 to 20)
#    0.000    1.750    2.500    1.125    1.750    6.000 
#    0.000    7.500    0.000    0.000    0.000    0.000 
#    0.000    0.000    0.000    0.000    0.000    0.000 
#
# Total GULP energy -89110.385386 kJ/mol
# GULP energy per Si atom -5569.399087 kJ/mol
# Density = 1.996535 g / cm^3
# Si number density = 20.010893 Si / 1000 Ang^3
#
#
#
# Elastic Constant Matrix: (Units=GPa)
#
#
# Indices 1 2 3 4 5 6 
#
# 1 107.2164 39.9683 27.5188 3.3451 -15.8678 12.9408
# 2 39.9683 108.2046 24.2160 6.1635 -10.5464 12.6010
# 3 27.5188 24.2160 79.5873 2.3308 -8.8942 17.2825
# 4 3.3451 6.1635 2.3308 19.9615 0.8266 3.3095
# 5 -15.8678 -10.5464 -8.8942 0.8266 30.7082 -0.7813
# 6 12.9408 12.6010 17.2825 3.3095 -0.7813 35.3439
#
#
#
# Elastic Compliance Matrix: (Units=1/GPa)
#
#
# Indices 1 2 3 4 5 6 
#
# 1 0.012022 -0.003245 -0.002223 -0.000604 0.004419 -0.002004
# 2 -0.003245 0.011336 -0.001675 -0.002542 0.001755 -0.001758
# 3 -0.002223 -0.001675 0.015456 -0.000013 0.002598 -0.006088
# 4 -0.000604 -0.002542 -0.000013 0.051720 -0.002677 -0.003768
# 5 0.004419 0.001755 0.002598 -0.002677 0.036213 -0.002463
# 6 -0.002004 -0.001758 -0.006088 -0.003768 -0.002463 0.032929
#
#
# Mechanical properties :
#
#
# Convention : Reuss Voigt Hill
#
# Bulk Modulus (GPa) = 40.76923 53.15716 46.96320
# Shear Modulus (GPa) = 27.45208 30.75638 29.10423
#
# Velocity S-wave (km/s) = 3.70788 3.92469 3.81782
# Velocity P-wave (km/s) = 6.22486 6.86727 6.55394
#
# Compressibility (1/GPa) = 0.02452830
#
# Stress axis : x y z
#
# Youngs Moduli (GPa) = 83.18299 88.21738 64.70066
#
# Poissons Ratio (x) = 0.28623 0.14382
# Poissons Ratio (y) = 0.26990 0.10837
# Poissons Ratio (z) = 0.18490 0.14776
#
# Static dielectric constant tensor:
#      x y z
#    x -1.582020 -0.721120 -0.450170 
#    y -0.721120 1.648550 -0.118650 
#    z -0.450170 -0.118650 1.568600 
# 
# From -- ./inp_files/274662.got.cif
#   From: 2010.05.17/outbox.cif.g08.bks.cpg/sg2_138_cif.got.tgz:274662.got - 2010.06.03 11:33:40.
