data_PCOD9101491
_publ_section_title
;
Structure prediction by ZEFSAII (Michael W. Deem and Ramdas Pophale) SiO2 
 PCOD9101491
Probable space group: P -1
;
_chemical_formula_sum "Si O2"
_cell_formula_units_Z 16
_cell_length_a 16.786415
_cell_length_b 9.440875
_cell_length_c 6.109559
_cell_angle_alpha 132.596199
_cell_angle_beta 116.407876
_cell_angle_gamma 68.233579
_cell_volume 634.794166
_symmetry_space_group_name_H-M "P -1"
_symmetry_group_IT_number 2
_symmetry_cell_setting 'triclinic'
loop_
_space_group_symop_operation_xyz
x,y,z
-x,-y,-z
loop_
_atom_site_type_symbol
_atom_site_label
_atom_site_fract_x
_atom_site_fract_y
_atom_site_fract_z
Si Si1 0.511374 0.770561 0.782839
Si Si2 0.754987 0.062870 0.420096
Si Si3 0.928984 0.274979 0.763272
Si Si4 0.725487 0.018096 0.827820
Si Si5 0.067362 0.004054 0.891523
Si Si6 0.664325 0.626021 0.475595
Si Si7 0.794293 0.601809 0.967010
Si Si8 0.621062 0.478301 0.863248
O O1 0.590745 0.693131 0.634626
O O2 0.550213 0.672161 0.949091
O O3 0.424981 0.675292 0.496850
O O4 0.500000 0.000000 0.000000
O O5 0.708655 0.105206 0.649371
O O6 0.846354 0.164001 0.638154
O O7 0.712441 0.097541 0.153217
O O8 0.781397 0.831404 0.212993
O O9 0.893425 0.495517 0.000237
O O10 0.022263 0.179974 0.872475
O O11 0.930596 0.203146 0.441555
O O12 0.678966 0.820926 0.568036
O O13 0.832264 0.966809 0.899948
O O14 0.000000 0.000000 0.000000
O O15 0.757445 0.556955 0.634023
O O16 0.630835 0.459146 0.113701
O O17 0.719569 0.515905 0.938273
#
# Coordination Sequence:
#
# PCOD9101491 Si02
#       8
#     2   2   2   2   2   2   2   2
#     4  10  23  41  65  96 127 168 210 262 329 394
#     4  10  20  40  60  90 129 165 214 274 321 380
#     4  10  22  39  63  88 128 172 219 268 330 384
#     4  10  20  38  66  88 127 175 212 265 334 375
#     4  10  20  38  59  89 128 169 215 278 323 385
#     4  10  21  41  64  92 134 168 214 274 324 391
#     4  10  22  39  64  94 123 170 221 261 325 389
#     4  10  21  41  65  90 133 163 209 270 322 389
#
# _framework density 25.205017999999999
#
# number of rings (size 3 to 8) (size 9 to 14) (size 15 to 20)
#    0.000    2.000    2.500    0.375    0.000    5.500 
#    0.000   11.875    0.000    0.000    0.000    0.000 
#    0.000    0.000    0.000    0.000    0.000    0.000 
#
# Total GULP energy -89339.299894 kJ/mol
# GULP energy per Si atom -5583.706243 kJ/mol
# Density = 2.514765 g / cm^3
# Si number density = 25.205018 Si / 1000 Ang^3
#
#
#
# Elastic Constant Matrix: (Units=GPa)
#
#
# Indices 1 2 3 4 5 6 
#
# 1 72.0764 21.8047 18.8069 -3.5542 -13.4375 3.7547
# 2 21.8047 71.5773 44.7572 2.6114 -6.2008 -11.5576
# 3 18.8069 44.7572 114.7381 -8.3687 -4.8636 -10.8992
# 4 -3.5542 2.6114 -8.3687 44.9194 2.1690 -1.5982
# 5 -13.4375 -6.2008 -4.8636 2.1690 37.3363 -1.6793
# 6 3.7547 -11.5576 -10.8992 -1.5982 -1.6793 52.2280
#
#
#
# Elastic Compliance Matrix: (Units=1/GPa)
#
#
# Indices 1 2 3 4 5 6 
#
# 1 0.016538 -0.004439 -0.000897 0.001084 0.004938 -0.002166
# 2 -0.004439 0.020514 -0.007113 -0.002808 0.001196 0.003327
# 3 -0.000897 -0.007113 0.011925 0.002604 -0.000054 0.001057
# 4 0.001084 -0.002808 0.002604 0.023066 -0.001054 0.000516
# 5 0.004938 0.001196 -0.000054 -0.001054 0.028849 0.000794
# 6 -0.002166 0.003327 0.001057 0.000516 0.000794 0.020301
#
#
# Mechanical properties :
#
#
# Convention : Reuss Voigt Hill
#
# Bulk Modulus (GPa) = 41.52742 47.68106 44.60424
# Shear Modulus (GPa) = 32.44325 38.43159 35.43742
#
# Velocity S-wave (km/s) = 3.59161 3.90905 3.75369
# Velocity P-wave (km/s) = 5.80614 6.27157 6.04334
#
# Compressibility (1/GPa) = 0.02408047
#
# Stress axis : x y z
#
# Youngs Moduli (GPa) = 60.46735 48.74750 83.85714
#
# Poissons Ratio (x) = 0.21638 0.07519
# Poissons Ratio (y) = 0.26841 0.59644
# Poissons Ratio (z) = 0.05422 0.34672
#
# Static dielectric constant tensor:
#      x y z
#    x 1.970260 0.037340 -0.051840 
#    y 0.037340 2.166520 -0.013920 
#    z -0.051840 -0.013920 2.039480 
# 
# From -- ./inp_files/117556.got.cif
#   From: 2010.05.17/outbox.cif.g08.bks.cpg/sg2_59_cif.got.tgz:117556.got - 2010.06.03 11:33:40.
