data_PCOD9101303
_publ_section_title
;
Structure prediction by ZEFSAII (Michael W. Deem and Ramdas Pophale) SiO2 
 PCOD9101303
Probable space group: P -1
;
_chemical_formula_sum "Si O2"
_cell_formula_units_Z 16
_cell_length_a 12.355018
_cell_length_b 10.987450
_cell_length_c 10.507268
_cell_angle_alpha 97.698402
_cell_angle_beta 42.760365
_cell_angle_gamma 75.396719
_cell_volume 819.190647
_symmetry_space_group_name_H-M "P -1"
_symmetry_group_IT_number 2
_symmetry_cell_setting 'triclinic'
loop_
_space_group_symop_operation_xyz
x,y,z
-x,-y,-z
loop_
_atom_site_type_symbol
_atom_site_label
_atom_site_fract_x
_atom_site_fract_y
_atom_site_fract_z
Si Si1 0.234823 0.530043 0.741467
Si Si2 0.535245 0.127548 0.014020
Si Si3 0.663078 0.743193 0.551503
Si Si4 0.098753 0.892856 0.236989
Si Si5 0.633183 0.058890 0.354795
Si Si6 0.742162 0.195983 0.658062
Si Si7 0.056874 0.210903 0.842053
Si Si8 0.410026 0.668724 0.440840
O O1 0.262266 0.411428 0.598489
O O2 0.297172 0.629984 0.631474
O O3 0.375865 0.446616 0.725143
O O4 0.032514 0.638737 0.987235
O O5 0.376739 0.240615 0.262194
O O6 0.738702 0.070274 0.894625
O O7 0.566219 0.190349 0.865540
O O8 0.500000 0.000000 0.000000
O O9 0.460869 0.850782 0.677631
O O10 0.800370 0.794817 0.388915
O O11 0.154024 0.794534 0.303518
O O12 0.093303 0.809782 0.107214
O O13 0.899048 0.039147 0.446331
O O14 0.620907 0.175692 0.480157
O O15 0.500000 0.000000 0.500000
O O16 0.837189 0.918898 0.167467
O O17 0.667030 0.317083 0.632749
#
# Coordination Sequence:
#
# PCOD9101303 Si02
#       8
#     2   2   2   2   2   2   2   2
#     4  10  24  37  60  86 122 168 198 240 307 360
#     4  10  21  35  62  91 119 155 193 251 307 349
#     4  10  22  40  59  87 124 158 203 246 302 360
#     4   9  20  33  61  93 118 148 199 249 305 344
#     4   9  20  33  59  89 116 152 200 254 302 342
#     4   9  19  37  58  88 121 151 196 248 299 346
#     4  11  20  39  62  86 123 155 202 255 301 349
#     4  10  20  38  58  86 124 154 205 247 296 363
#
# _framework density 19.531472999999998
#
# number of rings (size 3 to 8) (size 9 to 14) (size 15 to 20)
#    0.750    1.500    1.250    1.125    7.000    1.500 
#    0.000    2.500    2.750    1.500    0.000    0.000 
#    0.000    0.000    0.000    0.000    0.000    0.000 
#
# Total GULP energy -89068.894279 kJ/mol
# GULP energy per Si atom -5566.805892 kJ/mol
# Density = 1.948702 g / cm^3
# Si number density = 19.531473 Si / 1000 Ang^3
#
#
#
# Elastic Constant Matrix: (Units=GPa)
#
#
# Indices 1 2 3 4 5 6 
#
# 1 77.3952 37.9506 17.0861 7.7286 -1.7077 2.4325
# 2 37.9506 72.6397 30.3263 12.7397 -0.0689 0.0556
# 3 17.0861 30.3263 87.0370 8.3616 11.6208 -3.2765
# 4 7.7286 12.7397 8.3616 24.0709 4.8538 -3.5915
# 5 -1.7077 -0.0689 11.6208 4.8538 20.4683 -0.1414
# 6 2.4325 0.0556 -3.2765 -3.5915 -0.1414 32.3229
#
#
#
# Elastic Compliance Matrix: (Units=1/GPa)
#
#
# Indices 1 2 3 4 5 6 
#
# 1 0.017538 -0.008631 -0.000634 -0.001502 0.002140 -0.001527
# 2 -0.008631 0.022138 -0.005899 -0.007947 0.004582 -0.000849
# 3 -0.000634 -0.005899 0.014854 0.000114 -0.008523 0.001539
# 4 -0.001502 -0.007947 0.000114 0.049424 -0.011899 0.005578
# 5 0.002140 0.004582 -0.008523 -0.011899 0.056696 -0.002107
# 6 -0.001527 -0.000849 0.001539 0.005578 -0.002107 0.031821
#
#
# Mechanical properties :
#
#
# Convention : Reuss Voigt Hill
#
# Bulk Modulus (GPa) = 41.32246 45.31088 43.31667
# Shear Modulus (GPa) = 21.65740 25.48635 23.57187
#
# Velocity S-wave (km/s) = 3.33355 3.61624 3.47777
# Velocity P-wave (km/s) = 6.00162 6.37852 6.19294
#
# Compressibility (1/GPa) = 0.02419992
#
# Stress axis : x y z
#
# Youngs Moduli (GPa) = 57.01794 45.17177 67.32049
#
# Poissons Ratio (x) = 0.38990 0.04271
# Poissons Ratio (y) = 0.49215 0.39715
# Poissons Ratio (z) = 0.03617 0.26649
#
# Static dielectric constant tensor:
#      x y z
#    x 1.725350 -0.017560 0.009200 
#    y -0.017560 1.685720 -0.018870 
#    z 0.009200 -0.018870 1.726400 
# 
# From -- ./inp_files/426149.got.cif
#   From: 2010.05.17/outbox.cif.g08.bks.cpg/sg2_214_cif.got.tgz:426149.got - 2010.06.03 11:33:40.
