data_PCOD9101870
_publ_section_title
;
Structure prediction by ZEFSAII (Michael W. Deem and Ramdas Pophale) SiO2 
 PCOD9101870
Probable space group: P -1
;
_chemical_formula_sum "Si O2"
_cell_formula_units_Z 10
_cell_length_a 9.232068
_cell_length_b 11.316113
_cell_length_c 13.104958
_cell_angle_alpha 147.207663
_cell_angle_beta 141.910749
_cell_angle_gamma 41.210552
_cell_volume 440.253021
_symmetry_space_group_name_H-M "P -1"
_symmetry_group_IT_number 2
_symmetry_cell_setting 'triclinic'
loop_
_space_group_symop_operation_xyz
x,y,z
-x,-y,-z
loop_
_atom_site_type_symbol
_atom_site_label
_atom_site_fract_x
_atom_site_fract_y
_atom_site_fract_z
Si Si1 0.900581 0.932131 0.650588
Si Si2 0.395466 0.357741 0.471399
Si Si3 0.509128 0.677198 0.260897
Si Si4 0.909157 0.257882 0.170050
Si Si5 0.623323 0.146014 0.247991
O O1 0.686976 0.819822 0.418999
O O2 0.050322 0.771181 0.706217
O O3 0.087160 0.946223 0.675935
O O4 0.767633 0.178061 0.804518
O O5 0.468836 0.308488 0.593351
O O6 0.533122 0.164585 0.327880
O O7 0.447108 0.593413 0.640142
O O8 0.108714 0.372045 0.316950
O O9 0.637028 0.415935 0.114337
O O10 0.000000 0.000000 0.000000
O O11 0.500000 0.000000 0.000000
#
# Coordination Sequence:
#
# PCOD9101870 Si02
#       5
#     2   2   2   2   2
#     4  10  20  38  61  85 116 152 196 243 290 349
#     4  10  21  37  59  87 120 154 194 242 289 348
#     4  10  20  38  62  86 114 153 196 244 296 338
#     4  11  20  37  63  87 119 153 194 246 293 344
#     4  11  21  37  61  87 117 160 196 232 295 350
#
# _framework density 22.714210999999999
#
# number of rings (size 3 to 8) (size 9 to 14) (size 15 to 20)
#    0.000    1.600    4.000    2.400    0.000    1.600 
#    0.000    1.000    0.000    0.000    0.000    0.000 
#    0.000    0.000    0.000    0.000    0.000    0.000 
#
# Total GULP energy -55832.226652 kJ/mol
# GULP energy per Si atom -5583.222665 kJ/mol
# Density = 2.266251 g / cm^3
# Si number density = 22.714211 Si / 1000 Ang^3
#
#
#
# Elastic Constant Matrix: (Units=GPa)
#
#
# Indices 1 2 3 4 5 6 
#
# 1 133.4105 27.9606 29.3885 6.6194 -17.5711 -36.5602
# 2 27.9606 130.7987 12.4337 23.0710 -7.1690 -26.2728
# 3 29.3885 12.4337 99.4494 31.6119 -14.8348 -8.9365
# 4 6.6194 23.0710 31.6119 34.5750 -10.4612 -9.0484
# 5 -17.5711 -7.1690 -14.8348 -10.4612 26.5202 13.0453
# 6 -36.5602 -26.2728 -8.9365 -9.0484 13.0453 39.0132
#
#
#
# Elastic Compliance Matrix: (Units=1/GPa)
#
#
# Indices 1 2 3 4 5 6 
#
# 1 0.011084 -0.000894 -0.003502 0.004860 0.002498 0.009275
# 2 -0.000894 0.009885 0.001367 -0.007051 -0.002572 0.005357
# 3 -0.003502 0.001367 0.015663 -0.014581 0.002536 -0.003003
# 4 0.004860 -0.007051 -0.014581 0.050500 0.010837 0.004554
# 5 0.002498 -0.002572 0.002536 0.010837 0.050913 -0.013321
# 6 0.009275 0.005357 -0.003003 0.004554 -0.013321 0.042755
#
#
# Mechanical properties :
#
#
# Convention : Reuss Voigt Hill
#
# Bulk Modulus (GPa) = 32.70695 55.91380 44.31038
# Shear Modulus (GPa) = 25.37448 39.61339 32.49393
#
# Velocity S-wave (km/s) = 3.34596 4.18064 3.78637
# Velocity P-wave (km/s) = 5.41829 6.92628 6.21817
#
# Compressibility (1/GPa) = 0.03057454
#
# Stress axis : x y z
#
# Youngs Moduli (GPa) = 90.21947 101.16023 63.84604
#
# Poissons Ratio (x) = 0.09041 0.22362
# Poissons Ratio (y) = 0.08063 -0.08730
# Poissons Ratio (z) = 0.31599 -0.13833
#
# Static dielectric constant tensor:
#      x y z
#    x 1.868500 -0.020430 -0.058930 
#    y -0.020430 1.893060 0.022560 
#    z -0.058930 0.022560 1.928040 
# 
# From -- ./inp_files/144099.got.cif
#   From: 2010.05.17/outbox.cif.g08.bks.cpg/sg2_73_cif.got.tgz:144099.got - 2010.06.03 11:33:40.
