data_PCOD9101713
_publ_section_title
;
Structure prediction by ZEFSAII (Michael W. Deem and Ramdas Pophale) SiO2 
 PCOD9101713
Probable space group: P -1
;
_chemical_formula_sum "Si O2"
_cell_formula_units_Z 16
_cell_length_a 15.133979
_cell_length_b 27.482982
_cell_length_c 8.130084
_cell_angle_alpha 129.318069
_cell_angle_beta 120.033187
_cell_angle_gamma 19.425047
_cell_volume 805.763774
_symmetry_space_group_name_H-M "P -1"
_symmetry_group_IT_number 2
_symmetry_cell_setting 'triclinic'
loop_
_space_group_symop_operation_xyz
x,y,z
-x,-y,-z
loop_
_atom_site_type_symbol
_atom_site_label
_atom_site_fract_x
_atom_site_fract_y
_atom_site_fract_z
Si Si1 0.256485 0.809348 0.160171
Si Si2 0.658507 0.768643 0.754840
Si Si3 0.803956 0.884817 0.744587
Si Si4 0.627896 0.393413 0.230731
Si Si5 0.515853 0.037816 0.249710
Si Si6 0.146714 0.849915 0.510927
Si Si7 0.321613 0.390554 0.615684
Si Si8 0.061431 0.758550 0.353046
O O1 0.093602 0.878729 0.324025
O O2 0.544716 0.672827 0.214938
O O3 0.315092 0.712619 0.908546
O O4 0.065188 0.972767 0.248309
O O5 0.583908 0.838787 0.654678
O O6 0.630672 0.709668 0.600972
O O7 0.986946 0.596856 0.732970
O O8 0.447507 0.923708 0.020030
O O9 0.691929 0.877846 0.635516
O O10 0.071618 0.744977 0.816367
O O11 0.917888 0.833719 0.559879
O O12 0.500000 0.500000 0.500000
O O13 0.375857 0.545512 0.188186
O O14 0.833743 0.859999 0.234421
O O15 0.500000 0.000000 0.000000
O O16 0.475529 0.683737 0.470686
O O17 0.098181 0.810774 0.459400
#
# Coordination Sequence:
#
# PCOD9101713 Si02
#       8
#     2   2   2   2   2   2   2   2
#     4   9  19  36  62  89 122 152 206 255 303 351
#     4  10  20  38  60  89 122 153 210 246 306 356
#     4  10  23  40  59  84 128 162 197 248 313 362
#     4  10  23  39  60  88 126 163 200 251 307 364
#     4  10  23  35  60  86 118 159 204 243 302 357
#     4   9  20  35  65  92 114 156 210 246 317 340
#     4   9  19  34  62  89 118 154 198 266 290 362
#     4  11  23  41  61  90 125 162 204 252 306 372
#
# _framework density 19.856936999999999
#
# number of rings (size 3 to 8) (size 9 to 14) (size 15 to 20)
#    0.750    1.500    0.000    1.875    8.750    0.500 
#    0.000    5.625    2.750    3.750    0.000    0.000 
#    0.000    0.000    0.000    0.000    0.000    0.000 
#
# Total GULP energy -89206.687925 kJ/mol
# GULP energy per Si atom -5575.417995 kJ/mol
# Density = 1.981174 g / cm^3
# Si number density = 19.856937 Si / 1000 Ang^3
#
#
#
# Elastic Constant Matrix: (Units=GPa)
#
#
# Indices 1 2 3 4 5 6 
#
# 1 107.2315 30.5284 10.1678 0.3488 2.4301 -12.7196
# 2 30.5284 139.0286 19.9563 13.7761 -2.3815 -32.8655
# 3 10.1678 19.9563 68.7922 9.5553 10.5369 -4.7273
# 4 0.3488 13.7761 9.5553 25.8009 0.9215 3.2738
# 5 2.4301 -2.3815 10.5369 0.9215 19.5105 -3.3326
# 6 -12.7196 -32.8655 -4.7273 3.2738 -3.3326 24.8870
#
#
#
# Elastic Compliance Matrix: (Units=1/GPa)
#
#
# Indices 1 2 3 4 5 6 
#
# 1 0.010190 -0.001492 -0.000883 0.000634 -0.000506 0.002918
# 2 -0.001492 0.013078 -0.002102 -0.008712 0.006423 0.018114
# 3 -0.000883 -0.002102 0.017356 -0.004889 -0.009382 -0.000544
# 4 0.000634 -0.008712 -0.004889 0.047756 -0.003990 -0.018926
# 5 -0.000506 0.006423 -0.009382 -0.003990 0.059917 0.014990
# 6 0.002918 0.018114 -0.000544 -0.018926 0.014990 0.069988
#
#
# Mechanical properties :
#
#
# Convention : Reuss Voigt Hill
#
# Bulk Modulus (GPa) = 31.57798 48.48413 40.03106
# Shear Modulus (GPa) = 21.02648 30.99967 26.01308
#
# Velocity S-wave (km/s) = 3.25760 3.95543 3.62335
# Velocity P-wave (km/s) = 5.48512 6.73278 6.14072
#
# Compressibility (1/GPa) = 0.03166764
#
# Stress axis : x y z
#
# Youngs Moduli (GPa) = 98.13750 76.46701 57.61819
#
# Poissons Ratio (x) = 0.11412 0.05089
# Poissons Ratio (y) = 0.14646 0.12112
# Poissons Ratio (z) = 0.08668 0.16074
#
# Static dielectric constant tensor:
#      x y z
#    x 1.731310 0.008900 -0.011590 
#    y 0.008900 1.755540 -0.009070 
#    z -0.011590 -0.009070 1.713400 
# 
# From -- ./inp_files/320720.got.cif
#   From: 2010.05.17/outbox.cif.g08.bks.cpg/sg2_161_cif.got.tgz:320720.got - 2010.06.03 11:33:40.
