data_PCOD9101857
_publ_section_title
;
Structure prediction by ZEFSAII (Michael W. Deem and Ramdas Pophale) SiO2 
 PCOD9101857
Probable space group: P -1
;
_chemical_formula_sum "Si O2"
_cell_formula_units_Z 16
_cell_length_a 7.383880
_cell_length_b 8.418156
_cell_length_c 12.019295
_cell_angle_alpha 76.944695
_cell_angle_beta 59.618467
_cell_angle_gamma 79.462587
_cell_volume 625.752338
_symmetry_space_group_name_H-M "P -1"
_symmetry_group_IT_number 2
_symmetry_cell_setting 'triclinic'
loop_
_space_group_symop_operation_xyz
x,y,z
-x,-y,-z
loop_
_atom_site_type_symbol
_atom_site_label
_atom_site_fract_x
_atom_site_fract_y
_atom_site_fract_z
Si Si1 0.301223 0.215775 0.012371
Si Si2 0.414979 0.277628 0.559427
Si Si3 0.258051 0.431609 0.800384
Si Si4 0.791800 0.833840 0.694597
Si Si5 0.662026 0.227023 0.199083
Si Si6 0.243957 0.835087 0.069614
Si Si7 0.907737 0.960513 0.311947
Si Si8 0.152186 0.596623 0.599871
O O1 0.252684 0.227663 0.155752
O O2 0.549248 0.240922 0.919326
O O3 0.181984 0.339883 0.945460
O O4 0.272983 0.029299 0.017102
O O5 0.388309 0.303507 0.697773
O O6 0.282783 0.441959 0.527047
O O7 0.661225 0.282348 0.459185
O O8 0.297268 0.126581 0.577215
O O9 0.377943 0.586188 0.778964
O O10 0.095196 0.518811 0.749010
O O11 0.557959 0.858309 0.715969
O O12 0.930796 0.986103 0.653122
O O13 0.946081 0.698560 0.605294
O O14 0.748093 0.231209 0.046186
O O15 0.830920 0.117620 0.236516
O O16 0.961452 0.166828 0.791163
#
# Coordination Sequence:
#
# PCOD9101857 Si02
#       8
#     2   2   2   2   2   2   2   2
#     4   9  19  36  58  89 122 151 194 238 286 356
#     4   9  21  38  66  82 112 159 201 246 289 343
#     4  10  20  38  61  84 119 156 193 243 290 345
#     4  10  22  39  60  89 123 154 189 244 293 348
#     4  11  22  37  58  91 128 147 198 239 285 363
#     4   9  20  35  56  88 124 154 187 239 291 350
#     4  11  20  39  62  85 116 163 194 236 296 345
#     4   9  20  43  58  86 116 154 201 244 294 338
#
# _framework density 25.569223000000001
#
# number of rings (size 3 to 8) (size 9 to 14) (size 15 to 20)
#    0.750    1.500    1.250    1.875    0.000    6.000 
#    0.000    1.250    2.750    0.000    0.000    0.000 
#    0.000    0.000    0.000    0.000    0.000    0.000 
#
# Total GULP energy -89390.221638 kJ/mol
# GULP energy per Si atom -5586.888852 kJ/mol
# Density = 2.551103 g / cm^3
# Si number density = 25.569223 Si / 1000 Ang^3
#
#
#
# Elastic Constant Matrix: (Units=GPa)
#
#
# Indices 1 2 3 4 5 6 
#
# 1 107.9958 34.0896 28.2898 -0.2291 -29.1226 6.6901
# 2 34.0896 52.8054 11.9314 7.7609 -12.4045 9.0384
# 3 28.2898 11.9314 69.4237 10.0095 0.2644 3.4626
# 4 -0.2291 7.7609 10.0095 44.2718 3.4864 -8.8029
# 5 -29.1226 -12.4045 0.2644 3.4864 33.0955 5.5210
# 6 6.6901 9.0384 3.4626 -8.8029 5.5210 31.4955
#
#
#
# Elastic Compliance Matrix: (Units=1/GPa)
#
#
# Indices 1 2 3 4 5 6 
#
# 1 0.016109 -0.005779 -0.005570 0.000749 0.012497 -0.003132
# 2 -0.005779 0.027396 -0.000851 -0.007204 0.007598 -0.009886
# 3 -0.005570 -0.000851 0.017381 -0.003548 -0.004882 -0.000619
# 4 0.000749 -0.007204 -0.003548 0.027405 -0.006759 0.011143
# 5 0.012497 0.007598 -0.004882 -0.006759 0.047224 -0.014466
# 6 -0.003132 -0.009886 -0.000619 0.011143 -0.014466 0.040971
#
#
# Mechanical properties :
#
#
# Convention : Reuss Voigt Hill
#
# Bulk Modulus (GPa) = 27.40736 42.09407 34.75071
# Shear Modulus (GPa) = 23.46885 32.16683 27.81784
#
# Velocity S-wave (km/s) = 3.03290 3.55072 3.30198
# Velocity P-wave (km/s) = 4.79654 5.77137 5.30639
#
# Compressibility (1/GPa) = 0.03648655
#
# Stress axis : x y z
#
# Youngs Moduli (GPa) = 62.07896 36.50135 57.53271
#
# Poissons Ratio (x) = 0.21094 0.32047
# Poissons Ratio (y) = 0.35874 0.04894
# Poissons Ratio (z) = 0.34580 0.03105
#
# Static dielectric constant tensor:
#      x y z
#    x 1.975670 0.040710 -0.006770 
#    y 0.040710 2.020640 0.016800 
#    z -0.006770 0.016800 2.039880 
# 
# From -- ./inp_files/554295.got.cif
#   From: 2010.05.17/outbox.cif.g08.bks.cpg/sg2_278_cif.got.tgz:554295.got - 2010.06.03 11:33:40.
