data_PCOD9101223
_publ_section_title
;
Structure prediction by ZEFSAII (Michael W. Deem and Ramdas Pophale) SiO2 
 PCOD9101223
Probable space group: P -1
;
_chemical_formula_sum "Si O2"
_cell_formula_units_Z 16
_cell_length_a 12.662405
_cell_length_b 14.732354
_cell_length_c 9.396572
_cell_angle_alpha 141.004479
_cell_angle_beta 125.821064
_cell_angle_gamma 78.633518
_cell_volume 771.857796
_symmetry_space_group_name_H-M "P -1"
_symmetry_group_IT_number 2
_symmetry_cell_setting 'triclinic'
loop_
_space_group_symop_operation_xyz
x,y,z
-x,-y,-z
loop_
_atom_site_type_symbol
_atom_site_label
_atom_site_fract_x
_atom_site_fract_y
_atom_site_fract_z
Si Si1 0.639227 0.768885 0.354304
Si Si2 0.359929 0.947535 0.134795
Si Si3 0.321590 0.874869 0.708321
Si Si4 0.668357 0.650602 0.786482
Si Si5 0.854955 0.486595 0.791100
Si Si6 0.148786 0.598149 0.646191
Si Si7 0.665799 0.940423 0.307797
Si Si8 0.338482 0.433744 0.643433
O O1 0.720430 0.894041 0.439331
O O2 0.718766 0.708801 0.456173
O O3 0.582908 0.872129 0.532313
O O4 0.512408 0.586397 0.973532
O O5 0.501166 0.915492 0.188944
O O6 0.281818 0.924918 0.890377
O O7 0.236485 0.799065 0.954894
O O8 0.282481 0.686741 0.469164
O O9 0.257489 0.894578 0.530512
O O10 0.500000 0.000000 0.000000
O O11 0.500000 0.500000 0.500000
O O12 0.797628 0.619193 0.918696
O O13 0.690492 0.651431 0.636287
O O14 0.665395 0.808948 0.036701
O O15 0.873783 0.460080 0.607089
O O16 0.000000 0.500000 0.000000
O O17 0.256855 0.538945 0.723817
O O18 0.000000 0.500000 0.500000
#
# Coordination Sequence:
#
# PCOD9101223 Si02
#       8
#     2   2   2   2   2   2   2   2
#     4  11  21  35  56  89 126 146 195 259 300 348
#     4  10  20  38  57  88 125 156 196 254 308 356
#     4   9  19  37  60  86 119 157 205 243 309 364
#     4  11  19  38  63  86 126 159 203 250 309 367
#     4  10  23  41  61  93 126 158 205 258 304 364
#     4  10  21  40  61  81 120 168 203 232 302 379
#     4  11  20  34  57  93 116 155 198 255 302 355
#     4  10  22  38  56  89 124 157 195 252 313 349
#
# _framework density 20.729206000000001
#
# number of rings (size 3 to 8) (size 9 to 14) (size 15 to 20)
#    0.000    1.750    2.500    3.375    0.000    3.000 
#    2.250    1.250    0.000    0.000    0.000    0.000 
#    0.000    0.000    0.000    0.000    0.000    0.000 
#
# Total GULP energy -89072.612231 kJ/mol
# GULP energy per Si atom -5567.038264 kJ/mol
# Density = 2.068203 g / cm^3
# Si number density = 20.729206 Si / 1000 Ang^3
#
#
#
# Elastic Constant Matrix: (Units=GPa)
#
#
# Indices 1 2 3 4 5 6 
#
# 1 24.7941 19.7849 2.7174 5.4946 7.1108 15.1017
# 2 19.7849 150.0250 13.8927 -8.1313 -3.8821 29.7158
# 3 2.7174 13.8927 32.9137 7.8921 -11.0002 -6.7954
# 4 5.4946 -8.1313 7.8921 25.3248 -5.7561 3.8400
# 5 7.1108 -3.8821 -11.0002 -5.7561 22.9557 -0.3804
# 6 15.1017 29.7158 -6.7954 3.8400 -0.3804 32.1508
#
#
#
# Elastic Compliance Matrix: (Units=1/GPa)
#
#
# Indices 1 2 3 4 5 6 
#
# 1 0.087804 -0.002584 -0.026375 -0.015310 -0.044827 -0.043131
# 2 -0.002584 0.010466 -0.008363 0.008334 0.000467 -0.011218
# 3 -0.026375 -0.008363 0.056579 -0.012638 0.031262 0.033956
# 4 -0.015310 0.008334 -0.012638 0.053917 0.013459 -0.009463
# 5 -0.044827 0.000467 0.031262 0.013459 0.076322 0.026528
# 6 -0.043131 -0.011218 0.033956 -0.009463 0.026528 0.070352
#
#
# Mechanical properties :
#
#
# Convention : Reuss Voigt Hill
#
# Bulk Modulus (GPa) = 12.46774 31.16922 21.81848
# Shear Modulus (GPa) = 10.94528 27.50880 19.22704
#
# Velocity S-wave (km/s) = 2.30035 3.64683 3.04885
# Velocity P-wave (km/s) = 3.61706 5.72726 4.78981
#
# Compressibility (1/GPa) = 0.08020698
#
# Stress axis : x y z
#
# Youngs Moduli (GPa) = 11.38899 95.54381 17.67444
#
# Poissons Ratio (x) = 0.24684 0.46616
# Poissons Ratio (y) = 0.02942 0.14781
# Poissons Ratio (z) = 0.30038 0.79902
#
# Static dielectric constant tensor:
#      x y z
#    x 1.741460 -0.022650 0.014320 
#    y -0.022650 1.821840 -0.082810 
#    z 0.014320 -0.082810 1.791350 
# 
# From -- ./inp_files/274746.got.cif
#   From: 2010.05.17/outbox.cif.g08.bks.cpg/sg2_138_cif.got.tgz:274746.got - 2010.06.03 11:33:40.
