data_PCOD9101824
_publ_section_title
;
Structure prediction by ZEFSAII (Michael W. Deem and Ramdas Pophale) SiO2 
 PCOD9101824
Probable space group: P -1
;
_chemical_formula_sum "Si O2"
_cell_formula_units_Z 16
_cell_length_a 16.212302
_cell_length_b 6.479928
_cell_length_c 12.628929
_cell_angle_alpha 61.581622
_cell_angle_beta 135.235545
_cell_angle_gamma 129.468940
_cell_volume 720.491964
_symmetry_space_group_name_H-M "P -1"
_symmetry_group_IT_number 2
_symmetry_cell_setting 'triclinic'
loop_
_space_group_symop_operation_xyz
x,y,z
-x,-y,-z
loop_
_atom_site_type_symbol
_atom_site_label
_atom_site_fract_x
_atom_site_fract_y
_atom_site_fract_z
Si Si1 0.579387 0.345205 0.390229
Si Si2 0.850837 0.449910 0.353172
Si Si3 0.794008 0.291265 0.096267
Si Si4 0.187393 0.179117 0.026642
Si Si5 0.035946 0.977052 0.734356
Si Si6 0.254503 0.098592 0.514981
Si Si7 0.423618 0.248053 0.068966
Si Si8 0.308383 0.017698 0.352581
O O1 0.639607 0.662079 0.376262
O O2 0.526187 0.242646 0.249382
O O3 0.451877 0.211119 0.384230
O O4 0.684347 0.251486 0.548817
O O5 0.805635 0.359092 0.214167
O O6 0.865623 0.744435 0.305958
O O7 0.000000 0.500000 0.500000
O O8 0.761345 0.190575 0.402921
O O9 0.917140 0.237358 0.197021
O O10 0.804162 0.551805 0.984782
O O11 0.660146 0.026422 0.004949
O O12 0.313193 0.265572 0.039948
O O13 0.200626 0.996138 0.173180
O O14 0.061946 0.039196 0.868184
O O15 0.886711 0.909757 0.590234
O O16 0.289953 0.143200 0.412941
O O17 0.500000 0.500000 0.000000
#
# Coordination Sequence:
#
# PCOD9101824 Si02
#       8
#     2   2   2   2   2   2   2   2
#     4  10  23  40  59  86 118 155 198 241 291 344
#     4   9  20  36  57  89 120 147 186 235 290 350
#     4  10  20  38  61  81 118 157 186 238 300 344
#     4   9  21  40  59  83 116 154 194 242 293 340
#     4   9  21  39  60  90 119 150 192 240 295 351
#     4  11  22  36  61  88 116 157 195 234 293 353
#     4  10  21  37  60  89 116 148 196 245 290 347
#     4  10  23  41  58  81 119 156 199 249 284 335
#
# _framework density 22.207049999999999
#
# number of rings (size 3 to 8) (size 9 to 14) (size 15 to 20)
#    0.000    2.250    0.000    1.125    0.000   16.000 
#    0.000    1.250    0.000    0.000    0.000    0.000 
#    0.000    0.000    0.000    0.000    0.000    0.000 
#
# Total GULP energy -89360.778292 kJ/mol
# GULP energy per Si atom -5585.048643 kJ/mol
# Density = 2.215651 g / cm^3
# Si number density = 22.207050 Si / 1000 Ang^3
#
#
#
# Elastic Constant Matrix: (Units=GPa)
#
#
# Indices 1 2 3 4 5 6 
#
# 1 48.4723 26.7007 10.0812 -1.8400 -5.7796 -0.2808
# 2 26.7007 62.9368 16.6913 -5.1288 3.4075 -3.3724
# 3 10.0812 16.6913 91.4882 -14.9452 -7.9343 6.3080
# 4 -1.8400 -5.1288 -14.9452 31.1918 -6.2880 5.0697
# 5 -5.7796 3.4075 -7.9343 -6.2880 22.7368 -3.2289
# 6 -0.2808 -3.3724 6.3080 5.0697 -3.2289 13.8092
#
#
#
# Elastic Compliance Matrix: (Units=1/GPa)
#
#
# Indices 1 2 3 4 5 6 
#
# 1 0.028803 -0.012755 0.000394 0.001941 0.009745 -0.001143
# 2 -0.012755 0.023007 -0.004108 -0.001457 -0.007678 0.005975
# 3 0.000394 -0.004108 0.014373 0.009144 0.006940 -0.009295
# 4 0.001941 -0.001457 0.009144 0.041667 0.013049 -0.016739
# 5 0.009745 -0.007678 0.006940 0.013049 0.054067 0.003004
# 6 -0.001143 0.005975 -0.009295 -0.016739 0.003004 0.084945
#
#
# Mechanical properties :
#
#
# Convention : Reuss Voigt Hill
#
# Bulk Modulus (GPa) = 30.07859 34.42707 32.25283
# Shear Modulus (GPa) = 17.18912 23.50915 20.34914
#
# Velocity S-wave (km/s) = 2.78517 3.25720 3.03039
# Velocity P-wave (km/s) = 4.89050 5.44814 5.17683
#
# Compressibility (1/GPa) = 0.03324624
#
# Stress axis : x y z
#
# Youngs Moduli (GPa) = 34.71806 43.46544 69.57521
#
# Poissons Ratio (x) = 0.55440 -0.02743
# Poissons Ratio (y) = 0.44283 0.28580
# Poissons Ratio (z) = -0.01369 0.17854
#
# Static dielectric constant tensor:
#      x y z
#    x 1.836460 0.014660 0.008460 
#    y 0.014660 1.803940 -0.027120 
#    z 0.008460 -0.027120 1.835080 
# 
# From -- ./inp_files/364102.got.cif
#   From: 2010.05.17/outbox.cif.g08.bks.cpg/sg2_183_cif.got.tgz:364102.got - 2010.06.03 11:33:40.
