data_PCOD9101466
_publ_section_title
;
Structure prediction by ZEFSAII (Michael W. Deem and Ramdas Pophale) SiO2 
 PCOD9101466
Probable space group: P -1
;
_chemical_formula_sum "Si O2"
_cell_formula_units_Z 14
_cell_length_a 11.681571
_cell_length_b 8.701044
_cell_length_c 9.476155
_cell_angle_alpha 91.319920
_cell_angle_beta 84.754398
_cell_angle_gamma 145.492246
_cell_volume 541.029580
_symmetry_space_group_name_H-M "P -1"
_symmetry_group_IT_number 2
_symmetry_cell_setting 'triclinic'
loop_
_space_group_symop_operation_xyz
x,y,z
-x,-y,-z
loop_
_atom_site_type_symbol
_atom_site_label
_atom_site_fract_x
_atom_site_fract_y
_atom_site_fract_z
Si Si1 0.964530 0.120518 0.596471
Si Si2 0.656125 0.394416 0.742230
Si Si3 0.671389 0.884258 0.410121
Si Si4 0.557770 0.979526 0.845528
Si Si5 0.707038 0.263768 0.390422
Si Si6 0.345053 0.189625 0.989914
Si Si7 0.051782 0.005816 0.814094
O O1 0.119066 0.433747 0.560715
O O2 0.000423 0.113051 0.753823
O O3 0.000000 0.000000 0.500000
O O4 0.742989 0.929930 0.561962
O O5 0.567202 0.363431 0.604668
O O6 0.458199 0.215290 0.856420
O O7 0.693421 0.254301 0.752531
O O8 0.848675 0.689330 0.790756
O O9 0.765737 0.854205 0.304567
O O10 0.776070 0.162803 0.362296
O O11 0.370580 0.755834 0.752332
O O12 0.656534 0.929146 0.881701
O O13 0.500000 0.000000 0.000000
O O14 0.500000 0.000000 0.500000
O O15 0.140007 0.044876 0.954354
O O16 0.500000 0.500000 0.000000
#
# Coordination Sequence:
#
# PCOD9101466 Si02
#       7
#     2   2   2   2   2   2   2
#     4  10  22  39  60  94 135 171 210 273 333 386
#     4   9  20  38  61  89 119 169 221 260 323 396
#     4   9  21  39  61  86 127 168 207 269 323 381
#     4   9  20  40  65  89 126 173 214 269 322 384
#     4  11  23  41  68  99 130 170 224 271 325 401
#     4  10  20  38  59  87 128 164 214 276 330 371
#     4  10  21  39  62  90 127 168 219 269 324 394
#
# _framework density 25.87659
#
# number of rings (size 3 to 8) (size 9 to 14) (size 15 to 20)
#    0.000    2.286    0.000    2.143    8.000    1.714 
#    7.714    0.000    0.000    0.000    0.000    0.000 
#    0.000    0.000    0.000    0.000    0.000    0.000 
#
# Total GULP energy -78066.701309 kJ/mol
# GULP energy per Si atom -5576.192951 kJ/mol
# Density = 2.581769 g / cm^3
# Si number density = 25.876590 Si / 1000 Ang^3
#
#
#
# Elastic Constant Matrix: (Units=GPa)
#
#
# Indices 1 2 3 4 5 6 
#
# 1 134.3034 34.5018 52.5384 9.8960 64.1729 3.3210
# 2 34.5018 154.8068 36.3781 30.7262 45.4064 -8.8712
# 3 52.5384 36.3781 154.4427 20.3053 52.4683 17.2826
# 4 9.8960 30.7262 20.3053 33.8320 8.3978 11.8273
# 5 64.1729 45.4064 52.4683 8.3978 70.5675 10.4148
# 6 3.3210 -8.8712 17.2826 11.8273 10.4148 43.6967
#
#
#
# Elastic Compliance Matrix: (Units=1/GPa)
#
#
# Indices 1 2 3 4 5 6 
#
# 1 0.013766 0.001889 -0.000511 -0.003368 -0.013494 0.003667
# 2 0.001889 0.011216 0.000450 -0.011278 -0.008981 0.007149
# 3 -0.000511 0.000450 0.009238 -0.003943 -0.006075 -0.001008
# 4 -0.003368 -0.011278 -0.003943 0.046017 0.010036 -0.015322
# 5 -0.013494 -0.008981 -0.006075 0.010036 0.037010 -0.009932
# 6 0.003667 0.007149 -0.001008 -0.015322 -0.009932 0.030971
#
#
# Mechanical properties :
#
#
# Convention : Reuss Voigt Hill
#
# Bulk Modulus (GPa) = 26.40325 76.70993 51.55659
# Shear Modulus (GPa) = 31.80923 50.96155 41.38539
#
# Velocity S-wave (km/s) = 3.50989 4.44262 4.00351
# Velocity P-wave (km/s) = 5.16251 7.48496 6.42947
#
# Compressibility (1/GPa) = 0.03787412
#
# Stress axis : x y z
#
# Youngs Moduli (GPa) = 72.64389 89.16192 108.24917
#
# Poissons Ratio (x) = -0.16839 0.05532
# Poissons Ratio (y) = -0.13719 -0.04869
# Poissons Ratio (z) = 0.03712 -0.04011
#
# Static dielectric constant tensor:
#      x y z
#    x 2.152850 -0.019110 -0.082550 
#    y -0.019110 1.997560 -0.012600 
#    z -0.082550 -0.012600 2.306460 
# 
# From -- ./inp_files/419367.got.cif
#   From: 2010.05.17/outbox.cif.g08.bks.cpg/sg2_210_cif.got.tgz:419367.got - 2010.06.03 11:33:40.
