data_PCOD9101051
_publ_section_title
;
Structure prediction by ZEFSAII (Michael W. Deem and Ramdas Pophale) SiO2 
 PCOD9101051
Probable space group: P -1
;
_chemical_formula_sum "Si O2"
_cell_formula_units_Z 16
_cell_length_a 8.563776
_cell_length_b 15.819726
_cell_length_c 7.214746
_cell_angle_alpha 94.796511
_cell_angle_beta 87.648589
_cell_angle_gamma 41.419662
_cell_volume 636.345802
_symmetry_space_group_name_H-M "P -1"
_symmetry_group_IT_number 2
_symmetry_cell_setting 'triclinic'
loop_
_space_group_symop_operation_xyz
x,y,z
-x,-y,-z
loop_
_atom_site_type_symbol
_atom_site_label
_atom_site_fract_x
_atom_site_fract_y
_atom_site_fract_z
Si Si1 0.931793 0.944384 0.104781
Si Si2 0.021239 0.218766 0.400907
Si Si3 0.654837 0.512784 0.907245
Si Si4 0.064027 0.234001 0.847692
Si Si5 0.594999 0.256770 0.785804
Si Si6 0.417270 0.184131 0.312360
Si Si7 0.504338 0.350124 0.412191
Si Si8 0.553190 0.081241 0.698570
O O1 0.004261 0.817982 0.031556
O O2 0.114854 0.873626 0.259563
O O3 0.647633 0.066369 0.156822
O O4 0.000000 0.000000 0.000000
O O5 0.012197 0.238322 0.630170
O O6 0.157160 0.246151 0.309128
O O7 0.763781 0.288593 0.364870
O O8 0.199311 0.067372 0.322422
O O9 0.656712 0.525189 0.687772
O O10 0.921980 0.377503 0.927274
O O11 0.500000 0.500000 0.000000
O O12 0.521882 0.649835 0.016151
O O13 0.345528 0.121020 0.825186
O O14 0.488677 0.351594 0.635123
O O15 0.522840 0.189978 0.777868
O O16 0.443403 0.276087 0.349125
O O17 0.492599 0.109771 0.489576
#
# Coordination Sequence:
#
# PCOD9101051 Si02
#       8
#     2   2   2   2   2   2   2   2
#     4  12  21  38  68 100 143 180 220 289 354 415
#     4  11  19  41  73 107 137 174 241 295 352 421
#     4  12  26  46  68  98 143 191 237 284 340 422
#     4  11  22  42  68 101 141 185 231 288 350 416
#     4  11  24  44  69 105 139 185 240 282 350 425
#     4  10  20  37  69 107 137 173 232 294 353 414
#     4  11  24  44  75 102 136 194 233 288 353 410
#     4  10  20  40  70 102 138 177 227 304 354 407
#
# _framework density 25.143560999999998
#
# number of rings (size 3 to 8) (size 9 to 14) (size 15 to 20)
#    0.000    1.000    5.000    2.250    0.000    4.500 
#    0.000   10.000    0.000    0.000    0.000    0.000 
#    0.000    0.000    0.000    0.000    0.000    0.000 
#
# Total GULP energy -89211.533327 kJ/mol
# GULP energy per Si atom -5575.720833 kJ/mol
# Density = 2.508633 g / cm^3
# Si number density = 25.143561 Si / 1000 Ang^3
#
#
#
# Elastic Constant Matrix: (Units=GPa)
#
#
# Indices 1 2 3 4 5 6 
#
# 1 130.7579 26.3208 20.4276 -1.4743 -22.0303 24.3229
# 2 26.3208 92.7141 30.9492 -16.7419 -4.2623 -8.7605
# 3 20.4276 30.9492 71.2259 -14.7295 -14.8318 6.1848
# 4 -1.4743 -16.7419 -14.7295 42.4112 2.6569 -7.4656
# 5 -22.0303 -4.2623 -14.8318 2.6569 22.4447 -5.5102
# 6 24.3229 -8.7605 6.1848 -7.4656 -5.5102 13.9791
#
#
#
# Elastic Compliance Matrix: (Units=1/GPa)
#
#
# Indices 1 2 3 4 5 6 
#
# 1 0.019946 -0.013058 0.003465 -0.012158 0.009219 -0.047280
# 2 -0.013058 0.024545 -0.008846 0.014937 -0.003871 0.048467
# 3 0.003465 -0.008846 0.020725 0.000279 0.011434 -0.016085
# 4 -0.012158 0.014937 0.000279 0.038071 -0.001071 0.050302
# 5 0.009219 -0.003871 0.011434 -0.001071 0.060488 -0.000255
# 6 -0.047280 0.048467 -0.016085 0.050302 -0.000255 0.218054
#
#
# Mechanical properties :
#
#
# Convention : Reuss Voigt Hill
#
# Bulk Modulus (GPa) = 35.28923 50.01034 42.64978
# Shear Modulus (GPa) = 11.67803 30.23370 20.95586
#
# Velocity S-wave (km/s) = 2.15746 3.47139 2.89008
# Velocity P-wave (km/s) = 4.50241 6.00004 5.30435
#
# Compressibility (1/GPa) = 0.02833726
#
# Stress axis : x y z
#
# Youngs Moduli (GPa) = 50.13513 40.74190 48.25003
#
# Poissons Ratio (x) = 0.53202 -0.16716
# Poissons Ratio (y) = 0.65467 0.42681
# Poissons Ratio (z) = -0.17369 0.36040
#
# Static dielectric constant tensor:
#      x y z
#    x 2.099390 -0.027700 0.074140 
#    y -0.027700 1.921850 -0.003650 
#    z 0.074140 -0.003650 2.076600 
# 
# From -- ./inp_files/207726.got.cif
#   From: 2010.05.17/outbox.cif.g08.bks.cpg/sg2_104_cif.got.tgz:207726.got - 2010.06.03 11:33:40.
