data_PCOD9101070
_publ_section_title
;
Structure prediction by ZEFSAII (Michael W. Deem and Ramdas Pophale) SiO2 
 PCOD9101070
Probable space group: P -1
;
_chemical_formula_sum "Si O2"
_cell_formula_units_Z 14
_cell_length_a 9.792001
_cell_length_b 13.885223
_cell_length_c 9.291641
_cell_angle_alpha 46.461270
_cell_angle_beta 62.453898
_cell_angle_gamma 43.766086
_cell_volume 631.927559
_symmetry_space_group_name_H-M "P -1"
_symmetry_group_IT_number 2
_symmetry_cell_setting 'triclinic'
loop_
_space_group_symop_operation_xyz
x,y,z
-x,-y,-z
loop_
_atom_site_type_symbol
_atom_site_label
_atom_site_fract_x
_atom_site_fract_y
_atom_site_fract_z
Si Si1 0.349116 0.240206 0.344671
Si Si2 0.806121 0.946255 0.432075
Si Si3 0.426223 0.340835 0.936009
Si Si4 0.181820 0.788250 0.957059
Si Si5 0.507744 0.347910 0.587379
Si Si6 0.837472 0.264477 0.317938
Si Si7 0.849535 0.466680 0.648443
O O1 0.213772 0.186178 0.497679
O O2 0.260759 0.420045 0.271333
O O3 0.576718 0.099736 0.426143
O O4 0.361605 0.252192 0.154711
O O5 0.947034 0.864018 0.585580
O O6 0.884069 0.021577 0.211838
O O7 0.502225 0.262579 0.821152
O O8 0.247397 0.542344 0.808096
O O9 0.601655 0.318890 0.963011
O O10 0.182009 0.753451 0.822920
O O11 0.079184 0.721280 0.158008
O O12 0.500000 0.500000 0.500000
O O13 0.696690 0.241755 0.501555
O O14 0.313211 0.441846 0.490927
O O15 0.000000 0.500000 0.500000
#
# Coordination Sequence:
#
# PCOD9101070 Si02
#       7
#     2   2   2   2   2   2   2
#     4  10  23  45  62  96 134 168 211 269 322 379
#     4  10  24  38  67  95 134 169 209 262 330 385
#     4  10  20  37  70  90 128 164 222 257 319 364
#     4  11  21  42  63  97 120 175 214 261 317 387
#     4  10  21  37  63 101 126 160 217 273 305 372
#     4  11  20  37  68  95 123 169 219 259 307 391
#     4  12  25  41  69  95 128 166 224 271 314 370
#
# _framework density 22.154437000000001
#
# number of rings (size 3 to 8) (size 9 to 14) (size 15 to 20)
#    0.000    1.429    4.286    2.571    4.000    1.714 
#    0.000    7.857    0.000   10.286    0.000    0.000 
#    0.000    0.000    0.000    0.000    0.000    0.000 
#
# Total GULP energy -78156.146416 kJ/mol
# GULP energy per Si atom -5582.581887 kJ/mol
# Density = 2.210401 g / cm^3
# Si number density = 22.154437 Si / 1000 Ang^3
#
#
#
# Elastic Constant Matrix: (Units=GPa)
#
#
# Indices 1 2 3 4 5 6 
#
# 1 121.9303 22.5783 72.7998 5.6726 -5.9519 -4.9731
# 2 22.5783 31.2162 38.3765 2.7807 6.8276 2.1815
# 3 72.7998 38.3765 163.5644 7.5323 -1.0316 -11.0888
# 4 5.6726 2.7807 7.5323 32.0000 6.7912 -1.0749
# 5 -5.9519 6.8276 -1.0316 6.7912 39.6098 -6.5386
# 6 -4.9731 2.1815 -11.0888 -1.0749 -6.5386 22.4510
#
#
#
# Elastic Compliance Matrix: (Units=1/GPa)
#
#
# Indices 1 2 3 4 5 6 
#
# 1 0.011633 -0.004113 -0.004014 -0.001309 0.002868 0.001766
# 2 -0.004113 0.053486 -0.011916 0.001103 -0.012929 -0.015706
# 3 -0.004014 -0.011916 0.011227 -0.001323 0.003067 0.006644
# 4 -0.001309 0.001103 -0.001323 0.032989 -0.006293 -0.001304
# 5 0.002868 -0.012929 0.003067 -0.006293 0.031071 0.012154
# 6 0.001766 -0.015706 0.006644 -0.001304 0.012154 0.053217
#
#
# Mechanical properties :
#
#
# Convention : Reuss Voigt Hill
#
# Bulk Modulus (GPa) = 27.57898 64.91335 46.24616
# Shear Modulus (GPa) = 20.34208 31.00924 25.67566
#
# Velocity S-wave (km/s) = 3.03346 3.74530 3.40801
# Velocity P-wave (km/s) = 4.97441 6.93303 6.03373
#
# Compressibility (1/GPa) = 0.03625951
#
# Stress axis : x y z
#
# Youngs Moduli (GPa) = 85.96351 18.69661 89.07099
#
# Poissons Ratio (x) = 0.07689 0.35757
# Poissons Ratio (y) = 0.35355 1.06135
# Poissons Ratio (z) = 0.34510 0.22278
#
# Static dielectric constant tensor:
#      x y z
#    x 1.792010 0.008120 -0.071110 
#    y 0.008120 1.834280 -0.003250 
#    z -0.071110 -0.003250 1.823210 
# 
# From -- ./inp_files/199373.got.cif
#   From: 2010.05.17/outbox.cif.g08.bks.cpg/sg2_100_cif.got.tgz:199373.got - 2010.06.03 11:33:40.
