data_PCOD9101671
_publ_section_title
;
Structure prediction by ZEFSAII (Michael W. Deem and Ramdas Pophale) SiO2 
 PCOD9101671
Probable space group: P -1
;
_chemical_formula_sum "Si O2"
_cell_formula_units_Z 14
_cell_length_a 7.139092
_cell_length_b 12.860181
_cell_length_c 12.058020
_cell_angle_alpha 144.511323
_cell_angle_beta 60.952807
_cell_angle_gamma 115.073074
_cell_volume 560.967299
_symmetry_space_group_name_H-M "P -1"
_symmetry_group_IT_number 2
_symmetry_cell_setting 'triclinic'
loop_
_space_group_symop_operation_xyz
x,y,z
-x,-y,-z
loop_
_atom_site_type_symbol
_atom_site_label
_atom_site_fract_x
_atom_site_fract_y
_atom_site_fract_z
Si Si1 0.534257 0.295227 0.783799
Si Si2 0.866694 0.777059 0.588456
Si Si3 0.392355 0.095939 0.855095
Si Si4 0.447067 0.350994 0.251602
Si Si5 0.303890 0.707694 0.504039
Si Si6 0.839889 0.177414 0.904943
Si Si7 0.002720 0.785942 0.325508
O O1 0.382072 0.166880 0.793795
O O2 0.538088 0.265002 0.625165
O O3 0.772828 0.261768 0.727154
O O4 0.500000 0.500000 0.000000
O O5 0.656207 0.726191 0.674214
O O6 0.064195 0.674642 0.494818
O O7 0.845196 0.732521 0.425313
O O8 0.920150 0.994310 0.774254
O O9 0.643761 0.095907 0.813807
O O10 0.298711 0.898305 0.730237
O O11 0.325731 0.241386 0.089450
O O12 0.384485 0.550533 0.418834
O O13 0.699701 0.307677 0.132724
O O14 0.000235 0.278725 0.858169
O O15 0.000000 0.000000 0.500000
#
# Coordination Sequence:
#
# PCOD9101671 Si02
#       7
#     2   2   2   2   2   2   2
#     4  10  16  32  54  78 100 137 176 211 253 312
#     4  10  19  31  56  78 105 142 173 213 266 306
#     4   9  20  33  55  78 106 134 177 216 258 305
#     4  10  20  35  55  76 107 141 175 208 263 316
#     4  11  20  33  55  79 107 136 175 218 261 304
#     4   8  17  36  55  74 105 140 177 211 257 313
#     4   8  15  28  50  78  97 130 173 210 252 303
#
# _framework density 24.956892
#
# number of rings (size 3 to 8) (size 9 to 14) (size 15 to 20)
#    0.857    1.714    1.429    1.286    0.000    0.571 
#    0.000    0.714    3.143    0.000    0.000   15.000 
#    0.000    0.000    0.000    0.000    0.000    0.000 
#
# Total GULP energy -78142.145665 kJ/mol
# GULP energy per Si atom -5581.581833 kJ/mol
# Density = 2.490009 g / cm^3
# Si number density = 24.956892 Si / 1000 Ang^3
#
#
#
# Elastic Constant Matrix: (Units=GPa)
#
#
# Indices 1 2 3 4 5 6 
#
# 1 78.5856 55.9096 68.6531 -2.1627 -6.4515 -32.6736
# 2 55.9096 236.5001 140.3456 -28.9868 -14.4640 -40.6969
# 3 68.6531 140.3456 158.2104 -11.3611 -18.3016 -31.6306
# 4 -2.1627 -28.9868 -11.3611 57.8234 -0.9809 -2.1649
# 5 -6.4515 -14.4640 -18.3016 -0.9809 30.2928 6.5436
# 6 -32.6736 -40.6969 -31.6306 -2.1649 6.5436 42.0945
#
#
#
# Elastic Compliance Matrix: (Units=1/GPa)
#
#
# Indices 1 2 3 4 5 6 
#
# 1 0.026997 0.003177 -0.011684 0.000844 -0.003175 0.015784
# 2 0.003177 0.010378 -0.009270 0.003702 -0.001123 0.005899
# 3 -0.011684 -0.009270 0.019270 -0.001370 0.005655 -0.004501
# 4 0.000844 0.003702 -0.001370 0.019078 0.000862 0.004051
# 5 -0.003175 -0.001123 0.005655 0.000862 0.036302 -0.004899
# 6 0.015784 0.005899 -0.004501 0.004051 -0.004899 0.039298
#
#
# Mechanical properties :
#
#
# Convention : Reuss Voigt Hill
#
# Bulk Modulus (GPa) = 47.41318 111.45698 79.43508
# Shear Modulus (GPa) = 25.78539 39.93465 32.86002
#
# Velocity S-wave (km/s) = 3.21783 4.00452 3.63253
# Velocity P-wave (km/s) = 5.73107 8.13255 7.03504
#
# Compressibility (1/GPa) = 0.02109118
#
# Stress axis : x y z
#
# Youngs Moduli (GPa) = 37.04089 96.35438 51.89503
#
# Poissons Ratio (x) = -0.30609 0.60635
# Poissons Ratio (y) = -0.11767 0.48105
# Poissons Ratio (z) = 0.43279 0.89316
#
# Static dielectric constant tensor:
#      x y z
#    x 1.964200 0.026070 0.007930 
#    y 0.026070 1.994770 -0.065130 
#    z 0.007930 -0.065130 2.028980 
# 
# From -- ./inp_files/391503.got.cif
#   From: 2010.05.17/outbox.cif.g08.bks.cpg/sg2_196_cif.got.tgz:391503.got - 2010.06.03 11:33:40.
