data_PCOD9101934
_publ_section_title
;
Structure prediction by ZEFSAII (Michael W. Deem and Ramdas Pophale) SiO2 
 PCOD9101934
Probable space group: P -1
;
_chemical_formula_sum "Si O2"
_cell_formula_units_Z 14
_cell_length_a 11.898800
_cell_length_b 7.438167
_cell_length_c 13.007204
_cell_angle_alpha 129.180408
_cell_angle_beta 137.221600
_cell_angle_gamma 57.380641
_cell_volume 599.826215
_symmetry_space_group_name_H-M "P -1"
_symmetry_group_IT_number 2
_symmetry_cell_setting 'triclinic'
loop_
_space_group_symop_operation_xyz
x,y,z
-x,-y,-z
loop_
_atom_site_type_symbol
_atom_site_label
_atom_site_fract_x
_atom_site_fract_y
_atom_site_fract_z
Si Si1 0.303093 0.064383 0.860027
Si Si2 0.753954 0.146755 0.737412
Si Si3 0.314981 0.459872 0.840503
Si Si4 0.977411 0.336705 0.800848
Si Si5 0.593724 0.732359 0.385501
Si Si6 0.190804 0.644684 0.511780
Si Si7 0.015599 0.717107 0.810471
O O1 0.284402 0.251805 0.821881
O O2 0.159267 0.185694 0.885158
O O3 0.234488 0.835725 0.688402
O O4 0.500000 0.000000 0.000000
O O5 0.654761 0.981799 0.537668
O O6 0.896471 0.958228 0.814454
O O7 0.848340 0.325155 0.801585
O O8 0.606049 0.251613 0.751621
O O9 0.312928 0.379689 0.692688
O O10 0.199199 0.697944 0.882692
O O11 0.500000 0.500000 0.000000
O O12 0.879970 0.242246 0.602303
O O13 0.004134 0.590156 0.866453
O O14 0.646677 0.555967 0.453203
O O15 0.053493 0.474266 0.381621
#
# Coordination Sequence:
#
# PCOD9101934 Si02
#       7
#     2   2   2   2   2   2   2
#     4  11  22  36  59  89 120 155 206 251 304 353
#     4  10  20  38  61  87 127 153 196 251 303 355
#     4  11  23  39  60  87 123 159 201 255 300 356
#     4   9  20  36  59  86 118 157 198 247 294 358
#     4  10  22  36  58  95 119 157 198 247 305 360
#     4   9  19  37  56  90 116 153 200 251 294 353
#     4   8  21  37  60  88 115 155 205 246 291 360
#
# _framework density 23.340094000000001
#
# number of rings (size 3 to 8) (size 9 to 14) (size 15 to 20)
#    0.857    1.429    0.000    2.143    6.000    1.714 
#    2.571    0.714    0.000    2.571    0.000    0.000 
#    0.000    0.000    0.000    0.000    0.000    0.000 
#
# Total GULP energy -78042.901999 kJ/mol
# GULP energy per Si atom -5574.493000 kJ/mol
# Density = 2.328697 g / cm^3
# Si number density = 23.340094 Si / 1000 Ang^3
#
#
#
# Elastic Constant Matrix: (Units=GPa)
#
#
# Indices 1 2 3 4 5 6 
#
# 1 116.7261 47.3022 19.6392 -16.5646 16.6813 -12.2610
# 2 47.3022 108.0805 11.0871 -26.8207 14.8268 -13.5462
# 3 19.6392 11.0871 87.5404 -13.1375 -2.2222 -11.3306
# 4 -16.5646 -26.8207 -13.1375 42.0029 -3.4697 15.0186
# 5 16.6813 14.8268 -2.2222 -3.4697 27.9302 -9.8626
# 6 -12.2610 -13.5462 -11.3306 15.0186 -9.8626 26.3556
#
#
#
# Elastic Compliance Matrix: (Units=1/GPa)
#
#
# Indices 1 2 3 4 5 6 
#
# 1 0.011277 -0.003837 -0.002007 0.000939 -0.004700 0.000117
# 2 -0.003837 0.013073 0.000064 0.006632 -0.003920 -0.000284
# 3 -0.002007 0.000064 0.012917 0.001768 0.004262 0.005240
# 4 0.000939 0.006632 0.001768 0.034680 -0.005744 -0.017305
# 5 -0.004700 -0.003920 0.004262 -0.005744 0.046823 0.018426
# 6 0.000117 -0.000284 0.005240 -0.017305 0.018426 0.056861
#
#
# Mechanical properties :
#
#
# Convention : Reuss Voigt Hill
#
# Bulk Modulus (GPa) = 38.89970 52.04488 45.47229
# Shear Modulus (GPa) = 25.54149 34.87898 30.21024
#
# Velocity S-wave (km/s) = 3.31164 3.86992 3.60161
# Velocity P-wave (km/s) = 5.59690 6.50502 6.06797
#
# Compressibility (1/GPa) = 0.02570714
#
# Stress axis : x y z
#
# Youngs Moduli (GPa) = 88.67653 76.49354 77.41591
#
# Poissons Ratio (x) = 0.29351 0.15538
# Poissons Ratio (y) = 0.34025 -0.00497
# Poissons Ratio (z) = 0.17799 -0.00491
#
# Static dielectric constant tensor:
#      x y z
#    x 2.043390 -0.028600 -0.024030 
#    y -0.028600 1.947510 -0.032200 
#    z -0.024030 -0.032200 1.993140 
# 
# From -- ./inp_files/489252.got.cif
#   From: 2010.05.17/outbox.cif.g08.bks.cpg/sg2_245_cif.got.tgz:489252.got - 2010.06.03 11:33:40.
