data_PCOD9101961
_publ_section_title
;
Structure prediction by ZEFSAII (Michael W. Deem and Ramdas Pophale) SiO2 
 PCOD9101961
Probable space group: P -1
;
_chemical_formula_sum "Si O2"
_cell_formula_units_Z 16
_cell_length_a 6.751088
_cell_length_b 15.319797
_cell_length_c 7.937480
_cell_angle_alpha 87.604679
_cell_angle_beta 87.893699
_cell_angle_gamma 117.435031
_cell_volume 726.518494
_symmetry_space_group_name_H-M "P -1"
_symmetry_group_IT_number 2
_symmetry_cell_setting 'triclinic'
loop_
_space_group_symop_operation_xyz
x,y,z
-x,-y,-z
loop_
_atom_site_type_symbol
_atom_site_label
_atom_site_fract_x
_atom_site_fract_y
_atom_site_fract_z
Si Si1 0.182909 0.232329 0.548913
Si Si2 0.541738 0.181851 0.987958
Si Si3 0.351790 0.593939 0.413547
Si Si4 0.122829 0.889097 0.940726
Si Si5 0.883808 0.939509 0.227876
Si Si6 0.415559 0.510472 0.774497
Si Si7 0.043195 0.660458 0.242811
Si Si8 0.707561 0.720101 0.840786
O O1 0.433422 0.298736 0.604865
O O2 0.120313 0.119920 0.601077
O O3 0.029833 0.269585 0.652695
O O4 0.195030 0.261726 0.352008
O O5 0.346463 0.123666 0.864021
O O6 0.748143 0.273187 0.885917
O O7 0.646323 0.114484 0.062189
O O8 0.439908 0.223644 0.129458
O O9 0.356950 0.552593 0.601768
O O10 0.411958 0.529113 0.286732
O O11 0.136130 0.604617 0.369853
O O12 0.921210 0.777846 0.948186
O O13 0.093622 0.951691 0.783842
O O14 0.078219 0.937581 0.104690
O O15 0.177225 0.420981 0.837171
O O16 0.545786 0.604522 0.881579
#
# Coordination Sequence:
#
# PCOD9101961 Si02
#       8
#     2   2   2   2   2   2   2   2
#     4  10  20  38  61  89 115 152 195 241 285 340
#     4  11  22  39  60  89 117 150 196 240 285 346
#     4   9  18  35  57  87 116 150 199 239 275 337
#     4  10  22  40  61  86 117 155 190 239 296 343
#     4  10  20  40  66  84 112 153 200 239 283 348
#     4   9  20  35  55  85 121 154 188 236 289 338
#     4  11  20  34  64  87 111 156 203 230 276 352
#     4  10  24  39  55  86 128 150 181 248 294 337
#
# _framework density 22.022839000000001
#
# number of rings (size 3 to 8) (size 9 to 14) (size 15 to 20)
#    0.000    2.000    2.500    1.500    0.000    4.000 
#    0.000    1.875    0.000    0.000    0.000    0.000 
#    0.000    0.000    0.000    0.000    0.000    0.000 
#
# Total GULP energy -89390.787367 kJ/mol
# GULP energy per Si atom -5586.924210 kJ/mol
# Density = 2.197271 g / cm^3
# Si number density = 22.022839 Si / 1000 Ang^3
#
#
#
# Elastic Constant Matrix: (Units=GPa)
#
#
# Indices 1 2 3 4 5 6 
#
# 1 93.8728 11.5246 13.5354 -0.6040 6.0444 -3.9077
# 2 11.5246 91.9852 6.3454 -9.2704 3.5861 7.9239
# 3 13.5354 6.3454 41.6072 -11.5800 3.0971 -6.4546
# 4 -0.6040 -9.2704 -11.5800 30.5265 4.2700 -0.2126
# 5 6.0444 3.5861 3.0971 4.2700 20.3356 -8.3517
# 6 -3.9077 7.9239 -6.4546 -0.2126 -8.3517 25.6111
#
#
#
# Elastic Compliance Matrix: (Units=1/GPa)
#
#
# Indices 1 2 3 4 5 6 
#
# 1 0.011487 -0.001272 -0.003647 -0.001236 -0.002166 0.000511
# 2 -0.001272 0.012171 -0.000863 0.003978 -0.004820 -0.005716
# 3 -0.003647 -0.000863 0.029739 0.011426 -0.003111 0.006286
# 4 -0.001236 0.003978 0.011426 0.039830 -0.011203 -0.001862
# 5 -0.002166 -0.004820 -0.003111 -0.011203 0.061901 0.020470
# 6 0.000511 -0.005716 0.006286 -0.001862 0.020470 0.049136
#
#
# Mechanical properties :
#
#
# Convention : Reuss Voigt Hill
#
# Bulk Modulus (GPa) = 23.90381 32.25289 28.07835
# Shear Modulus (GPa) = 21.76057 28.36530 25.06293
#
# Velocity S-wave (km/s) = 3.14680 3.59276 3.37715
# Velocity P-wave (km/s) = 4.90722 5.64691 5.29001
#
# Compressibility (1/GPa) = 0.04183434
#
# Stress axis : x y z
#
# Youngs Moduli (GPa) = 87.05199 82.15981 33.62595
#
# Poissons Ratio (x) = 0.10449 0.12262
# Poissons Ratio (y) = 0.11071 0.02903
# Poissons Ratio (z) = 0.31744 0.07093
#
# Static dielectric constant tensor:
#      x y z
#    x 1.758730 0.001660 0.030350 
#    y 0.001660 1.877020 -0.041320 
#    z 0.030350 -0.041320 1.810520 
# 
# From -- ./inp_files/49364.got.cif
#   From: 2010.05.17/outbox.cif.g08.bks.cpg/sg2_25_cif.got.tgz:49364.got - 2010.06.03 11:33:40.
