data_PCOD9101627
_publ_section_title
;
Structure prediction by ZEFSAII (Michael W. Deem and Ramdas Pophale) SiO2 
 PCOD9101627
Probable space group: P -1
;
_chemical_formula_sum "Si O2"
_cell_formula_units_Z 16
_cell_length_a 10.491078
_cell_length_b 18.944187
_cell_length_c 5.216414
_cell_angle_alpha 58.703515
_cell_angle_beta 79.787337
_cell_angle_gamma 50.576299
_cell_volume 665.782386
_symmetry_space_group_name_H-M "P -1"
_symmetry_group_IT_number 2
_symmetry_cell_setting 'triclinic'
loop_
_space_group_symop_operation_xyz
x,y,z
-x,-y,-z
loop_
_atom_site_type_symbol
_atom_site_label
_atom_site_fract_x
_atom_site_fract_y
_atom_site_fract_z
Si Si1 0.231825 0.094467 0.072040
Si Si2 0.197202 0.427187 0.617288
Si Si3 0.500677 0.895746 0.042594
Si Si4 0.613098 0.713916 0.695037
Si Si5 0.639770 0.473153 0.698379
Si Si6 0.930431 0.151015 0.861658
Si Si7 0.797781 0.042382 0.263227
Si Si8 0.635506 0.319949 0.265965
O O1 0.356035 0.022055 0.926445
O O2 0.221288 0.016047 0.394354
O O3 0.335397 0.127644 0.095311
O O4 0.039315 0.181517 0.881718
O O5 0.288363 0.357889 0.458470
O O6 0.240862 0.505810 0.498052
O O7 0.000000 0.500000 0.500000
O O8 0.270684 0.346958 0.984612
O O9 0.559693 0.826852 0.412017
O O10 0.389506 0.877081 0.952170
O O11 0.444630 0.726500 0.755248
O O12 0.500000 0.500000 0.500000
O O13 0.530800 0.566099 0.776781
O O14 0.721076 0.355751 0.996800
O O15 0.765715 0.242927 0.586506
O O16 0.871026 0.103885 0.169146
O O17 0.065570 0.052647 0.805211
#
# Coordination Sequence:
#
# PCOD9101627 Si02
#       8
#     2   2   2   2   2   2   2   2
#     4  10  22  38  58  87 125 166 207 265 313 369
#     4  11  25  45  68  95 130 164 211 270 326 383
#     4  10  22  39  60  87 123 166 216 254 314 383
#     4  11  23  43  69  96 125 172 216 258 323 390
#     4  10  21  40  64  90 120 168 207 266 322 379
#     4  10  21  37  57  92 121 161 209 259 317 376
#     4  10  20  38  60  85 126 162 203 263 318 372
#     4  10  21  39  63  90 128 161 220 261 316 387
#
# _framework density 24.031873999999998
#
# number of rings (size 3 to 8) (size 9 to 14) (size 15 to 20)
#    0.000    1.750    2.500    1.125    1.750    2.000 
#    4.500    0.000    0.000    0.000    0.000    0.000 
#    0.000    0.000    0.000    0.000    0.000    0.000 
#
# Total GULP energy -89399.898486 kJ/mol
# GULP energy per Si atom -5587.493655 kJ/mol
# Density = 2.397718 g / cm^3
# Si number density = 24.031874 Si / 1000 Ang^3
#
#
#
# Elastic Constant Matrix: (Units=GPa)
#
#
# Indices 1 2 3 4 5 6 
#
# 1 175.7738 16.5401 60.7942 -16.3797 -5.6611 -11.1677
# 2 16.5401 55.4229 11.8893 7.1519 -4.8827 -8.5715
# 3 60.7942 11.8893 132.4080 -16.0822 6.9404 -9.8934
# 4 -16.3797 7.1519 -16.0822 31.9273 3.3396 2.9731
# 5 -5.6611 -4.8827 6.9404 3.3396 39.1552 -5.9737
# 6 -11.1677 -8.5715 -9.8934 2.9731 -5.9737 22.7535
#
#
#
# Elastic Compliance Matrix: (Units=1/GPa)
#
#
# Indices 1 2 3 4 5 6 
#
# 1 0.007175 -0.001410 -0.002833 0.002246 0.001454 0.001847
# 2 -0.001410 0.021690 -0.001838 -0.007853 0.004867 0.008984
# 3 -0.002833 -0.001838 0.009712 0.004031 -0.002561 0.000941
# 4 0.002246 -0.007853 0.004031 0.037444 -0.005547 -0.006453
# 5 0.001454 0.004867 -0.002561 -0.005547 0.028765 0.009711
# 6 0.001847 0.008984 0.000941 -0.006453 0.009711 0.052042
#
#
# Mechanical properties :
#
#
# Convention : Reuss Voigt Hill
#
# Bulk Modulus (GPa) = 37.85682 60.22798 49.04240
# Shear Modulus (GPa) = 28.12228 37.05927 32.59077
#
# Velocity S-wave (km/s) = 3.42454 3.93120 3.68659
# Velocity P-wave (km/s) = 5.60567 6.76180 6.21070
#
# Compressibility (1/GPa) = 0.02641532
#
# Stress axis : x y z
#
# Youngs Moduli (GPa) = 139.36981 46.10494 102.96048
#
# Poissons Ratio (x) = 0.06499 0.29172
# Poissons Ratio (y) = 0.19644 0.18925
# Poissons Ratio (z) = 0.39488 0.08475
#
# Static dielectric constant tensor:
#      x y z
#    x 1.953540 0.009960 -0.027430 
#    y 0.009960 1.969100 -0.013640 
#    z -0.027430 -0.013640 1.940470 
# 
# From -- ./inp_files/52205.got.cif
#   From: 2010.05.17/outbox.cif.g08.bks.cpg/sg2_27_cif.got.tgz:52205.got - 2010.06.03 11:33:40.
