data_PCOD9101562
_publ_section_title
;
Structure prediction by ZEFSAII (Michael W. Deem and Ramdas Pophale) SiO2 
 PCOD9101562
Probable space group: P -1
;
_chemical_formula_sum "Si O2"
_cell_formula_units_Z 12
_cell_length_a 7.530594
_cell_length_b 15.509173
_cell_length_c 15.642737
_cell_angle_alpha 18.145774
_cell_angle_beta 59.076908
_cell_angle_gamma 57.537271
_cell_volume 480.022855
_symmetry_space_group_name_H-M "P -1"
_symmetry_group_IT_number 2
_symmetry_cell_setting 'triclinic'
loop_
_space_group_symop_operation_xyz
x,y,z
-x,-y,-z
loop_
_atom_site_type_symbol
_atom_site_label
_atom_site_fract_x
_atom_site_fract_y
_atom_site_fract_z
Si Si1 0.350308 0.859235 0.980357
Si Si2 0.286493 0.121510 0.268021
Si Si3 0.496392 0.349079 0.553112
Si Si4 0.062267 0.862093 0.425054
Si Si5 0.583838 0.364183 0.196382
Si Si6 0.855052 0.352608 0.908372
O O1 0.509324 0.914340 0.812043
O O2 0.141015 0.792591 0.048710
O O3 0.331914 0.138885 0.778626
O O4 0.454297 0.590366 0.263743
O O5 0.877237 0.028126 0.601557
O O6 0.338305 0.959304 0.497477
O O7 0.247193 0.451761 0.985943
O O8 0.500000 0.500000 0.500000
O O9 0.725194 0.154107 0.667512
O O10 0.880762 0.096783 0.209679
O O11 0.007446 0.554500 0.715288
O O12 0.500000 0.500000 0.000000
O O13 0.371760 0.447263 0.226048
#
# Coordination Sequence:
#
# PCOD9101562 Si02
#       6
#     2   2   2   2   2   2
#     4  10  20  38  60  82 112 156 191 220 277 354
#     4  10  20  38  60  82 112 156 191 220 277 354
#     4  11  22  39  60  85 114 150 190 233 280 335
#     4  11  21  37  59  85 112 148 190 233 277 333
#     4  11  22  39  60  85 114 150 190 233 280 335
#     4  11  21  37  59  85 112 148 190 233 277 333
#
# _framework density 24.998812000000001
#
# number of rings (size 3 to 8) (size 9 to 14) (size 15 to 20)
#    0.000    1.333    0.000   11.000    0.000    0.000 
#    0.000   10.000    0.000    0.000    0.000    0.000 
#    0.000    0.000    0.000    0.000    0.000    0.000 
#
# Total GULP energy -67043.156771 kJ/mol
# GULP energy per Si atom -5586.929731 kJ/mol
# Density = 2.494191 g / cm^3
# Si number density = 24.998812 Si / 1000 Ang^3
#
#
#
# Elastic Constant Matrix: (Units=GPa)
#
#
# Indices 1 2 3 4 5 6 
#
# 1 115.4304 19.8139 43.0346 1.7595 -19.3809 35.1600
# 2 19.8139 32.7457 8.0967 4.3515 -12.8814 7.5086
# 3 43.0346 8.0967 145.4385 -18.3583 2.5190 15.2546
# 4 1.7595 4.3515 -18.3583 27.1870 21.7360 -3.4160
# 5 -19.3809 -12.8814 2.5190 21.7360 57.3725 -14.7127
# 6 35.1600 7.5086 15.2546 -3.4160 -14.7127 35.8465
#
#
#
# Elastic Compliance Matrix: (Units=1/GPa)
#
#
# Indices 1 2 3 4 5 6 
#
# 1 0.015194 -0.001989 -0.004538 -0.009683 0.005697 -0.011139
# 2 -0.001989 0.044221 -0.005608 -0.026371 0.019655 0.000629
# 3 -0.004538 -0.005608 0.010899 0.016187 -0.009784 -0.001486
# 4 -0.009683 -0.026371 0.016187 0.086903 -0.043160 -0.001299
# 5 0.005697 0.019655 -0.009784 -0.043160 0.042551 0.007810
# 6 -0.011139 0.000629 -0.001486 -0.001299 0.007810 0.042405
#
#
# Mechanical properties :
#
#
# Convention : Reuss Voigt Hill
#
# Bulk Modulus (GPa) = 21.71882 48.38944 35.05413
# Shear Modulus (GPa) = 17.74362 38.92583 28.33473
#
# Velocity S-wave (km/s) = 2.66706 3.95030 3.37032
# Velocity P-wave (km/s) = 4.26510 6.34076 5.40353
#
# Compressibility (1/GPa) = 0.04604303
#
# Stress axis : x y z
#
# Youngs Moduli (GPa) = 65.81717 22.61385 91.75011
#
# Poissons Ratio (x) = 0.04498 0.41632
# Poissons Ratio (y) = 0.13093 0.51457
# Poissons Ratio (z) = 0.29865 0.12683
#
# Static dielectric constant tensor:
#      x y z
#    x 2.045600 0.047850 -0.078120 
#    y 0.047850 2.046800 0.003480 
#    z -0.078120 0.003480 1.931940 
# 
# From -- ./inp_files/504840.got.cif
#   From: 2010.05.17/outbox.cif.g08.bks.cpg/sg2_253_cif.got.tgz:504840.got - 2010.06.03 11:33:40.
