data_PCOD9101609
_publ_section_title
;
Structure prediction by ZEFSAII (Michael W. Deem and Ramdas Pophale) SiO2 
 PCOD9101609
Probable space group: P -1
;
_chemical_formula_sum "Si O2"
_cell_formula_units_Z 14
_cell_length_a 5.529647
_cell_length_b 21.457678
_cell_length_c 4.921111
_cell_angle_alpha 109.037156
_cell_angle_beta 97.729775
_cell_angle_gamma 66.208900
_cell_volume 505.062944
_symmetry_space_group_name_H-M "P -1"
_symmetry_group_IT_number 2
_symmetry_cell_setting 'triclinic'
loop_
_space_group_symop_operation_xyz
x,y,z
-x,-y,-z
loop_
_atom_site_type_symbol
_atom_site_label
_atom_site_fract_x
_atom_site_fract_y
_atom_site_fract_z
Si Si1 0.449660 0.251904 0.458968
Si Si2 0.305410 0.978808 0.240849
Si Si3 0.896924 0.284106 0.396198
Si Si4 0.183684 0.521300 0.258593
Si Si5 0.266648 0.154399 0.023124
Si Si6 0.255752 0.595485 0.860632
Si Si7 0.095386 0.886275 0.470755
O O1 0.618322 0.299707 0.516699
O O2 0.637190 0.181050 0.535325
O O3 0.153399 0.292276 0.580113
O O4 0.392177 0.215049 0.122085
O O5 0.505365 0.922191 0.979879
O O6 0.180008 0.931858 0.325508
O O7 0.500000 0.000000 0.500000
O O8 0.064198 0.053328 0.244620
O O9 0.835074 0.325343 0.158010
O O10 0.020809 0.197868 0.244417
O O11 0.442869 0.450468 0.243727
O O12 0.903698 0.439490 0.410583
O O13 0.250791 0.576633 0.148489
O O14 0.000000 0.500000 0.000000
O O15 0.120456 0.141542 0.723036
#
# Coordination Sequence:
#
# PCOD9101609 Si02
#       7
#     2   2   2   2   2   2   2
#     4  10  24  41  61  89 128 169 220 279 335 425
#     4   9  19  35  59  87 117 167 219 287 345 414
#     4  10  24  44  61  96 136 171 228 277 347 415
#     4  10  22  43  75 101 145 181 239 286 347 410
#     4   9  21  37  60  86 124 159 218 272 340 406
#     4  10  23  44  66 109 138 186 235 289 345 423
#     4  10  20  38  60  84 124 166 225 280 356 400
#
# _framework density 27.719318000000001
#
# number of rings (size 3 to 8) (size 9 to 14) (size 15 to 20)
#    0.857    1.429    0.000    1.286    6.000    1.714 
#    2.571    7.143    0.000    0.000    0.000    0.000 
#    0.000    0.000    0.000    0.000    0.000    0.000 
#
# Total GULP energy -78183.357014 kJ/mol
# GULP energy per Si atom -5584.525501 kJ/mol
# Density = 2.765623 g / cm^3
# Si number density = 27.719318 Si / 1000 Ang^3
#
#
#
# Elastic Constant Matrix: (Units=GPa)
#
#
# Indices 1 2 3 4 5 6 
#
# 1 113.9516 42.4508 39.2462 -6.9965 25.1950 -0.0193
# 2 42.4508 150.3527 29.8482 -29.0805 17.7578 -13.9048
# 3 39.2462 29.8482 113.6821 -10.5153 20.3117 7.8882
# 4 -6.9965 -29.0805 -10.5153 50.7407 1.4110 1.5983
# 5 25.1950 17.7578 20.3117 1.4110 53.2635 -0.2965
# 6 -0.0193 -13.9048 7.8882 1.5983 -0.2965 43.9594
#
#
#
# Elastic Compliance Matrix: (Units=1/GPa)
#
#
# Indices 1 2 3 4 5 6 
#
# 1 0.011332 -0.002313 -0.002668 -0.000209 -0.003568 -0.000264
# 2 -0.002313 0.008815 -0.001017 0.004478 -0.001560 0.002796
# 3 -0.002668 -0.001017 0.010731 0.001417 -0.002541 -0.002317
# 4 -0.000209 0.004478 0.001417 0.022599 -0.002531 0.000323
# 5 -0.003568 -0.001560 -0.002541 -0.002531 0.022019 0.000202
# 6 -0.000264 0.002796 -0.002317 0.000323 0.000202 0.024038
#
#
# Mechanical properties :
#
#
# Convention : Reuss Voigt Hill
#
# Bulk Modulus (GPa) = 52.96481 66.78631 59.87556
# Shear Modulus (GPa) = 42.43560 47.35546 44.89553
#
# Velocity S-wave (km/s) = 3.91692 4.13775 4.02885
# Velocity P-wave (km/s) = 6.29328 6.85376 6.57949
#
# Compressibility (1/GPa) = 0.01888046
#
# Stress axis : x y z
#
# Youngs Moduli (GPa) = 88.24230 113.44372 93.19212
#
# Poissons Ratio (x) = 0.26243 0.24867
# Poissons Ratio (y) = 0.20413 0.09478
# Poissons Ratio (z) = 0.23547 0.11537
#
# Static dielectric constant tensor:
#      x y z
#    x 2.279040 0.030910 0.003050 
#    y 0.030910 2.143570 0.054580 
#    z 0.003050 0.054580 2.210400 
# 
# From -- ./inp_files/141466.got.cif
#   From: 2010.05.17/outbox.cif.g08.bks.cpg/sg2_71_cif.got.tgz:141466.got - 2010.06.03 11:33:40.
