data_PCOD9101669
_publ_section_title
;
Structure prediction by ZEFSAII (Michael W. Deem and Ramdas Pophale) SiO2 
 PCOD9101669
Probable space group: P -1
;
_chemical_formula_sum "Si O2"
_cell_formula_units_Z 14
_cell_length_a 9.441858
_cell_length_b 13.454863
_cell_length_c 14.303872
_cell_angle_alpha 32.276544
_cell_angle_beta 111.940942
_cell_angle_gamma 89.805973
_cell_volume 688.113417
_symmetry_space_group_name_H-M "P -1"
_symmetry_group_IT_number 2
_symmetry_cell_setting 'triclinic'
loop_
_space_group_symop_operation_xyz
x,y,z
-x,-y,-z
loop_
_atom_site_type_symbol
_atom_site_label
_atom_site_fract_x
_atom_site_fract_y
_atom_site_fract_z
Si Si1 0.881309 0.137895 0.987275
Si Si2 0.018581 0.265690 0.196942
Si Si3 0.346717 0.653833 0.043062
Si Si4 0.115250 0.162001 0.516150
Si Si5 0.203433 0.836830 0.453492
Si Si6 0.968572 0.455644 0.676944
Si Si7 0.276291 0.142981 0.864396
O O1 0.782537 0.027941 0.012809
O O2 0.745773 0.300405 0.913392
O O3 0.900146 0.296464 0.796966
O O4 0.099272 0.925255 0.255770
O O5 0.099484 0.155147 0.407358
O O6 0.163533 0.064993 0.313395
O O7 0.000000 0.500000 0.000000
O O8 0.801418 0.343761 0.063791
O O9 0.570876 0.406870 0.294126
O O10 0.309556 0.899614 0.811131
O O11 0.085695 0.394438 0.360507
O O12 0.932723 0.196650 0.492988
O O13 0.850336 0.657579 0.406813
O O14 0.197257 0.282001 0.834105
O O15 0.500000 0.000000 0.000000
#
# Coordination Sequence:
#
# PCOD9101669 Si02
#       7
#     2   2   2   2   2   2   2
#     4  10  22  43  64  93 129 161 204 263 308 367
#     4  10  21  38  57  87 129 161 207 258 300 361
#     4  10  21  37  62  91 124 164 208 251 303 368
#     4  10  20  38  60  87 122 164 205 256 306 364
#     4  10  21  38  62  88 124 166 205 252 307 363
#     4  11  23  42  66  90 126 166 203 259 319 363
#     4  11  25  42  65  95 123 161 210 257 319 378
#
# _framework density 20.345483000000002
#
# number of rings (size 3 to 8) (size 9 to 14) (size 15 to 20)
#    0.000    2.000    2.857    3.857    2.000    4.571 
#    0.000    2.857    0.000    0.000    0.000    0.000 
#    0.000    0.000    0.000    0.000    0.000    0.000 
#
# Total GULP energy -78133.670381 kJ/mol
# GULP energy per Si atom -5580.976456 kJ/mol
# Density = 2.029918 g / cm^3
# Si number density = 20.345483 Si / 1000 Ang^3
#
#
#
# Elastic Constant Matrix: (Units=GPa)
#
#
# Indices 1 2 3 4 5 6 
#
# 1 36.0672 -4.6896 1.3229 -55.1364 -0.8270 32.1101
# 2 -4.6896 52.5091 -20.4106 -42.5016 12.5982 28.5005
# 3 1.3229 -20.4106 1.8048 -93.7390 27.9110 40.3089
# 4 -55.1364 -42.5016 -93.7390 -9.6918 -3.0655 15.3528
# 5 -0.8270 12.5982 27.9110 -3.0655 48.5395 -8.3493
# 6 32.1101 28.5005 40.3089 15.3528 -8.3493 3.5526
#
#
#
# Elastic Compliance Matrix: (Units=1/GPa)
#
#
# Indices 1 2 3 4 5 6 
#
# 1 0.038802 -0.002520 -0.024358 -0.002170 0.012568 -0.015208
# 2 -0.002520 0.015210 -0.005788 -0.007360 -0.002402 -0.007409
# 3 -0.024358 -0.005788 0.020951 -0.002320 -0.007412 0.021477
# 4 -0.002170 -0.007360 -0.002320 0.021453 0.011199 0.038584
# 5 0.012568 -0.002402 -0.007412 0.011199 0.027402 0.005772
# 6 -0.015208 -0.007409 0.021477 0.038584 0.005772 0.081516
#
#
# Mechanical properties :
#
#
# Convention : Reuss Voigt Hill
#
# Bulk Modulus (GPa) = 103.82669 4.75848 54.29259
# Shear Modulus (GPa) = 18.25648 16.09061 17.17354
#
# Velocity S-wave (km/s) = 2.99879 2.81529 2.90849
# Velocity P-wave (km/s) = 7.94562 3.59329 6.16622
#
# Compressibility (1/GPa) = 0.00963143
#
# Stress axis : x y z
#
# Youngs Moduli (GPa) = 25.77190 65.74646 47.73023
#
# Poissons Ratio (x) = 0.16569 1.16260
# Poissons Ratio (y) = 0.06495 0.27626
# Poissons Ratio (z) = 0.62775 0.38054
#
# Static dielectric constant tensor:
#      x y z
#    x 1.711370 0.021990 -0.012690 
#    y 0.021990 1.791840 -0.026440 
#    z -0.012690 -0.026440 1.730880 
# 
# From -- ./inp_files/314928.got.cif
#   From: 2010.05.17/outbox.cif.g08.bks.cpg/sg2_158_cif.got.tgz:314928.got - 2010.06.03 11:33:40.
