data_PCOD9101773
_publ_section_title
;
Structure prediction by ZEFSAII (Michael W. Deem and Ramdas Pophale) SiO2 
 PCOD9101773
Probable space group: P -1
;
_chemical_formula_sum "Si O2"
_cell_formula_units_Z 14
_cell_length_a 9.040034
_cell_length_b 5.177471
_cell_length_c 22.527871
_cell_angle_alpha 54.171485
_cell_angle_beta 142.740995
_cell_angle_gamma 119.332372
_cell_volume 516.944712
_symmetry_space_group_name_H-M "P -1"
_symmetry_group_IT_number 2
_symmetry_cell_setting 'triclinic'
loop_
_space_group_symop_operation_xyz
x,y,z
-x,-y,-z
loop_
_atom_site_type_symbol
_atom_site_label
_atom_site_fract_x
_atom_site_fract_y
_atom_site_fract_z
Si Si1 0.732565 0.135651 0.381894
Si Si2 0.242426 0.347700 0.231719
Si Si3 0.758206 0.148780 0.924364
Si Si4 0.457302 0.520014 0.554669
Si Si5 0.876845 0.033130 0.659007
Si Si6 0.675545 0.271812 0.212404
Si Si7 0.249584 0.312892 0.920346
O O1 0.547811 0.344372 0.334866
O O2 0.744062 0.288724 0.300384
O O3 0.570619 0.804771 0.375806
O O4 0.000000 0.000000 0.500000
O O5 0.235451 0.484023 0.143648
O O6 0.154240 0.995796 0.275851
O O7 0.015508 0.548864 0.161705
O O8 0.565970 0.938487 0.851374
O O9 0.736375 0.040787 0.000402
O O10 0.000000 0.000000 0.000000
O O11 0.500000 0.500000 0.500000
O O12 0.674123 0.751955 0.615780
O O13 0.199487 0.685902 0.446039
O O14 0.132713 0.934666 0.732931
O O15 0.711390 0.613664 0.146337
O O16 0.500000 0.500000 0.000000
#
# Coordination Sequence:
#
# PCOD9101773 Si02
#       7
#     2   2   2   2   2   2   2
#     4  12  26  39  58  95 140 172 214 270 310 387
#     4  10  20  38  60  92 123 167 215 252 331 386
#     4   9  18  37  66  90 119 160 212 271 329 390
#     4  11  22  40  60  85 127 172 225 266 304 370
#     4  10  22  39  63  86 121 181 217 256 323 374
#     4  10  21  38  61  93 124 165 218 261 324 394
#     4   8  17  38  63  86 115 157 216 268 323 384
#
# _framework density 27.082198000000002
#
# number of rings (size 3 to 8) (size 9 to 14) (size 15 to 20)
#    0.000    2.000    1.429    1.714    4.000    0.571 
#    0.000    7.143    0.000    0.000    0.000    0.000 
#    0.000    0.000    0.000    0.000    0.000    0.000 
#
# Total GULP energy -77960.602681 kJ/mol
# GULP energy per Si atom -5568.614477 kJ/mol
# Density = 2.702056 g / cm^3
# Si number density = 27.082198 Si / 1000 Ang^3
#
#
#
# Elastic Constant Matrix: (Units=GPa)
#
#
# Indices 1 2 3 4 5 6 
#
# 1 154.2809 23.1890 84.0544 4.1529 15.9180 19.3301
# 2 23.1890 76.0838 26.6198 10.9235 -13.2663 9.8181
# 3 84.0544 26.6198 162.4772 0.3164 14.1939 15.0629
# 4 4.1529 10.9235 0.3164 38.3829 21.7953 3.1260
# 5 15.9180 -13.2663 14.1939 21.7953 82.0149 -10.7419
# 6 19.3301 9.8181 15.0629 3.1260 -10.7419 23.4077
#
#
#
# Elastic Compliance Matrix: (Units=1/GPa)
#
#
# Indices 1 2 3 4 5 6 
#
# 1 0.009972 -0.001447 -0.004097 0.001406 -0.002673 -0.006406
# 2 -0.001447 0.016471 -0.002310 -0.007394 0.005198 -0.000854
# 3 -0.004097 -0.002310 0.009103 0.002502 -0.002192 -0.002845
# 4 0.001406 -0.007394 0.002502 0.036139 -0.012868 -0.010401
# 5 -0.002673 0.005198 -0.002192 -0.012868 0.018901 0.011830
# 6 -0.006406 -0.000854 -0.002845 -0.010401 0.011830 0.057018
#
#
# Mechanical properties :
#
#
# Convention : Reuss Voigt Hill
#
# Bulk Modulus (GPa) = 50.41159 73.39648 61.90404
# Shear Modulus (GPa) = 29.42475 46.02635 37.72555
#
# Velocity S-wave (km/s) = 3.29978 4.12698 3.73634
# Velocity P-wave (km/s) = 5.75958 7.06183 6.44369
#
# Compressibility (1/GPa) = 0.01983671
#
# Stress axis : x y z
#
# Youngs Moduli (GPa) = 100.28228 60.71292 109.85284
#
# Poissons Ratio (x) = 0.08786 0.45006
# Poissons Ratio (y) = 0.14513 0.25381
# Poissons Ratio (z) = 0.41085 0.14027
#
# Static dielectric constant tensor:
#      x y z
#    x 2.242990 -0.052310 -0.061880 
#    y -0.052310 2.167630 -0.081200 
#    z -0.061880 -0.081200 2.141100 
# 
# From -- ./inp_files/605815.got.cif
#   From: 2010.05.17/outbox.cif.g08.bks.cpg/sg2_303_cif.got.tgz:605815.got - 2010.06.03 11:33:40.
