data_PCOD9101704
_publ_section_title
;
Structure prediction by ZEFSAII (Michael W. Deem and Ramdas Pophale) SiO2 
 PCOD9101704
Probable space group: P -1
;
_chemical_formula_sum "Si O2"
_cell_formula_units_Z 15
_cell_length_a 4.993012
_cell_length_b 15.210120
_cell_length_c 20.240537
_cell_angle_alpha 28.758762
_cell_angle_beta 68.766123
_cell_angle_gamma 67.960728
_cell_volume 683.613405
_symmetry_space_group_name_H-M "P -1"
_symmetry_group_IT_number 2
_symmetry_cell_setting 'triclinic'
loop_
_space_group_symop_operation_xyz
x,y,z
-x,-y,-z
loop_
_atom_site_type_symbol
_atom_site_label
_atom_site_fract_x
_atom_site_fract_y
_atom_site_fract_z
Si Si1 0.829784 0.437453 0.994221
Si Si2 0.854037 0.879105 0.004404
Si Si3 0.171717 0.051234 0.185451
Si Si4 0.109532 0.494598 0.206768
Si Si5 0.520637 0.609037 0.642237
Si Si6 0.659708 0.829574 0.363706
Si Si7 0.500000 0.500000 0.500000
Si Si8 0.345672 0.733032 0.226769
O O1 0.879319 0.522359 0.861692
O O2 0.500000 0.500000 0.000000
O O3 0.000000 0.500000 0.000000
O O4 0.947368 0.222014 0.117506
O O5 0.108607 0.711585 0.082257
O O6 0.626875 0.812237 0.119470
O O7 0.719895 0.898273 0.929777
O O8 0.901192 0.090338 0.873806
O O9 0.441874 0.998212 0.243445
O O10 0.981441 0.882242 0.307506
O O11 0.806077 0.436136 0.296934
O O12 0.361174 0.380155 0.301731
O O13 0.553805 0.775904 0.480769
O O14 0.713660 0.436100 0.702972
O O15 0.633365 0.660198 0.427947
O O16 0.427171 0.647358 0.347286
#
# Coordination Sequence:
#
# PCOD9101704 Si02
#       8
#     2   2   2   2   2   2   1   2
#     4  11  23  42  70  99 122 154 204 276 341 389
#     4   9  19  36  56  88 121 165 210 266 308 361
#     4  11  23  41  64  93 126 165 211 267 327 376
#     4  10  21  39  63  89 122 160 208 255 323 380
#     4  10  21  38  59  88 124 175 207 246 303 380
#     4  11  23  40  62  90 131 175 217 256 307 374
#     4  10  20  38  60  88 132 178 224 258 296 364
#     4   9  18  36  56  88 125 170 218 259 303 362
#
# _framework density 21.942224
#
# number of rings (size 3 to 8) (size 9 to 14) (size 15 to 20)
#    0.000    1.867    1.333    2.400    0.000    6.400 
#    7.200    0.000    0.000   16.000    0.000    0.000 
#    0.000    0.000    0.000    0.000    0.000    0.000 
#
# Total GULP energy -83545.448663 kJ/mol
# GULP energy per Si atom -5569.696578 kJ/mol
# Density = 2.189228 g / cm^3
# Si number density = 21.942224 Si / 1000 Ang^3
#
#
#
# Elastic Constant Matrix: (Units=GPa)
#
#
# Indices 1 2 3 4 5 6 
#
# 1 76.4975 9.5787 17.3262 7.3117 -0.5728 9.8542
# 2 9.5787 74.1937 24.1555 7.7729 -6.3783 2.2579
# 3 17.3262 24.1555 127.1814 27.2752 11.8430 2.6097
# 4 7.3117 7.7729 27.2752 22.0953 7.8635 3.9276
# 5 -0.5728 -6.3783 11.8430 7.8635 29.3590 5.5465
# 6 9.8542 2.2579 2.6097 3.9276 5.5465 31.1848
#
#
#
# Elastic Compliance Matrix: (Units=1/GPa)
#
#
# Indices 1 2 3 4 5 6 
#
# 1 0.014324 -0.000800 -0.001303 -0.002862 0.002228 -0.004395
# 2 -0.000800 0.015299 -0.002465 -0.003844 0.005550 -0.001152
# 3 -0.001303 -0.002465 0.011280 -0.012136 -0.002155 0.001558
# 4 -0.002862 -0.003844 -0.012136 0.068038 -0.013468 -0.003975
# 5 0.002228 0.005550 -0.002155 -0.013468 0.041020 -0.006525
# 6 -0.004395 -0.001152 0.001558 -0.003975 -0.006525 0.035070
#
#
# Mechanical properties :
#
#
# Convention : Reuss Voigt Hill
#
# Bulk Modulus (GPa) = 31.48001 42.22151 36.85076
# Shear Modulus (GPa) = 24.41924 31.64865 28.03394
#
# Velocity S-wave (km/s) = 3.33962 3.80197 3.57827
# Velocity P-wave (km/s) = 5.40820 6.20944 5.82262
#
# Compressibility (1/GPa) = 0.03176619
#
# Stress axis : x y z
#
# Youngs Moduli (GPa) = 69.81290 65.36318 88.65327
#
# Poissons Ratio (x) = 0.05229 0.11551
# Poissons Ratio (y) = 0.05585 0.21857
# Poissons Ratio (z) = 0.09097 0.16115
#
# Static dielectric constant tensor:
#      x y z
#    x 1.766530 -0.023500 0.006490 
#    y -0.023500 1.878170 -0.023870 
#    z 0.006490 -0.023870 1.816510 
# 
# From -- ./inp_files/468223.got.cif
#   From: 2010.05.17/outbox.cif.g08.bks.cpg/sg2_235_cif.got.tgz:468223.got - 2010.06.03 11:33:40.
