data_PCOD9101448
_publ_section_title
;
Structure prediction by ZEFSAII (Michael W. Deem and Ramdas Pophale) SiO2 
 PCOD9101448
Probable space group: P -1
;
_chemical_formula_sum "Si O2"
_cell_formula_units_Z 16
_cell_length_a 14.716448
_cell_length_b 9.620861
_cell_length_c 5.402023
_cell_angle_alpha 64.078639
_cell_angle_beta 70.696653
_cell_angle_gamma 99.813444
_cell_volume 602.883170
_symmetry_space_group_name_H-M "P -1"
_symmetry_group_IT_number 2
_symmetry_cell_setting 'triclinic'
loop_
_space_group_symop_operation_xyz
x,y,z
-x,-y,-z
loop_
_atom_site_type_symbol
_atom_site_label
_atom_site_fract_x
_atom_site_fract_y
_atom_site_fract_z
Si Si1 0.758698 0.004916 0.449841
Si Si2 0.099953 0.172455 0.573394
Si Si3 0.267533 0.407109 0.926652
Si Si4 0.926612 0.236830 0.450873
Si Si5 0.403522 0.234770 0.874442
Si Si6 0.584932 0.427223 0.868265
Si Si7 0.103871 0.449126 0.737726
Si Si8 0.607649 0.078591 0.196547
O O1 0.817938 0.116877 0.537431
O O2 0.709304 0.102182 0.244847
O O3 0.848372 0.954101 0.283900
O O4 0.660232 0.844314 0.754617
O O5 0.117254 0.323674 0.624302
O O6 0.983693 0.130179 0.619602
O O7 0.169211 0.244668 0.213331
O O8 0.336646 0.337456 0.738408
O O9 0.210899 0.511809 0.752840
O O10 0.326125 0.478791 0.073350
O O11 0.912510 0.390530 0.485005
O O12 0.004648 0.338147 0.079505
O O13 0.518592 0.361403 0.717913
O O14 0.400098 0.070263 0.868009
O O15 0.500000 0.500000 0.000000
O O16 0.608602 0.256094 0.984791
O O17 0.500000 0.000000 0.500000
#
# Coordination Sequence:
#
# PCOD9101448 Si02
#       8
#     2   2   2   2   2   2   2   2
#     4  11  23  39  61  89 119 157 205 244 302 359
#     4  10  21  38  60  87 119 158 196 248 299 355
#     4   9  20  39  59  88 119 158 203 243 299 360
#     4  10  22  37  59  87 120 156 198 247 296 361
#     4  10  22  41  61  85 126 160 197 257 301 350
#     4  10  21  41  61  85 122 159 199 248 299 354
#     4  10  20  38  59  86 124 151 198 251 296 351
#     4  12  24  40  64  88 122 160 204 251 302 356
#
# _framework density 26.53914
#
# number of rings (size 3 to 8) (size 9 to 14) (size 15 to 20)
#    0.000    1.750    1.250    2.625    0.000    2.500 
#    2.250    1.250    0.000    0.000    0.000    0.000 
#    0.000    0.000    0.000    0.000    0.000    0.000 
#
# Total GULP energy -89152.227499 kJ/mol
# GULP energy per Si atom -5572.014219 kJ/mol
# Density = 2.647874 g / cm^3
# Si number density = 26.539140 Si / 1000 Ang^3
#
#
#
# Elastic Constant Matrix: (Units=GPa)
#
#
# Indices 1 2 3 4 5 6 
#
# 1 152.4398 65.8161 46.2977 -29.7855 54.3647 -19.2780
# 2 65.8161 112.9574 -6.0793 16.6938 -37.0493 23.6328
# 3 46.2977 -6.0793 22.7439 5.0813 -38.1526 7.0541
# 4 -29.7855 16.6938 5.0813 17.1237 14.7201 -6.8026
# 5 54.3647 -37.0493 -38.1526 14.7201 -1.4890 20.8083
# 6 -19.2780 23.6328 7.0541 -6.8026 20.8083 39.4716
#
#
#
# Elastic Compliance Matrix: (Units=1/GPa)
#
#
# Indices 1 2 3 4 5 6 
#
# 1 0.003314 0.000421 0.002777 -0.000683 0.005155 -0.001965
# 2 0.000421 0.006936 -0.006383 -0.000420 -0.004544 -0.000483
# 3 0.002777 -0.006383 0.019906 0.013914 -0.006708 0.007555
# 4 -0.000683 -0.000420 0.013914 0.041743 0.012709 -0.002074
# 5 0.005155 -0.004544 -0.006708 0.012709 0.005713 0.005616
# 6 -0.001965 -0.000483 0.007555 -0.002074 0.005616 0.019996
#
#
# Mechanical properties :
#
#
# Convention : Reuss Voigt Hill
#
# Bulk Modulus (GPa) = 42.04242 55.57890 48.81066
# Shear Modulus (GPa) = 44.67995 23.16171 33.92083
#
# Velocity S-wave (km/s) = 4.10756 2.95742 3.57899
# Velocity P-wave (km/s) = 6.19452 5.71397 5.95909
#
# Compressibility (1/GPa) = 0.02378550
#
# Stress axis : x y z
#
# Youngs Moduli (GPa) = 301.73594 144.16745 50.23684
#
# Poissons Ratio (x) = -0.06076 -0.13949
# Poissons Ratio (y) = -0.12717 0.32069
# Poissons Ratio (z) = -0.83782 0.92029
#
# Static dielectric constant tensor:
#      x y z
#    x 2.110060 -0.007800 0.037740 
#    y -0.007800 2.046700 -0.046610 
#    z 0.037740 -0.046610 2.302780 
# 
# From -- ./inp_files/83015.got.cif
#   From: 2010.05.17/outbox.cif.g08.bks.cpg/sg2_42_cif.got.tgz:83015.got - 2010.06.03 11:33:40.
