data_PCOD9101084
_publ_section_title
;
Structure prediction by ZEFSAII (Michael W. Deem and Ramdas Pophale) SiO2 
 PCOD9101084
Probable space group: P -1
;
_chemical_formula_sum "Si O2"
_cell_formula_units_Z 16
_cell_length_a 8.073934
_cell_length_b 8.642943
_cell_length_c 14.351214
_cell_angle_alpha 139.149063
_cell_angle_beta 90.863142
_cell_angle_gamma 93.897448
_cell_volume 650.136344
_symmetry_space_group_name_H-M "P -1"
_symmetry_group_IT_number 2
_symmetry_cell_setting 'triclinic'
loop_
_space_group_symop_operation_xyz
x,y,z
-x,-y,-z
loop_
_atom_site_type_symbol
_atom_site_label
_atom_site_fract_x
_atom_site_fract_y
_atom_site_fract_z
Si Si1 0.406319 0.886114 0.604693
Si Si2 0.835294 0.455653 0.917160
Si Si3 0.676578 0.584534 0.159215
Si Si4 0.128234 0.467065 0.686426
Si Si5 0.349277 0.268655 0.089401
Si Si6 0.774511 0.919018 0.605950
Si Si7 0.137697 0.427636 0.394120
Si Si8 0.555174 0.199550 0.220154
O O1 0.582225 0.888226 0.554877
O O2 0.276728 0.652963 0.480941
O O3 0.459017 0.871799 0.706428
O O4 0.329626 0.132846 0.707090
O O5 0.808000 0.641534 0.920244
O O6 0.819061 0.196696 0.753276
O O7 0.698391 0.489830 0.012099
O O8 0.000000 0.500000 0.000000
O O9 0.825554 0.525695 0.201696
O O10 0.506472 0.453245 0.140840
O O11 0.112609 0.199528 0.522474
O O12 0.297990 0.584587 0.690163
O O13 0.976437 0.604171 0.713830
O O14 0.384158 0.249768 0.191221
O O15 0.375255 0.013669 0.931941
O O16 0.796713 0.784214 0.643135
O O17 0.000000 0.500000 0.500000
#
# Coordination Sequence:
#
# PCOD9101084 Si02
#       8
#     2   2   2   2   2   2   2   2
#     4  12  21  40  71  94 129 171 222 267 322 389
#     4  12  26  42  67  97 137 167 214 271 334 384
#     4  11  24  45  67  94 132 176 215 263 333 396
#     4  10  24  44  66  96 133 174 217 268 325 387
#     4  10  21  42  65  94 128 175 214 259 323 396
#     4  11  24  42  65 100 128 170 218 274 319 384
#     4  10  22  40  65  93 133 174 211 266 329 382
#     4  10  20  37  71  91 126 170 222 255 315 392
#
# _framework density 24.610222
#
# number of rings (size 3 to 8) (size 9 to 14) (size 15 to 20)
#    0.000    1.250    5.000    1.500    5.250    1.000 
#    2.250    0.625    0.000    0.000    0.000    0.000 
#    0.000    0.000    0.000    0.000    0.000    0.000 
#
# Total GULP energy -89540.182067 kJ/mol
# GULP energy per Si atom -5596.261379 kJ/mol
# Density = 2.455421 g / cm^3
# Si number density = 24.610222 Si / 1000 Ang^3
#
#
#
# Elastic Constant Matrix: (Units=GPa)
#
#
# Indices 1 2 3 4 5 6 
#
# 1 79.2869 9.1464 -1.1673 -0.7291 24.1398 -33.8730
# 2 9.1464 80.3322 17.1791 -12.7128 7.7247 -34.0772
# 3 -1.1673 17.1791 87.7010 11.4520 1.8818 -12.5398
# 4 -0.7291 -12.7128 11.4520 53.8996 -9.4479 3.2697
# 5 24.1398 7.7247 1.8818 -9.4479 31.8000 -13.6510
# 6 -33.8730 -34.0772 -12.5398 3.2697 -13.6510 48.9287
#
#
#
# Elastic Compliance Matrix: (Units=1/GPa)
#
#
# Indices 1 2 3 4 5 6 
#
# 1 0.022794 0.004688 0.002275 -0.002202 -0.012203 0.016371
# 2 0.004688 0.019948 -0.002061 0.004212 -0.000024 0.016322
# 3 0.002275 -0.002061 0.012808 -0.003669 -0.001704 0.003192
# 4 -0.002202 0.004212 -0.003669 0.021590 0.007795 0.001201
# 5 -0.012203 -0.000024 -0.001704 0.007795 0.044406 0.002966
# 6 0.016371 0.016322 0.003192 0.001201 0.002966 0.044704
#
#
# Mechanical properties :
#
#
# Convention : Reuss Voigt Hill
#
# Bulk Modulus (GPa) = 15.30105 33.07073 24.18589
# Shear Modulus (GPa) = 28.05333 41.73647 34.89490
#
# Velocity S-wave (km/s) = 3.37991 4.12260 3.76959
# Velocity P-wave (km/s) = 4.63277 6.01066 5.36613
#
# Compressibility (1/GPa) = 0.06535501
#
# Stress axis : x y z
#
# Youngs Moduli (GPa) = 43.87073 50.13036 78.07358
#
# Poissons Ratio (x) = -0.23500 -0.17764
# Poissons Ratio (y) = -0.20565 0.16089
# Poissons Ratio (z) = -0.09982 0.10331
#
# Static dielectric constant tensor:
#      x y z
#    x 2.042220 0.016980 -0.031390 
#    y 0.016980 1.956210 -0.043820 
#    z -0.031390 -0.043820 1.957490 
# 
# From -- ./inp_files/281730.got.cif
#   From: 2010.05.17/outbox.cif.g08.bks.cpg/sg2_141_cif.got.tgz:281730.got - 2010.06.03 11:33:40.
