data_PCOD9101244
_publ_section_title
;
Structure prediction by ZEFSAII (Michael W. Deem and Ramdas Pophale) SiO2 
 PCOD9101244
Probable space group: P -1
;
_chemical_formula_sum "Si O2"
_cell_formula_units_Z 14
_cell_length_a 5.083702
_cell_length_b 23.243581
_cell_length_c 16.616215
_cell_angle_alpha 19.058196
_cell_angle_beta 75.328676
_cell_angle_gamma 84.586784
_cell_volume 550.953929
_symmetry_space_group_name_H-M "P -1"
_symmetry_group_IT_number 2
_symmetry_cell_setting 'triclinic'
loop_
_space_group_symop_operation_xyz
x,y,z
-x,-y,-z
loop_
_atom_site_type_symbol
_atom_site_label
_atom_site_fract_x
_atom_site_fract_y
_atom_site_fract_z
Si Si1 0.515830 0.796782 0.840890
Si Si2 0.246748 0.316530 0.872463
Si Si3 0.406581 0.949473 0.165563
Si Si4 0.758354 0.327516 0.320998
Si Si5 0.268259 0.641050 0.349788
Si Si6 0.903987 0.911658 0.367499
Si Si7 0.078080 0.748629 0.801019
O O1 0.199229 0.718348 0.920051
O O2 0.762942 0.764854 0.808997
O O3 0.660842 0.033231 0.529185
O O4 0.550788 0.698425 0.050774
O O5 0.227158 0.521125 0.594403
O O6 0.428917 0.322753 0.769023
O O7 0.948843 0.106455 0.155816
O O8 0.358514 0.747064 0.478685
O O9 0.089087 0.951699 0.214694
O O10 0.500000 0.000000 0.000000
O O11 0.683462 0.137193 0.939307
O O12 0.442742 0.252413 0.397969
O O13 0.914538 0.189637 0.466934
O O14 0.000500 0.555554 0.009300
O O15 0.000000 0.500000 0.500000
#
# Coordination Sequence:
#
# PCOD9101244 Si02
#       7
#     2   2   2   2   2   2   2
#     4  10  23  39  65  88 122 150 209 243 307 357
#     4  10  22  37  60  87 118 163 199 249 300 357
#     4   9  21  35  55  86 115 158 199 247 296 354
#     4  10  20  38  58  79 122 152 189 247 303 345
#     4  10  21  38  58  86 125 159 206 245 299 363
#     4   9  21  37  56  84 117 153 195 246 289 365
#     4  10  22  42  60  93 117 158 194 261 296 364
#
# _framework density 25.410471999999999
#
# number of rings (size 3 to 8) (size 9 to 14) (size 15 to 20)
#    0.857    1.429    0.000    1.714    4.000    0.571 
#    0.000    1.429    0.000    0.000    0.000    0.000 
#    0.000    0.000    0.000    0.000    0.000    0.000 
#
# Total GULP energy -78123.045161 kJ/mol
# GULP energy per Si atom -5580.217512 kJ/mol
# Density = 2.535264 g / cm^3
# Si number density = 25.410472 Si / 1000 Ang^3
#
#
#
# Elastic Constant Matrix: (Units=GPa)
#
#
# Indices 1 2 3 4 5 6 
#
# 1 98.3678 7.8819 27.4714 -1.6476 -17.0088 16.2233
# 2 7.8819 59.4388 14.3767 3.7985 -4.0135 7.0663
# 3 27.4714 14.3767 100.5792 1.7672 -9.4200 6.8577
# 4 -1.6476 3.7985 1.7672 50.4270 14.1551 -0.3670
# 5 -17.0088 -4.0135 -9.4200 14.1551 35.0815 3.9087
# 6 16.2233 7.0663 6.8577 -0.3670 3.9087 36.2777
#
#
#
# Elastic Compliance Matrix: (Units=1/GPa)
#
#
# Indices 1 2 3 4 5 6 
#
# 1 0.013043 0.000171 -0.002488 -0.001500 0.006967 -0.006161
# 2 0.000171 0.018050 -0.002085 -0.002101 0.002828 -0.003524
# 3 -0.002488 -0.002085 0.011179 -0.000885 0.002005 -0.000820
# 4 -0.001500 -0.002101 -0.000885 0.023018 -0.010787 0.002642
# 5 0.006967 0.002828 0.002005 -0.010787 0.038017 -0.008251
# 6 -0.006161 -0.003524 -0.000820 0.002642 -0.008251 0.032078
#
#
# Mechanical properties :
#
#
# Convention : Reuss Voigt Hill
#
# Bulk Modulus (GPa) = 29.87872 39.76065 34.81968
# Shear Modulus (GPa) = 32.18677 38.26764 35.22720
#
# Velocity S-wave (km/s) = 3.56290 3.88490 3.72738
# Velocity P-wave (km/s) = 5.35813 5.98370 5.67953
#
# Compressibility (1/GPa) = 0.03346864
#
# Stress axis : x y z
#
# Youngs Moduli (GPa) = 76.67112 55.40241 89.45209
#
# Poissons Ratio (x) = -0.00947 0.22255
# Poissons Ratio (y) = -0.01311 0.18648
# Poissons Ratio (z) = 0.19075 0.11549
#
# Static dielectric constant tensor:
#      x y z
#    x 1.977040 -0.062540 0.019360 
#    y -0.062540 2.157070 0.083330 
#    z 0.019360 0.083330 2.102850 
# 
# From -- ./inp_files/551214.got.cif
#   From: 2010.05.17/outbox.cif.g08.bks.cpg/sg2_276_cif.got.tgz:551214.got - 2010.06.03 11:33:40.
