data_PCOD9101176
_publ_section_title
;
Structure prediction by ZEFSAII (Michael W. Deem and Ramdas Pophale) SiO2 
 PCOD9101176
Probable space group: P -1
;
_chemical_formula_sum "Si O2"
_cell_formula_units_Z 16
_cell_length_a 15.287240
_cell_length_b 7.758813
_cell_length_c 11.008791
_cell_angle_alpha 123.728014
_cell_angle_beta 100.505045
_cell_angle_gamma 121.874617
_cell_volume 681.863933
_symmetry_space_group_name_H-M "P -1"
_symmetry_group_IT_number 2
_symmetry_cell_setting 'triclinic'
loop_
_space_group_symop_operation_xyz
x,y,z
-x,-y,-z
loop_
_atom_site_type_symbol
_atom_site_label
_atom_site_fract_x
_atom_site_fract_y
_atom_site_fract_z
Si Si1 0.323551 0.665810 0.248058
Si Si2 0.756247 0.088604 0.230858
Si Si3 0.840815 0.544256 0.240226
Si Si4 0.527933 0.477892 0.753564
Si Si5 0.085191 0.036301 0.772096
Si Si6 0.219291 0.511217 0.432893
Si Si7 0.623316 0.947133 0.788029
Si Si8 0.343339 0.490626 0.658275
O O1 0.446254 0.715441 0.293105
O O2 0.268294 0.585626 0.337902
O O3 0.370989 0.962321 0.311293
O O4 0.198705 0.348554 0.010270
O O5 0.862203 0.414941 0.301022
O O6 0.711620 0.170677 0.354218
O O7 0.839337 0.039239 0.278228
O O8 0.625560 0.775215 0.993848
O O9 0.945227 0.872487 0.316937
O O10 0.728485 0.500574 0.254006
O O11 0.765427 0.270799 0.012380
O O12 0.378765 0.324643 0.651536
O O13 0.594054 0.660565 0.709724
O O14 0.945725 0.749474 0.699510
O O15 0.253410 0.368356 0.466556
O O16 0.497196 0.834956 0.785077
#
# Coordination Sequence:
#
# PCOD9101176 Si02
#       8
#     2   2   2   2   2   2   2   2
#     4  10  20  38  57  78 108 151 176 217 267 320
#     4   9  19  36  58  80 106 140 178 233 264 306
#     4   9  17  34  59  80 106 139 183 222 269 310
#     4   8  18  37  57  79 109 137 183 220 265 323
#     4  10  21  39  56  79 108 145 185 219 261 322
#     4  11  22  34  57  82 113 143 177 220 273 316
#     4   8  17  34  55  79 108 141 177 218 265 322
#     4   9  19  34  56  82 109 142 171 228 272 316
#
# _framework density 23.465093
#
# number of rings (size 3 to 8) (size 9 to 14) (size 15 to 20)
#    0.750    2.000    0.000    1.125    1.750    3.000 
#    4.500    5.625    0.000    6.000    0.000    0.000 
#    0.000    0.000    0.000    0.000    0.000    0.000 
#
# Total GULP energy -89281.600320 kJ/mol
# GULP energy per Si atom -5580.100020 kJ/mol
# Density = 2.341169 g / cm^3
# Si number density = 23.465093 Si / 1000 Ang^3
#
#
#
# Elastic Constant Matrix: (Units=GPa)
#
#
# Indices 1 2 3 4 5 6 
#
# 1 65.9655 16.8784 28.7323 -3.2554 0.6597 -7.6002
# 2 16.8784 99.2656 28.2661 -13.5191 -10.5997 -8.0717
# 3 28.7323 28.2661 72.1394 -13.9899 -7.6763 -9.7850
# 4 -3.2554 -13.5191 -13.9899 29.0868 -5.5397 3.6606
# 5 0.6597 -10.5997 -7.6763 -5.5397 25.5366 -2.8019
# 6 -7.6002 -8.0717 -9.7850 3.6606 -2.8019 34.9782
#
#
#
# Elastic Compliance Matrix: (Units=1/GPa)
#
#
# Indices 1 2 3 4 5 6 
#
# 1 0.019064 -0.001810 -0.007779 -0.003439 -0.004156 0.001575
# 2 -0.001810 0.012549 -0.002265 0.005451 0.005952 0.001775
# 3 -0.007779 -0.002265 0.020930 0.009235 0.007919 0.003310
# 4 -0.003439 0.005451 0.009235 0.043790 0.014592 -0.000320
# 5 -0.004156 0.005952 0.007919 0.014592 0.047831 0.004990
# 6 0.001575 0.001775 0.003310 -0.000320 0.004990 0.030700
#
#
# Mechanical properties :
#
#
# Convention : Reuss Voigt Hill
#
# Bulk Modulus (GPa) = 34.67989 42.79156 38.73573
# Shear Modulus (GPa) = 24.01708 28.81990 26.41849
#
# Velocity S-wave (km/s) = 3.20273 3.50837 3.35903
# Velocity P-wave (km/s) = 5.33742 5.88960 5.62030
#
# Compressibility (1/GPa) = 0.02883515
#
# Stress axis : x y z
#
# Youngs Moduli (GPa) = 52.45389 79.68782 47.77729
#
# Poissons Ratio (x) = 0.14427 0.37167
# Poissons Ratio (y) = 0.09496 0.10820
# Poissons Ratio (z) = 0.40805 0.18047
#
# Static dielectric constant tensor:
#      x y z
#    x 1.837630 -0.052470 0.015960 
#    y -0.052470 1.910550 0.007590 
#    z 0.015960 0.007590 1.937020 
# 
# From -- ./inp_files/445209.got.cif
#   From: 2010.05.17/outbox.cif.g08.bks.cpg/sg2_223_cif.got.tgz:445209.got - 2010.06.03 11:33:40.
