data_PCOD9101099
_publ_section_title
;
Structure prediction by ZEFSAII (Michael W. Deem and Ramdas Pophale) SiO2 
 PCOD9101099
Probable space group: P -1
;
_chemical_formula_sum "Si O2"
_cell_formula_units_Z 16
_cell_length_a 13.311564
_cell_length_b 9.043799
_cell_length_c 8.258699
_cell_angle_alpha 106.222181
_cell_angle_beta 136.861588
_cell_angle_gamma 67.947115
_cell_volume 630.064924
_symmetry_space_group_name_H-M "P -1"
_symmetry_group_IT_number 2
_symmetry_cell_setting 'triclinic'
loop_
_space_group_symop_operation_xyz
x,y,z
-x,-y,-z
loop_
_atom_site_type_symbol
_atom_site_label
_atom_site_fract_x
_atom_site_fract_y
_atom_site_fract_z
Si Si1 0.856237 0.757914 0.495592
Si Si2 0.319841 0.502931 0.791265
Si Si3 0.339066 0.008932 0.187218
Si Si4 0.654786 0.346930 0.814197
Si Si5 0.047450 0.160064 0.050341
Si Si6 0.413267 0.947798 0.730826
Si Si7 0.058572 0.141482 0.690762
Si Si8 0.343699 0.615673 0.527312
O O1 0.729740 0.659538 0.324537
O O2 0.966374 0.731985 0.772846
O O3 0.939933 0.733985 0.413024
O O4 0.758182 0.942741 0.440286
O O5 0.256484 0.597337 0.582852
O O6 0.500000 0.500000 0.000000
O O7 0.270628 0.581523 0.929662
O O8 0.344306 0.830333 0.188443
O O9 0.230673 0.124040 0.222074
O O10 0.498662 0.031529 0.324886
O O11 0.233619 0.056807 0.918409
O O12 0.479838 0.452545 0.624993
O O13 0.727883 0.354193 0.726396
O O14 0.992343 0.195110 0.809447
O O15 0.000000 0.000000 0.000000
O O16 0.415644 0.763563 0.687889
O O17 0.500000 0.000000 0.000000
O O18 0.000000 0.000000 0.500000
#
# Coordination Sequence:
#
# PCOD9101099 Si02
#       8
#     2   2   2   2   2   2   2   2
#     4  12  22  38  65  94 131 164 203 264 316 369
#     4  10  22  35  54  86 128 174 199 237 298 382
#     4  10  22  36  61  93 124 158 205 263 311 371
#     4  10  20  38  50  81 124 164 203 235 291 373
#     4  10  22  39  63  92 120 156 215 267 310 361
#     4  12  20  34  59  98 129 158 205 250 323 383
#     4  10  22  41  65  91 117 161 209 262 322 355
#     4  10  22  34  56  78 129 178 190 233 304 375
#
# _framework density 25.394207000000002
#
# number of rings (size 3 to 8) (size 9 to 14) (size 15 to 20)
#    0.750    0.750    2.500    4.500    0.000    6.000 
#    0.000    0.000    0.000    3.000    0.000    8.750 
#    0.000    0.000    0.000    0.000    0.000    0.000 
#
# Total GULP energy -89419.619346 kJ/mol
# GULP energy per Si atom -5588.726209 kJ/mol
# Density = 2.533641 g / cm^3
# Si number density = 25.394207 Si / 1000 Ang^3
#
#
#
# Elastic Constant Matrix: (Units=GPa)
#
#
# Indices 1 2 3 4 5 6 
#
# 1 175.9541 30.2980 52.6195 -7.2958 -33.9422 20.8814
# 2 30.2980 72.2768 27.4051 -1.6693 -15.9983 20.3557
# 3 52.6195 27.4051 162.7506 -10.0076 -41.5536 12.3876
# 4 -7.2958 -1.6693 -10.0076 36.7207 6.2246 -5.0478
# 5 -33.9422 -15.9983 -41.5536 6.2246 55.1727 -12.5382
# 6 20.8814 20.3557 12.3876 -5.0478 -12.5382 41.4896
#
#
#
# Elastic Compliance Matrix: (Units=1/GPa)
#
#
# Indices 1 2 3 4 5 6 
#
# 1 0.006998 -0.001434 -0.001223 0.000333 0.002558 -0.001640
# 2 -0.001434 0.017315 -0.001617 -0.001147 0.001462 -0.006988
# 3 -0.001223 -0.001617 0.008080 0.001143 0.004874 0.000608
# 4 0.000333 -0.001147 0.001143 0.028267 -0.001785 0.002954
# 5 0.002558 0.001462 0.004874 -0.001785 0.024867 0.003838
# 6 -0.001640 -0.006988 0.000608 0.002954 0.003838 0.029694
#
#
# Mechanical properties :
#
#
# Convention : Reuss Voigt Hill
#
# Bulk Modulus (GPa) = 41.93690 70.18077 56.05884
# Shear Modulus (GPa) = 37.95997 46.72050 42.34024
#
# Velocity S-wave (km/s) = 3.87049 4.29395 4.08771
# Velocity P-wave (km/s) = 6.04355 7.23053 6.66352
#
# Compressibility (1/GPa) = 0.02384535
#
# Stress axis : x y z
#
# Youngs Moduli (GPa) = 142.90345 57.75204 123.75616
#
# Poissons Ratio (x) = 0.08282 0.15130
# Poissons Ratio (y) = 0.20494 0.20017
# Poissons Ratio (z) = 0.17470 0.09341
#
# Static dielectric constant tensor:
#      x y z
#    x 2.080480 -0.086370 -0.047720 
#    y -0.086370 2.154650 -0.052690 
#    z -0.047720 -0.052690 2.069520 
# 
# From -- ./inp_files/299337.got.cif
#   From: 2010.05.17/outbox.cif.g08.bks.cpg/sg2_150_cif.got.tgz:299337.got - 2010.06.03 11:33:40.
