data_PCOD9101049
_publ_section_title
;
Structure prediction by ZEFSAII (Michael W. Deem and Ramdas Pophale) SiO2 
 PCOD9101049
Probable space group: P -1
;
_chemical_formula_sum "Si O2"
_cell_formula_units_Z 16
_cell_length_a 12.731418
_cell_length_b 18.666997
_cell_length_c 9.622823
_cell_angle_alpha 63.877748
_cell_angle_beta 36.113658
_cell_angle_gamma 35.843201
_cell_volume 618.199059
_symmetry_space_group_name_H-M "P -1"
_symmetry_group_IT_number 2
_symmetry_cell_setting 'triclinic'
loop_
_space_group_symop_operation_xyz
x,y,z
-x,-y,-z
loop_
_atom_site_type_symbol
_atom_site_label
_atom_site_fract_x
_atom_site_fract_y
_atom_site_fract_z
Si Si1 0.145817 0.378786 0.337329
Si Si2 0.752991 0.257955 0.760511
Si Si3 0.204615 0.486052 0.702111
Si Si4 0.108317 0.121459 0.782713
Si Si5 0.153778 0.871450 0.696929
Si Si6 0.209938 0.254308 0.878188
Si Si7 0.135205 0.616690 0.149135
Si Si8 0.832128 0.892849 0.829163
O O1 0.000000 0.500000 0.500000
O O2 0.931914 0.461020 0.353880
O O3 0.092924 0.317722 0.528407
O O4 0.529848 0.262518 0.997744
O O5 0.035122 0.139293 0.682155
O O6 0.873859 0.224295 0.503460
O O7 0.499196 0.429954 0.923214
O O8 0.592608 0.303249 0.451086
O O9 0.000000 0.500000 0.000000
O O10 0.072459 0.615301 0.811543
O O11 0.851695 0.293770 0.948433
O O12 0.500000 0.000000 0.500000
O O13 0.004085 0.084940 0.018877
O O14 0.416784 0.844683 0.418398
O O15 0.861884 0.966634 0.811004
O O16 0.063409 0.337750 0.814804
O O17 0.204261 0.161623 0.969875
O O18 0.500000 0.000000 0.000000
#
# Coordination Sequence:
#
# PCOD9101049 Si02
#       8
#     2   2   2   2   2   2   2   2
#     4  10  20  40  66 103 137 166 228 284 333 401
#     4  11  23  41  69  97 132 179 220 281 340 389
#     4  10  20  37  69 105 131 167 220 281 337 397
#     4  12  26  44  64  97 141 178 226 280 334 406
#     4  11  22  45  69  93 134 179 216 276 345 393
#     4  11  24  43  70 100 134 172 226 282 338 402
#     4  11  23  43  69 101 131 174 233 281 334 404
#     4  12  27  45  65  99 141 177 228 275 331 414
#
# _framework density 25.881633000000001
#
# number of rings (size 3 to 8) (size 9 to 14) (size 15 to 20)
#    0.000    1.000    1.250    8.625    3.500    1.500 
#    2.250    1.250    0.000    0.000    0.000    0.000 
#    0.000    0.000    0.000    0.000    0.000    0.000 
#
# Total GULP energy -89560.887658 kJ/mol
# GULP energy per Si atom -5597.555479 kJ/mol
# Density = 2.582273 g / cm^3
# Si number density = 25.881633 Si / 1000 Ang^3
#
#
#
# Elastic Constant Matrix: (Units=GPa)
#
#
# Indices 1 2 3 4 5 6 
#
# 1 140.5394 39.9997 40.5242 -2.9393 -0.5682 -30.0243
# 2 39.9997 52.5282 41.0983 -12.8207 3.1414 -10.9405
# 3 40.5242 41.0983 154.8096 -28.3779 -7.6131 -4.9011
# 4 -2.9393 -12.8207 -28.3779 41.2882 -3.1058 5.7926
# 5 -0.5682 3.1414 -7.6131 -3.1058 50.3860 -2.2958
# 6 -30.0243 -10.9405 -4.9011 5.7926 -2.2958 55.5365
#
#
#
# Elastic Compliance Matrix: (Units=1/GPa)
#
#
# Indices 1 2 3 4 5 6 
#
# 1 0.010250 -0.006574 -0.001292 -0.002795 0.000360 0.004439
# 2 -0.006574 0.029835 -0.005413 0.004719 -0.002404 0.001254
# 3 -0.001292 -0.005413 0.009181 0.004878 0.001948 -0.001383
# 4 -0.002795 0.004719 0.004878 0.029435 0.002083 -0.003135
# 5 0.000360 -0.002404 0.001948 0.002083 0.020447 0.000521
# 6 0.004439 0.001254 -0.001383 -0.003135 0.000521 0.020880
#
#
# Mechanical properties :
#
#
# Convention : Reuss Voigt Hill
#
# Bulk Modulus (GPa) = 44.03673 65.68018 54.85846
# Shear Modulus (GPa) = 32.43444 44.52581 38.48012
#
# Velocity S-wave (km/s) = 3.54387 4.15223 3.86005
# Velocity P-wave (km/s) = 5.81352 6.95846 6.41160
#
# Compressibility (1/GPa) = 0.02270831
#
# Stress axis : x y z
#
# Youngs Moduli (GPa) = 97.55741 33.51716 108.91979
#
# Poissons Ratio (x) = 0.22034 0.14075
# Poissons Ratio (y) = 0.64132 0.58961
# Poissons Ratio (z) = 0.12606 0.18144
#
# Static dielectric constant tensor:
#      x y z
#    x 2.104060 -0.035240 0.069680 
#    y -0.035240 2.221870 0.005720 
#    z 0.069680 0.005720 2.217300 
# 
# From -- ./inp_files/283007.got.cif
#   From: 2010.05.17/outbox.cif.g08.bks.cpg/sg2_142_cif.got.tgz:283007.got - 2010.06.03 11:33:40.
