data_PCOD9101509
_publ_section_title
;
Structure prediction by ZEFSAII (Michael W. Deem and Ramdas Pophale) SiO2 
 PCOD9101509
Probable space group: P -1
;
_chemical_formula_sum "Si O2"
_cell_formula_units_Z 16
_cell_length_a 17.159863
_cell_length_b 14.387205
_cell_length_c 12.961451
_cell_angle_alpha 129.102019
_cell_angle_beta 21.735053
_cell_angle_gamma 137.988512
_cell_volume 769.909930
_symmetry_space_group_name_H-M "P -1"
_symmetry_group_IT_number 2
_symmetry_cell_setting 'triclinic'
loop_
_space_group_symop_operation_xyz
x,y,z
-x,-y,-z
loop_
_atom_site_type_symbol
_atom_site_label
_atom_site_fract_x
_atom_site_fract_y
_atom_site_fract_z
Si Si1 0.118232 0.136115 0.662862
Si Si2 0.425565 0.617757 0.349529
Si Si3 0.655183 0.017589 0.663123
Si Si4 0.752496 0.918536 0.816558
Si Si5 0.982915 0.542165 0.711060
Si Si6 0.604353 0.641963 0.695578
Si Si7 0.903191 0.667442 0.696080
Si Si8 0.768270 0.875824 0.261485
O O1 0.316927 0.087567 0.370927
O O2 0.214236 0.266556 0.558145
O O3 0.135314 0.166514 0.784972
O O4 0.852169 0.996120 0.858593
O O5 0.194021 0.621831 0.593704
O O6 0.331553 0.467593 0.415271
O O7 0.589958 0.743518 0.316345
O O8 0.624004 0.632605 0.029481
O O9 0.629461 0.945824 0.533329
O O10 0.913813 0.171606 0.453992
O O11 0.438180 0.042865 0.964079
O O12 0.638033 0.751664 0.822070
O O13 0.000000 0.000000 0.500000
O O14 0.060985 0.438446 0.492245
O O15 0.990992 0.646955 0.686716
O O16 0.689910 0.446539 0.036572
O O17 0.000000 0.000000 0.000000
#
# Coordination Sequence:
#
# PCOD9101509 Si02
#       8
#     2   2   2   2   2   2   2   2
#     4   9  23  40  63  90 123 164 202 255 304 357
#     4  11  22  39  61  88 124 167 201 250 304 365
#     4  10  21  39  64  87 125 157 204 254 301 363
#     4  10  21  39  63  95 120 156 206 248 316 367
#     4  10  22  37  60  90 127 157 200 255 313 362
#     4  10  22  38  61  94 121 157 207 250 311 367
#     4  10  20  38  59  92 123 156 204 251 312 370
#     4  10  22  44  61  87 123 167 212 246 303 363
#
# _framework density 20.781652000000001
#
# number of rings (size 3 to 8) (size 9 to 14) (size 15 to 20)
#    0.750    1.250    2.500    0.375    1.750    6.500 
#    4.500    1.875    0.000    0.000    0.000    0.000 
#    0.000    0.000    0.000    0.000    0.000    0.000 
#
# Total GULP energy -89238.570407 kJ/mol
# GULP energy per Si atom -5577.410650 kJ/mol
# Density = 2.073435 g / cm^3
# Si number density = 20.781652 Si / 1000 Ang^3
#
#
#
# Elastic Constant Matrix: (Units=GPa)
#
#
# Indices 1 2 3 4 5 6 
#
# 1 56.5700 -4.6413 18.6639 -12.3984 -10.3233 10.4963
# 2 -4.6413 30.7144 6.6084 -3.3941 -4.6078 -2.4201
# 3 18.6639 6.6084 51.1840 -6.4002 -7.4900 -9.1762
# 4 -12.3984 -3.3941 -6.4002 20.1653 6.4006 -0.6898
# 5 -10.3233 -4.6078 -7.4900 6.4006 33.1457 -4.9656
# 6 10.4963 -2.4201 -9.1762 -0.6898 -4.9656 31.6294
#
#
#
# Elastic Compliance Matrix: (Units=1/GPa)
#
#
# Indices 1 2 3 4 5 6 
#
# 1 0.027326 0.007505 -0.010789 0.013344 0.002910 -0.010876
# 2 0.007505 0.036428 -0.005949 0.007395 0.004546 -0.000554
# 3 -0.010789 -0.005949 0.026837 0.000143 0.003568 0.011474
# 4 0.013344 0.007395 0.000143 0.061230 -0.007148 -0.003608
# 5 0.002910 0.004546 0.003568 -0.007148 0.034751 0.005717
# 6 -0.010876 -0.000554 0.011474 -0.003608 0.005717 0.039331
#
#
# Mechanical properties :
#
#
# Convention : Reuss Voigt Hill
#
# Bulk Modulus (GPa) = 13.86494 19.97004 16.91749
# Shear Modulus (GPa) = 18.62823 24.84390 21.73606
#
# Velocity S-wave (km/s) = 2.99721 3.46131 3.23759
# Velocity P-wave (km/s) = 4.32017 5.06009 4.70470
#
# Compressibility (1/GPa) = 0.07212437
#
# Stress axis : x y z
#
# Youngs Moduli (GPa) = 36.59510 27.45170 37.26263
#
# Poissons Ratio (x) = -0.20602 0.40201
# Poissons Ratio (y) = -0.27464 0.22168
# Poissons Ratio (z) = 0.39481 0.16331
#
# Static dielectric constant tensor:
#      x y z
#    x 1.799470 0.039310 -0.007340 
#    y 0.039310 1.749070 0.015160 
#    z -0.007340 0.015160 1.775560 
# 
# From -- ./inp_files/538894.got.cif
#   From: 2010.05.17/outbox.cif.g08.bks.cpg/sg2_270_cif.got.tgz:538894.got - 2010.06.03 11:33:40.
