data_PCOD9101538
_publ_section_title
;
Structure prediction by ZEFSAII (Michael W. Deem and Ramdas Pophale) SiO2 
 PCOD9101538
Probable space group: P -1
;
_chemical_formula_sum "Si O2"
_cell_formula_units_Z 16
_cell_length_a 8.388579
_cell_length_b 14.441159
_cell_length_c 8.036830
_cell_angle_alpha 39.982937
_cell_angle_beta 66.414467
_cell_angle_gamma 62.737024
_cell_volume 554.033280
_symmetry_space_group_name_H-M "P -1"
_symmetry_group_IT_number 2
_symmetry_cell_setting 'triclinic'
loop_
_space_group_symop_operation_xyz
x,y,z
-x,-y,-z
loop_
_atom_site_type_symbol
_atom_site_label
_atom_site_fract_x
_atom_site_fract_y
_atom_site_fract_z
Si Si1 0.320295 0.278958 0.630848
Si Si2 0.687025 0.892884 0.785127
Si Si3 0.734986 0.972071 0.193771
Si Si4 0.257701 0.852474 0.396335
Si Si5 0.797733 0.218348 0.014045
Si Si6 0.862498 0.463188 0.834515
Si Si7 0.617769 0.641280 0.970252
Si Si8 0.821177 0.391777 0.424502
O O1 0.531446 0.240187 0.553253
O O2 0.213541 0.448894 0.425478
O O3 0.223981 0.197646 0.644917
O O4 0.306316 0.204521 0.915539
O O5 0.475185 0.978546 0.738652
O O6 0.717978 0.771267 0.792959
O O7 0.780134 0.025658 0.607920
O O8 0.748655 0.052875 0.901081
O O9 0.838144 0.044135 0.188872
O O10 0.150823 0.729816 0.569608
O O11 0.901950 0.290028 0.008141
O O12 0.811492 0.297026 0.722944
O O13 0.590334 0.276984 0.075518
O O14 0.701800 0.537220 0.925140
O O15 0.029323 0.517204 0.755997
O O16 0.644295 0.523192 0.273358
#
# Coordination Sequence:
#
# PCOD9101538 Si02
#       8
#     2   2   2   2   2   2   2   2
#     4   9  16  33  58  81 104 138 180 222 260 311
#     4   8  15  32  58  80  99 135 185 222 253 310
#     4   7  14  30  56  83 102 128 181 230 255 298
#     4   8  15  32  58  80  99 135 185 222 253 310
#     4  10  20  38  60  80 100 139 190 223 252 313
#     4  12  24  35  50  84 119 139 167 223 279 312
#     4  11  22  38  56  78 108 145 181 218 263 319
#     4  11  22  38  56  78 108 145 181 218 263 319
#
# _framework density 28.879131999999998
#
# number of rings (size 3 to 8) (size 9 to 14) (size 15 to 20)
#    0.000    2.500    0.000    5.250    0.000    0.000 
#    0.000   14.375    0.000    0.000    0.000    0.000 
#    0.000    0.000    0.000    0.000    0.000    0.000 
#
# Total GULP energy -89683.086175 kJ/mol
# GULP energy per Si atom -5605.192886 kJ/mol
# Density = 2.881340 g / cm^3
# Si number density = 28.879132 Si / 1000 Ang^3
#
#
#
# Elastic Constant Matrix: (Units=GPa)
#
#
# Indices 1 2 3 4 5 6 
#
# 1 108.9207 54.1290 31.1842 -5.0632 -30.8491 15.6506
# 2 54.1290 141.5257 53.6064 -33.7481 -7.6549 45.2709
# 3 31.1842 53.6064 66.5076 -0.4702 -10.1063 23.6129
# 4 -5.0632 -33.7481 -0.4702 50.7920 22.1254 -18.4556
# 5 -30.8491 -7.6549 -10.1063 22.1254 34.9433 -16.3204
# 6 15.6506 45.2709 23.6129 -18.4556 -16.3204 70.1304
#
#
#
# Elastic Compliance Matrix: (Units=1/GPa)
#
#
# Indices 1 2 3 4 5 6 
#
# 1 0.024083 -0.016267 0.004941 -0.021714 0.035705 0.006057
# 2 -0.016267 0.027248 -0.016222 0.028378 -0.035378 -0.009262
# 3 0.004941 -0.016222 0.029111 -0.019517 0.021300 -0.000612
# 4 -0.021714 0.028378 -0.019517 0.060115 -0.058898 -0.004788
# 5 0.035705 -0.035378 0.021300 -0.058898 0.103441 0.016270
# 6 0.006057 -0.009262 -0.000612 -0.004788 0.016270 0.021619
#
#
# Mechanical properties :
#
#
# Convention : Reuss Voigt Hill
#
# Bulk Modulus (GPa) = 39.45528 66.08813 52.77171
# Shear Modulus (GPa) = 15.19007 43.04208 29.11608
#
# Velocity S-wave (km/s) = 2.29593 3.86479 3.17867
# Velocity P-wave (km/s) = 4.55195 6.54595 5.63781
#
# Compressibility (1/GPa) = 0.02534515
#
# Stress axis : x y z
#
# Youngs Moduli (GPa) = 41.52291 36.69962 34.35170
#
# Poissons Ratio (x) = 0.59698 -0.16972
# Poissons Ratio (y) = 0.67544 0.55727
# Poissons Ratio (z) = -0.20515 0.59535
#
# Static dielectric constant tensor:
#      x y z
#    x 2.221040 0.062350 -0.022490 
#    y 0.062350 2.188540 0.037260 
#    z -0.022490 0.037260 2.271780 
# 
# From -- ./inp_files/205010.got.cif
#   From: 2010.05.17/outbox.cif.g08.bks.cpg/sg2_103_cif.got.tgz:205010.got - 2010.06.03 11:33:40.
