data_PCOD9101797
_publ_section_title
;
Structure prediction by ZEFSAII (Michael W. Deem and Ramdas Pophale) SiO2 
 PCOD9101797
Probable space group: P -1
;
_chemical_formula_sum "Si O2"
_cell_formula_units_Z 16
_cell_length_a 5.445109
_cell_length_b 16.171523
_cell_length_c 12.450942
_cell_angle_alpha 128.895021
_cell_angle_beta 107.606222
_cell_angle_gamma 58.310224
_cell_volume 725.462874
_symmetry_space_group_name_H-M "P -1"
_symmetry_group_IT_number 2
_symmetry_cell_setting 'triclinic'
loop_
_space_group_symop_operation_xyz
x,y,z
-x,-y,-z
loop_
_atom_site_type_symbol
_atom_site_label
_atom_site_fract_x
_atom_site_fract_y
_atom_site_fract_z
Si Si1 0.454390 0.213589 0.852332
Si Si2 0.821666 0.978162 0.052778
Si Si3 0.411713 0.564866 0.928353
Si Si4 0.184596 0.239742 0.053258
Si Si5 0.720579 0.619559 0.652507
Si Si6 0.791563 0.895755 0.406325
Si Si7 0.958845 0.012594 0.325814
Si Si8 0.421760 0.484248 0.632585
O O1 0.228050 0.219684 0.734978
O O2 0.740967 0.102261 0.757901
O O3 0.474690 0.335002 0.972283
O O4 0.378133 0.175541 0.925175
O O5 0.809546 0.045007 0.217247
O O6 0.965800 0.836574 0.982093
O O7 0.500000 0.000000 0.000000
O O8 0.000000 0.000000 0.000000
O O9 0.500487 0.482197 0.766421
O O10 0.065452 0.639641 0.930401
O O11 0.500000 0.500000 0.000000
O O12 0.361465 0.266678 0.190467
O O13 0.618542 0.534667 0.637738
O O14 0.569664 0.627573 0.524276
O O15 0.070368 0.570464 0.646832
O O16 0.838900 0.957260 0.356394
O O17 0.500000 0.000000 0.500000
O O18 0.010351 0.882485 0.520348
#
# Coordination Sequence:
#
# PCOD9101797 Si02
#       8
#     2   2   2   2   2   2   2   2
#     4  11  18  37  63  91 126 170 214 264 328 391
#     4  12  26  40  66  97 132 170 218 274 328 389
#     4  11  23  37  62  95 127 164 218 268 329 386
#     4  11  22  40  64  90 127 168 219 271 323 393
#     4   9  18  34  63  84 117 163 211 249 324 371
#     4   9  19  33  65  90 121 173 211 264 328 392
#     4  10  20  38  60  95 126 167 217 265 330 389
#     4   9  18  35  56  92 119 160 205 263 309 383
#
# _framework density 22.054884000000001
#
# number of rings (size 3 to 8) (size 9 to 14) (size 15 to 20)
#    0.000    1.750    3.750    0.750    1.750    0.500 
#    0.000    1.250    2.750    0.000    0.000    0.000 
#    0.000    0.000    0.000    0.000    0.000    0.000 
#
# Total GULP energy -89139.303619 kJ/mol
# GULP energy per Si atom -5571.206476 kJ/mol
# Density = 2.200469 g / cm^3
# Si number density = 22.054884 Si / 1000 Ang^3
#
#
#
# Elastic Constant Matrix: (Units=GPa)
#
#
# Indices 1 2 3 4 5 6 
#
# 1 103.4192 25.8036 50.9171 -15.0484 -8.7033 21.2325
# 2 25.8036 69.6442 39.9929 -25.9753 3.7695 6.3820
# 3 50.9171 39.9929 255.2776 -33.2063 34.7612 16.4254
# 4 -15.0484 -25.9753 -33.2063 30.5386 4.0252 1.7897
# 5 -8.7033 3.7695 34.7612 4.0252 56.6508 -5.5207
# 6 21.2325 6.3820 16.4254 1.7897 -5.5207 23.4443
#
#
#
# Elastic Compliance Matrix: (Units=1/GPa)
#
#
# Indices 1 2 3 4 5 6 
#
# 1 0.013837 -0.001889 -0.001499 0.003975 0.001832 -0.010839
# 2 -0.001889 0.023338 0.000445 0.020412 -0.004300 -0.007525
# 3 -0.001499 0.000445 0.006053 0.007149 -0.004941 -0.004714
# 4 0.003975 0.020412 0.007149 0.062654 -0.011701 -0.021704
# 5 0.001832 -0.004300 -0.004941 -0.011701 0.022987 0.009279
# 6 -0.010839 -0.007525 -0.004714 -0.021704 0.009279 0.061663
#
#
# Mechanical properties :
#
#
# Convention : Reuss Voigt Hill
#
# Bulk Modulus (GPa) = 26.77912 73.52980 50.15446
# Shear Modulus (GPa) = 23.93891 42.90189 33.42040
#
# Velocity S-wave (km/s) = 3.29815 4.41526 3.89695
# Velocity P-wave (km/s) = 5.16451 7.70744 6.56036
#
# Compressibility (1/GPa) = 0.03734252
#
# Stress axis : x y z
#
# Youngs Moduli (GPa) = 72.27219 42.84789 165.21962
#
# Poissons Ratio (x) = 0.08094 0.24765
# Poissons Ratio (y) = 0.13653 -0.07360
# Poissons Ratio (z) = 0.10833 -0.01909
#
# Static dielectric constant tensor:
#      x y z
#    x 1.914420 -0.047550 0.019140 
#    y -0.047550 1.887940 -0.025220 
#    z 0.019140 -0.025220 1.983170 
# 
# From -- ./inp_files/367973.got.cif
#   From: 2010.05.17/outbox.cif.g08.bks.cpg/sg2_184_cif.got.tgz:367973.got - 2010.06.03 11:33:40.
