data_PCOD9101881
_publ_section_title
;
Structure prediction by ZEFSAII (Michael W. Deem and Ramdas Pophale) SiO2 
 PCOD9101881
Probable space group: P -1
;
_chemical_formula_sum "Si O2"
_cell_formula_units_Z 16
_cell_length_a 15.844439
_cell_length_b 23.336335
_cell_length_c 9.545888
_cell_angle_alpha 127.161222
_cell_angle_beta 114.172065
_cell_angle_gamma 19.168280
_cell_volume 727.823335
_symmetry_space_group_name_H-M "P -1"
_symmetry_group_IT_number 2
_symmetry_cell_setting 'triclinic'
loop_
_space_group_symop_operation_xyz
x,y,z
-x,-y,-z
loop_
_atom_site_type_symbol
_atom_site_label
_atom_site_fract_x
_atom_site_fract_y
_atom_site_fract_z
Si Si1 0.992177 0.197930 0.017868
Si Si2 0.744805 0.601446 0.269531
Si Si3 0.698392 0.819044 0.197020
Si Si4 0.294425 0.038373 0.457935
Si Si5 0.242493 0.865207 0.656476
Si Si6 0.701009 0.414343 0.441489
Si Si7 0.456721 0.663003 0.188191
Si Si8 0.206521 0.203106 0.205945
O O1 0.825187 0.301100 0.203457
O O2 0.737619 0.394318 0.005804
O O3 0.118673 0.184551 0.105086
O O4 0.255748 0.940936 0.787429
O O5 0.457686 0.871829 0.448743
O O6 0.606499 0.624909 0.174607
O O7 0.904855 0.474435 0.344673
O O8 0.042493 0.395307 0.061158
O O9 0.580435 0.843265 0.252454
O O10 0.827815 0.792316 0.326625
O O11 0.360417 0.098656 0.307862
O O12 0.007277 0.208575 0.440366
O O13 0.466318 0.657450 0.612418
O O14 0.351306 0.760184 0.420035
O O15 0.863094 0.125264 0.795594
O O16 0.500000 0.500000 0.500000
O O17 0.500000 0.000000 0.000000
#
# Coordination Sequence:
#
# PCOD9101881 Si02
#       8
#     2   2   2   2   2   2   2   2
#     4  10  20  38  61  85 122 160 199 256 302 360
#     4  10  21  37  63  88 120 156 200 254 309 357
#     4  10  22  41  60  86 123 159 206 255 302 362
#     4  11  23  40  60  87 123 164 204 249 305 364
#     4  10  21  38  61  88 120 164 199 247 314 356
#     4  11  24  40  59  88 126 160 207 252 293 369
#     4   9  20  37  59  92 121 150 203 253 300 366
#     4   9  19  39  60  89 117 152 204 252 299 358
#
# _framework density 21.983357999999999
#
# number of rings (size 3 to 8) (size 9 to 14) (size 15 to 20)
#    0.000    2.000    1.250    1.500    0.000    6.000 
#    9.000    0.000    0.000    0.000    0.000    0.000 
#    0.000    0.000    0.000    0.000    0.000    0.000 
#
# Total GULP energy -89368.680331 kJ/mol
# GULP energy per Si atom -5585.542521 kJ/mol
# Density = 2.193332 g / cm^3
# Si number density = 21.983358 Si / 1000 Ang^3
#
#
#
# Elastic Constant Matrix: (Units=GPa)
#
#
# Indices 1 2 3 4 5 6 
#
# 1 116.0372 34.2290 15.4869 12.5539 -2.8466 4.9251
# 2 34.2290 108.2872 12.3537 15.8698 10.9256 13.3429
# 3 15.4869 12.3537 26.9901 11.9097 4.4640 5.3964
# 4 12.5539 15.8698 11.9097 20.5982 1.0424 5.4851
# 5 -2.8466 10.9256 4.4640 1.0424 26.8421 7.3310
# 6 4.9251 13.3429 5.3964 5.4851 7.3310 39.3814
#
#
#
# Elastic Compliance Matrix: (Units=1/GPa)
#
#
# Indices 1 2 3 4 5 6 
#
# 1 0.010289 -0.002801 -0.004345 -0.001737 0.003039 -0.000066
# 2 -0.002801 0.011755 0.000336 -0.006813 -0.004349 -0.001920
# 3 -0.004345 0.000336 0.053164 -0.027537 -0.007949 -0.001540
# 4 -0.001737 -0.006813 -0.027537 0.071755 0.005680 -0.004753
# 5 0.003039 -0.004349 -0.007949 0.005680 0.042215 -0.006467
# 6 -0.000066 -0.001920 -0.001540 -0.004753 -0.006467 0.028128
#
#
# Mechanical properties :
#
#
# Convention : Reuss Voigt Hill
#
# Bulk Modulus (GPa) = 16.23673 41.71710 28.97691
# Shear Modulus (GPa) = 19.88418 29.98067 24.93243
#
# Velocity S-wave (km/s) = 3.01077 3.69696 3.37137
# Velocity P-wave (km/s) = 4.41455 6.10256 5.32586
#
# Compressibility (1/GPa) = 0.06158877
#
# Stress axis : x y z
#
# Youngs Moduli (GPa) = 97.18861 85.06704 18.80984
#
# Poissons Ratio (x) = 0.23824 0.08173
# Poissons Ratio (y) = 0.27218 -0.00632
# Poissons Ratio (z) = 0.42228 -0.02856
#
# Static dielectric constant tensor:
#      x y z
#    x 1.798620 -0.001770 -0.001280 
#    y -0.001770 1.829230 0.023680 
#    z -0.001280 0.023680 1.801570 
# 
# From -- ./inp_files/319445.got.cif
#   From: 2010.05.17/outbox.cif.g08.bks.cpg/sg2_160_cif.got.tgz:319445.got - 2010.06.03 11:33:40.
