data_PCOD9101498
_publ_section_title
;
Structure prediction by ZEFSAII (Michael W. Deem and Ramdas Pophale) SiO2 
 PCOD9101498
Probable space group: P -1
;
_chemical_formula_sum "Si O2"
_cell_formula_units_Z 16
_cell_length_a 5.757506
_cell_length_b 21.824518
_cell_length_c 12.910263
_cell_angle_alpha 155.779157
_cell_angle_beta 100.521292
_cell_angle_gamma 78.861697
_cell_volume 652.910935
_symmetry_space_group_name_H-M "P -1"
_symmetry_group_IT_number 2
_symmetry_cell_setting 'triclinic'
loop_
_space_group_symop_operation_xyz
x,y,z
-x,-y,-z
loop_
_atom_site_type_symbol
_atom_site_label
_atom_site_fract_x
_atom_site_fract_y
_atom_site_fract_z
Si Si1 0.675580 0.473121 0.142244
Si Si2 0.035985 0.648648 0.667805
Si Si3 0.620434 0.901519 0.235273
Si Si4 0.495817 0.206857 0.593680
Si Si5 0.942297 0.656657 0.293381
Si Si6 0.144141 0.793061 0.107304
Si Si7 0.616896 0.231483 0.416278
Si Si8 0.490578 0.259523 0.239077
O O1 0.616272 0.358221 0.867807
O O2 0.777547 0.364134 0.072484
O O3 0.847125 0.589328 0.288734
O O4 0.450076 0.587689 0.324900
O O5 0.281768 0.640663 0.610613
O O6 0.000000 0.500000 0.500000
O O7 0.772897 0.682408 0.652597
O O8 0.080881 0.771891 0.948808
O O9 0.390188 0.876850 0.250207
O O10 0.885968 0.853506 0.224017
O O11 0.615070 0.069955 0.452848
O O12 0.567994 0.807792 0.981324
O O13 0.222908 0.250717 0.660264
O O14 0.486474 0.178596 0.426341
O O15 0.121762 0.772871 0.525487
O O16 0.000000 0.500000 0.000000
O O17 0.581387 0.160945 0.193161
#
# Coordination Sequence:
#
# PCOD9101498 Si02
#       8
#     2   2   2   2   2   2   2   2
#     4  11  23  39  63  98 123 162 211 268 324 372
#     4  10  20  38  59  90 125 165 206 259 313 367
#     4  10  25  46  62  93 131 172 215 252 306 383
#     4  11  24  41  64  90 129 169 211 263 312 377
#     4  11  21  40  64  93 128 160 211 270 323 368
#     4  10  24  41  65  92 130 169 211 258 312 377
#     4  11  23  39  65  95 124 163 209 268 326 369
#     4  10  23  39  61  91 127 162 209 257 310 376
#
# _framework density 24.505641000000001
#
# number of rings (size 3 to 8) (size 9 to 14) (size 15 to 20)
#    0.000    1.500    2.500    1.875    8.750    2.500 
#    0.000    0.625    0.000    0.000    0.000    0.000 
#    0.000    0.000    0.000    0.000    0.000    0.000 
#
# Total GULP energy -89084.580694 kJ/mol
# GULP energy per Si atom -5567.786293 kJ/mol
# Density = 2.444986 g / cm^3
# Si number density = 24.505641 Si / 1000 Ang^3
#
#
#
# Elastic Constant Matrix: (Units=GPa)
#
#
# Indices 1 2 3 4 5 6 
#
# 1 132.6159 23.8576 29.8856 -1.5926 1.7580 -3.4912
# 2 23.8576 94.5575 6.0209 -6.3462 -9.1693 2.6431
# 3 29.8856 6.0209 45.4217 6.6880 4.5629 0.7037
# 4 -1.5926 -6.3462 6.6880 37.8324 -11.2406 -0.7160
# 5 1.7580 -9.1693 4.5629 -11.2406 18.1862 -0.6549
# 6 -3.4912 2.6431 0.7037 -0.7160 -0.6549 39.2520
#
#
#
# Elastic Compliance Matrix: (Units=1/GPa)
#
#
# Indices 1 2 3 4 5 6 
#
# 1 0.009294 -0.001833 -0.006153 0.001373 0.000610 0.001096
# 2 -0.001833 0.012600 -0.002331 0.005564 0.010529 -0.000693
# 3 -0.006153 -0.002331 0.029305 -0.010078 -0.014210 -0.001337
# 4 0.001373 0.005564 -0.010078 0.037707 0.028546 0.001092
# 5 0.000610 0.010529 -0.014210 0.028546 0.081499 0.001480
# 6 0.001096 -0.000693 -0.001337 0.001092 0.001480 0.025689
#
#
# Mechanical properties :
#
#
# Convention : Reuss Voigt Hill
#
# Bulk Modulus (GPa) = 32.71432 43.56929 38.14180
# Shear Modulus (GPa) = 22.03468 33.24284 27.63876
#
# Velocity S-wave (km/s) = 3.00187 3.68712 3.36200
# Velocity P-wave (km/s) = 5.03921 5.99536 5.53796
#
# Compressibility (1/GPa) = 0.03056766
#
# Stress axis : x y z
#
# Youngs Moduli (GPa) = 107.59610 79.36473 34.12380
#
# Poissons Ratio (x) = 0.14544 0.20995
# Poissons Ratio (y) = 0.19717 0.07953
# Poissons Ratio (z) = 0.66200 0.18497
#
# Static dielectric constant tensor:
#      x y z
#    x 2.197450 0.024590 -0.066220 
#    y 0.024590 1.927630 -0.079750 
#    z -0.066220 -0.079750 2.017810 
# 
# From -- ./inp_files/69181.got.cif
#   From: 2010.05.17/outbox.cif.g08.bks.cpg/sg2_35_cif.got.tgz:69181.got - 2010.06.03 11:33:40.
