data_PCOD9101231
_publ_section_title
;
Structure prediction by ZEFSAII (Michael W. Deem and Ramdas Pophale) SiO2 
 PCOD9101231
Probable space group: P -1
;
_chemical_formula_sum "Si O2"
_cell_formula_units_Z 12
_cell_length_a 9.590820
_cell_length_b 13.699001
_cell_length_c 6.884656
_cell_angle_alpha 98.012639
_cell_angle_beta 88.590319
_cell_angle_gamma 29.609513
_cell_volume 422.452457
_symmetry_space_group_name_H-M "P -1"
_symmetry_group_IT_number 2
_symmetry_cell_setting 'triclinic'
loop_
_space_group_symop_operation_xyz
x,y,z
-x,-y,-z
loop_
_atom_site_type_symbol
_atom_site_label
_atom_site_fract_x
_atom_site_fract_y
_atom_site_fract_z
Si Si1 0.385144 0.801001 0.365575
Si Si2 0.044930 0.077980 0.121334
Si Si3 0.412558 0.152390 0.431618
Si Si4 0.404458 0.434601 0.368575
Si Si5 0.180965 0.723668 0.183529
Si Si6 0.140883 0.418553 0.185090
O O1 0.345493 0.911354 0.559393
O O2 0.199974 0.822182 0.300466
O O3 0.632201 0.582935 0.416068
O O4 0.325471 0.905594 0.205270
O O5 0.732377 0.277524 0.304439
O O6 0.031773 0.159313 0.962062
O O7 0.000000 0.000000 0.000000
O O8 0.371394 0.363442 0.201798
O O9 0.292371 0.231088 0.236784
O O10 0.500000 0.000000 0.500000
O O11 0.176146 0.651315 0.341507
O O12 0.859942 0.631557 0.377768
O O13 0.500000 0.500000 0.000000
O O14 0.000000 0.500000 0.000000
#
# Coordination Sequence:
#
# PCOD9101231 Si02
#       6
#     2   2   2   2   2   2
#     4  10  20  38  61  85 125 158 202 261 308 377
#     4   9  19  34  55  87 118 156 193 252 306 367
#     4  10  24  47  64  96 131 172 220 264 327 379
#     4  10  20  38  57  91 122 154 209 249 319 375
#     4   9  19  34  57  88 117 157 197 248 312 370
#     4  10  24  43  70  93 129 173 219 273 312 386
#
# _framework density 28.405563999999998
#
# number of rings (size 3 to 8) (size 9 to 14) (size 15 to 20)
#    0.000    2.333    0.000    1.000    7.000    2.000 
#   30.000    0.000    0.000    0.000    0.000    0.000 
#    0.000    0.000    0.000    0.000    0.000    0.000 
#
# Total GULP energy -66849.556408 kJ/mol
# GULP energy per Si atom -5570.796367 kJ/mol
# Density = 2.834091 g / cm^3
# Si number density = 28.405564 Si / 1000 Ang^3
#
#
#
# Elastic Constant Matrix: (Units=GPa)
#
#
# Indices 1 2 3 4 5 6 
#
# 1 111.2845 42.3571 35.6698 -17.9405 12.8627 -3.0758
# 2 42.3571 183.8081 96.8433 -82.6289 -6.5570 18.6983
# 3 35.6698 96.8433 194.0274 -90.2052 32.6303 -8.4967
# 4 -17.9405 -82.6289 -90.2052 95.5928 -16.0788 -14.5246
# 5 12.8627 -6.5570 32.6303 -16.0788 31.1532 -3.7563
# 6 -3.0758 18.6983 -8.4967 -14.5246 -3.7563 57.3063
#
#
#
# Elastic Compliance Matrix: (Units=1/GPa)
#
#
# Indices 1 2 3 4 5 6 
#
# 1 0.010824 -0.003762 -0.000038 -0.002179 -0.006244 0.000841
# 2 -0.003762 0.012871 -0.004013 0.008438 0.012576 -0.002033
# 3 -0.000038 -0.004013 0.012284 0.007181 -0.009468 0.004328
# 4 -0.002179 0.008438 0.007181 0.026570 0.009538 0.005554
# 5 -0.006244 0.012576 -0.009468 0.009538 0.052163 -0.000006
# 6 0.000841 -0.002033 0.004328 0.005554 -0.000006 0.020208
#
#
# Mechanical properties :
#
#
# Convention : Reuss Voigt Hill
#
# Bulk Modulus (GPa) = 49.13599 93.20671 71.17135
# Shear Modulus (GPa) = 31.78017 57.76046 44.77032
#
# Velocity S-wave (km/s) = 3.34848 4.51424 3.97433
# Velocity P-wave (km/s) = 5.68202 7.74953 6.79487
#
# Compressibility (1/GPa) = 0.02035168
#
# Stress axis : x y z
#
# Youngs Moduli (GPa) = 92.38937 77.69551 81.40451
#
# Poissons Ratio (x) = 0.29228 0.00312
# Poissons Ratio (y) = 0.34756 0.32671
# Poissons Ratio (z) = 0.00354 0.31182
#
# Static dielectric constant tensor:
#      x y z
#    x 2.539960 -0.132260 -0.341990 
#    y -0.132260 2.617180 0.077320 
#    z -0.341990 0.077320 2.481200 
# 
# From -- ./inp_files/164108.got.cif
#   From: 2010.05.17/outbox.cif.g08.bks.cpg/sg2_83_cif.got.tgz:164108.got - 2010.06.03 11:33:40.
