data_PCOD9101534
_publ_section_title
;
Structure prediction by ZEFSAII (Michael W. Deem and Ramdas Pophale) SiO2 
 PCOD9101534
Probable space group: P -1
;
_chemical_formula_sum "Si O2"
_cell_formula_units_Z 14
_cell_length_a 5.227117
_cell_length_b 15.277210
_cell_length_c 21.001132
_cell_angle_alpha 149.595381
_cell_angle_beta 45.248934
_cell_angle_gamma 131.789187
_cell_volume 594.541446
_symmetry_space_group_name_H-M "P -1"
_symmetry_group_IT_number 2
_symmetry_cell_setting 'triclinic'
loop_
_space_group_symop_operation_xyz
x,y,z
-x,-y,-z
loop_
_atom_site_type_symbol
_atom_site_label
_atom_site_fract_x
_atom_site_fract_y
_atom_site_fract_z
Si Si1 0.980445 0.981350 0.226370
Si Si2 0.814593 0.933678 0.556235
Si Si3 0.680660 0.652176 0.611490
Si Si4 0.202651 0.277388 0.000439
Si Si5 0.560669 0.456149 0.166900
Si Si6 0.545190 0.432814 0.609392
Si Si7 0.015051 0.749373 0.187279
O O1 0.949092 0.921297 0.120539
O O2 0.002317 0.805052 0.151302
O O3 0.600447 0.032190 0.348132
O O4 0.303744 0.144942 0.283048
O O5 0.793206 0.726008 0.437565
O O6 0.998715 0.064749 0.659834
O O7 0.000000 0.000000 0.500000
O O8 0.500000 0.500000 0.500000
O O9 0.514830 0.601994 0.678516
O O10 0.108668 0.635985 0.525711
O O11 0.592163 0.313776 0.917275
O O12 0.302140 0.315142 0.080572
O O13 0.907012 0.392316 0.100599
O O14 0.374658 0.528423 0.306312
O O15 0.716580 0.607468 0.183799
#
# Coordination Sequence:
#
# PCOD9101534 Si02
#       7
#     2   2   2   2   2   2   2
#     4  10  23  41  66  97 129 183 220 275 331 397
#     4  10  20  38  60 100 135 166 214 277 338 396
#     4  10  22  45  71  92 130 175 228 276 337 395
#     4  11  25  43  64  99 136 181 221 266 332 399
#     4  12  25  40  69  98 138 175 223 271 330 401
#     4  10  23  42  64 101 131 174 222 279 335 394
#     4  11  22  39  66  95 140 176 219 269 337 397
#
# _framework density 23.547557999999999
#
# number of rings (size 3 to 8) (size 9 to 14) (size 15 to 20)
#    0.000    1.429    2.857    1.714    6.000    1.714 
#    0.000    1.429    0.000    0.000    0.000    0.000 
#    0.000    0.000    0.000    0.000    0.000    0.000 
#
# Total GULP energy -78129.139498 kJ/mol
# GULP energy per Si atom -5580.652821 kJ/mol
# Density = 2.349396 g / cm^3
# Si number density = 23.547558 Si / 1000 Ang^3
#
#
#
# Elastic Constant Matrix: (Units=GPa)
#
#
# Indices 1 2 3 4 5 6 
#
# 1 82.5684 22.8872 28.6544 9.2011 17.4650 -13.2454
# 2 22.8872 99.7368 39.7385 10.6714 8.3798 -7.0493
# 3 28.6544 39.7385 82.2221 -7.2521 27.0037 -4.1759
# 4 9.2011 10.6714 -7.2521 21.7350 -6.1206 6.3551
# 5 17.4650 8.3798 27.0037 -6.1206 44.0615 1.3893
# 6 -13.2454 -7.0493 -4.1759 6.3551 1.3893 24.0193
#
#
#
# Elastic Compliance Matrix: (Units=1/GPa)
#
#
# Indices 1 2 3 4 5 6 
#
# 1 0.019770 0.001414 -0.005911 -0.017621 -0.007415 0.015380
# 2 0.001414 0.014963 -0.008412 -0.012916 -0.000270 0.007141
# 3 -0.005911 -0.008412 0.021595 0.013265 -0.007290 -0.005062
# 4 -0.017621 -0.012916 0.013265 0.077406 0.013086 -0.032438
# 5 -0.007415 -0.000270 -0.007290 0.013086 0.032311 -0.010767
# 6 0.015380 0.007141 -0.005062 -0.032438 -0.010767 0.060536
#
#
# Mechanical properties :
#
#
# Convention : Reuss Voigt Hill
#
# Bulk Modulus (GPa) = 32.77696 49.67638 41.22667
# Shear Modulus (GPa) = 19.04263 29.51296 24.27780
#
# Velocity S-wave (km/s) = 2.84683 3.54409 3.21442
# Velocity P-wave (km/s) = 4.97550 6.15544 5.59665
#
# Compressibility (1/GPa) = 0.03050924
#
# Stress axis : x y z
#
# Youngs Moduli (GPa) = 50.58181 66.83106 46.30747
#
# Poissons Ratio (x) = -0.09448 0.27371
# Poissons Ratio (y) = -0.07151 0.38955
# Poissons Ratio (z) = 0.29898 0.56221
#
# Static dielectric constant tensor:
#      x y z
#    x 1.980690 -0.024510 0.034990 
#    y -0.024510 1.956810 0.029770 
#    z 0.034990 0.029770 2.065870 
# 
# From -- ./inp_files/66226.got.cif
#   From: 2010.05.17/outbox.cif.g08.bks.cpg/sg2_34_cif.got.tgz:66226.got - 2010.06.03 11:33:40.
