data_PCOD9101202
_publ_section_title
;
Structure prediction by ZEFSAII (Michael W. Deem and Ramdas Pophale) SiO2 
 PCOD9101202
Probable space group: P -1
;
_chemical_formula_sum "Si O2"
_cell_formula_units_Z 16
_cell_length_a 7.924269
_cell_length_b 16.648550
_cell_length_c 6.341934
_cell_angle_alpha 71.263281
_cell_angle_beta 115.026581
_cell_angle_gamma 102.495192
_cell_volume 714.781126
_symmetry_space_group_name_H-M "P -1"
_symmetry_group_IT_number 2
_symmetry_cell_setting 'triclinic'
loop_
_space_group_symop_operation_xyz
x,y,z
-x,-y,-z
loop_
_atom_site_type_symbol
_atom_site_label
_atom_site_fract_x
_atom_site_fract_y
_atom_site_fract_z
Si Si1 0.031036 0.288704 0.540973
Si Si2 0.548296 0.516718 0.751487
Si Si3 0.774298 0.997734 0.604693
Si Si4 0.142743 0.609889 0.015101
Si Si5 0.237948 0.763313 0.185037
Si Si6 0.571778 0.059171 0.796946
Si Si7 0.012031 0.858405 0.656777
Si Si8 0.775656 0.596053 0.104381
O O1 0.089425 0.205611 0.516146
O O2 0.180366 0.333911 0.747028
O O3 0.960423 0.353152 0.273244
O O4 0.850888 0.259011 0.616265
O O5 0.500000 0.500000 0.500000
O O6 0.354991 0.480679 0.790537
O O7 0.726913 0.461772 0.918791
O O8 0.635250 0.607219 0.820207
O O9 0.583841 0.950045 0.456539
O O10 0.916554 0.931233 0.668322
O O11 0.752118 0.022673 0.815047
O O12 0.823842 0.086169 0.430886
O O13 0.282247 0.680786 0.149397
O O14 0.980334 0.585331 0.123552
O O15 0.389908 0.842885 0.206899
O O16 0.078211 0.797343 0.923061
O O17 0.500000 0.000000 0.000000
#
# Coordination Sequence:
#
# PCOD9101202 Si02
#       8
#     2   2   2   2   2   2   2   2
#     4  10  21  41  62  86 130 166 214 262 318 384
#     4  11  24  42  67 100 132 162 211 262 313 389
#     4  10  22  34  58  83 116 158 208 264 319 374
#     4  10  23  41  65  92 128 174 207 261 323 376
#     4  10  21  37  60  86 121 168 207 257 321 380
#     4  11  21  37  56  87 122 161 212 268 322 378
#     4  10  20  38  57  86 114 159 212 261 316 373
#     4  10  23  40  66  96 125 169 208 257 317 385
#
# _framework density 22.384473
#
# number of rings (size 3 to 8) (size 9 to 14) (size 15 to 20)
#    0.000    1.750    2.500    1.125    0.000    7.500 
#    0.000    6.250    0.000    0.000    0.000    0.000 
#    0.000    0.000    0.000    0.000    0.000    0.000 
#
# Total GULP energy -89136.234029 kJ/mol
# GULP energy per Si atom -5571.014627 kJ/mol
# Density = 2.233352 g / cm^3
# Si number density = 22.384473 Si / 1000 Ang^3
#
#
#
# Elastic Constant Matrix: (Units=GPa)
#
#
# Indices 1 2 3 4 5 6 
#
# 1 66.3224 31.2386 27.3535 5.3683 -27.7739 8.1748
# 2 31.2386 129.4601 31.6087 39.5579 3.9395 15.2546
# 3 27.3535 31.6087 76.6429 24.0913 -18.0788 -0.1890
# 4 5.3683 39.5579 24.0913 40.0998 6.0650 4.4067
# 5 -27.7739 3.9395 -18.0788 6.0650 28.7220 5.8464
# 6 8.1748 15.2546 -0.1890 4.4067 5.8464 32.4610
#
#
#
# Elastic Compliance Matrix: (Units=1/GPa)
#
#
# Indices 1 2 3 4 5 6 
#
# 1 0.037611 -0.008354 -0.000002 -0.001517 0.040403 -0.012617
# 2 -0.008354 0.013561 -0.001505 -0.009915 -0.008507 -0.001399
# 3 -0.000002 -0.001505 0.022341 -0.014534 0.017402 -0.000324
# 4 -0.001517 -0.009915 -0.014534 0.046362 -0.019488 0.002173
# 5 0.040403 -0.008507 0.017402 -0.019488 0.094276 -0.020410
# 6 -0.012617 -0.001399 -0.000324 0.002173 -0.020410 0.038020
#
#
# Mechanical properties :
#
#
# Convention : Reuss Voigt Hill
#
# Bulk Modulus (GPa) = 18.59020 50.31410 34.45215
# Shear Modulus (GPa) = 17.25187 32.40486 24.82836
#
# Velocity S-wave (km/s) = 2.77917 3.80893 3.33405
# Velocity P-wave (km/s) = 4.31525 6.47070 5.49960
#
# Compressibility (1/GPa) = 0.05379179
#
# Stress axis : x y z
#
# Youngs Moduli (GPa) = 26.58802 73.74067 44.76001
#
# Poissons Ratio (x) = 0.61606 0.00007
# Poissons Ratio (y) = 0.22213 0.06736
# Poissons Ratio (z) = 0.00004 0.11097
#
# Static dielectric constant tensor:
#      x y z
#    x 1.953660 -0.045220 -0.036710 
#    y -0.045220 1.946110 0.048210 
#    z -0.036710 0.048210 1.926460 
# 
# From -- ./inp_files/43867.got.cif
#   From: 2010.05.17/outbox.cif.g08.bks.cpg/sg2_22_cif.got.tgz:43867.got - 2010.06.03 11:33:40.
