data_PCOD9101868
_publ_section_title
;
Structure prediction by ZEFSAII (Michael W. Deem and Ramdas Pophale) SiO2 
 PCOD9101868
Probable space group: P -1
;
_chemical_formula_sum "Si O2"
_cell_formula_units_Z 14
_cell_length_a 18.713890
_cell_length_b 11.748475
_cell_length_c 9.423990
_cell_angle_alpha 41.519624
_cell_angle_beta 35.731383
_cell_angle_gamma 29.911897
_cell_volume 596.105426
_symmetry_space_group_name_H-M "P -1"
_symmetry_group_IT_number 2
_symmetry_cell_setting 'triclinic'
loop_
_space_group_symop_operation_xyz
x,y,z
-x,-y,-z
loop_
_atom_site_type_symbol
_atom_site_label
_atom_site_fract_x
_atom_site_fract_y
_atom_site_fract_z
Si Si1 0.190344 0.261243 0.933162
Si Si2 0.332232 0.154848 0.538101
Si Si3 0.115612 0.924396 0.747241
Si Si4 0.396411 0.583479 0.801180
Si Si5 0.242367 0.603309 0.585528
Si Si6 0.496199 0.904026 0.949678
Si Si7 0.831661 0.318080 0.679144
O O1 0.222557 0.148482 0.829642
O O2 0.261336 0.382609 0.745741
O O3 0.312154 0.043998 0.047941
O O4 0.000000 0.500000 0.000000
O O5 0.390699 0.086104 0.348185
O O6 0.245985 0.420668 0.435400
O O7 0.500000 0.000000 0.500000
O O8 0.293877 0.781449 0.662272
O O9 0.142865 0.749578 0.749775
O O10 0.011756 0.159360 0.606736
O O11 0.000000 0.000000 0.000000
O O12 0.575751 0.490027 0.617487
O O13 0.417742 0.363609 0.928517
O O14 0.289213 0.682120 0.027236
O O15 0.161279 0.742611 0.438871
O O16 0.500000 0.000000 0.000000
#
# Coordination Sequence:
#
# PCOD9101868 Si02
#       7
#     2   2   2   2   2   2   2
#     4  10  22  40  59  83 114 150 192 241 286 332
#     4   8  17  36  59  81 111 148 188 230 279 340
#     4  10  21  36  53  84 122 148 181 234 285 332
#     4  10  21  37  59  87 117 150 188 235 283 338
#     4  11  21  38  60  85 112 152 195 233 282 340
#     4  10  20  38  61  85 115 151 188 229 284 348
#     4   9  19  35  59  87 113 145 190 240 283 330
#
# _framework density 23.485779000000001
#
# number of rings (size 3 to 8) (size 9 to 14) (size 15 to 20)
#    0.000    2.286    0.000    2.143    0.000    3.429 
#    0.000   13.571    0.000    0.000    0.000    0.000 
#    0.000    0.000    0.000    0.000    0.000    0.000 
#
# Total GULP energy -77961.387347 kJ/mol
# GULP energy per Si atom -5568.670525 kJ/mol
# Density = 2.343232 g / cm^3
# Si number density = 23.485779 Si / 1000 Ang^3
#
#
#
# Elastic Constant Matrix: (Units=GPa)
#
#
# Indices 1 2 3 4 5 6 
#
# 1 115.1884 52.7382 47.5064 0.8892 39.8349 -8.8951
# 2 52.7382 145.8483 18.7761 4.3725 12.1419 -29.9813
# 3 47.5064 18.7761 54.2158 23.4668 25.1750 9.4312
# 4 0.8892 4.3725 23.4668 25.6976 13.7867 9.4032
# 5 39.8349 12.1419 25.1750 13.7867 40.3742 2.3927
# 6 -8.8951 -29.9813 9.4312 9.4032 2.3927 55.5858
#
#
#
# Elastic Compliance Matrix: (Units=1/GPa)
#
#
# Indices 1 2 3 4 5 6 
#
# 1 0.037848 -0.007474 -0.039984 0.050754 -0.027578 0.001411
# 2 -0.007474 0.009904 0.004229 -0.009614 0.004754 0.004850
# 3 -0.039984 0.004229 0.079656 -0.078650 0.015662 -0.005002
# 4 0.050754 -0.009614 -0.078650 0.136190 -0.044362 -0.004848
# 5 -0.027578 0.004754 0.015662 -0.044362 0.055895 0.000592
# 6 0.001411 0.004850 -0.005002 -0.004848 0.000592 0.022475
#
#
# Mechanical properties :
#
#
# Convention : Reuss Voigt Hill
#
# Bulk Modulus (GPa) = 24.41977 61.47710 42.94844
# Shear Modulus (GPa) = 11.31031 37.41364 24.36197
#
# Velocity S-wave (km/s) = 2.19688 3.99561 3.22422
# Velocity P-wave (km/s) = 4.10552 6.89345 5.67340
#
# Compressibility (1/GPa) = 0.04095042
#
# Stress axis : x y z
#
# Youngs Moduli (GPa) = 26.42173 100.96948 12.55401
#
# Poissons Ratio (x) = 0.75464 0.50195
# Poissons Ratio (y) = 0.19747 -0.05309
# Poissons Ratio (z) = 1.05644 -0.42700
#
# Static dielectric constant tensor:
#      x y z
#    x 1.882480 -0.035450 0.054510 
#    y -0.035450 1.918590 0.029670 
#    z 0.054510 0.029670 2.077950 
# 
# From -- ./inp_files/160123.got.cif
#   From: 2010.05.17/outbox.cif.g08.bks.cpg/sg2_81_cif.got.tgz:160123.got - 2010.06.03 11:33:40.
