data_PCOD9101898
_publ_section_title
;
Structure prediction by ZEFSAII (Michael W. Deem and Ramdas Pophale) SiO2 
 PCOD9101898
Probable space group: P -1
;
_chemical_formula_sum "Si O2"
_cell_formula_units_Z 16
_cell_length_a 8.410018
_cell_length_b 9.267190
_cell_length_c 27.563008
_cell_angle_alpha 42.764394
_cell_angle_beta 133.505509
_cell_angle_gamma 148.223698
_cell_volume 755.569846
_symmetry_space_group_name_H-M "P -1"
_symmetry_group_IT_number 2
_symmetry_cell_setting 'triclinic'
loop_
_space_group_symop_operation_xyz
x,y,z
-x,-y,-z
loop_
_atom_site_type_symbol
_atom_site_label
_atom_site_fract_x
_atom_site_fract_y
_atom_site_fract_z
Si Si1 0.453584 0.899301 0.434829
Si Si2 0.167939 0.840181 0.952981
Si Si3 0.238484 0.190018 0.046612
Si Si4 0.409398 0.221383 0.657794
Si Si5 0.894706 0.772807 0.197067
Si Si6 0.564910 0.228630 0.192695
Si Si7 0.006475 0.482083 0.362001
Si Si8 0.708005 0.825550 0.596861
O O1 0.380522 0.065616 0.407473
O O2 0.737876 0.130107 0.400909
O O3 0.154526 0.633061 0.407685
O O4 0.552983 0.796864 0.521168
O O5 0.960215 0.825099 0.951202
O O6 0.219963 0.061180 0.868631
O O7 0.000000 0.500000 0.000000
O O8 0.500000 0.000000 0.000000
O O9 0.439453 0.160991 0.128089
O O10 0.500000 0.500000 0.000000
O O11 0.000000 0.000000 0.000000
O O12 0.700290 0.389303 0.640758
O O13 0.553042 0.492953 0.657291
O O14 0.328773 0.936832 0.733642
O O15 0.076058 0.071453 0.606565
O O16 0.784463 0.564601 0.176895
O O17 0.845517 0.576098 0.279324
O O18 0.260102 0.047692 0.205400
#
# Coordination Sequence:
#
# PCOD9101898 Si02
#       8
#     2   2   2   2   2   2   2   2
#     4  11  24  41  59  85 125 163 190 235 309 366
#     4  11  22  39  61  88 120 157 197 240 293 351
#     4  11  22  39  61  88 120 157 197 240 293 351
#     4  11  22  39  64  90 113 152 209 252 284 344
#     4  10  20  38  61  86 119 158 193 240 304 353
#     4  10  20  38  61  86 119 158 193 240 304 353
#     4  11  22  39  64  90 113 152 209 252 284 344
#     4  11  24  41  59  85 125 163 190 235 309 366
#
# _framework density 21.176069999999999
#
# number of rings (size 3 to 8) (size 9 to 14) (size 15 to 20)
#    0.000    1.250    0.000    9.000    0.000    5.000 
#    0.000    7.500    0.000    0.000    0.000    0.000 
#    0.000    0.000    0.000    0.000    0.000    0.000 
#
# Total GULP energy -89153.049994 kJ/mol
# GULP energy per Si atom -5572.065625 kJ/mol
# Density = 2.112787 g / cm^3
# Si number density = 21.176070 Si / 1000 Ang^3
#
#
#
# Elastic Constant Matrix: (Units=GPa)
#
#
# Indices 1 2 3 4 5 6 
#
# 1 38.8068 6.9682 23.7244 1.2878 9.2264 5.3663
# 2 6.9682 128.6458 18.6542 0.5515 18.6791 11.7789
# 3 23.7244 18.6542 74.8192 11.3902 20.3081 0.5284
# 4 1.2878 0.5515 11.3902 38.6957 -1.7106 0.9532
# 5 9.2264 18.6791 20.3081 -1.7106 29.5010 -3.3249
# 6 5.3663 11.7789 0.5284 0.9532 -3.3249 28.1929
#
#
#
# Elastic Compliance Matrix: (Units=1/GPa)
#
#
# Indices 1 2 3 4 5 6 
#
# 1 0.033739 0.001006 -0.009738 0.001679 -0.005214 -0.007331
# 2 0.001006 0.009157 -0.000934 -0.000039 -0.006002 -0.004706
# 3 -0.009738 -0.000934 0.020552 -0.006208 -0.010781 0.000797
# 4 0.001679 -0.000039 -0.006208 0.027863 0.005332 -0.000500
# 5 -0.005214 -0.006002 -0.010781 0.005332 0.048095 0.009194
# 6 -0.007331 -0.004706 0.000797 -0.000500 0.009194 0.039918
#
#
# Mechanical properties :
#
#
# Convention : Reuss Voigt Hill
#
# Bulk Modulus (GPa) = 22.66725 37.88505 30.27615
# Shear Modulus (GPa) = 23.43456 32.13960 27.78708
#
# Velocity S-wave (km/s) = 3.33025 3.90003 3.62635
# Velocity P-wave (km/s) = 5.05122 6.18140 5.64467
#
# Compressibility (1/GPa) = 0.04411651
#
# Stress axis : x y z
#
# Youngs Moduli (GPa) = 29.63941 109.20883 48.65738
#
# Poissons Ratio (x) = -0.10983 0.47380
# Poissons Ratio (y) = -0.02981 0.04543
# Poissons Ratio (z) = 0.28862 0.10196
#
# Static dielectric constant tensor:
#      x y z
#    x 1.755780 -0.021420 -0.012490 
#    y -0.021420 1.757160 -0.059750 
#    z -0.012490 -0.059750 1.886980 
# 
# From -- ./inp_files/352513.got.cif
#   From: 2010.05.17/outbox.cif.g08.bks.cpg/sg2_177_cif.got.tgz:352513.got - 2010.06.03 11:33:40.
