data_PCOD9101106
_publ_section_title
;
Structure prediction by ZEFSAII (Michael W. Deem and Ramdas Pophale) SiO2 
 PCOD9101106
Probable space group: P -1
;
_chemical_formula_sum "Si O2"
_cell_formula_units_Z 14
_cell_length_a 18.000953
_cell_length_b 16.910980
_cell_length_c 7.002362
_cell_angle_alpha 55.952012
_cell_angle_beta 44.768174
_cell_angle_gamma 22.802872
_cell_volume 545.741973
_symmetry_space_group_name_H-M "P -1"
_symmetry_group_IT_number 2
_symmetry_cell_setting 'triclinic'
loop_
_space_group_symop_operation_xyz
x,y,z
-x,-y,-z
loop_
_atom_site_type_symbol
_atom_site_label
_atom_site_fract_x
_atom_site_fract_y
_atom_site_fract_z
Si Si1 0.739994 0.157036 0.960504
Si Si2 0.993294 0.404564 0.371962
Si Si3 0.490176 0.853008 0.734760
Si Si4 0.918151 0.838879 0.657584
Si Si5 0.396937 0.760645 0.480205
Si Si6 0.249114 0.672082 0.548251
Si Si7 0.656085 0.734678 0.204030
O O1 0.678372 0.299954 0.757977
O O2 0.575939 0.201938 0.129374
O O3 0.695077 0.207008 0.197559
O O4 0.014615 0.898711 0.781818
O O5 0.230805 0.274296 0.117292
O O6 0.766645 0.624753 0.609856
O O7 0.044631 0.250594 0.483260
O O8 0.880078 0.508825 0.222338
O O9 0.286817 0.045695 0.995145
O O10 0.494159 0.901978 0.454442
O O11 0.819925 0.024765 0.541202
O O12 0.151638 0.668790 0.585641
O O13 0.558940 0.545440 0.388816
O O14 0.532999 0.749974 0.291956
#
# Coordination Sequence:
#
# PCOD9101106 Si02
#       7
#     2   2   2   2   2   2   2
#     4   9  19  36  57  74 103 144 170 205 268 301
#     4   9  17  35  55  74 105 137 173 215 249 308
#     4   8  17  34  53  78 100 137 175 207 258 307
#     4  11  21  32  56  80 104 137 172 211 264 300
#     4  11  21  35  54  81 104 136 173 213 258 309
#     4  10  20  38  54  76 107 135 174 217 247 311
#     4   8  17  36  55  71 106 140 169 212 260 295
#
# _framework density 25.65315
#
# number of rings (size 3 to 8) (size 9 to 14) (size 15 to 20)
#    0.857    1.714    1.429    0.429    0.000    2.857 
#    0.000    7.143    0.000    0.000    0.000    0.000 
#    0.000    0.000    0.000    0.000    0.000    0.000 
#
# Total GULP energy -78213.537725 kJ/mol
# GULP energy per Si atom -5586.681266 kJ/mol
# Density = 2.559476 g / cm^3
# Si number density = 25.653150 Si / 1000 Ang^3
#
#
#
# Elastic Constant Matrix: (Units=GPa)
#
#
# Indices 1 2 3 4 5 6 
#
# 1 54.9375 -5.4838 6.6759 -2.4562 5.0317 5.7717
# 2 -5.4838 78.7582 -2.9960 -8.5214 14.4741 -1.9346
# 3 6.6759 -2.9960 94.4711 8.7278 2.8963 -2.6262
# 4 -2.4562 -8.5214 8.7278 22.1881 8.4918 1.2840
# 5 5.0317 14.4741 2.8963 8.4918 25.1497 -3.4674
# 6 5.7717 -1.9346 -2.6262 1.2840 -3.4674 18.1812
#
#
#
# Elastic Compliance Matrix: (Units=1/GPa)
#
#
# Indices 1 2 3 4 5 6 
#
# 1 0.021311 0.004224 -0.002182 0.009584 -0.010976 -0.009401
# 2 0.004224 0.017249 -0.000622 0.013581 -0.015778 -0.003563
# 3 -0.002182 -0.000622 0.011283 -0.005811 0.001874 0.003024
# 4 0.009584 0.013581 -0.005811 0.067304 -0.033666 -0.013610
# 5 -0.010976 -0.015778 0.001874 -0.033666 0.064500 0.016754
# 6 -0.009401 -0.003563 0.003024 -0.013610 0.016754 0.062200
#
#
# Mechanical properties :
#
#
# Convention : Reuss Voigt Hill
#
# Bulk Modulus (GPa) = 18.98136 24.95101 21.96618
# Shear Modulus (GPa) = 19.33727 28.43517 23.88622
#
# Velocity S-wave (km/s) = 2.74851 3.33295 3.05474
# Velocity P-wave (km/s) = 4.18183 4.95568 4.58511
#
# Compressibility (1/GPa) = 0.05268326
#
# Stress axis : x y z
#
# Youngs Moduli (GPa) = 46.92473 57.97413 88.62727
#
# Poissons Ratio (x) = -0.24488 0.19341
# Poissons Ratio (y) = -0.19821 0.05508
# Poissons Ratio (z) = 0.10240 0.03603
#
# Static dielectric constant tensor:
#      x y z
#    x 2.020760 0.010580 -0.016880 
#    y 0.010580 2.037220 0.008720 
#    z -0.016880 0.008720 2.015820 
# 
# From -- ./inp_files/291478.got.cif
#   From: 2010.05.17/outbox.cif.g08.bks.cpg/sg2_146_cif.got.tgz:291478.got - 2010.06.03 11:33:40.
