data_PCOD9101526
_publ_section_title
;
Structure prediction by ZEFSAII (Michael W. Deem and Ramdas Pophale) SiO2 
 PCOD9101526
Probable space group: P -1
;
_chemical_formula_sum "Si O2"
_cell_formula_units_Z 16
_cell_length_a 15.732374
_cell_length_b 13.211715
_cell_length_c 5.351695
_cell_angle_alpha 88.416036
_cell_angle_beta 111.436686
_cell_angle_gamma 43.309012
_cell_volume 630.685831
_symmetry_space_group_name_H-M "P -1"
_symmetry_group_IT_number 2
_symmetry_cell_setting 'triclinic'
loop_
_space_group_symop_operation_xyz
x,y,z
-x,-y,-z
loop_
_atom_site_type_symbol
_atom_site_label
_atom_site_fract_x
_atom_site_fract_y
_atom_site_fract_z
Si Si1 0.690015 0.395634 0.282332
Si Si2 0.997354 0.788692 0.864537
Si Si3 0.541933 0.370644 0.367998
Si Si4 0.673164 0.814629 0.650929
Si Si5 0.114680 0.883089 0.862440
Si Si6 0.335435 0.098021 0.864185
Si Si7 0.699011 0.558443 0.665033
Si Si8 0.813500 0.958574 0.136999
O O1 0.700749 0.281771 0.463326
O O2 0.770694 0.299087 0.120746
O O3 0.738915 0.449277 0.485181
O O4 0.527235 0.570381 0.990882
O O5 0.908338 0.870747 0.501779
O O6 0.033506 0.876554 0.966817
O O7 0.902110 0.837907 0.999948
O O8 0.147171 0.590709 0.004373
O O9 0.500000 0.500000 0.500000
O O10 0.458136 0.347859 0.398142
O O11 0.737683 0.823058 0.491210
O O12 0.678782 0.693586 0.585553
O O13 0.500000 0.000000 0.500000
O O14 0.740940 0.773281 0.000977
O O15 0.209510 0.904145 0.975790
O O16 0.000000 0.000000 0.500000
O O17 0.327470 0.988733 0.953343
O O18 0.500000 0.000000 0.000000
#
# Coordination Sequence:
#
# PCOD9101526 Si02
#       8
#     2   2   2   2   2   2   2   2
#     4  10  20  38  59  94 136 172 224 264 329 411
#     4  11  23  41  65 102 136 177 224 264 334 422
#     4   9  20  37  57  93 132 173 221 267 327 409
#     4  10  24  44  68  95 124 164 228 282 336 394
#     4  10  21  39  65 100 138 178 215 264 326 410
#     4  10  23  47  68  96 130 172 231 286 335 399
#     4  11  22  39  67  90 131 180 216 284 342 391
#     4  11  24  43  67  97 139 179 220 280 333 385
#
# _framework density 25.369209999999999
#
# number of rings (size 3 to 8) (size 9 to 14) (size 15 to 20)
#    0.000    1.750    1.250    2.625    1.750    3.000 
#   11.250    3.750    0.000    0.000    0.000    0.000 
#    0.000    0.000    0.000    0.000    0.000    0.000 
#
# Total GULP energy -89100.556866 kJ/mol
# GULP energy per Si atom -5568.784804 kJ/mol
# Density = 2.531147 g / cm^3
# Si number density = 25.369210 Si / 1000 Ang^3
#
#
#
# Elastic Constant Matrix: (Units=GPa)
#
#
# Indices 1 2 3 4 5 6 
#
# 1 187.9989 45.5576 25.8482 10.5161 -28.6707 22.4040
# 2 45.5576 65.8837 13.6348 -8.5852 -3.6123 24.2989
# 3 25.8482 13.6348 105.6449 19.2758 -11.5972 4.7179
# 4 10.5161 -8.5852 19.2758 26.3054 -4.4456 -5.6104
# 5 -28.6707 -3.6123 -11.5972 -4.4456 44.2921 4.0671
# 6 22.4040 24.2989 4.7179 -5.6104 4.0671 35.6041
#
#
#
# Elastic Compliance Matrix: (Units=1/GPa)
#
#
# Indices 1 2 3 4 5 6 
#
# 1 0.007707 -0.004632 0.000172 -0.004592 0.004465 -0.002945
# 2 -0.004632 0.024806 -0.003296 0.009835 0.000256 -0.012057
# 3 0.000172 -0.003296 0.011918 -0.009784 0.002093 -0.001219
# 4 -0.004592 0.009835 -0.009784 0.051406 -0.000085 0.005584
# 5 0.004465 0.000256 0.002093 -0.000085 0.026608 -0.006315
# 6 -0.002945 -0.012057 -0.001219 0.005584 -0.006315 0.039931
#
#
# Mechanical properties :
#
#
# Convention : Reuss Voigt Hill
#
# Bulk Modulus (GPa) = 34.58021 58.84538 46.71279
# Shear Modulus (GPa) = 26.66251 39.53946 33.10098
#
# Velocity S-wave (km/s) = 3.24540 3.95214 3.61608
# Velocity P-wave (km/s) = 5.26344 6.63866 5.99065
#
# Compressibility (1/GPa) = 0.02891827
#
# Stress axis : x y z
#
# Youngs Moduli (GPa) = 129.75453 40.31285 83.90390
#
# Poissons Ratio (x) = 0.18674 -0.01441
# Poissons Ratio (y) = 0.60106 0.27655
# Poissons Ratio (z) = -0.02228 0.13287
#
# Static dielectric constant tensor:
#      x y z
#    x 2.201730 -0.138800 0.041630 
#    y -0.138800 2.155610 -0.026430 
#    z 0.041630 -0.026430 2.949910 
# 
# From -- ./inp_files/95013.got.cif
#   From: 2010.05.17/outbox.cif.g08.bks.cpg/sg2_48_cif.got.tgz:95013.got - 2010.06.03 11:33:40.
