data_PCOD9101367
_publ_section_title
;
Structure prediction by ZEFSAII (Michael W. Deem and Ramdas Pophale) SiO2 
 PCOD9101367
Probable space group: P -1
;
_chemical_formula_sum "Si O2"
_cell_formula_units_Z 14
_cell_length_a 5.387251
_cell_length_b 24.289313
_cell_length_c 9.483519
_cell_angle_alpha 29.484881
_cell_angle_beta 73.608735
_cell_angle_gamma 68.164416
_cell_volume 564.611489
_symmetry_space_group_name_H-M "P -1"
_symmetry_group_IT_number 2
_symmetry_cell_setting 'triclinic'
loop_
_space_group_symop_operation_xyz
x,y,z
-x,-y,-z
loop_
_atom_site_type_symbol
_atom_site_label
_atom_site_fract_x
_atom_site_fract_y
_atom_site_fract_z
Si Si1 0.633116 0.973061 0.381994
Si Si2 0.486636 0.218642 0.731137
Si Si3 0.845840 0.109970 0.376726
Si Si4 0.046417 0.677276 0.239065
Si Si5 0.888865 0.373899 0.969563
Si Si6 0.607860 0.439532 0.308064
Si Si7 0.650889 0.675999 0.764967
O O1 0.500000 0.000000 0.500000
O O2 0.426552 0.913414 0.473223
O O3 0.639808 0.090434 0.040461
O O4 0.928292 0.891335 0.540009
O O5 0.653326 0.315142 0.505632
O O6 0.373559 0.233450 0.558113
O O7 0.230796 0.257947 0.787166
O O8 0.800074 0.222455 0.035839
O O9 0.000000 0.000000 0.500000
O O10 0.236135 0.582405 0.519945
O O11 0.001209 0.633798 0.188396
O O12 0.645132 0.311103 0.151654
O O13 0.119050 0.330286 0.144410
O O14 0.709217 0.504631 0.740506
O O15 0.699155 0.544068 0.986259
#
# Coordination Sequence:
#
# PCOD9101367 Si02
#       7
#     2   2   2   2   2   2   2
#     4  10  20  38  58  98 125 151 202 285 313 362
#     4  12  24  38  74  97 125 173 222 263 325 377
#     4  10  20  38  58  98 125 151 202 285 313 362
#     4  12  24  38  74  97 125 173 222 263 325 377
#     4  10  26  46  60  91 144 173 208 261 324 388
#     4  10  24  40  66  98 132 168 220 266 314 380
#     4  10  26  46  60  91 144 173 208 261 324 388
#
# _framework density 24.795808999999998
#
# number of rings (size 3 to 8) (size 9 to 14) (size 15 to 20)
#    0.857    0.571    2.857    3.429    4.000    2.286 
#    0.000    0.000    0.000    5.143    0.000    0.000 
#    0.000    0.000    0.000    0.000    0.000    0.000 
#
# Total GULP energy -78325.364024 kJ/mol
# GULP energy per Si atom -5594.668859 kJ/mol
# Density = 2.473937 g / cm^3
# Si number density = 24.795809 Si / 1000 Ang^3
#
#
#
# Elastic Constant Matrix: (Units=GPa)
#
#
# Indices 1 2 3 4 5 6 
#
# 1 167.8775 21.2692 13.5571 10.9961 19.6528 7.9693
# 2 21.2692 47.8792 8.1687 13.8394 4.9228 1.1247
# 3 13.5571 8.1687 122.4832 1.2672 27.3614 3.0992
# 4 10.9961 13.8394 1.2672 35.5393 9.9902 1.1487
# 5 19.6528 4.9228 27.3614 9.9902 39.2944 1.0069
# 6 7.9693 1.1247 3.0992 1.1487 1.0069 39.5120
#
#
#
# Elastic Compliance Matrix: (Units=1/GPa)
#
#
# Indices 1 2 3 4 5 6 
#
# 1 0.006701 -0.002612 0.000147 -0.000164 -0.003054 -0.001206
# 2 -0.002612 0.024834 -0.001657 -0.009289 0.001706 0.000176
# 3 0.000147 -0.001657 0.009887 0.002327 -0.007326 -0.000639
# 4 -0.000164 -0.009289 0.002327 0.034295 -0.009077 -0.000651
# 5 -0.003054 0.001706 -0.007326 -0.009077 0.034158 0.000536
# 6 -0.001206 0.000176 -0.000639 -0.000651 0.000536 0.025602
#
#
# Mechanical properties :
#
#
# Convention : Reuss Voigt Hill
#
# Bulk Modulus (GPa) = 30.13936 47.13665 38.63801
# Shear Modulus (GPa) = 32.30350 42.55211 37.42780
#
# Velocity S-wave (km/s) = 3.61332 4.14708 3.88937
# Velocity P-wave (km/s) = 5.43963 6.47937 5.98213
#
# Compressibility (1/GPa) = 0.03317920
#
# Stress axis : x y z
#
# Youngs Moduli (GPa) = 149.22380 40.26692 101.14071
#
# Poissons Ratio (x) = 0.10519 -0.01486
# Poissons Ratio (y) = 0.38981 0.16754
# Poissons Ratio (z) = -0.02193 0.06670
#
# Static dielectric constant tensor:
#      x y z
#    x 3.267280 0.750530 -0.055560 
#    y 0.750530 2.403010 -0.069060 
#    z -0.055560 -0.069060 1.952510 
# 
# From -- ./inp_files/142467.got.cif
#   From: 2010.05.17/outbox.cif.g08.bks.cpg/sg2_72_cif.got.tgz:142467.got - 2010.06.03 11:33:40.
