data_PCOD9101102
_publ_section_title
;
Structure prediction by ZEFSAII (Michael W. Deem and Ramdas Pophale) SiO2 
 PCOD9101102
Probable space group: P -1
;
_chemical_formula_sum "Si O2"
_cell_formula_units_Z 12
_cell_length_a 18.749103
_cell_length_b 7.590476
_cell_length_c 15.568929
_cell_angle_alpha 152.856042
_cell_angle_beta 23.820509
_cell_angle_gamma 145.647015
_cell_volume 407.459611
_symmetry_space_group_name_H-M "P -1"
_symmetry_group_IT_number 2
_symmetry_cell_setting 'triclinic'
loop_
_space_group_symop_operation_xyz
x,y,z
-x,-y,-z
loop_
_atom_site_type_symbol
_atom_site_label
_atom_site_fract_x
_atom_site_fract_y
_atom_site_fract_z
Si Si1 0.756386 0.041995 0.206128
Si Si2 0.183344 0.955658 0.570140
Si Si3 0.776767 0.792391 0.683850
Si Si4 0.992409 0.291792 0.776172
Si Si5 0.383830 0.540401 0.020139
Si Si6 0.454260 0.196578 0.497304
O O1 0.948920 0.255191 0.084068
O O2 0.620772 0.324492 0.430883
O O3 0.734568 0.636478 0.004286
O O4 0.675318 0.980252 0.361968
O O5 0.154991 0.583225 0.503092
O O6 0.022248 0.104842 0.755273
O O7 0.308520 0.292346 0.627681
O O8 0.290089 0.770553 0.294388
O O9 0.872772 0.828513 0.501562
O O10 0.568682 0.748015 0.879158
O O11 0.814024 0.143546 0.861982
O O12 0.452736 0.135523 0.803796
#
# Coordination Sequence:
#
# PCOD9101102 Si02
#       6
#     2   2   2   2   2   2
#     4   9  16  34  56  79 103 152 171 216 271 321
#     4  11  20  34  60  84 103 141 187 223 258 320
#     4  10  20  38  52  80 115 145 171 219 276 323
#     4  11  21  33  60  82 106 142 187 217 262 325
#     4   9  18  35  61  76 110 143 176 222 276 306
#     4   8  15  32  56  73 111 139 179 211 272 309
#
# _framework density 29.450773000000002
#
# number of rings (size 3 to 8) (size 9 to 14) (size 15 to 20)
#    1.000    1.333    3.333    2.500    0.000    1.333 
#    0.000    0.833    3.667    4.000    0.000    0.000 
#    0.000    0.000    0.000    0.000    0.000    0.000 
#
# Total GULP energy -67047.213922 kJ/mol
# GULP energy per Si atom -5587.267827 kJ/mol
# Density = 2.938374 g / cm^3
# Si number density = 29.450773 Si / 1000 Ang^3
#
#
#
# Elastic Constant Matrix: (Units=GPa)
#
#
# Indices 1 2 3 4 5 6 
#
# 1 296.4110 191.4287 -55.6103 -12.9368 -2.7600 -1.6545
# 2 191.4287 454.8750 -232.6465 -93.1460 -2.2317 38.7477
# 3 -55.6103 -232.6465 283.5714 88.9317 5.2438 -2.4866
# 4 -12.9368 -93.1460 88.9317 64.5753 2.4680 1.2816
# 5 -2.7600 -2.2317 5.2438 2.4680 59.8329 8.6067
# 6 -1.6545 38.7477 -2.4866 1.2816 8.6067 85.2029
#
#
#
# Elastic Compliance Matrix: (Units=1/GPa)
#
#
# Indices 1 2 3 4 5 6 
#
# 1 0.005252 -0.003323 -0.000878 -0.002565 0.000068 0.001619
# 2 -0.003323 0.006338 0.003249 0.004058 0.000051 -0.002918
# 3 -0.000878 0.003249 0.008079 -0.006585 -0.000192 -0.001141
# 4 -0.002565 0.004058 -0.006585 0.029954 -0.000264 -0.002511
# 5 0.000068 0.000051 -0.000192 -0.000264 0.016996 -0.001740
# 6 0.001619 -0.002918 -0.001141 -0.002511 -0.001740 0.013276
#
#
# Mechanical properties :
#
#
# Convention : Reuss Voigt Hill
#
# Bulk Modulus (GPa) = 56.28715 93.46680 74.87698
# Shear Modulus (GPa) = 56.99935 117.36793 87.18364
#
# Velocity S-wave (km/s) = 4.40410 6.31971 5.44678
# Velocity P-wave (km/s) = 6.70934 9.22265 8.06450
#
# Compressibility (1/GPa) = 0.01776604
#
# Stress axis : x y z
#
# Youngs Moduli (GPa) = 190.38986 157.76932 123.78458
#
# Poissons Ratio (x) = 0.52420 0.10873
# Poissons Ratio (y) = 0.63258 -0.40221
# Poissons Ratio (z) = 0.16723 -0.51264
#
# Static dielectric constant tensor:
#      x y z
#    x 2.219970 0.018080 -0.067290 
#    y 0.018080 2.427800 0.035130 
#    z -0.067290 0.035130 2.352530 
# 
# From -- ./inp_files/575478.got.cif
#   From: 2010.05.17/outbox.cif.g08.bks.cpg/sg2_288_cif.got.tgz:575478.got - 2010.06.03 11:33:40.
