data_PCOD9101357
_publ_section_title
;
Structure prediction by ZEFSAII (Michael W. Deem and Ramdas Pophale) SiO2 
 PCOD9101357
Probable space group: P -1
;
_chemical_formula_sum "Si O2"
_cell_formula_units_Z 15
_cell_length_a 5.196957
_cell_length_b 11.695408
_cell_length_c 13.888162
_cell_angle_alpha 129.570158
_cell_angle_beta 91.245194
_cell_angle_gamma 69.753464
_cell_volume 586.991047
_symmetry_space_group_name_H-M "P -1"
_symmetry_group_IT_number 2
_symmetry_cell_setting 'triclinic'
loop_
_space_group_symop_operation_xyz
x,y,z
-x,-y,-z
loop_
_atom_site_type_symbol
_atom_site_label
_atom_site_fract_x
_atom_site_fract_y
_atom_site_fract_z
Si Si1 0.036614 0.860898 0.506228
Si Si2 0.141944 0.396168 0.720047
Si Si3 0.521623 0.854226 0.278951
Si Si4 0.722511 0.266388 0.941803
Si Si5 0.000000 0.500000 0.000000
Si Si6 0.356581 0.142311 0.155700
Si Si7 0.290032 0.669917 0.800675
Si Si8 0.242155 0.964201 0.723558
O O1 0.029158 0.696870 0.378112
O O2 0.744115 0.972738 0.621351
O O3 0.255176 0.821374 0.576879
O O4 0.000000 0.000000 0.500000
O O5 0.435551 0.247173 0.679137
O O6 0.997724 0.480525 0.865273
O O7 0.238169 0.505918 0.711565
O O8 0.536781 0.735064 0.125344
O O9 0.773183 0.903819 0.287238
O O10 0.830992 0.384532 0.952463
O O11 0.959982 0.077143 0.840685
O O12 0.667910 0.310247 0.074996
O O13 0.019118 0.202009 0.173715
O O14 0.497997 0.073196 0.222713
O O15 0.462784 0.287446 0.218728
O O16 0.500000 0.000000 0.000000
#
# Coordination Sequence:
#
# PCOD9101357 Si02
#       8
#     2   2   2   2   1   2   2   2
#     4  11  23  42  67 103 137 177 231 282 349 418
#     4  11  23  42  66 102 141 176 225 287 352 425
#     4  11  22  40  68 101 130 181 228 283 347 415
#     4  10  21  36  62  99 133 172 224 282 352 410
#     4  10  20  38  58  92 138 162 206 272 362 414
#     4  12  25  46  71  98 140 185 244 285 340 410
#     4  11  27  43  69 102 140 188 224 293 354 407
#     4  11  23  40  68  96 130 175 237 282 336 405
#
# _framework density 25.554051999999999
#
# number of rings (size 3 to 8) (size 9 to 14) (size 15 to 20)
#    0.000    1.067    4.000    2.400    3.733    5.333 
#    0.000    1.333    0.000    0.000    0.000    0.000 
#    0.000    0.000    0.000    0.000    0.000    0.000 
#
# Total GULP energy -83548.421216 kJ/mol
# GULP energy per Si atom -5569.894748 kJ/mol
# Density = 2.549589 g / cm^3
# Si number density = 25.554052 Si / 1000 Ang^3
#
#
#
# Elastic Constant Matrix: (Units=GPa)
#
#
# Indices 1 2 3 4 5 6 
#
# 1 65.8782 12.8493 21.4727 -3.4417 25.9879 3.2234
# 2 12.8493 99.0405 12.1958 6.3611 11.6936 18.8644
# 3 21.4727 12.1958 141.8414 0.1808 36.4263 2.1822
# 4 -3.4417 6.3611 0.1808 32.6066 -2.6252 15.5714
# 5 25.9879 11.6936 36.4263 -2.6252 49.1627 -1.9131
# 6 3.2234 18.8644 2.1822 15.5714 -1.9131 47.8680
#
#
#
# Elastic Compliance Matrix: (Units=1/GPa)
#
#
# Indices 1 2 3 4 5 6 
#
# 1 0.019601 -0.001111 -0.000325 0.002486 -0.009803 -0.002067
# 2 -0.001111 0.011376 -0.000184 -0.000436 -0.002174 -0.004345
# 3 -0.000325 -0.000184 0.008739 -0.000341 -0.006295 -0.000444
# 4 0.002486 -0.000436 -0.000341 0.036751 0.000542 -0.011913
# 5 -0.009803 -0.002174 -0.006295 0.000542 0.030844 0.002861
# 6 -0.002067 -0.004345 -0.000444 -0.011913 0.002861 0.026752
#
#
# Mechanical properties :
#
#
# Convention : Reuss Voigt Hill
#
# Bulk Modulus (GPa) = 27.41668 44.42176 35.91922
# Shear Modulus (GPa) = 33.45314 43.27695 38.36504
#
# Velocity S-wave (km/s) = 3.62209 4.11974 3.87890
# Velocity P-wave (km/s) = 5.31460 6.32857 5.84362
#
# Compressibility (1/GPa) = 0.03647414
#
# Stress axis : x y z
#
# Youngs Moduli (GPa) = 51.01880 87.90391 114.42877
#
# Poissons Ratio (x) = 0.09768 0.03724
# Poissons Ratio (y) = 0.05669 0.02107
# Poissons Ratio (z) = 0.01660 0.01618
#
# Static dielectric constant tensor:
#      x y z
#    x 2.074680 0.058590 0.035290 
#    y 0.058590 1.959830 -0.034330 
#    z 0.035290 -0.034330 2.004520 
# 
# From -- ./inp_files/481776.got.cif
#   From: 2010.05.17/outbox.cif.g08.bks.cpg/sg2_241_cif.got.tgz:481776.got - 2010.06.03 11:33:40.
