data_PCOD9101197
_publ_section_title
;
Structure prediction by ZEFSAII (Michael W. Deem and Ramdas Pophale) SiO2 
 PCOD9101197
Probable space group: P -1
;
_chemical_formula_sum "Si O2"
_cell_formula_units_Z 16
_cell_length_a 12.494492
_cell_length_b 11.478713
_cell_length_c 10.910965
_cell_angle_alpha 96.800888
_cell_angle_beta 62.692335
_cell_angle_gamma 145.751202
_cell_volume 667.686502
_symmetry_space_group_name_H-M "P -1"
_symmetry_group_IT_number 2
_symmetry_cell_setting 'triclinic'
loop_
_space_group_symop_operation_xyz
x,y,z
-x,-y,-z
loop_
_atom_site_type_symbol
_atom_site_label
_atom_site_fract_x
_atom_site_fract_y
_atom_site_fract_z
Si Si1 0.140499 0.291462 0.521010
Si Si2 0.602235 0.861688 0.733887
Si Si3 0.268656 0.786904 0.181290
Si Si4 0.103761 0.392341 0.794999
Si Si5 0.248455 0.632963 0.380736
Si Si6 0.207302 0.932140 0.837821
Si Si7 0.559551 0.619370 0.178061
Si Si8 0.292558 0.477721 0.055203
O O1 0.194252 0.464402 0.451739
O O2 0.376981 0.424554 0.360330
O O3 0.120757 0.299573 0.677658
O O4 0.863969 0.020156 0.590829
O O5 0.489186 0.724840 0.907313
O O6 0.378121 0.653883 0.731803
O O7 0.679727 0.063938 0.730674
O O8 0.019240 0.605356 0.216275
O O9 0.284307 0.673399 0.220413
O O10 0.500000 0.000000 0.000000
O O11 0.918931 0.212549 0.984254
O O12 0.528550 0.905327 0.310241
O O13 0.000000 0.500000 0.500000
O O14 0.281729 0.132831 0.834026
O O15 0.994089 0.727241 0.825247
O O16 0.712713 0.641643 0.048131
O O17 0.391565 0.517339 0.137809
#
# Coordination Sequence:
#
# PCOD9101197 Si02
#       8
#     2   2   2   2   2   2   2   2
#     4  10  22  37  59  84 121 154 191 242 297 340
#     4  10  22  38  57  86 121 149 199 240 286 350
#     4  11  21  38  59  82 116 161 195 235 292 347
#     4  10  20  38  57  84 120 155 197 238 282 349
#     4  11  20  37  59  87 115 154 197 232 294 347
#     4  10  21  38  62  84 118 155 198 239 288 350
#     4  10  21  39  63  86 119 153 192 248 300 339
#     4  10  22  40  61  90 113 153 203 241 291 354
#
# _framework density 23.963341
#
# number of rings (size 3 to 8) (size 9 to 14) (size 15 to 20)
#    0.000    1.750    3.750    1.875    1.750    3.000 
#    0.000    5.000    0.000    0.000    0.000    0.000 
#    0.000    0.000    0.000    0.000    0.000    0.000 
#
# Total GULP energy -89298.023448 kJ/mol
# GULP energy per Si atom -5581.126466 kJ/mol
# Density = 2.390880 g / cm^3
# Si number density = 23.963341 Si / 1000 Ang^3
#
#
#
# Elastic Constant Matrix: (Units=GPa)
#
#
# Indices 1 2 3 4 5 6 
#
# 1 46.1024 19.3395 -1.7678 -12.4028 -2.3230 11.0606
# 2 19.3395 110.5482 26.5970 -35.4553 -7.7659 27.6111
# 3 -1.7678 26.5970 85.3155 -32.7236 -13.8290 20.2436
# 4 -12.4028 -35.4553 -32.7236 34.9934 5.9623 -11.0279
# 5 -2.3230 -7.7659 -13.8290 5.9623 35.2893 -12.5757
# 6 11.0606 27.6111 20.2436 -11.0279 -12.5757 40.4628
#
#
#
# Elastic Compliance Matrix: (Units=1/GPa)
#
#
# Indices 1 2 3 4 5 6 
#
# 1 0.027910 -0.000153 0.008140 0.015000 -0.000244 -0.007585
# 2 -0.000153 0.015412 0.003106 0.016128 -0.000952 -0.007929
# 3 0.008140 0.003106 0.022580 0.024059 0.003110 -0.008117
# 4 0.015000 0.016128 0.024059 0.070277 -0.000850 -0.008253
# 5 -0.000244 -0.000952 0.003110 -0.000850 0.032716 0.009096
# 6 -0.007585 -0.007929 -0.008117 -0.008253 0.009096 0.036837
#
#
# Mechanical properties :
#
#
# Convention : Reuss Voigt Hill
#
# Bulk Modulus (GPa) = 11.35250 36.70040 24.02645
# Shear Modulus (GPa) = 23.48439 35.33560 29.40999
#
# Velocity S-wave (km/s) = 3.13391 3.84418 3.50707
# Velocity P-wave (km/s) = 4.22409 5.92048 5.14271
#
# Compressibility (1/GPa) = 0.08808635
#
# Stress axis : x y z
#
# Youngs Moduli (GPa) = 35.82951 64.88639 44.28723
#
# Poissons Ratio (x) = 0.00991 -0.36048
# Poissons Ratio (y) = 0.00547 -0.13754
# Poissons Ratio (z) = -0.29164 -0.20151
#
# Static dielectric constant tensor:
#      x y z
#    x 1.989240 -0.052770 -0.047130 
#    y -0.052770 1.908640 0.081950 
#    z -0.047130 0.081950 2.076250 
# 
# From -- ./inp_files/454803.got.cif
#   From: 2010.05.17/outbox.cif.g08.bks.cpg/sg2_228_cif.got.tgz:454803.got - 2010.06.03 11:33:40.
