data_PCOD9101193
_publ_section_title
;
Structure prediction by ZEFSAII (Michael W. Deem and Ramdas Pophale) SiO2 
 PCOD9101193
Probable space group: P -1
;
_chemical_formula_sum "Si O2"
_cell_formula_units_Z 14
_cell_length_a 9.084176
_cell_length_b 13.882028
_cell_length_c 15.398119
_cell_angle_alpha 30.956913
_cell_angle_beta 90.463698
_cell_angle_gamma 115.454936
_cell_volume 568.693739
_symmetry_space_group_name_H-M "P -1"
_symmetry_group_IT_number 2
_symmetry_cell_setting 'triclinic'
loop_
_space_group_symop_operation_xyz
x,y,z
-x,-y,-z
loop_
_atom_site_type_symbol
_atom_site_label
_atom_site_fract_x
_atom_site_fract_y
_atom_site_fract_z
Si Si1 0.349862 0.490307 0.566374
Si Si2 0.192403 0.719741 0.918062
Si Si3 0.753224 0.816298 0.027300
Si Si4 0.324562 0.846936 0.209313
Si Si5 0.066776 0.176622 0.149661
Si Si6 0.511612 0.879469 0.677506
Si Si7 0.026262 0.186853 0.429271
O O1 0.500000 0.500000 0.500000
O O2 0.424237 0.779314 0.319572
O O3 0.371170 0.448960 0.697346
O O4 0.049684 0.154280 0.797920
O O5 0.102691 0.820790 0.880500
O O6 0.171095 0.517453 0.135512
O O7 0.471892 0.985773 0.671665
O O8 0.000000 0.500000 0.000000
O O9 0.625265 0.886245 0.972640
O O10 0.776727 0.750069 0.984673
O O11 0.000000 0.500000 0.500000
O O12 0.500000 0.000000 0.000000
O O13 0.281524 0.488752 0.972719
O O14 0.905415 0.854626 0.451097
O O15 0.500000 0.000000 0.500000
O O16 0.758345 0.010156 0.585228
O O17 0.000000 0.000000 0.500000
#
# Coordination Sequence:
#
# PCOD9101193 Si02
#       7
#     2   2   2   2   2   2   2
#     4  10  20  42  70  88 123 171 203 249 340 397
#     4  10  20  38  57  83 119 162 204 253 306 366
#     4  10  23  41  62  96 126 160 211 272 316 387
#     4  10  20  39  68  94 129 168 213 260 329 406
#     4  11  23  40  60  92 126 157 217 263 303 371
#     4  11  20  39  62  82 123 170 205 250 315 370
#     4  12  21  38  63  84 117 169 213 248 316 373
#
# _framework density 24.617819000000001
#
# number of rings (size 3 to 8) (size 9 to 14) (size 15 to 20)
#    0.000    1.429    7.143    0.429    0.000    1.143 
#    5.143    0.000    0.000    0.000    0.000    0.000 
#    0.000    0.000    0.000    0.000    0.000    0.000 
#
# Total GULP energy -78105.374837 kJ/mol
# GULP energy per Si atom -5578.955346 kJ/mol
# Density = 2.456179 g / cm^3
# Si number density = 24.617819 Si / 1000 Ang^3
#
#
#
# Elastic Constant Matrix: (Units=GPa)
#
#
# Indices 1 2 3 4 5 6 
#
# 1 212.0506 59.7639 77.0761 22.5811 25.5439 -49.0673
# 2 59.7639 71.7761 51.2460 19.1372 4.5777 -33.1587
# 3 77.0761 51.2460 184.9422 27.9439 36.6628 -24.7561
# 4 22.5811 19.1372 27.9439 45.3667 1.0917 -14.7378
# 5 25.5439 4.5777 36.6628 1.0917 60.4128 -0.3779
# 6 -49.0673 -33.1587 -24.7561 -14.7378 -0.3779 60.2290
#
#
#
# Elastic Compliance Matrix: (Units=1/GPa)
#
#
# Indices 1 2 3 4 5 6 
#
# 1 0.007143 -0.003342 -0.001144 -0.000278 -0.002046 0.003428
# 2 -0.003342 0.024167 -0.004148 -0.003412 0.002211 0.008056
# 3 -0.001144 -0.004148 0.008203 -0.002816 -0.004133 -0.000559
# 4 -0.000278 -0.003412 -0.002816 0.026354 0.001629 0.003197
# 5 -0.002046 0.002211 -0.004133 0.001629 0.019719 -0.001626
# 6 0.003428 0.008056 -0.000559 0.003197 -0.001626 0.024374
#
#
# Mechanical properties :
#
#
# Convention : Reuss Voigt Hill
#
# Bulk Modulus (GPa) = 44.95592 93.88234 69.41913
# Shear Modulus (GPa) = 37.13496 51.91388 44.52442
#
# Velocity S-wave (km/s) = 3.88810 4.59714 4.25741
# Velocity P-wave (km/s) = 6.20142 8.14844 7.24067
#
# Compressibility (1/GPa) = 0.02224401
#
# Stress axis : x y z
#
# Youngs Moduli (GPa) = 139.99535 41.37831 121.90254
#
# Poissons Ratio (x) = 0.13830 0.13950
# Poissons Ratio (y) = 0.46793 0.50566
# Poissons Ratio (z) = 0.16020 0.17164
#
# Static dielectric constant tensor:
#      x y z
#    x 1.903130 -0.098660 -0.073490 
#    y -0.098660 1.854700 -0.010080 
#    z -0.073490 -0.010080 2.135850 
# 
# From -- ./inp_files/142567.got.cif
#   From: 2010.05.17/outbox.cif.g08.bks.cpg/sg2_72_cif.got.tgz:142567.got - 2010.06.03 11:33:40.
