data_PCOD9101368
_publ_section_title
;
Structure prediction by ZEFSAII (Michael W. Deem and Ramdas Pophale) SiO2 
 PCOD9101368
Probable space group: P -1
;
_chemical_formula_sum "Si O2"
_cell_formula_units_Z 16
_cell_length_a 24.460993
_cell_length_b 16.785828
_cell_length_c 12.340686
_cell_angle_alpha 33.850817
_cell_angle_beta 27.070934
_cell_angle_gamma 18.891781
_cell_volume 744.161432
_symmetry_space_group_name_H-M "P -1"
_symmetry_group_IT_number 2
_symmetry_cell_setting 'triclinic'
loop_
_space_group_symop_operation_xyz
x,y,z
-x,-y,-z
loop_
_atom_site_type_symbol
_atom_site_label
_atom_site_fract_x
_atom_site_fract_y
_atom_site_fract_z
Si Si1 0.800893 0.153591 0.743803
Si Si2 0.708590 0.386733 0.239581
Si Si3 0.783458 0.794479 0.671010
Si Si4 0.553409 0.697176 0.803440
Si Si5 0.522954 0.703958 0.598262
Si Si6 0.157434 0.866830 0.054520
Si Si7 0.761079 0.586822 0.755271
Si Si8 0.662156 0.666637 0.174173
O O1 0.642133 0.438244 0.695700
O O2 0.854505 0.088908 0.847158
O O3 0.672907 0.140338 0.947368
O O4 0.000000 0.000000 0.500000
O O5 0.500000 0.500000 0.500000
O O6 0.742957 0.447393 0.219241
O O7 0.684808 0.522899 0.029524
O O8 0.922241 0.093673 0.170760
O O9 0.747471 0.732255 0.697639
O O10 0.999411 0.662422 0.420445
O O11 0.575599 0.085296 0.727822
O O12 0.791803 0.674024 0.891720
O O13 0.535329 0.748914 0.648926
O O14 0.716531 0.405732 0.864891
O O15 0.631182 0.737728 0.705240
O O16 0.640315 0.678286 0.328121
O O17 0.297165 0.867772 0.768566
#
# Coordination Sequence:
#
# PCOD9101368 Si02
#       8
#     2   2   2   2   2   2   2   2
#     4   9  17  31  53  79 116 153 179 215 281 346
#     4  11  24  32  54  94 114 142 184 233 288 334
#     4   9  21  40  59  78 101 167 190 231 285 313
#     4   9  20  34  55  83 114 154 183 221 281 342
#     4   9  18  35  56  81 109 152 186 221 283 339
#     4   9  19  33  49  80 122 150 174 213 287 355
#     4  10  21  39  57  77 117 146 196 230 275 339
#     4  10  20  38  59  77 112 141 199 237 272 333
#
# _framework density 21.500712
#
# number of rings (size 3 to 8) (size 9 to 14) (size 15 to 20)
#    0.000    2.500    0.000    3.000    7.000    0.500 
#    0.000    1.250    0.000    0.000    0.000    0.000 
#    0.000    0.000    0.000    0.000    0.000    0.000 
#
# Total GULP energy -89249.355115 kJ/mol
# GULP energy per Si atom -5578.084695 kJ/mol
# Density = 2.145178 g / cm^3
# Si number density = 21.500712 Si / 1000 Ang^3
#
#
#
# Elastic Constant Matrix: (Units=GPa)
#
#
# Indices 1 2 3 4 5 6 
#
# 1 78.5015 -0.5138 46.7981 -2.3480 11.1446 -17.7155
# 2 -0.5138 54.7139 15.1869 12.1320 -5.4916 0.8505
# 3 46.7981 15.1869 123.8721 10.5586 16.5630 -3.6513
# 4 -2.3480 12.1320 10.5586 27.1582 -0.4312 3.6986
# 5 11.1446 -5.4916 16.5630 -0.4312 20.4983 3.8722
# 6 -17.7155 0.8505 -3.6513 3.6986 3.8722 17.0708
#
#
#
# Elastic Compliance Matrix: (Units=1/GPa)
#
#
# Indices 1 2 3 4 5 6 
#
# 1 0.024853 0.000265 -0.006974 0.000856 -0.012893 0.027025
# 2 0.000265 0.021867 -0.003278 -0.008106 0.008512 -0.001690
# 3 -0.006974 -0.003278 0.012254 -0.003718 -0.006663 -0.002136
# 4 0.000856 -0.008106 -0.003718 0.043316 0.003089 -0.009588
# 5 -0.012893 0.008512 -0.006663 0.003089 0.069504 -0.031664
# 6 0.027025 -0.001690 -0.002136 -0.009588 -0.031664 0.095513
#
#
# Mechanical properties :
#
#
# Convention : Reuss Voigt Hill
#
# Bulk Modulus (GPa) = 25.64101 42.22554 33.93327
# Shear Modulus (GPa) = 16.65100 25.98656 21.31878
#
# Velocity S-wave (km/s) = 2.78589 3.48032 3.15229
# Velocity P-wave (km/s) = 4.72227 5.98598 5.39128
#
# Compressibility (1/GPa) = 0.03900002
#
# Stress axis : x y z
#
# Youngs Moduli (GPa) = 40.23686 45.73069 81.60347
#
# Poissons Ratio (x) = -0.01213 0.56912
# Poissons Ratio (y) = -0.01067 0.26750
# Poissons Ratio (z) = 0.28062 0.14991
#
# Static dielectric constant tensor:
#      x y z
#    x 1.790190 -0.008490 -0.009280 
#    y -0.008490 1.809400 0.005420 
#    z -0.009280 0.005420 1.806870 
# 
# From -- ./inp_files/437034.got.cif
#   From: 2010.05.17/outbox.cif.g08.bks.cpg/sg2_219_cif.got.tgz:437034.got - 2010.06.03 11:33:40.
