data_PCOD9101536
_publ_section_title
;
Structure prediction by ZEFSAII (Michael W. Deem and Ramdas Pophale) SiO2 
 PCOD9101536
Probable space group: P -1
;
_chemical_formula_sum "Si O2"
_cell_formula_units_Z 16
_cell_length_a 17.964472
_cell_length_b 21.155861
_cell_length_c 8.934908
_cell_angle_alpha 29.868974
_cell_angle_beta 142.872064
_cell_angle_gamma 148.668363
_cell_volume 858.133265
_symmetry_space_group_name_H-M "P -1"
_symmetry_group_IT_number 2
_symmetry_cell_setting 'triclinic'
loop_
_space_group_symop_operation_xyz
x,y,z
-x,-y,-z
loop_
_atom_site_type_symbol
_atom_site_label
_atom_site_fract_x
_atom_site_fract_y
_atom_site_fract_z
Si Si1 0.892395 0.364822 0.211756
Si Si2 0.977595 0.154012 0.922767
Si Si3 0.934219 0.060552 0.546527
Si Si4 0.164737 0.569903 0.690800
Si Si5 0.603726 0.105562 0.745153
Si Si6 0.704626 0.097707 0.257831
Si Si7 0.724573 0.925979 0.192392
Si Si8 0.184696 0.292052 0.262286
O O1 0.850840 0.420326 0.177266
O O2 0.754618 0.238168 0.156885
O O3 0.972856 0.283753 0.567203
O O4 0.000000 0.500000 0.000000
O O5 0.080618 0.221194 0.095561
O O6 0.031193 0.064132 0.098553
O O7 0.818520 0.030795 0.988308
O O8 0.845456 0.089367 0.466896
O O9 0.081140 0.206960 0.415447
O O10 0.828503 0.992303 0.370444
O O11 0.278018 0.738196 0.465134
O O12 0.000000 0.500000 0.500000
O O13 0.225856 0.462620 0.978957
O O14 0.434561 0.053405 0.586528
O O15 0.655736 0.121684 0.967643
O O16 0.605221 0.966147 0.957513
O O17 0.701825 0.763060 0.458756
#
# Coordination Sequence:
#
# PCOD9101536 Si02
#       8
#     2   2   2   2   2   2   2   2
#     4  12  23  33  52  85 118 137 181 233 280 310
#     4   9  16  30  52  82 106 140 176 227 270 323
#     4   8  15  31  54  78 109 135 181 221 272 322
#     4  12  20  34  57  83 108 144 182 226 273 320
#     4  10  20  38  60  74 110 150 190 216 266 331
#     4  10  22  36  53  82 110 148 180 227 267 329
#     4   8  14  31  54  81 100 140 184 223 258 322
#     4   9  16  28  57  84 106 131 183 229 268 313
#
# _framework density 18.645123999999999
#
# number of rings (size 3 to 8) (size 9 to 14) (size 15 to 20)
#    0.000    2.250    2.500    4.500    0.000    1.000 
#    0.000    0.000    2.750    3.750    0.000    0.000 
#    0.000    0.000    0.000    0.000    0.000    0.000 
#
# Total GULP energy -89139.468621 kJ/mol
# GULP energy per Si atom -5571.216789 kJ/mol
# Density = 1.860269 g / cm^3
# Si number density = 18.645124 Si / 1000 Ang^3
#
#
#
# Elastic Constant Matrix: (Units=GPa)
#
#
# Indices 1 2 3 4 5 6 
#
# 1 89.3336 40.9989 24.3509 -5.5385 0.9279 -13.8852
# 2 40.9989 55.8425 13.7817 -14.4324 -2.7012 -3.5806
# 3 24.3509 13.7817 94.8560 -20.4219 4.1864 -0.3476
# 4 -5.5385 -14.4324 -20.4219 16.0365 -0.2242 1.7358
# 5 0.9279 -2.7012 4.1864 -0.2242 27.6237 -11.0658
# 6 -13.8852 -3.5806 -0.3476 1.7358 -11.0658 22.4322
#
#
#
# Elastic Compliance Matrix: (Units=1/GPa)
#
#
# Indices 1 2 3 4 5 6 
#
# 1 0.023125 -0.019275 -0.007741 -0.020765 0.004287 0.014839
# 2 -0.019275 0.039994 0.007718 0.040074 0.000371 -0.008346
# 3 -0.007741 0.007718 0.017442 0.027244 -0.004449 -0.007592
# 4 -0.020765 0.040074 0.027244 0.127908 -0.006053 -0.018918
# 5 0.004287 0.000371 -0.004449 -0.006053 0.047315 0.026453
# 6 0.014839 -0.008346 -0.007592 -0.018918 0.026453 0.066827
#
#
# Mechanical properties :
#
#
# Convention : Reuss Voigt Hill
#
# Bulk Modulus (GPa) = 23.82984 44.25499 34.04242
# Shear Modulus (GPa) = 13.32631 23.94519 18.63575
#
# Velocity S-wave (km/s) = 2.67635 3.58755 3.16491
# Velocity P-wave (km/s) = 4.72853 6.39903 5.62612
#
# Compressibility (1/GPa) = 0.04196419
#
# Stress axis : x y z
#
# Youngs Moduli (GPa) = 43.24327 25.00353 57.33207
#
# Poissons Ratio (x) = 0.48195 0.44383
# Poissons Ratio (y) = 0.83353 -0.44250
# Poissons Ratio (z) = 0.33477 -0.19298
#
# Static dielectric constant tensor:
#      x y z
#    x 1.673270 -0.014560 0.027620 
#    y -0.014560 1.649300 0.017670 
#    z 0.027620 0.017670 1.670210 
# 
# From -- ./inp_files/256907.got.cif
#   From: 2010.05.17/outbox.cif.g08.bks.cpg/sg2_129_cif.got.tgz:256907.got - 2010.06.03 11:33:40.
