data_PCOD9101840
_publ_section_title
;
Structure prediction by ZEFSAII (Michael W. Deem and Ramdas Pophale) SiO2 
 PCOD9101840
Probable space group: P -1
;
_chemical_formula_sum "Si O2"
_cell_formula_units_Z 14
_cell_length_a 9.404639
_cell_length_b 5.105706
_cell_length_c 15.076679
_cell_angle_alpha 93.344032
_cell_angle_beta 76.431195
_cell_angle_gamma 131.180653
_cell_volume 525.064354
_symmetry_space_group_name_H-M "P -1"
_symmetry_group_IT_number 2
_symmetry_cell_setting 'triclinic'
loop_
_space_group_symop_operation_xyz
x,y,z
-x,-y,-z
loop_
_atom_site_type_symbol
_atom_site_label
_atom_site_fract_x
_atom_site_fract_y
_atom_site_fract_z
Si Si1 0.647422 0.460541 0.734315
Si Si2 0.227423 0.991480 0.028686
Si Si3 0.006123 0.779638 0.888407
Si Si4 0.537403 0.856214 0.849917
Si Si5 0.792535 0.358296 0.555599
Si Si6 0.740436 0.278159 0.246865
Si Si7 0.576773 0.362919 0.422816
O O1 0.632763 0.730656 0.779771
O O2 0.803407 0.581240 0.637782
O O3 0.650945 0.257363 0.811457
O O4 0.438968 0.134889 0.711929
O O5 0.133346 0.592913 0.048756
O O6 0.098586 0.064332 0.097985
O O7 0.432368 0.191499 0.053780
O O8 0.197638 0.028303 0.930872
O O9 0.079091 0.699683 0.791856
O O10 0.326351 0.669734 0.835351
O O11 0.687027 0.324364 0.480797
O O12 0.000000 0.500000 0.500000
O O13 0.629392 0.953916 0.601808
O O14 0.732390 0.503592 0.323002
O O15 0.500000 0.500000 0.500000
#
# Coordination Sequence:
#
# PCOD9101840 Si02
#       7
#     2   2   2   2   2   2   2
#     4   9  21  38  59  87 120 150 203 257 292 365
#     4  10  22  39  60  87 126 153 197 252 301 361
#     4  10  22  40  59  89 121 158 197 249 304 362
#     4  10  20  38  61  83 118 157 194 250 295 356
#     4  10  22  39  61  86 123 166 205 258 318 373
#     4   9  22  38  63  86 120 159 204 247 307 363
#     4  10  21  42  61  89 127 160 210 267 307 367
#
# _framework density 26.663398999999998
#
# number of rings (size 3 to 8) (size 9 to 14) (size 15 to 20)
#    0.857    1.429    0.000    1.714    2.000    3.429 
#    2.571    0.714    0.000    0.000    0.000    0.000 
#    0.000    0.000    0.000    0.000    0.000    0.000 
#
# Total GULP energy -78078.281162 kJ/mol
# GULP energy per Si atom -5577.020083 kJ/mol
# Density = 2.660271 g / cm^3
# Si number density = 26.663399 Si / 1000 Ang^3
#
#
#
# Elastic Constant Matrix: (Units=GPa)
#
#
# Indices 1 2 3 4 5 6 
#
# 1 149.9167 35.1209 57.1564 8.2177 -15.3101 -19.0273
# 2 35.1209 49.7481 20.7521 17.7304 -8.6357 -17.9975
# 3 57.1564 20.7521 124.9855 12.4808 -42.0316 -11.3271
# 4 8.2177 17.7304 12.4808 33.4356 -11.0990 -7.0963
# 5 -15.3101 -8.6357 -42.0316 -11.0990 65.2148 5.9351
# 6 -19.0273 -17.9975 -11.3271 -7.0963 5.9351 31.4265
#
#
#
# Elastic Compliance Matrix: (Units=1/GPa)
#
#
# Indices 1 2 3 4 5 6 
#
# 1 0.009356 -0.005209 -0.003672 0.002016 -0.000694 0.001944
# 2 -0.005209 0.033540 -0.000960 -0.013734 -0.000901 0.012777
# 3 -0.003672 -0.000960 0.012198 -0.000881 0.006708 0.000157
# 4 0.002016 -0.013734 -0.000881 0.038746 0.004597 0.000918
# 5 -0.000694 -0.000901 0.006708 0.004597 0.020277 -0.001310
# 6 0.001944 0.012777 0.000157 0.000918 -0.001310 0.040826
#
#
# Mechanical properties :
#
#
# Convention : Reuss Voigt Hill
#
# Bulk Modulus (GPa) = 28.23953 61.18990 44.71471
# Shear Modulus (GPa) = 26.81989 40.12342 33.47166
#
# Velocity S-wave (km/s) = 3.17498 3.88340 3.54692
# Velocity P-wave (km/s) = 4.90457 6.56556 5.79489
#
# Compressibility (1/GPa) = 0.03541135
#
# Stress axis : x y z
#
# Youngs Moduli (GPa) = 106.88239 29.81511 81.98199
#
# Poissons Ratio (x) = 0.15530 0.30105
# Poissons Ratio (y) = 0.55673 0.07873
# Poissons Ratio (z) = 0.39249 0.02863
#
# Static dielectric constant tensor:
#      x y z
#    x 2.060420 -0.004460 0.061030 
#    y -0.004460 2.254160 -0.036540 
#    z 0.061030 -0.036540 2.270270 
# 
# From -- ./inp_files/552916.got.cif
#   From: 2010.05.17/outbox.cif.g08.bks.cpg/sg2_277_cif.got.tgz:552916.got - 2010.06.03 11:33:40.
