data_PCOD9101298
_publ_section_title
;
Structure prediction by ZEFSAII (Michael W. Deem and Ramdas Pophale) SiO2 
 PCOD9101298
Probable space group: P -1
;
_chemical_formula_sum "Si O2"
_cell_formula_units_Z 12
_cell_length_a 12.026105
_cell_length_b 4.925565
_cell_length_c 8.552807
_cell_angle_alpha 94.020554
_cell_angle_beta 52.225257
_cell_angle_gamma 88.646557
_cell_volume 398.040228
_symmetry_space_group_name_H-M "P -1"
_symmetry_group_IT_number 2
_symmetry_cell_setting 'triclinic'
loop_
_space_group_symop_operation_xyz
x,y,z
-x,-y,-z
loop_
_atom_site_type_symbol
_atom_site_label
_atom_site_fract_x
_atom_site_fract_y
_atom_site_fract_z
Si Si1 0.624450 0.270344 0.440183
Si Si2 0.167491 0.052736 0.587685
Si Si3 0.659268 0.672888 0.815270
Si Si4 0.907325 0.410408 0.721300
Si Si5 0.902638 0.755921 0.040575
Si Si6 0.438221 0.911244 0.812820
O O1 0.500000 0.500000 0.500000
O O2 0.677109 0.183853 0.213049
O O3 0.767687 0.250246 0.425302
O O4 0.537955 0.068653 0.615648
O O5 0.243858 0.162025 0.376482
O O6 0.208312 0.213002 0.718534
O O7 0.002618 0.147848 0.694927
O O8 0.750034 0.402815 0.786657
O O9 0.523953 0.658838 0.818538
O O10 0.612047 0.872216 0.005374
O O11 0.000000 0.500000 0.500000
O O12 0.876977 0.654047 0.884009
O O13 0.000000 0.500000 0.000000
O O14 0.000000 0.000000 0.000000
#
# Coordination Sequence:
#
# PCOD9101298 Si02
#       6
#     2   2   2   2   2   2
#     4  10  20  38  58  86 119 157 212 255 313 376
#     4   9  19  37  58  89 123 158 209 262 317 383
#     4   9  17  36  63  85 122 157 205 259 320 378
#     4   9  18  36  64  91 128 164 204 269 325 385
#     4  10  21  41  65  94 131 172 218 263 323 394
#     4   9  19  36  62  85 114 162 203 260 309 378
#
# _framework density 30.147708999999999
#
# number of rings (size 3 to 8) (size 9 to 14) (size 15 to 20)
#    0.000    2.667    0.000    1.000    0.000    0.000 
#   27.000   15.000    7.333    0.000    0.000    0.000 
#    0.000    0.000    0.000    0.000    0.000    0.000 
#
# Total GULP energy -66969.068386 kJ/mol
# GULP energy per Si atom -5580.755699 kJ/mol
# Density = 3.007909 g / cm^3
# Si number density = 30.147709 Si / 1000 Ang^3
#
#
#
# Elastic Constant Matrix: (Units=GPa)
#
#
# Indices 1 2 3 4 5 6 
#
# 1 186.9407 96.6130 52.6517 9.9674 4.1007 -82.6500
# 2 96.6130 164.8431 29.5806 8.0693 -5.6755 -40.7171
# 3 52.6517 29.5806 231.9997 -13.1770 33.2192 4.6788
# 4 9.9674 8.0693 -13.1770 31.3503 -2.0579 -1.6358
# 5 4.1007 -5.6755 33.2192 -2.0579 66.2759 6.5116
# 6 -82.6500 -40.7171 4.6788 -1.6358 6.5116 79.4956
#
#
#
# Elastic Compliance Matrix: (Units=1/GPa)
#
#
# Indices 1 2 3 4 5 6 
#
# 1 0.014591 -0.004635 -0.003048 -0.004127 -0.001176 0.012986
# 2 -0.004635 0.008818 -0.000284 -0.000858 0.001197 -0.000402
# 3 -0.003048 -0.000284 0.005598 0.003073 -0.002212 -0.003400
# 4 -0.004127 -0.000858 0.003073 0.034511 0.000127 -0.004211
# 5 -0.001176 0.001197 -0.002212 0.000127 0.016557 -0.001833
# 6 0.012986 -0.000402 -0.003400 -0.004211 -0.001833 0.026139
#
#
# Mechanical properties :
#
#
# Convention : Reuss Voigt Hill
#
# Bulk Modulus (GPa) = 76.50393 104.60822 90.55608
# Shear Modulus (GPa) = 39.52383 62.42024 50.97204
#
# Velocity S-wave (km/s) = 3.62471 4.55519 4.11633
# Velocity P-wave (km/s) = 6.55359 7.90191 7.25912
#
# Compressibility (1/GPa) = 0.01307122
#
# Stress axis : x y z
#
# Youngs Moduli (GPa) = 68.53692 113.40282 178.62681
#
# Poissons Ratio (x) = 0.52565 0.54449
# Poissons Ratio (y) = 0.31769 0.05081
# Poissons Ratio (z) = 0.20892 0.03226
#
# Static dielectric constant tensor:
#      x y z
#    x 2.552730 0.036620 -0.004170 
#    y 0.036620 2.281160 0.095820 
#    z -0.004170 0.095820 2.589490 
# 
# From -- ./inp_files/287978.got.cif
#   From: 2010.05.17/outbox.cif.g08.bks.cpg/sg2_144_cif.got.tgz:287978.got - 2010.06.03 11:33:40.
