data_PCOD9101745
_publ_section_title
;
Structure prediction by ZEFSAII (Michael W. Deem and Ramdas Pophale) SiO2 
 PCOD9101745
Probable space group: P -1
;
_chemical_formula_sum "Si O2"
_cell_formula_units_Z 14
_cell_length_a 14.568179
_cell_length_b 7.898939
_cell_length_c 10.430614
_cell_angle_alpha 89.207008
_cell_angle_beta 38.815691
_cell_angle_gamma 63.798776
_cell_volume 546.473710
_symmetry_space_group_name_H-M "P -1"
_symmetry_group_IT_number 2
_symmetry_cell_setting 'triclinic'
loop_
_space_group_symop_operation_xyz
x,y,z
-x,-y,-z
loop_
_atom_site_type_symbol
_atom_site_label
_atom_site_fract_x
_atom_site_fract_y
_atom_site_fract_z
Si Si1 0.231996 0.328576 0.789778
Si Si2 0.770622 0.033609 0.131032
Si Si3 0.340081 0.587460 0.282135
Si Si4 0.417454 0.910865 0.940896
Si Si5 0.983571 0.770896 0.541542
Si Si6 0.783209 0.621932 0.896561
Si Si7 0.257299 0.654614 0.643229
O O1 0.231499 0.386228 0.937200
O O2 0.319522 0.412514 0.611112
O O3 0.000000 0.500000 0.000000
O O4 0.303359 0.076955 0.711585
O O5 0.712907 0.247049 0.269406
O O6 0.689852 0.073384 0.073637
O O7 0.016498 0.838703 0.871258
O O8 0.112606 0.798044 0.483256
O O9 0.367135 0.633931 0.395699
O O10 0.500000 0.500000 0.000000
O O11 0.379951 0.351617 0.256069
O O12 0.417882 0.114696 0.930037
O O13 0.249186 0.003788 0.231538
O O14 0.131903 0.607730 0.265528
O O15 0.947978 0.632588 0.672357
#
# Coordination Sequence:
#
# PCOD9101745 Si02
#       7
#     2   2   2   2   2   2   2
#     4   9  16  33  62  91 116 154 205 252 306 361
#     4   9  18  38  64  88 120 158 209 250 311 367
#     4  12  25  39  56  87 127 164 206 254 309 369
#     4   9  19  39  60  85 120 161 201 256 303 361
#     4   9  18  40  60  84 126 156 207 253 297 373
#     4   8  17  37  63  90 118 159 207 254 307 365
#     4  10  20  38  60  90 121 162 204 261 300 366
#
# _framework density 25.618798999999999
#
# number of rings (size 3 to 8) (size 9 to 14) (size 15 to 20)
#    0.857    1.714    1.429    0.857    0.000    2.857 
#    7.714    4.286    0.000    0.000    0.000    0.000 
#    0.000    0.000    0.000    0.000    0.000    0.000 
#
# Total GULP energy -78107.165404 kJ/mol
# GULP energy per Si atom -5579.083243 kJ/mol
# Density = 2.556049 g / cm^3
# Si number density = 25.618799 Si / 1000 Ang^3
#
#
#
# Elastic Constant Matrix: (Units=GPa)
#
#
# Indices 1 2 3 4 5 6 
#
# 1 77.6119 13.8055 30.8895 -4.7371 4.3523 8.8219
# 2 13.8055 73.2009 22.7718 -1.7310 8.0089 5.1579
# 3 30.8895 22.7718 96.6684 -1.4881 14.2631 -4.5747
# 4 -4.7371 -1.7310 -1.4881 49.4321 -7.8865 0.6672
# 5 4.3523 8.0089 14.2631 -7.8865 51.1430 6.9949
# 6 8.8219 5.1579 -4.5747 0.6672 6.9949 25.2723
#
#
#
# Elastic Compliance Matrix: (Units=1/GPa)
#
#
# Indices 1 2 3 4 5 6 
#
# 1 0.016001 -0.000981 -0.005398 0.001666 0.001487 -0.006818
# 2 -0.000981 0.015189 -0.003271 0.000234 -0.000923 -0.003100
# 3 -0.005398 -0.003271 0.013679 -0.000912 -0.003819 0.006109
# 4 0.001666 0.000234 -0.000912 0.020982 0.003633 -0.002354
# 5 0.001487 -0.000923 -0.003819 0.003633 0.022189 -0.007260
# 6 -0.006818 -0.003100 0.006109 -0.002354 -0.007260 0.045759
#
#
# Mechanical properties :
#
#
# Convention : Reuss Voigt Hill
#
# Bulk Modulus (GPa) = 39.11334 42.49053 40.80193
# Shear Modulus (GPa) = 30.93632 37.17044 34.05338
#
# Velocity S-wave (km/s) = 3.47877 3.81321 3.64982
# Velocity P-wave (km/s) = 5.60682 6.00076 5.80713
#
# Compressibility (1/GPa) = 0.02556673
#
# Stress axis : x y z
#
# Youngs Moduli (GPa) = 62.49648 65.83834 73.10578
#
# Poissons Ratio (x) = 0.06461 0.39464
# Poissons Ratio (y) = 0.06133 0.23916
# Poissons Ratio (z) = 0.33737 0.21538
#
# Static dielectric constant tensor:
#      x y z
#    x 2.019550 0.000590 -0.008560 
#    y 0.000590 2.107080 0.047550 
#    z -0.008560 0.047550 2.002660 
# 
# From -- ./inp_files/459955.got.cif
#   From: 2010.05.17/outbox.cif.g08.bks.cpg/sg2_230_cif.got.tgz:459955.got - 2010.06.03 11:33:40.
