data_PCOD9101375
_publ_section_title
;
Structure prediction by ZEFSAII (Michael W. Deem and Ramdas Pophale) SiO2 
 PCOD9101375
Probable space group: P -1
;
_chemical_formula_sum "Si O2"
_cell_formula_units_Z 16
_cell_length_a 12.169057
_cell_length_b 8.886119
_cell_length_c 18.683626
_cell_angle_alpha 50.944324
_cell_angle_beta 150.753207
_cell_angle_gamma 121.319595
_cell_volume 764.122070
_symmetry_space_group_name_H-M "P -1"
_symmetry_group_IT_number 2
_symmetry_cell_setting 'triclinic'
loop_
_space_group_symop_operation_xyz
x,y,z
-x,-y,-z
loop_
_atom_site_type_symbol
_atom_site_label
_atom_site_fract_x
_atom_site_fract_y
_atom_site_fract_z
Si Si1 0.835549 0.114080 0.926646
Si Si2 0.560062 0.225584 0.973511
Si Si3 0.239396 0.444211 0.305446
Si Si4 0.935380 0.303495 0.061607
Si Si5 0.329575 0.101852 0.641033
Si Si6 0.740300 0.461513 0.552309
Si Si7 0.062906 0.948884 0.668721
Si Si8 0.939878 0.664294 0.355697
O O1 0.796369 0.338880 0.812690
O O2 0.591677 0.029032 0.811680
O O3 0.945559 0.128376 0.063339
O O4 0.000000 0.000000 0.000000
O O5 0.321405 0.344431 0.813857
O O6 0.682609 0.304780 0.949229
O O7 0.500000 0.000000 0.000000
O O8 0.757606 0.217070 0.147342
O O9 0.504618 0.377748 0.466548
O O10 0.162192 0.483413 0.331438
O O11 0.103796 0.296141 0.226765
O O12 0.000000 0.500000 0.000000
O O13 0.321556 0.331396 0.582346
O O14 0.196874 0.010098 0.656413
O O15 0.188169 0.079829 0.494364
O O16 0.902981 0.351537 0.620633
O O17 0.042316 0.128215 0.658360
O O18 0.000000 0.500000 0.500000
#
# Coordination Sequence:
#
# PCOD9101375 Si02
#       8
#     2   2   2   2   2   2   2   2
#     4  10  21  36  57  86 120 161 208 261 316 372
#     4  10  22  39  63  92 127 165 212 260 325 379
#     4   9  21  38  59  86 120 170 208 254 317 384
#     4  10  21  39  62  88 124 167 212 257 316 385
#     4  10  20  38  59  80 125 165 204 253 323 384
#     4  10  20  38  61  85 124 161 211 262 314 381
#     4  10  21  38  60  89 118 169 205 256 320 381
#     4  11  22  37  64  95 124 162 214 270 321 373
#
# _framework density 20.939063000000001
#
# number of rings (size 3 to 8) (size 9 to 14) (size 15 to 20)
#    0.000    2.000    1.250    2.250    3.500    4.000 
#    2.250    2.500    0.000    8.250    0.000    0.000 
#    0.000    0.000    0.000    0.000    0.000    0.000 
#
# Total GULP energy -89149.331703 kJ/mol
# GULP energy per Si atom -5571.833231 kJ/mol
# Density = 2.089140 g / cm^3
# Si number density = 20.939063 Si / 1000 Ang^3
#
#
#
# Elastic Constant Matrix: (Units=GPa)
#
#
# Indices 1 2 3 4 5 6 
#
# 1 134.8740 40.6608 60.4308 18.7257 17.6185 -26.5779
# 2 40.6608 58.0948 53.8516 29.2826 16.3401 -12.9597
# 3 60.4308 53.8516 114.5934 30.2732 11.4757 -27.4918
# 4 18.7257 29.2826 30.2732 37.6084 3.4304 -8.5276
# 5 17.6185 16.3401 11.4757 3.4304 38.9172 -3.4963
# 6 -26.5779 -12.9597 -27.4918 -8.5276 -3.4963 45.0764
#
#
#
# Elastic Compliance Matrix: (Units=1/GPa)
#
#
# Indices 1 2 3 4 5 6 
#
# 1 0.010768 -0.003820 -0.003154 0.001111 -0.002136 0.003372
# 2 -0.003820 0.046689 -0.013066 -0.023312 -0.012159 -0.002151
# 3 -0.003154 -0.013066 0.018032 -0.001791 0.002223 0.005215
# 4 0.001111 -0.023312 -0.001791 0.045523 0.005974 0.001936
# 5 -0.002136 -0.012159 0.002223 0.005974 0.030595 0.000104
# 6 0.003372 -0.002151 0.005215 0.001936 0.000104 0.027109
#
#
# Mechanical properties :
#
#
# Convention : Reuss Voigt Hill
#
# Bulk Modulus (GPa) = 28.24210 68.60540 48.42375
# Shear Modulus (GPa) = 21.68244 34.49500 28.08872
#
# Velocity S-wave (km/s) = 3.22141 4.06322 3.66656
# Velocity P-wave (km/s) = 5.23008 7.40597 6.41101
#
# Compressibility (1/GPa) = 0.03540814
#
# Stress axis : x y z
#
# Youngs Moduli (GPa) = 92.86387 21.41809 55.45755
#
# Poissons Ratio (x) = 0.08182 0.17493
# Poissons Ratio (y) = 0.35475 0.72463
# Poissons Ratio (z) = 0.29292 0.27986
#
# Static dielectric constant tensor:
#      x y z
#    x 2.086270 0.159990 -0.064250 
#    y 0.159990 1.820320 0.025290 
#    z -0.064250 0.025290 1.824660 
# 
# From -- ./inp_files/565822.got.cif
#   From: 2010.05.17/outbox.cif.g08.bks.cpg/sg2_283_cif.got.tgz:565822.got - 2010.06.03 11:33:40.
