data_PCOD9101552
_publ_section_title
;
Structure prediction by ZEFSAII (Michael W. Deem and Ramdas Pophale) SiO2 
 PCOD9101552
Probable space group: P -1
;
_chemical_formula_sum "Si O2"
_cell_formula_units_Z 16
_cell_length_a 18.393440
_cell_length_b 6.904651
_cell_length_c 20.259539
_cell_angle_alpha 134.612181
_cell_angle_beta 23.671554
_cell_angle_gamma 122.551766
_cell_volume 683.811056
_symmetry_space_group_name_H-M "P -1"
_symmetry_group_IT_number 2
_symmetry_cell_setting 'triclinic'
loop_
_space_group_symop_operation_xyz
x,y,z
-x,-y,-z
loop_
_atom_site_type_symbol
_atom_site_label
_atom_site_fract_x
_atom_site_fract_y
_atom_site_fract_z
Si Si1 0.773649 0.609018 0.731836
Si Si2 0.776002 0.084670 0.694150
Si Si3 0.101419 0.819829 0.806734
Si Si4 0.265448 0.281726 0.906369
Si Si5 0.715886 0.760061 0.270937
Si Si6 0.532264 0.338240 0.349225
Si Si7 0.554547 0.447887 0.078766
Si Si8 0.455800 0.999148 0.869988
O O1 0.729644 0.372095 0.757441
O O2 0.654460 0.579965 0.759044
O O3 0.000000 0.500000 0.500000
O O4 0.686019 0.885912 0.921021
O O5 0.674383 0.898927 0.694193
O O6 0.683603 0.165932 0.862470
O O7 0.000000 0.000000 0.500000
O O8 0.307619 0.562508 0.590816
O O9 0.150758 0.056109 0.776437
O O10 0.000000 0.000000 0.000000
O O11 0.939788 0.698675 0.885586
O O12 0.411918 0.946509 0.718707
O O13 0.225445 0.344975 0.877777
O O14 0.362278 0.494076 0.907912
O O15 0.680798 0.505395 0.279886
O O16 0.500000 0.000000 0.500000
O O17 0.567528 0.225463 0.217200
O O18 0.565515 0.722793 0.093061
#
# Coordination Sequence:
#
# PCOD9101552 Si02
#       8
#     2   2   2   2   2   2   2   2
#     4   9  17  35  52  74 114 142 181 231 267 330
#     4   9  17  31  52  78 104 147 178 215 275 330
#     4   9  20  36  57  84 110 143 188 233 284 349
#     4  10  20  38  60  83 112 152 189 231 285 338
#     4   9  20  38  55  84 116 141 183 240 284 340
#     4  10  20  38  60  81 116 151 185 238 287 331
#     4   8  17  34  53  74 109 146 184 221 272 333
#     4   8  17  34  53  74 107 148 183 218 276 331
#
# _framework density 23.398275000000002
#
# number of rings (size 3 to 8) (size 9 to 14) (size 15 to 20)
#    0.000    3.000    0.000    1.500    1.750    5.000 
#    4.500   10.000    0.000    0.000    0.000    0.000 
#    0.000    0.000    0.000    0.000    0.000    0.000 
#
# Total GULP energy -89180.704334 kJ/mol
# GULP energy per Si atom -5573.794021 kJ/mol
# Density = 2.334502 g / cm^3
# Si number density = 23.398275 Si / 1000 Ang^3
#
#
#
# Elastic Constant Matrix: (Units=GPa)
#
#
# Indices 1 2 3 4 5 6 
#
# 1 75.4559 19.4519 10.8139 -4.3954 5.9540 8.5131
# 2 19.4519 104.6919 27.3858 -0.4173 -0.2413 9.1237
# 3 10.8139 27.3858 106.7688 -23.8213 -14.6447 19.9144
# 4 -4.3954 -0.4173 -23.8213 27.1568 2.1894 -10.5677
# 5 5.9540 -0.2413 -14.6447 2.1894 29.6413 -6.4171
# 6 8.5131 9.1237 19.9144 -10.5677 -6.4171 35.1201
#
#
#
# Elastic Compliance Matrix: (Units=1/GPa)
#
#
# Indices 1 2 3 4 5 6 
#
# 1 0.014651 -0.002283 -0.000688 0.000874 -0.004024 -0.003041
# 2 -0.002283 0.010954 -0.003214 -0.003615 -0.001156 -0.001769
# 3 -0.000688 -0.003214 0.013875 0.010516 0.005611 -0.002676
# 4 0.000874 -0.003615 0.010516 0.049906 0.003563 0.010432
# 5 -0.004024 -0.001156 0.005611 0.003563 0.038382 0.006179
# 6 -0.003041 -0.001769 -0.002676 0.010432 0.006179 0.035456
#
#
# Mechanical properties :
#
#
# Convention : Reuss Voigt Hill
#
# Bulk Modulus (GPa) = 36.88593 44.69108 40.78850
# Shear Modulus (GPa) = 27.08101 33.66801 30.37451
#
# Velocity S-wave (km/s) = 3.40574 3.79741 3.60690
# Velocity P-wave (km/s) = 5.59142 6.19425 5.90054
#
# Compressibility (1/GPa) = 0.02711061
#
# Stress axis : x y z
#
# Youngs Moduli (GPa) = 68.25266 91.29309 72.07132
#
# Poissons Ratio (x) = 0.20842 0.04961
# Poissons Ratio (y) = 0.15582 0.23160
# Poissons Ratio (z) = 0.04698 0.29337
#
# Static dielectric constant tensor:
#      x y z
#    x 1.817290 0.001300 0.063290 
#    y 0.001300 1.961520 -0.013930 
#    z 0.063290 -0.013930 1.877560 
# 
# From -- ./inp_files/215063.got.cif
#   From: 2010.05.17/outbox.cif.g08.bks.cpg/sg2_108_cif.got.tgz:215063.got - 2010.06.03 11:33:40.
