data_PCOD9101681
_publ_section_title
;
Structure prediction by ZEFSAII (Michael W. Deem and Ramdas Pophale) SiO2 
 PCOD9101681
Probable space group: P -1
;
_chemical_formula_sum "Si O2"
_cell_formula_units_Z 16
_cell_length_a 8.050589
_cell_length_b 9.853660
_cell_length_c 16.762064
_cell_angle_alpha 48.447459
_cell_angle_beta 123.955658
_cell_angle_gamma 136.760040
_cell_volume 674.281075
_symmetry_space_group_name_H-M "P -1"
_symmetry_group_IT_number 2
_symmetry_cell_setting 'triclinic'
loop_
_space_group_symop_operation_xyz
x,y,z
-x,-y,-z
loop_
_atom_site_type_symbol
_atom_site_label
_atom_site_fract_x
_atom_site_fract_y
_atom_site_fract_z
Si Si1 0.056054 0.844205 0.527040
Si Si2 0.614061 0.283705 0.397547
Si Si3 0.166725 0.162416 0.225842
Si Si4 0.520890 0.612854 0.044988
Si Si5 0.030212 0.245546 0.784325
Si Si6 0.810193 0.434452 0.743025
Si Si7 0.121193 0.658610 0.894501
Si Si8 0.619080 0.559766 0.420445
O O1 0.301934 0.869143 0.552860
O O2 0.953734 0.646971 0.640764
O O3 0.891400 0.763252 0.434461
O O4 0.000000 0.000000 0.500000
O O5 0.340962 0.183882 0.333951
O O6 0.803081 0.525772 0.311061
O O7 0.626037 0.363052 0.460776
O O8 0.343498 0.400748 0.136478
O O9 0.933281 0.157353 0.191747
O O10 0.086859 0.964010 0.222324
O O11 0.785397 0.747284 0.104422
O O12 0.500000 0.500000 0.000000
O O13 0.402088 0.746161 0.943472
O O14 0.821623 0.250921 0.771680
O O15 0.544684 0.390841 0.696642
O O16 0.972429 0.505512 0.838199
O O17 0.000000 0.500000 0.000000
O O18 0.500000 0.500000 0.500000
#
# Coordination Sequence:
#
# PCOD9101681 Si02
#       8
#     2   2   2   2   2   2   2   2
#     4  10  23  39  63  94 121 160 214 258 319 379
#     4  10  21  42  64  87 131 161 201 268 315 370
#     4  10  22  38  62  92 121 164 210 248 316 376
#     4  10  20  38  60  87 129 163 201 259 306 363
#     4  10  22  38  62  92 121 166 211 252 315 375
#     4  10  20  40  62  86 126 162 204 262 312 370
#     4  10  20  38  62  87 127 164 201 255 312 367
#     4  10  21  40  62  86 122 164 204 254 320 369
#
# _framework density 23.728978000000001
#
# number of rings (size 3 to 8) (size 9 to 14) (size 15 to 20)
#    0.000    2.000    2.500    0.375    1.750    2.000 
#    0.000    3.750    0.000    0.000    0.000    0.000 
#    0.000    0.000    0.000    0.000    0.000    0.000 
#
# Total GULP energy -89376.345201 kJ/mol
# GULP energy per Si atom -5586.021575 kJ/mol
# Density = 2.367497 g / cm^3
# Si number density = 23.728978 Si / 1000 Ang^3
#
#
#
# Elastic Constant Matrix: (Units=GPa)
#
#
# Indices 1 2 3 4 5 6 
#
# 1 106.2262 44.6114 29.0734 -9.8177 25.9167 -37.0106
# 2 44.6114 137.8648 33.6512 9.8358 20.2718 -45.4418
# 3 29.0734 33.6512 101.4214 6.6947 12.6005 -13.3374
# 4 -9.8177 9.8358 6.6947 30.1450 -11.9625 -4.4346
# 5 25.9167 20.2718 12.6005 -11.9625 38.8044 -10.3032
# 6 -37.0106 -45.4418 -13.3374 -4.4346 -10.3032 54.2656
#
#
#
# Elastic Compliance Matrix: (Units=1/GPa)
#
#
# Indices 1 2 3 4 5 6 
#
# 1 0.015154 -0.001232 -0.002599 0.005184 -0.004867 0.008164
# 2 -0.001232 0.011287 -0.001689 -0.004229 -0.003943 0.007102
# 3 -0.002599 -0.001689 0.011624 -0.004143 -0.002750 -0.001190
# 4 0.005184 -0.004229 -0.004143 0.043945 0.015082 0.005431
# 5 -0.004867 -0.003943 -0.002750 0.015082 0.036872 0.000936
# 6 0.008164 0.007102 -0.001190 0.005431 0.000936 0.030272
#
#
# Mechanical properties :
#
#
# Convention : Reuss Voigt Hill
#
# Bulk Modulus (GPa) = 37.00377 62.24269 49.62323
# Shear Modulus (GPa) = 29.55062 40.52141 35.03602
#
# Velocity S-wave (km/s) = 3.53276 4.13689 3.84670
# Velocity P-wave (km/s) = 5.68056 7.00757 6.37867
#
# Compressibility (1/GPa) = 0.02702427
#
# Stress axis : x y z
#
# Youngs Moduli (GPa) = 65.98964 88.59952 86.03080
#
# Poissons Ratio (x) = 0.10919 0.22359
# Poissons Ratio (y) = 0.08133 0.14528
# Poissons Ratio (z) = 0.17150 0.14962
#
# Static dielectric constant tensor:
#      x y z
#    x 2.135310 0.069040 0.088970 
#    y 0.069040 1.915540 -0.019580 
#    z 0.088970 -0.019580 1.995660 
# 
# From -- ./inp_files/294013.got.cif
#   From: 2010.05.17/outbox.cif.g08.bks.cpg/sg2_148_cif.got.tgz:294013.got - 2010.06.03 11:33:40.
