data_PCOD9101764
_publ_section_title
;
Structure prediction by ZEFSAII (Michael W. Deem and Ramdas Pophale) SiO2 
 PCOD9101764
Probable space group: P -1
;
_chemical_formula_sum "Si O2"
_cell_formula_units_Z 16
_cell_length_a 7.231513
_cell_length_b 14.349864
_cell_length_c 19.591499
_cell_angle_alpha 25.500576
_cell_angle_beta 58.611608
_cell_angle_gamma 72.740832
_cell_volume 658.777168
_symmetry_space_group_name_H-M "P -1"
_symmetry_group_IT_number 2
_symmetry_cell_setting 'triclinic'
loop_
_space_group_symop_operation_xyz
x,y,z
-x,-y,-z
loop_
_atom_site_type_symbol
_atom_site_label
_atom_site_fract_x
_atom_site_fract_y
_atom_site_fract_z
Si Si1 0.369880 0.927780 0.799662
Si Si2 0.893341 0.969900 0.813366
Si Si3 0.437461 0.538171 0.110557
Si Si4 0.245303 0.706449 0.782755
Si Si5 0.790999 0.065647 0.917581
Si Si6 0.556124 0.211932 0.450634
Si Si7 0.644410 0.781161 0.264245
Si Si8 0.235978 0.454293 0.348358
O O1 0.360335 0.665854 0.981989
O O2 0.576737 0.103781 0.590236
O O3 0.419507 0.054141 0.780819
O O4 0.114656 0.914872 0.831536
O O5 0.769013 0.003800 0.883137
O O6 0.016873 0.221427 0.580624
O O7 0.691469 0.753167 0.951005
O O8 0.522435 0.335449 0.212192
O O9 0.239568 0.454965 0.264738
O O10 0.240987 0.702790 0.703553
O O11 0.322881 0.980030 0.612761
O O12 0.000000 0.500000 0.000000
O O13 0.762158 0.302374 0.785933
O O14 0.071968 0.139325 0.830566
O O15 0.628628 0.847513 0.145258
O O16 0.476180 0.420575 0.341262
O O17 0.500000 0.500000 0.500000
#
# Coordination Sequence:
#
# PCOD9101764 Si02
#       8
#     2   2   2   2   2   2   2   2
#     4  10  21  43  60  91 129 158 210 250 307 371
#     4  10  23  39  61  92 131 167 207 259 302 355
#     4  11  23  40  66  92 122 167 210 253 313 375
#     4  10  20  40  65  91 118 155 206 253 316 377
#     4  10  21  37  59  89 127 168 214 250 302 360
#     4   9  21  39  61  86 125 159 192 265 316 355
#     4  10  22  38  58  89 131 167 205 261 301 356
#     4  10  20  38  60  91 124 164 213 253 297 372
#
# _framework density 24.287423
#
# number of rings (size 3 to 8) (size 9 to 14) (size 15 to 20)
#    0.000    2.000    1.250    1.875    1.750    5.000 
#    0.000    6.875    0.000    0.000    0.000    0.000 
#    0.000    0.000    0.000    0.000    0.000    0.000 
#
# Total GULP energy -89541.194219 kJ/mol
# GULP energy per Si atom -5596.324639 kJ/mol
# Density = 2.423214 g / cm^3
# Si number density = 24.287423 Si / 1000 Ang^3
#
#
#
# Elastic Constant Matrix: (Units=GPa)
#
#
# Indices 1 2 3 4 5 6 
#
# 1 50.6938 18.1353 18.7584 10.9828 10.5283 -11.8538
# 2 18.1353 134.8365 45.5098 17.1468 17.6599 -2.2701
# 3 18.7584 45.5098 170.8180 32.3508 23.4436 1.2381
# 4 10.9828 17.1468 32.3508 56.4166 -0.5962 11.5211
# 5 10.5283 17.6599 23.4436 -0.5962 43.2103 -5.9680
# 6 -11.8538 -2.2701 1.2381 11.5211 -5.9680 24.7635
#
#
#
# Elastic Compliance Matrix: (Units=1/GPa)
#
#
# Indices 1 2 3 4 5 6 
#
# 1 0.026424 -0.001683 -0.000707 -0.007354 -0.003378 0.015137
# 2 -0.001683 0.008651 -0.001524 -0.001494 -0.002291 0.000207
# 3 -0.000707 -0.001524 0.007503 -0.003756 -0.003315 0.000096
# 4 -0.007354 -0.001494 -0.003756 0.024713 0.002808 -0.014290
# 5 -0.003378 -0.002291 -0.003315 0.002808 0.027236 0.003596
# 6 0.015137 0.000207 0.000096 -0.014290 0.003596 0.055157
#
#
# Mechanical properties :
#
#
# Convention : Reuss Voigt Hill
#
# Bulk Modulus (GPa) = 28.77635 57.90613 43.34124
# Shear Modulus (GPa) = 29.56911 43.14109 36.35510
#
# Velocity S-wave (km/s) = 3.49301 4.21916 3.87314
# Velocity P-wave (km/s) = 5.30491 6.90136 6.15512
#
# Compressibility (1/GPa) = 0.03475076
#
# Stress axis : x y z
#
# Youngs Moduli (GPa) = 37.84402 115.59851 133.27166
#
# Poissons Ratio (x) = 0.19455 0.09418
# Poissons Ratio (y) = 0.06369 0.20312
# Poissons Ratio (z) = 0.02674 0.17618
#
# Static dielectric constant tensor:
#      x y z
#    x 1.962530 -0.004070 0.014410 
#    y -0.004070 1.937700 0.025610 
#    z 0.014410 0.025610 1.930910 
# 
# From -- ./inp_files/608300.got.cif
#   From: 2010.05.17/outbox.cif.g08.bks.cpg/sg2_305_cif.got.tgz:608300.got - 2010.06.03 11:33:40.
