data_PCOD9101518
_publ_section_title
;
Structure prediction by ZEFSAII (Michael W. Deem and Ramdas Pophale) SiO2 
 PCOD9101518
Probable space group: P -1
;
_chemical_formula_sum "Si O2"
_cell_formula_units_Z 16
_cell_length_a 11.641724
_cell_length_b 7.600935
_cell_length_c 7.739665
_cell_angle_alpha 91.416039
_cell_angle_beta 105.145023
_cell_angle_gamma 77.858452
_cell_volume 645.960699
_symmetry_space_group_name_H-M "P -1"
_symmetry_group_IT_number 2
_symmetry_cell_setting 'triclinic'
loop_
_space_group_symop_operation_xyz
x,y,z
-x,-y,-z
loop_
_atom_site_type_symbol
_atom_site_label
_atom_site_fract_x
_atom_site_fract_y
_atom_site_fract_z
Si Si1 0.555397 0.629902 0.278041
Si Si2 0.169744 0.500980 0.115669
Si Si3 0.370761 0.971168 0.098413
Si Si4 0.764513 0.758852 0.184657
Si Si5 0.117491 0.961503 0.170909
Si Si6 0.568098 0.676328 0.687246
Si Si7 0.014248 0.665964 0.771585
Si Si8 0.021173 0.797466 0.430784
O O1 0.686759 0.640834 0.255500
O O2 0.541041 0.696092 0.473402
O O3 0.524098 0.432395 0.260665
O O4 0.463340 0.780600 0.135959
O O5 0.301836 0.467200 0.250244
O O6 0.062810 0.478367 0.203469
O O7 0.191982 0.332212 0.984344
O O8 0.117289 0.656706 0.959415
O O9 0.420996 0.132883 0.218902
O O10 0.248844 0.940074 0.141808
O O11 0.324228 0.051936 0.894946
O O12 0.887419 0.776664 0.324219
O O13 0.107316 0.807139 0.300584
O O14 0.089510 0.153683 0.261433
O O15 0.000000 0.000000 0.000000
O O16 0.068114 0.661222 0.601687
O O17 0.000000 0.000000 0.500000
#
# Coordination Sequence:
#
# PCOD9101518 Si02
#       8
#     2   2   2   2   2   2   2   2
#     4  11  25  42  69  95 128 173 220 271 325 383
#     4  10  21  38  66  84 131 175 203 270 330 382
#     4  11  23  43  69  95 130 177 212 267 328 388
#     4  11  22  42  62  95 130 167 221 268 318 392
#     4  11  20  39  63  96 132 163 217 262 324 398
#     4  10  23  46  63  95 128 170 221 272 320 380
#     4  10  20  38  59  93 124 171 210 259 328 381
#     4  10  22  36  61  93 127 165 208 270 315 382
#
# _framework density 24.769307999999999
#
# number of rings (size 3 to 8) (size 9 to 14) (size 15 to 20)
#    0.000    1.500    3.750    1.500    3.500    2.500 
#    4.500    1.250    0.000    0.000    0.000    0.000 
#    0.000    0.000    0.000    0.000    0.000    0.000 
#
# Total GULP energy -89458.722455 kJ/mol
# GULP energy per Si atom -5591.170153 kJ/mol
# Density = 2.471293 g / cm^3
# Si number density = 24.769308 Si / 1000 Ang^3
#
#
#
# Elastic Constant Matrix: (Units=GPa)
#
#
# Indices 1 2 3 4 5 6 
#
# 1 143.3955 33.5903 42.4348 -12.5620 -18.6502 42.3743
# 2 33.5903 102.1515 15.1288 -12.8856 -4.6895 27.8276
# 3 42.4348 15.1288 119.9366 -25.5095 -20.1735 20.5387
# 4 -12.5620 -12.8856 -25.5095 33.2692 9.5342 1.3665
# 5 -18.6502 -4.6895 -20.1735 9.5342 39.2898 -15.8824
# 6 42.3743 27.8276 20.5387 1.3665 -15.8824 46.4114
#
#
#
# Elastic Compliance Matrix: (Units=1/GPa)
#
#
# Indices 1 2 3 4 5 6 
#
# 1 0.010312 -0.000458 -0.001513 0.002947 -0.000129 -0.008602
# 2 -0.000458 0.013049 0.001003 0.007069 -0.003618 -0.009296
# 3 -0.001513 0.001003 0.011472 0.008297 0.001675 -0.003968
# 4 0.002947 0.007069 0.008297 0.043882 -0.010391 -0.015449
# 5 -0.000129 -0.003618 0.001675 -0.010391 0.033759 0.013404
# 6 -0.008602 -0.009296 -0.003968 -0.015449 0.013404 0.041772
#
#
# Mechanical properties :
#
#
# Convention : Reuss Voigt Hill
#
# Bulk Modulus (GPa) = 30.39629 60.86570 45.63099
# Shear Modulus (GPa) = 29.91351 42.08273 35.99812
#
# Velocity S-wave (km/s) = 3.47895 4.12635 3.81640
# Velocity P-wave (km/s) = 5.33252 6.87959 6.15486
#
# Compressibility (1/GPa) = 0.03289876
#
# Stress axis : x y z
#
# Youngs Moduli (GPa) = 96.97549 76.63138 87.16618
#
# Poissons Ratio (x) = 0.03508 0.13184
# Poissons Ratio (y) = 0.04439 -0.08741
# Poissons Ratio (z) = 0.14668 -0.07685
#
# Static dielectric constant tensor:
#      x y z
#    x 1.927950 -0.011820 -0.045840 
#    y -0.011820 2.119530 -0.006210 
#    z -0.045840 -0.006210 2.015180 
# 
# From -- ./inp_files/243130.got.cif
#   From: 2010.05.17/outbox.cif.g08.bks.cpg/sg2_122_cif.got.tgz:243130.got - 2010.06.03 11:33:40.
