data_PCOD9101287
_publ_section_title
;
Structure prediction by ZEFSAII (Michael W. Deem and Ramdas Pophale) SiO2 
 PCOD9101287
Probable space group: P -1
;
_chemical_formula_sum "Si O2"
_cell_formula_units_Z 16
_cell_length_a 23.703283
_cell_length_b 15.282587
_cell_length_c 21.437651
_cell_angle_alpha 162.717246
_cell_angle_beta 161.708917
_cell_angle_gamma 22.155943
_cell_volume 707.968183
_symmetry_space_group_name_H-M "P -1"
_symmetry_group_IT_number 2
_symmetry_cell_setting 'triclinic'
loop_
_space_group_symop_operation_xyz
x,y,z
-x,-y,-z
loop_
_atom_site_type_symbol
_atom_site_label
_atom_site_fract_x
_atom_site_fract_y
_atom_site_fract_z
Si Si1 0.555226 0.653594 0.222897
Si Si2 0.644389 0.549892 0.582232
Si Si3 0.844849 0.791153 0.058091
Si Si4 0.824183 0.859947 0.723855
Si Si5 0.157254 0.116819 0.625962
Si Si6 0.592296 0.522164 0.930025
Si Si7 0.685736 0.666610 0.570155
Si Si8 0.333546 0.267527 0.033773
O O1 0.761713 0.680056 0.477777
O O2 0.500157 0.447704 0.079953
O O3 0.435410 0.993978 0.321820
O O4 0.500000 0.500000 0.000000
O O5 0.750267 0.571520 0.642841
O O6 0.434766 0.548113 0.341256
O O7 0.718494 0.221292 0.466742
O O8 0.685224 0.787535 0.837247
O O9 0.760555 0.770759 0.024601
O O10 0.957906 0.056736 0.359320
O O11 0.000000 0.500000 0.000000
O O12 0.820372 0.692988 0.672073
O O13 0.669224 0.164071 0.768721
O O14 0.000000 0.000000 0.000000
O O15 0.251529 0.296357 0.796610
O O16 0.182068 0.280164 0.828980
O O17 0.441664 0.558148 0.741560
O O18 0.500000 0.000000 0.000000
#
# Coordination Sequence:
#
# PCOD9101287 Si02
#       8
#     2   2   2   2   2   2   2   2
#     4   9  19  39  59  82 111 149 196 240 288 346
#     4  10  20  38  58  85 118 154 197 242 295 358
#     4  10  22  40  54  83 130 159 188 246 311 344
#     4   9  19  39  59  82 111 149 196 240 288 346
#     4  10  20  38  58  85 118 154 197 242 295 358
#     4   9  18  38  61  79 114 155 191 233 290 357
#     4   9  18  38  61  79 114 155 191 233 290 357
#     4  10  20  38  62  81 112 161 210 236 273 368
#
# _framework density 22.599886000000001
#
# number of rings (size 3 to 8) (size 9 to 14) (size 15 to 20)
#    0.000    2.500    1.250    2.250    0.000    0.000 
#   22.500    1.250    0.000    0.000    0.000    0.000 
#    0.000    0.000    0.000    0.000    0.000    0.000 
#
# Total GULP energy -89179.669322 kJ/mol
# GULP energy per Si atom -5573.729333 kJ/mol
# Density = 2.254845 g / cm^3
# Si number density = 22.599886 Si / 1000 Ang^3
#
#
#
# Elastic Constant Matrix: (Units=GPa)
#
#
# Indices 1 2 3 4 5 6 
#
# 1 116.2957 15.6606 91.3491 -8.1075 -3.3558 15.0896
# 2 15.6606 56.5185 12.7329 20.8586 -6.7989 -0.4320
# 3 91.3491 12.7329 233.7810 -22.3464 -9.3891 14.2866
# 4 -8.1075 20.8586 -22.3464 27.2951 12.6865 1.4096
# 5 -3.3558 -6.7989 -9.3891 12.6865 45.7940 -2.5022
# 6 15.0896 -0.4320 14.2866 1.4096 -2.5022 27.6170
#
#
#
# Elastic Compliance Matrix: (Units=1/GPa)
#
#
# Indices 1 2 3 4 5 6 
#
# 1 0.013853 -0.005793 -0.004194 0.006778 -0.002916 -0.006100
# 2 -0.005793 0.037425 -0.003637 -0.041375 0.016353 0.009225
# 3 -0.004194 -0.003637 0.006939 0.008145 -0.001787 -0.001933
# 4 0.006778 -0.041375 0.008145 0.091843 -0.030294 -0.015997
# 5 -0.002916 0.016353 -0.001787 -0.030294 0.032474 0.007262
# 6 -0.006100 0.009225 -0.001933 -0.015997 0.007262 0.042161
#
#
# Mechanical properties :
#
#
# Convention : Reuss Voigt Hill
#
# Bulk Modulus (GPa) = 32.28858 71.78672 52.03765
# Shear Modulus (GPa) = 19.06460 39.26473 29.16467
#
# Velocity S-wave (km/s) = 2.90758 4.17272 3.59622
# Velocity P-wave (km/s) = 5.05867 7.41947 6.34975
#
# Compressibility (1/GPa) = 0.03097070
#
# Stress axis : x y z
#
# Youngs Moduli (GPa) = 72.18631 26.71996 144.10767
#
# Poissons Ratio (x) = 0.15478 0.60438
# Poissons Ratio (y) = 0.41815 0.52410
# Poissons Ratio (z) = 0.30274 0.09718
#
# Static dielectric constant tensor:
#      x y z
#    x 1.665240 0.222550 -0.230460 
#    y 0.222550 1.648670 0.204340 
#    z -0.230460 0.204340 1.674970 
# 
# From -- ./inp_files/448332.got.cif
#   From: 2010.05.17/outbox.cif.g08.bks.cpg/sg2_225_cif.got.tgz:448332.got - 2010.06.03 11:33:40.
