data_PCOD9101684
_publ_section_title
;
Structure prediction by ZEFSAII (Michael W. Deem and Ramdas Pophale) SiO2 
 PCOD9101684
Probable space group: P -1
;
_chemical_formula_sum "Si O2"
_cell_formula_units_Z 16
_cell_length_a 9.454139
_cell_length_b 16.761107
_cell_length_c 11.442955
_cell_angle_alpha 99.645088
_cell_angle_beta 108.117874
_cell_angle_gamma 139.257677
_cell_volume 854.813346
_symmetry_space_group_name_H-M "P -1"
_symmetry_group_IT_number 2
_symmetry_cell_setting 'triclinic'
loop_
_space_group_symop_operation_xyz
x,y,z
-x,-y,-z
loop_
_atom_site_type_symbol
_atom_site_label
_atom_site_fract_x
_atom_site_fract_y
_atom_site_fract_z
Si Si1 0.728114 0.822533 0.010110
Si Si2 0.246502 0.809282 0.687908
Si Si3 0.223180 0.295663 0.565221
Si Si4 0.123488 0.151791 0.295785
Si Si5 0.289728 0.327713 0.865119
Si Si6 0.885609 0.146738 0.915237
Si Si7 0.858577 0.658525 0.757589
Si Si8 0.345240 0.679192 0.649700
O O1 0.608298 0.707192 0.052932
O O2 0.978672 0.880016 0.031510
O O3 0.485321 0.727157 0.825631
O O4 0.886468 0.975907 0.142422
O O5 0.365891 0.783663 0.656720
O O6 0.015135 0.746354 0.531841
O O7 0.079364 0.713182 0.743651
O O8 0.547981 0.999849 0.827895
O O9 0.113786 0.165216 0.434851
O O10 0.267511 0.307056 0.716656
O O11 0.528560 0.469090 0.625821
O O12 0.099116 0.230221 0.253687
O O13 0.445270 0.270768 0.371559
O O14 0.972873 0.196869 0.814343
O O15 0.500000 0.500000 0.000000
O O16 0.059822 0.293013 0.074341
O O17 0.000000 0.500000 0.500000
#
# Coordination Sequence:
#
# PCOD9101684 Si02
#       8
#     2   2   2   2   2   2   2   2
#     4  10  22  39  60  88 117 168 202 237 313 360
#     4  11  23  34  58 100 122 147 201 259 311 348
#     4  11  23  39  62  94 123 166 204 245 299 359
#     4  11  20  38  60  86 130 157 196 253 303 369
#     4  10  21  41  66  82 119 171 210 243 288 379
#     4  10  20  38  60  88 117 159 201 247 301 358
#     4  11  20  38  61  91 127 157 199 250 311 363
#     4  12  21  35  61  91 124 153 196 259 306 364
#
# _framework density 18.717535000000002
#
# number of rings (size 3 to 8) (size 9 to 14) (size 15 to 20)
#    0.750    0.500    3.750    4.500    1.750    2.000 
#    0.000    0.000    0.000    4.500    0.000    0.000 
#    0.000    0.000    0.000    0.000    0.000    0.000 
#
# Total GULP energy -89128.221365 kJ/mol
# GULP energy per Si atom -5570.513835 kJ/mol
# Density = 1.867493 g / cm^3
# Si number density = 18.717535 Si / 1000 Ang^3
#
#
#
# Elastic Constant Matrix: (Units=GPa)
#
#
# Indices 1 2 3 4 5 6 
#
# 1 32.3352 20.8763 13.1948 -11.5916 3.4912 5.2002
# 2 20.8763 74.2777 51.8984 -12.3623 3.1577 1.9282
# 3 13.1948 51.8984 122.8182 -6.1612 -5.3480 5.1031
# 4 -11.5916 -12.3623 -6.1612 38.0167 11.2132 -5.9845
# 5 3.4912 3.1577 -5.3480 11.2132 30.7320 6.6245
# 6 5.2002 1.9282 5.1031 -5.9845 6.6245 25.1422
#
#
#
# Elastic Compliance Matrix: (Units=1/GPa)
#
#
# Indices 1 2 3 4 5 6 
#
# 1 0.042618 -0.009568 -0.000138 0.011496 -0.007348 -0.003380
# 2 -0.009568 0.023665 -0.009155 0.005916 -0.006187 0.005060
# 3 -0.000138 -0.009155 0.012248 -0.003128 0.005055 -0.003832
# 4 0.011496 0.005916 -0.003128 0.038802 -0.019225 0.012105
# 5 -0.007348 -0.006187 0.005055 -0.019225 0.045252 -0.015531
# 6 -0.003380 0.005060 -0.003832 0.012105 -0.015531 0.047836
#
#
# Mechanical properties :
#
#
# Convention : Reuss Voigt Hill
#
# Bulk Modulus (GPa) = 24.50473 44.59669 34.55071
# Shear Modulus (GPa) = 19.10242 28.34228 23.72235
#
# Velocity S-wave (km/s) = 3.19809 3.89551 3.56390
# Velocity P-wave (km/s) = 5.17275 6.64162 5.95267
#
# Compressibility (1/GPa) = 0.04080845
#
# Stress axis : x y z
#
# Youngs Moduli (GPa) = 23.46425 42.25644 81.64657
#
# Poissons Ratio (x) = 0.40431 0.01130
# Poissons Ratio (y) = 0.22450 0.74747
# Poissons Ratio (z) = 0.00325 0.38686
#
# Static dielectric constant tensor:
#      x y z
#    x 1.654350 -0.014580 -0.047810 
#    y -0.014580 1.704760 0.052460 
#    z -0.047810 0.052460 1.779370 
# 
# From -- ./inp_files/356891.got.cif
#   From: 2010.05.17/outbox.cif.g08.bks.cpg/sg2_179_cif.got.tgz:356891.got - 2010.06.03 11:33:40.
