data_PCOD9101628
_publ_section_title
;
Structure prediction by ZEFSAII (Michael W. Deem and Ramdas Pophale) SiO2 
 PCOD9101628
Probable space group: P -1
;
_chemical_formula_sum "Si O2"
_cell_formula_units_Z 12
_cell_length_a 5.215596
_cell_length_b 14.947357
_cell_length_c 7.382193
_cell_angle_alpha 115.307665
_cell_angle_beta 65.319694
_cell_angle_gamma 87.783534
_cell_volume 455.929615
_symmetry_space_group_name_H-M "P -1"
_symmetry_group_IT_number 2
_symmetry_cell_setting 'triclinic'
loop_
_space_group_symop_operation_xyz
x,y,z
-x,-y,-z
loop_
_atom_site_type_symbol
_atom_site_label
_atom_site_fract_x
_atom_site_fract_y
_atom_site_fract_z
Si Si1 0.038137 0.973374 0.707492
Si Si2 0.969309 0.395683 0.513441
Si Si3 0.386066 0.868742 0.838132
Si Si4 0.301693 0.463688 0.767773
Si Si5 0.135525 0.148054 0.626772
Si Si6 0.841877 0.309201 0.122333
O O1 0.123256 0.906387 0.803264
O O2 0.102376 0.893631 0.453173
O O3 0.206443 0.060366 0.686227
O O4 0.708667 0.043535 0.904134
O O5 0.631094 0.414179 0.700691
O O6 0.002480 0.315196 0.270938
O O7 0.000000 0.500000 0.500000
O O8 0.207239 0.385583 0.590766
O O9 0.648890 0.853996 0.606437
O O10 0.361806 0.766189 0.853297
O O11 0.317565 0.572997 0.772833
O O12 0.000000 0.500000 0.000000
O O13 0.046186 0.255032 0.850011
#
# Coordination Sequence:
#
# PCOD9101628 Si02
#       6
#     2   2   2   2   2   2
#     4   9  20  38  59  88 118 167 205 255 323 385
#     4  10  22  46  68  94 137 175 214 274 335 395
#     4  10  20  38  60  85 127 159 209 262 322 378
#     4  11  24  45  72  96 132 181 220 270 335 398
#     4  10  20  38  60  89 122 160 213 258 316 389
#     4  10  23  39  58  97 122 162 219 266 322 391
#
# _framework density 26.319852999999998
#
# number of rings (size 3 to 8) (size 9 to 14) (size 15 to 20)
#    0.000    2.000    0.000    3.500    2.333    1.333 
#   15.000    0.000    0.000    0.000    0.000    0.000 
#    0.000    0.000    0.000    0.000    0.000    0.000 
#
# Total GULP energy -66904.231741 kJ/mol
# GULP energy per Si atom -5575.352645 kJ/mol
# Density = 2.625995 g / cm^3
# Si number density = 26.319853 Si / 1000 Ang^3
#
#
#
# Elastic Constant Matrix: (Units=GPa)
#
#
# Indices 1 2 3 4 5 6 
#
# 1 66.8568 12.1908 24.3095 9.1090 -18.5733 18.8288
# 2 12.1908 105.0967 23.7244 -11.0814 -13.0704 8.3327
# 3 24.3095 23.7244 205.5788 10.1851 -0.7011 18.1922
# 4 9.1090 -11.0814 10.1851 58.1238 16.8350 -2.3718
# 5 -18.5733 -13.0704 -0.7011 16.8350 31.8448 -5.3261
# 6 18.8288 8.3327 18.1922 -2.3718 -5.3261 21.4177
#
#
#
# Elastic Compliance Matrix: (Units=1/GPa)
#
#
# Indices 1 2 3 4 5 6 
#
# 1 0.027213 -0.000244 -0.000877 -0.010118 0.017793 -0.019779
# 2 -0.000244 0.010462 -0.001047 0.001224 0.003139 -0.002050
# 3 -0.000877 -0.001047 0.005467 -0.000889 -0.000988 -0.003809
# 4 -0.010118 0.001224 -0.000889 0.024432 -0.017057 0.007638
# 5 0.017793 0.003139 -0.000988 -0.017057 0.051197 -0.005181
# 6 -0.019779 -0.002050 -0.003809 0.007638 -0.005181 0.067668
#
#
# Mechanical properties :
#
#
# Convention : Reuss Voigt Hill
#
# Bulk Modulus (GPa) = 25.77080 55.33132 40.55106
# Shear Modulus (GPa) = 24.54468 43.43111 33.98790
#
# Velocity S-wave (km/s) = 3.05709 4.06658 3.59742
# Velocity P-wave (km/s) = 4.71950 6.56641 5.71802
#
# Compressibility (1/GPa) = 0.03880361
#
# Stress axis : x y z
#
# Youngs Moduli (GPa) = 36.74742 95.58762 182.92797
#
# Poissons Ratio (x) = 0.02336 0.16051
# Poissons Ratio (y) = 0.00898 0.19151
# Poissons Ratio (z) = 0.03224 0.10007
#
# Static dielectric constant tensor:
#      x y z
#    x 2.192370 -0.005580 -0.062480 
#    y -0.005580 2.082790 -0.060750 
#    z -0.062480 -0.060750 2.199650 
# 
# From -- ./inp_files/89715.got.cif
#   From: 2010.05.17/outbox.cif.g08.bks.cpg/sg2_45_cif.got.tgz:89715.got - 2010.06.03 11:33:40.
