data_PCOD9101765
_publ_section_title
;
Structure prediction by ZEFSAII (Michael W. Deem and Ramdas Pophale) SiO2 
 PCOD9101765
Probable space group: P -1
;
_chemical_formula_sum "Si O2"
_cell_formula_units_Z 16
_cell_length_a 13.823228
_cell_length_b 9.555226
_cell_length_c 19.828013
_cell_angle_alpha 102.040117
_cell_angle_beta 37.525237
_cell_angle_gamma 132.772836
_cell_volume 790.159555
_symmetry_space_group_name_H-M "P -1"
_symmetry_group_IT_number 2
_symmetry_cell_setting 'triclinic'
loop_
_space_group_symop_operation_xyz
x,y,z
-x,-y,-z
loop_
_atom_site_type_symbol
_atom_site_label
_atom_site_fract_x
_atom_site_fract_y
_atom_site_fract_z
Si Si1 0.375983 0.918422 0.861673
Si Si2 0.712727 0.228702 0.845896
Si Si3 0.663002 0.369411 0.240539
Si Si4 0.730664 0.540985 0.453747
Si Si5 0.382724 0.528200 0.117818
Si Si6 0.758374 0.882772 0.425125
Si Si7 0.295337 0.335591 0.380130
Si Si8 0.691487 0.816822 0.112722
O O1 0.468192 0.862769 0.754938
O O2 0.603109 0.102556 0.818263
O O3 0.353121 0.047129 0.844608
O O4 0.034536 0.633579 0.057044
O O5 0.689998 0.381864 0.872234
O O6 0.048135 0.415734 0.686457
O O7 0.500000 0.000000 0.000000
O O8 0.501706 0.264064 0.391854
O O9 0.576744 0.449149 0.258387
O O10 0.837125 0.778895 0.389602
O O11 0.394132 0.245913 0.577553
O O12 0.740881 0.578555 0.531207
O O13 0.651509 0.760213 0.049037
O O14 0.500000 0.500000 0.000000
O O15 0.058166 0.216391 0.296306
O O16 0.402368 0.505245 0.273268
O O17 0.000000 0.000000 0.500000
O O18 0.000000 0.000000 0.000000
#
# Coordination Sequence:
#
# PCOD9101765 Si02
#       8
#     2   2   2   2   2   2   2   2
#     4  10  22  39  63  92 129 166 211 263 318 375
#     4  11  23  41  62  91 126 165 214 261 318 383
#     4  10  20  38  60  91 125 167 207 263 313 378
#     4  10  22  39  65  90 125 174 206 260 317 384
#     4  11  26  42  65  93 130 166 214 269 321 381
#     4  10  22  42  63  91 130 166 214 261 323 381
#     4  11  22  38  64  93 127 165 218 260 315 382
#     4  11  23  42  64  93 128 167 214 261 319 377
#
# _framework density 20.249075000000001
#
# number of rings (size 3 to 8) (size 9 to 14) (size 15 to 20)
#    0.000    1.500    1.250    3.750    1.750    4.500 
#    2.250    3.125    0.000    0.000    0.000    0.000 
#    0.000    0.000    0.000    0.000    0.000    0.000 
#
# Total GULP energy -89299.090092 kJ/mol
# GULP energy per Si atom -5581.193131 kJ/mol
# Density = 2.020299 g / cm^3
# Si number density = 20.249075 Si / 1000 Ang^3
#
#
#
# Elastic Constant Matrix: (Units=GPa)
#
#
# Indices 1 2 3 4 5 6 
#
# 1 91.6548 34.9204 34.0323 5.2782 -4.8477 -9.2156
# 2 34.9204 99.8428 29.4874 17.3209 2.5255 -12.6478
# 3 34.0323 29.4874 59.8403 12.3672 -1.1604 -11.0000
# 4 5.2782 17.3209 12.3672 39.8549 -3.7824 -2.2860
# 5 -4.8477 2.5255 -1.1604 -3.7824 25.5695 -1.9990
# 6 -9.2156 -12.6478 -11.0000 -2.2860 -1.9990 24.7290
#
#
#
# Elastic Compliance Matrix: (Units=1/GPa)
#
#
# Indices 1 2 3 4 5 6 
#
# 1 0.014992 -0.003481 -0.006960 0.002064 0.003267 0.001166
# 2 -0.003481 0.013442 -0.003116 -0.004447 -0.002507 0.003578
# 3 -0.006960 -0.003116 0.024359 -0.004943 -0.000154 0.006179
# 4 0.002064 -0.004447 -0.004943 0.028702 0.004800 -0.000663
# 5 0.003267 -0.002507 -0.000154 0.004800 0.040962 0.003621
# 6 0.001166 0.003578 0.006179 -0.000663 0.003621 0.045683
#
#
# Mechanical properties :
#
#
# Convention : Reuss Voigt Hill
#
# Bulk Modulus (GPa) = 38.94190 49.80200 44.37195
# Shear Modulus (GPa) = 24.53236 28.22386 26.37811
#
# Velocity S-wave (km/s) = 3.48448 3.73746 3.61318
# Velocity P-wave (km/s) = 5.95500 6.57821 6.27435
#
# Compressibility (1/GPa) = 0.02567928
#
# Stress axis : x y z
#
# Youngs Moduli (GPa) = 66.70138 74.39639 41.05236
#
# Poissons Ratio (x) = 0.25898 0.28572
# Poissons Ratio (y) = 0.23219 0.12791
# Poissons Ratio (z) = 0.46424 0.23180
#
# Static dielectric constant tensor:
#      x y z
#    x 1.700700 0.009120 0.009880 
#    y 0.009120 1.711200 -0.025690 
#    z 0.009880 -0.025690 1.718090 
# 
# From -- ./inp_files/262334.got.cif
#   From: 2010.05.17/outbox.cif.g08.bks.cpg/sg2_132_cif.got.tgz:262334.got - 2010.06.03 11:33:40.
