data_PCOD9101633
_publ_section_title
;
Structure prediction by ZEFSAII (Michael W. Deem and Ramdas Pophale) SiO2 
 PCOD9101633
Probable space group: P -1
;
_chemical_formula_sum "Si O2"
_cell_formula_units_Z 16
_cell_length_a 13.613106
_cell_length_b 7.137267
_cell_length_c 18.989303
_cell_angle_alpha 112.193536
_cell_angle_beta 23.020723
_cell_angle_gamma 113.069051
_cell_volume 663.068658
_symmetry_space_group_name_H-M "P -1"
_symmetry_group_IT_number 2
_symmetry_cell_setting 'triclinic'
loop_
_space_group_symop_operation_xyz
x,y,z
-x,-y,-z
loop_
_atom_site_type_symbol
_atom_site_label
_atom_site_fract_x
_atom_site_fract_y
_atom_site_fract_z
Si Si1 0.022063 0.242329 0.518850
Si Si2 0.859908 0.210223 0.131688
Si Si3 0.374002 0.695686 0.087976
Si Si4 0.393000 0.995131 0.490330
Si Si5 0.783754 0.586443 0.963739
Si Si6 0.177797 0.033223 0.114833
Si Si7 0.340365 0.762747 0.356772
Si Si8 0.454109 0.799959 0.787548
O O1 0.306944 0.314586 0.366477
O O2 0.822993 0.281446 0.716251
O O3 0.936755 0.291035 0.502448
O O4 0.000000 0.000000 0.500000
O O5 0.604407 0.149860 0.335364
O O6 0.765874 0.293778 0.132407
O O7 0.029419 0.375772 0.088910
O O8 0.000000 0.000000 0.000000
O O9 0.500000 0.500000 0.000000
O O10 0.233890 0.621059 0.098147
O O11 0.613971 0.869620 0.952827
O O12 0.500000 0.000000 0.500000
O O13 0.372058 0.792830 0.424146
O O14 0.104496 0.044808 0.685818
O O15 0.517807 0.623982 0.178916
O O16 0.856775 0.777787 0.889312
O O17 0.317092 0.874710 0.956442
O O18 0.435277 0.989821 0.295772
#
# Coordination Sequence:
#
# PCOD9101633 Si02
#       8
#     2   2   2   2   2   2   2   2
#     4  10  16  32  54  76 101 135 178 211 252 306
#     4  11  17  32  52  74 103 135 179 215 250 306
#     4  10  18  31  54  78 105 133 171 216 258 307
#     4  11  19  27  48  77 109 130 171 222 259 295
#     4  10  17  31  52  74 102 136 167 214 259 298
#     4  10  17  30  45  78 103 129 167 214 265 292
#     4   9  17  29  47  74 101 133 167 210 258 299
#     4   9  17  29  53  73  96 133 175 219 248 299
#
# _framework density 24.130230999999998
#
# number of rings (size 3 to 8) (size 9 to 14) (size 15 to 20)
#    0.000    2.000   10.000    0.000    0.000    0.000 
#    0.000    1.875    0.000    0.000    0.000    0.875 
#    0.000    0.500    0.000    0.000    0.000    0.000 
#
# Total GULP energy -89303.597686 kJ/mol
# GULP energy per Si atom -5581.474855 kJ/mol
# Density = 2.407531 g / cm^3
# Si number density = 24.130231 Si / 1000 Ang^3
#
#
#
# Elastic Constant Matrix: (Units=GPa)
#
#
# Indices 1 2 3 4 5 6 
#
# 1 166.8950 61.0555 52.5771 -2.7964 -20.8978 56.1294
# 2 61.0555 50.4757 31.1363 -4.0394 -1.9480 30.9980
# 3 52.5771 31.1363 155.0708 13.4870 -18.5848 21.5122
# 4 -2.7964 -4.0394 13.4870 29.1946 12.1294 12.6022
# 5 -20.8978 -1.9480 -18.5848 12.1294 41.0542 -9.9874
# 6 56.1294 30.9980 21.5122 12.6022 -9.9874 49.8954
#
#
#
# Elastic Compliance Matrix: (Units=1/GPa)
#
#
# Indices 1 2 3 4 5 6 
#
# 1 0.013143 -0.009343 -0.001353 0.003303 0.002536 -0.008724
# 2 -0.009343 0.069489 -0.012450 0.047671 -0.032322 -0.045802
# 3 -0.001353 -0.012450 0.010589 -0.015975 0.010886 0.010906
# 4 0.003303 0.047671 -0.015975 0.092628 -0.044969 -0.058841
# 5 0.002536 -0.032322 0.010886 -0.044969 0.050606 0.034021
# 6 -0.008724 -0.045802 0.010906 -0.058841 0.034021 0.075280
#
#
# Mechanical properties :
#
#
# Convention : Reuss Voigt Hill
#
# Bulk Modulus (GPa) = 21.31028 73.55326 47.43177
# Shear Modulus (GPa) = 13.38080 39.20701 26.29390
#
# Velocity S-wave (km/s) = 2.35739 4.03526 3.30459
# Velocity P-wave (km/s) = 4.03240 7.22905 5.85318
#
# Compressibility (1/GPa) = 0.04692572
#
# Stress axis : x y z
#
# Youngs Moduli (GPa) = 76.08562 14.39087 94.44173
#
# Poissons Ratio (x) = 0.13446 0.12781
# Poissons Ratio (y) = 0.71091 1.17584
# Poissons Ratio (z) = 0.10297 0.17917
#
# Static dielectric constant tensor:
#      x y z
#    x 2.065690 0.022020 -0.069340 
#    y 0.022020 1.971330 -0.011350 
#    z -0.069340 -0.011350 1.873200 
# 
# From -- ./inp_files/597412.got.cif
#   From: 2010.05.17/outbox.cif.g08.bks.cpg/sg2_299_cif.got.tgz:597412.got - 2010.06.03 11:33:40.
