data_PCOD9101921
_publ_section_title
;
Structure prediction by ZEFSAII (Michael W. Deem and Ramdas Pophale) SiO2 
 PCOD9101921
Probable space group: P -1
;
_chemical_formula_sum "Si O2"
_cell_formula_units_Z 16
_cell_length_a 8.460741
_cell_length_b 24.275464
_cell_length_c 12.855172
_cell_angle_alpha 25.902817
_cell_angle_beta 144.936184
_cell_angle_gamma 142.147093
_cell_volume 647.498021
_symmetry_space_group_name_H-M "P -1"
_symmetry_group_IT_number 2
_symmetry_cell_setting 'triclinic'
loop_
_space_group_symop_operation_xyz
x,y,z
-x,-y,-z
loop_
_atom_site_type_symbol
_atom_site_label
_atom_site_fract_x
_atom_site_fract_y
_atom_site_fract_z
Si Si1 0.558454 0.887775 0.865910
Si Si2 0.583374 0.942387 0.017329
Si Si3 0.051847 0.812327 0.595329
Si Si4 0.186530 0.679656 0.291679
Si Si5 0.456660 0.603892 0.384622
Si Si6 0.914057 0.336190 0.330155
Si Si7 0.072750 0.805415 0.201863
Si Si8 0.358321 0.433353 0.141460
O O1 0.630207 0.964435 0.881039
O O2 0.477052 0.736984 0.109371
O O3 0.839946 0.889580 0.950890
O O4 0.711107 0.090896 0.377420
O O5 0.306206 0.827474 0.066546
O O6 0.813857 0.874970 0.308918
O O7 0.636308 0.088105 0.842604
O O8 0.194504 0.753741 0.673763
O O9 0.893651 0.693469 0.784279
O O10 0.187124 0.594124 0.332693
O O11 0.975483 0.707234 0.220711
O O12 0.401206 0.619320 0.579263
O O13 0.500000 0.500000 0.500000
O O14 0.747771 0.623384 0.573704
O O15 0.888575 0.267278 0.546568
O O16 0.768793 0.456682 0.056796
O O17 0.500000 0.500000 0.000000
#
# Coordination Sequence:
#
# PCOD9101921 Si02
#       8
#     2   2   2   2   2   2   2   2
#     4  10  22  38  63  94 127 166 214 264 308 378
#     4  10  21  42  66  90 125 174 214 263 314 375
#     4  11  22  40  65  93 125 171 214 255 322 375
#     4  10  21  39  64  91 125 169 210 258 332 371
#     4  10  20  38  61  87 120 170 207 250 318 381
#     4  11  21  37  61  91 125 164 210 255 314 382
#     4  11  21  40  64  92 128 168 215 265 316 369
#     4  11  21  37  63  95 123 160 212 262 315 383
#
# _framework density 24.710501000000001
#
# number of rings (size 3 to 8) (size 9 to 14) (size 15 to 20)
#    0.000    1.500    6.250    1.875    1.750    0.500 
#    0.000    6.250    0.000    8.250    0.000    0.000 
#    0.000    0.000    0.000    0.000    0.000    0.000 
#
# Total GULP energy -89286.500855 kJ/mol
# GULP energy per Si atom -5580.406303 kJ/mol
# Density = 2.465426 g / cm^3
# Si number density = 24.710501 Si / 1000 Ang^3
#
#
#
# Elastic Constant Matrix: (Units=GPa)
#
#
# Indices 1 2 3 4 5 6 
#
# 1 106.0349 23.2861 21.1707 -8.0664 -10.2146 -31.4825
# 2 23.2861 78.6527 11.5743 -5.4750 2.5156 -17.6578
# 3 21.1707 11.5743 69.0711 -7.1695 -18.0703 -8.8585
# 4 -8.0664 -5.4750 -7.1695 37.5731 -1.4379 9.2618
# 5 -10.2146 2.5156 -18.0703 -1.4379 42.3576 -7.2423
# 6 -31.4825 -17.6578 -8.8585 9.2618 -7.2423 35.3561
#
#
#
# Elastic Compliance Matrix: (Units=1/GPa)
#
#
# Indices 1 2 3 4 5 6 
#
# 1 0.014264 -0.001348 -0.001162 -0.000334 0.005217 0.012893
# 2 -0.001348 0.014612 -0.001556 0.000157 -0.000914 0.005480
# 3 -0.001162 -0.001556 0.017964 0.002340 0.008197 0.003755
# 4 -0.000334 0.000157 0.002340 0.028771 0.000683 -0.007030
# 5 0.005217 -0.000914 0.008197 0.000683 0.030548 0.012321
# 6 0.012893 0.005480 0.003755 -0.007030 0.012321 0.047808
#
#
# Mechanical properties :
#
#
# Convention : Reuss Voigt Hill
#
# Bulk Modulus (GPa) = 25.83373 40.64678 33.24025
# Shear Modulus (GPa) = 28.57120 36.23920 32.40520
#
# Velocity S-wave (km/s) = 3.40404 3.83371 3.62525
# Velocity P-wave (km/s) = 5.09188 6.00678 5.56815
#
# Compressibility (1/GPa) = 0.03870908
#
# Stress axis : x y z
#
# Youngs Moduli (GPa) = 70.10572 68.43507 55.66762
#
# Poissons Ratio (x) = 0.09222 0.06471
# Poissons Ratio (y) = 0.09447 0.08660
# Poissons Ratio (z) = 0.08149 0.10646
#
# Static dielectric constant tensor:
#      x y z
#    x 2.139340 -0.016980 -0.071410 
#    y -0.016980 2.064790 -0.033810 
#    z -0.071410 -0.033810 1.949880 
# 
# From -- ./inp_files/344204.got.cif
#   From: 2010.05.17/outbox.cif.g08.bks.cpg/sg2_173_cif.got.tgz:344204.got - 2010.06.03 11:33:40.
