data_PCOD9101365
_publ_section_title
;
Structure prediction by ZEFSAII (Michael W. Deem and Ramdas Pophale) SiO2 
 PCOD9101365
Probable space group: P -1
;
_chemical_formula_sum "Si O2"
_cell_formula_units_Z 16
_cell_length_a 11.648659
_cell_length_b 13.012722
_cell_length_c 9.241016
_cell_angle_alpha 128.888801
_cell_angle_beta 51.885597
_cell_angle_gamma 136.687898
_cell_volume 713.362647
_symmetry_space_group_name_H-M "P -1"
_symmetry_group_IT_number 2
_symmetry_cell_setting 'triclinic'
loop_
_space_group_symop_operation_xyz
x,y,z
-x,-y,-z
loop_
_atom_site_type_symbol
_atom_site_label
_atom_site_fract_x
_atom_site_fract_y
_atom_site_fract_z
Si Si1 0.799015 0.092308 0.089042
Si Si2 0.765705 0.716166 0.453555
Si Si3 0.825919 0.807209 0.148542
Si Si4 0.668246 0.183212 0.511397
Si Si5 0.308108 0.869656 0.087015
Si Si6 0.574749 0.363502 0.215923
Si Si7 0.115983 0.874497 0.512092
Si Si8 0.449378 0.274615 0.929457
O O1 0.721468 0.184661 0.306071
O O2 0.811034 0.129463 0.943424
O O3 0.671018 0.905757 0.066172
O O4 0.997221 0.156886 0.029574
O O5 0.804171 0.756785 0.289459
O O6 0.684352 0.529144 0.359712
O O7 0.612979 0.739042 0.646590
O O8 0.933508 0.804440 0.507240
O O9 0.669819 0.701461 0.064757
O O10 0.840276 0.972768 0.298382
O O11 0.842083 0.223124 0.497273
O O12 0.598441 0.282575 0.721058
O O13 0.500000 0.000000 0.500000
O O14 0.313866 0.714354 0.954499
O O15 0.258163 0.913418 0.312654
O O16 0.500000 0.000000 0.000000
O O17 0.527821 0.382875 0.105520
#
# Coordination Sequence:
#
# PCOD9101365 Si02
#       8
#     2   2   2   2   2   2   2   2
#     4  11  22  37  59 101 125 158 205 262 321 363
#     4  11  27  43  63  93 128 172 208 259 313 378
#     4  12  24  39  64  97 129 161 207 266 311 374
#     4  10  20  38  58  95 128 160 203 259 322 361
#     4  12  22  38  68  94 122 163 210 266 312 371
#     4  11  25  46  65  89 128 169 215 254 318 376
#     4  12  22  40  65  96 127 161 211 266 311 364
#     4  11  22  39  65  91 128 165 204 262 312 370
#
# _framework density 22.428985000000001
#
# number of rings (size 3 to 8) (size 9 to 14) (size 15 to 20)
#    0.000    0.750    6.250    3.000    3.500    1.000 
#    0.000    0.000    0.000    1.500    0.000    0.000 
#    0.000    0.000    0.000    0.000    0.000    0.000 
#
# Total GULP energy -89359.395552 kJ/mol
# GULP energy per Si atom -5584.962222 kJ/mol
# Density = 2.237794 g / cm^3
# Si number density = 22.428985 Si / 1000 Ang^3
#
#
#
# Elastic Constant Matrix: (Units=GPa)
#
#
# Indices 1 2 3 4 5 6 
#
# 1 81.4682 10.5833 -11.1816 1.4473 3.2708 6.2457
# 2 10.5833 17.9753 8.0821 3.3138 -6.1070 5.5640
# 3 -11.1816 8.0821 103.8550 -14.4963 -5.1611 6.0892
# 4 1.4473 3.3138 -14.4963 22.8463 6.9642 4.7498
# 5 3.2708 -6.1070 -5.1611 6.9642 46.0085 -4.9652
# 6 6.2457 5.5640 6.0892 4.7498 -4.9652 15.1315
#
#
#
# Elastic Compliance Matrix: (Units=1/GPa)
#
#
# Indices 1 2 3 4 5 6 
#
# 1 0.014577 -0.010195 0.003254 0.004977 -0.003455 -0.006273
# 2 -0.010195 0.075626 -0.008042 -0.016402 0.011094 -0.011575
# 3 0.003254 -0.008042 0.012509 0.011251 -0.002435 -0.007750
# 4 0.004977 -0.016402 0.011251 0.062104 -0.013304 -0.024410
# 5 -0.003455 0.011094 -0.002435 -0.013304 0.026399 0.011165
# 6 -0.006273 -0.011575 -0.007750 -0.024410 0.011165 0.087378
#
#
# Mechanical properties :
#
#
# Convention : Reuss Voigt Hill
#
# Bulk Modulus (GPa) = 13.74667 24.25179 18.99923
# Shear Modulus (GPa) = 15.02371 29.85159 22.43765
#
# Velocity S-wave (km/s) = 2.59092 3.65216 3.16632
# Velocity P-wave (km/s) = 3.88494 5.34982 4.67511
#
# Compressibility (1/GPa) = 0.07274490
#
# Stress axis : x y z
#
# Youngs Moduli (GPa) = 68.60159 13.22292 79.94362
#
# Poissons Ratio (x) = 0.13481 -0.26011
# Poissons Ratio (y) = 0.69938 0.64293
# Poissons Ratio (z) = -0.22321 0.10634
#
# Static dielectric constant tensor:
#      x y z
#    x 2.214980 0.146290 0.036460 
#    y 0.146290 1.939610 0.027530 
#    z 0.036460 0.027530 1.797260 
# 
# From -- ./inp_files/190928.got.cif
#   From: 2010.05.17/outbox.cif.g08.bks.cpg/sg2_96_cif.got.tgz:190928.got - 2010.06.03 11:33:40.
