data_PCOD9101812
_publ_section_title
;
Structure prediction by ZEFSAII (Michael W. Deem and Ramdas Pophale) SiO2 
 PCOD9101812
Probable space group: P -1
;
_chemical_formula_sum "Si O2"
_cell_formula_units_Z 16
_cell_length_a 8.400753
_cell_length_b 19.189090
_cell_length_c 11.972856
_cell_angle_alpha 28.758733
_cell_angle_beta 59.503824
_cell_angle_gamma 58.776918
_cell_volume 787.464024
_symmetry_space_group_name_H-M "P -1"
_symmetry_group_IT_number 2
_symmetry_cell_setting 'triclinic'
loop_
_space_group_symop_operation_xyz
x,y,z
-x,-y,-z
loop_
_atom_site_type_symbol
_atom_site_label
_atom_site_fract_x
_atom_site_fract_y
_atom_site_fract_z
Si Si1 0.793318 0.199627 0.285660
Si Si2 0.021361 0.292631 0.879171
Si Si3 0.061543 0.359792 0.526707
Si Si4 0.837391 0.420890 0.121607
Si Si5 0.712346 0.397046 0.441147
Si Si6 0.482098 0.997293 0.377704
Si Si7 0.372909 0.306543 0.328813
Si Si8 0.583790 0.719039 0.137407
O O1 0.913961 0.272611 0.230870
O O2 0.593653 0.303635 0.239298
O O3 0.720739 0.044497 0.529488
O O4 0.879281 0.219241 0.106967
O O5 0.968295 0.467385 0.676372
O O6 0.231967 0.246663 0.914201
O O7 0.016061 0.275391 0.772299
O O8 0.915117 0.345983 0.499204
O O9 0.274153 0.316687 0.469496
O O10 0.725935 0.380490 0.326779
O O11 0.728440 0.554789 0.898685
O O12 0.000000 0.500000 0.000000
O O13 0.646427 0.569304 0.254408
O O14 0.564462 0.313590 0.671823
O O15 0.500000 0.000000 0.500000
O O16 0.635795 0.857129 0.482449
O O17 0.499719 0.148148 0.100514
#
# Coordination Sequence:
#
# PCOD9101812 Si02
#       8
#     2   2   2   2   2   2   2   2
#     4  10  24  38  65  95 122 179 203 264 328 373
#     4  10  21  37  64  91 132 158 209 274 309 389
#     4  10  20  38  60  99 123 160 212 263 334 370
#     4  12  20  38  65  99 129 153 220 267 315 374
#     4  10  22  36  68  91 124 166 207 279 320 372
#     4  10  24  42  64  88 134 176 216 258 319 393
#     4  10  22  39  64  93 131 164 213 263 319 389
#     4  10  22  42  59  95 125 169 220 254 328 380
#
# _framework density 20.318387999999999
#
# number of rings (size 3 to 8) (size 9 to 14) (size 15 to 20)
#    0.750    1.000    2.500    1.875    3.500    2.500 
#    0.000    3.125    0.000    0.000    0.000    0.000 
#    0.000    0.000    0.000    0.000    0.000    0.000 
#
# Total GULP energy -89154.103428 kJ/mol
# GULP energy per Si atom -5572.131464 kJ/mol
# Density = 2.027214 g / cm^3
# Si number density = 20.318388 Si / 1000 Ang^3
#
#
#
# Elastic Constant Matrix: (Units=GPa)
#
#
# Indices 1 2 3 4 5 6 
#
# 1 23.1666 28.4101 19.2779 2.8478 -14.5241 1.3623
# 2 28.4101 50.3080 60.1780 23.6280 14.7672 2.9150
# 3 19.2779 60.1780 133.7039 22.7930 0.2069 5.8087
# 4 2.8478 23.6280 22.7930 39.9211 -0.5977 -3.8448
# 5 -14.5241 14.7672 0.2069 -0.5977 21.7212 10.3946
# 6 1.3623 2.9150 5.8087 -3.8448 10.3946 25.3135
#
#
#
# Elastic Compliance Matrix: (Units=1/GPa)
#
#
# Indices 1 2 3 4 5 6 
#
# 1 -0.007059 0.033208 -0.012403 -0.011489 -0.032823 0.011135
# 2 0.033208 -0.008181 -0.000880 0.002088 0.034834 -0.014630
# 3 -0.012403 -0.000880 0.010401 -0.004547 -0.008481 0.001174
# 4 -0.011489 0.002088 -0.004547 0.028114 -0.013701 0.011317
# 5 -0.032823 0.034834 -0.008481 -0.013701 0.001557 -0.003019
# 6 0.011135 -0.014630 0.001174 0.011317 -0.003019 0.043279
#
#
# Mechanical properties :
#
#
# Convention : Reuss Voigt Hill
#
# Bulk Modulus (GPa) = 28.56267 46.99005 37.77636
# Shear Modulus (GPa) = 125.21678 24.01200 74.61439
#
# Velocity S-wave (km/s) = 7.85882 3.44144 6.06649
# Velocity P-wave (km/s) = 9.82019 6.24247 8.22814
#
# Compressibility (1/GPa) = 0.03501073
#
# Stress axis : x y z
#
# Youngs Moduli (GPa) = -141.67188 -122.22835 96.14611
#
# Poissons Ratio (x) = 4.05899 1.19252
# Poissons Ratio (y) = 4.70467 0.08462
# Poissons Ratio (z) = -1.75719 -0.10757
#
# Static dielectric constant tensor:
#      x y z
#    x 1.897770 0.048020 -0.104790 
#    y 0.048020 1.756390 -0.019030 
#    z -0.104790 -0.019030 1.772680 
# 
# From -- ./inp_files/404019.got.cif
#   From: 2010.05.17/outbox.cif.g08.bks.cpg/sg2_203_cif.got.tgz:404019.got - 2010.06.03 11:33:40.
