data_PCOD9101938
_publ_section_title
;
Structure prediction by ZEFSAII (Michael W. Deem and Ramdas Pophale) SiO2 
 PCOD9101938
Probable space group: P -1
;
_chemical_formula_sum "Si O2"
_cell_formula_units_Z 14
_cell_length_a 12.131459
_cell_length_b 12.732714
_cell_length_c 14.310692
_cell_angle_alpha 40.170746
_cell_angle_beta 151.985042
_cell_angle_gamma 126.491539
_cell_volume 646.066428
_symmetry_space_group_name_H-M "P -1"
_symmetry_group_IT_number 2
_symmetry_cell_setting 'triclinic'
loop_
_space_group_symop_operation_xyz
x,y,z
-x,-y,-z
loop_
_atom_site_type_symbol
_atom_site_label
_atom_site_fract_x
_atom_site_fract_y
_atom_site_fract_z
Si Si1 0.483517 0.747267 0.408547
Si Si2 0.993126 0.597056 0.828584
Si Si3 0.018826 0.237424 0.771147
Si Si4 0.622027 0.034812 0.660456
Si Si5 0.638465 0.172263 0.033152
Si Si6 0.729434 0.951977 0.071496
Si Si7 0.199330 0.484703 0.440180
O O1 0.711076 0.697703 0.546062
O O2 0.560626 0.835187 0.497075
O O3 0.378983 0.592586 0.462248
O O4 0.273529 0.890290 0.105479
O O5 0.005848 0.503434 0.801725
O O6 0.000000 0.500000 0.000000
O O7 0.177090 0.714315 0.888231
O O8 0.821083 0.135124 0.716604
O O9 0.918258 0.420692 0.617298
O O10 0.085444 0.205342 0.733442
O O11 0.255245 0.135901 0.075665
O O12 0.500000 0.000000 0.500000
O O13 0.380194 0.301333 0.720761
O O14 0.751150 0.029134 0.137564
O O15 0.538575 0.082709 0.104942
#
# Coordination Sequence:
#
# PCOD9101938 Si02
#       7
#     2   2   2   2   2   2   2
#     4  10  20  38  61  88 118 150 195 245 291 342
#     4  12  23  35  64  90 115 156 195 245 295 339
#     4   9  21  37  58  81 122 153 188 241 297 334
#     4   9  19  33  56  89 116 149 193 239 286 354
#     4  11  24  40  62  86 119 155 202 237 290 353
#     4  10  22  44  58  85 123 157 190 247 292 346
#     4  11  22  41  60  91 118 151 199 244 284 356
#
# _framework density 21.669599000000002
#
# number of rings (size 3 to 8) (size 9 to 14) (size 15 to 20)
#    0.000    1.714    2.857    2.143    4.000    1.143 
#    0.000    0.714    0.000    0.000    0.000    0.000 
#    0.000    0.000    0.000    0.000    0.000    0.000 
#
# Total GULP energy -78016.273855 kJ/mol
# GULP energy per Si atom -5572.590990 kJ/mol
# Density = 2.162028 g / cm^3
# Si number density = 21.669599 Si / 1000 Ang^3
#
#
#
# Elastic Constant Matrix: (Units=GPa)
#
#
# Indices 1 2 3 4 5 6 
#
# 1 93.3388 27.4887 4.9396 -16.3721 23.2479 -26.1507
# 2 27.4887 103.2620 20.5967 -8.1523 1.9615 -16.8760
# 3 4.9396 20.5967 42.5412 -13.2613 1.5120 -13.0756
# 4 -16.3721 -8.1523 -13.2613 22.1801 -2.0303 -5.7893
# 5 23.2479 1.9615 1.5120 -2.0303 25.9825 -7.2518
# 6 -26.1507 -16.8760 -13.0756 -5.7893 -7.2518 42.6064
#
#
#
# Elastic Compliance Matrix: (Units=1/GPa)
#
#
# Indices 1 2 3 4 5 6 
#
# 1 0.026421 -0.003937 0.015675 0.031459 -0.015927 0.021032
# 2 -0.003937 0.011817 -0.005505 -0.001329 0.003104 0.000923
# 3 0.015675 -0.005505 0.046390 0.043754 -0.005439 0.026697
# 4 0.031459 -0.001329 0.043754 0.104753 -0.009917 0.044756
# 5 -0.015927 0.003104 -0.005439 -0.009917 0.051253 -0.002839
# 6 0.021032 0.000923 0.026697 0.044756 -0.002839 0.050536
#
#
# Mechanical properties :
#
#
# Convention : Reuss Voigt Hill
#
# Bulk Modulus (GPa) = 10.29916 38.35466 24.32691
# Shear Modulus (GPa) = 16.07365 30.56161 23.31763
#
# Velocity S-wave (km/s) = 2.72648 3.75953 3.28388
# Velocity P-wave (km/s) = 3.83076 6.04844 5.06253
#
# Compressibility (1/GPa) = 0.09709532
#
# Stress axis : x y z
#
# Youngs Moduli (GPa) = 37.84870 84.62362 21.55628
#
# Poissons Ratio (x) = 0.33313 -0.33790
# Poissons Ratio (y) = 0.14900 0.11867
# Poissons Ratio (z) = -0.59329 0.46587
#
# Static dielectric constant tensor:
#      x y z
#    x 1.842840 -0.061240 0.015150 
#    y -0.061240 1.814250 -0.062710 
#    z 0.015150 -0.062710 1.846790 
# 
# From -- ./inp_files/71042.got.cif
#   From: 2010.05.17/outbox.cif.g08.bks.cpg/sg2_36_cif.got.tgz:71042.got - 2010.06.03 11:33:40.
