data_PCOD9101763
_publ_section_title
;
Structure prediction by ZEFSAII (Michael W. Deem and Ramdas Pophale) SiO2 
 PCOD9101763
Probable space group: P -1
;
_chemical_formula_sum "Si O2"
_cell_formula_units_Z 14
_cell_length_a 6.653768
_cell_length_b 9.160095
_cell_length_c 10.365363
_cell_angle_alpha 84.132389
_cell_angle_beta 120.479318
_cell_angle_gamma 76.461925
_cell_volume 510.590896
_symmetry_space_group_name_H-M "P -1"
_symmetry_group_IT_number 2
_symmetry_cell_setting 'triclinic'
loop_
_space_group_symop_operation_xyz
x,y,z
-x,-y,-z
loop_
_atom_site_type_symbol
_atom_site_label
_atom_site_fract_x
_atom_site_fract_y
_atom_site_fract_z
Si Si1 0.882464 0.362950 0.623283
Si Si2 0.299935 0.587873 0.173769
Si Si3 0.903745 0.922660 0.593255
Si Si4 0.239986 0.273837 0.103089
Si Si5 0.414568 0.932935 0.301353
Si Si6 0.587398 0.826629 0.102400
Si Si7 0.182172 0.595180 0.694994
O O1 0.137332 0.223637 0.744605
O O2 0.975851 0.513182 0.645508
O O3 0.693297 0.372475 0.676302
O O4 0.793849 0.358846 0.450486
O O5 0.249881 0.421902 0.169984
O O6 0.556772 0.538988 0.184263
O O7 0.047454 0.702529 0.019892
O O8 0.798134 0.042451 0.664268
O O9 0.100993 0.761451 0.722388
O O10 0.674658 0.875267 0.465972
O O11 0.000000 0.000000 0.500000
O O12 0.373930 0.111239 0.229831
O O13 0.368100 0.272475 0.005995
O O14 0.420918 0.842113 0.177031
O O15 0.500000 0.000000 0.000000
#
# Coordination Sequence:
#
# PCOD9101763 Si02
#       7
#     2   2   2   2   2   2   2
#     4  10  21  39  61  94 123 164 207 253 315 364
#     4  10  20  38  60  91 124 162 202 256 309 371
#     4  11  23  38  62  93 122 160 210 260 310 370
#     4   9  19  37  65  89 124 168 205 250 313 372
#     4  10  20  40  60  86 123 165 203 256 311 360
#     4   9  18  38  65  87 122 167 204 246 307 371
#     4  11  22  38  62  92 126 160 208 259 309 371
#
# _framework density 27.419215999999999
#
# number of rings (size 3 to 8) (size 9 to 14) (size 15 to 20)
#    0.000    2.000    1.429    2.143    0.000    1.143 
#    2.571   15.714    0.000   11.143    0.000    0.000 
#    0.000    0.000    0.000    0.000    0.000    0.000 
#
# Total GULP energy -78409.037013 kJ/mol
# GULP energy per Si atom -5600.645501 kJ/mol
# Density = 2.735681 g / cm^3
# Si number density = 27.419216 Si / 1000 Ang^3
#
#
#
# Elastic Constant Matrix: (Units=GPa)
#
#
# Indices 1 2 3 4 5 6 
#
# 1 139.1426 28.9452 35.1468 9.5852 -26.6281 -35.2840
# 2 28.9452 139.6717 30.1446 -0.7939 -3.9087 -45.8246
# 3 35.1468 30.1446 101.9272 -14.8229 -14.9431 -20.9264
# 4 9.5852 -0.7939 -14.8229 55.5207 -10.6991 -8.0493
# 5 -26.6281 -3.9087 -14.9431 -10.6991 55.1350 12.9063
# 6 -35.2840 -45.8246 -20.9264 -8.0493 12.9063 46.0429
#
#
#
# Elastic Compliance Matrix: (Units=1/GPa)
#
#
# Indices 1 2 3 4 5 6 
#
# 1 0.009693 0.000510 -0.001961 -0.000795 0.002585 0.006181
# 2 0.000510 0.011052 -0.001177 0.001086 -0.001781 0.011544
# 3 -0.001961 -0.001177 0.012513 0.004600 0.002526 0.003109
# 4 -0.000795 0.001086 0.004600 0.020868 0.003783 0.005150
# 5 0.002585 -0.001781 0.002526 0.003783 0.021625 -0.004044
# 6 0.006181 0.011544 0.003109 0.005150 -0.004044 0.041392
#
#
# Mechanical properties :
#
#
# Convention : Reuss Voigt Hill
#
# Bulk Modulus (GPa) = 35.71301 63.24608 49.47955
# Shear Modulus (GPa) = 37.95583 50.44006 44.19794
#
# Velocity S-wave (km/s) = 3.72463 4.29369 4.01924
# Velocity P-wave (km/s) = 5.61696 6.90634 6.29475
#
# Compressibility (1/GPa) = 0.02800100
#
# Stress axis : x y z
#
# Youngs Moduli (GPa) = 103.16854 90.48164 79.91852
#
# Poissons Ratio (x) = -0.04616 0.15672
# Poissons Ratio (y) = -0.05263 0.09410
# Poissons Ratio (z) = 0.20231 0.10654
#
# Static dielectric constant tensor:
#      x y z
#    x 2.272870 0.062190 -0.021530 
#    y 0.062190 2.167400 -0.004540 
#    z -0.021530 -0.004540 2.052150 
# 
# From -- ./inp_files/100985.got.cif
#   From: 2010.05.17/outbox.cif.g08.bks.cpg/sg2_51_cif.got.tgz:100985.got - 2010.06.03 11:33:40.
