data_PCOD9101711
_publ_section_title
;
Structure prediction by ZEFSAII (Michael W. Deem and Ramdas Pophale) SiO2 
 PCOD9101711
Probable space group: P -1
;
_chemical_formula_sum "Si O2"
_cell_formula_units_Z 16
_cell_length_a 8.059088
_cell_length_b 7.584168
_cell_length_c 16.421153
_cell_angle_alpha 89.839381
_cell_angle_beta 90.440079
_cell_angle_gamma 143.477133
_cell_volume 597.309553
_symmetry_space_group_name_H-M "P -1"
_symmetry_group_IT_number 2
_symmetry_cell_setting 'triclinic'
loop_
_space_group_symop_operation_xyz
x,y,z
-x,-y,-z
loop_
_atom_site_type_symbol
_atom_site_label
_atom_site_fract_x
_atom_site_fract_y
_atom_site_fract_z
Si Si1 0.937828 0.026282 0.359402
Si Si2 0.589575 0.400385 0.551430
Si Si3 0.560623 0.969623 0.695978
Si Si4 0.066822 0.381484 0.596439
Si Si5 0.901363 0.580100 0.890345
Si Si6 0.861255 0.137672 0.849828
Si Si7 0.369359 0.546986 0.949030
Si Si8 0.371719 0.148680 0.797851
O O1 0.701063 0.919502 0.414676
O O2 0.979766 0.868532 0.396406
O O3 0.810987 0.906486 0.269325
O O4 0.222811 0.374708 0.372226
O O5 0.500000 0.500000 0.500000
O O6 0.783265 0.460685 0.489396
O O7 0.298908 0.641491 0.661339
O O8 0.452512 0.040527 0.747999
O O9 0.746068 0.012535 0.759029
O O10 0.770935 0.205368 0.624493
O O11 0.921734 0.398006 0.859077
O O12 0.185990 0.922920 0.872883
O O13 0.658818 0.466002 0.835309
O O14 0.807916 0.502006 0.983194
O O15 0.148580 0.296389 0.880244
O O16 0.612274 0.867115 0.908693
O O17 0.500000 0.500000 0.000000
#
# Coordination Sequence:
#
# PCOD9101711 Si02
#       8
#     2   2   2   2   2   2   2   2
#     4  11  22  39  63  89 120 160 202 250 300 355
#     4  10  20  38  60  89 121 159 203 245 297 365
#     4  11  23  40  61  89 121 157 201 248 295 356
#     4  11  21  38  63  89 118 160 204 248 296 356
#     4  11  23  43  65  86 119 167 202 235 296 373
#     4  11  23  43  64  86 122 167 199 234 299 371
#     4  12  25  41  64  96 124 150 198 260 297 339
#     4  11  24  42  61  90 124 158 200 250 299 355
#
# _framework density 26.786778999999999
#
# number of rings (size 3 to 8) (size 9 to 14) (size 15 to 20)
#    0.000    1.000    0.000   10.125    0.000    3.000 
#    0.000    3.750    0.000    0.000    0.000    0.000 
#    0.000    0.000    0.000    0.000    0.000    0.000 
#
# Total GULP energy -89784.733555 kJ/mol
# GULP energy per Si atom -5611.545847 kJ/mol
# Density = 2.672581 g / cm^3
# Si number density = 26.786779 Si / 1000 Ang^3
#
#
#
# Elastic Constant Matrix: (Units=GPa)
#
#
# Indices 1 2 3 4 5 6 
#
# 1 78.7135 17.3858 4.3252 -3.5978 4.0697 9.1831
# 2 17.3858 121.7837 8.1997 -3.3450 -4.3270 22.8964
# 3 4.3252 8.1997 68.2986 -0.7722 13.2591 -0.3863
# 4 -3.5978 -3.3450 -0.7722 57.2881 0.6425 0.8284
# 5 4.0697 -4.3270 13.2591 0.6425 38.1867 3.1403
# 6 9.1831 22.8964 -0.3863 0.8284 3.1403 31.9259
#
#
#
# Elastic Compliance Matrix: (Units=1/GPa)
#
#
# Indices 1 2 3 4 5 6 
#
# 1 0.013461 -0.001389 -0.000456 0.000812 -0.001219 -0.002783
# 2 -0.001389 0.009932 -0.001603 0.000545 0.002396 -0.006993
# 3 -0.000456 -0.001603 0.016014 0.000130 -0.005864 0.002048
# 4 0.000812 0.000545 0.000130 0.017559 -0.000279 -0.001051
# 5 -0.001219 0.002396 -0.005864 -0.000279 0.028981 -0.004282
# 6 -0.002783 -0.006993 0.002048 -0.001051 -0.004282 0.037611
#
#
# Mechanical properties :
#
#
# Convention : Reuss Voigt Hill
#
# Bulk Modulus (GPa) = 30.75742 36.51301 33.63521
# Shear Modulus (GPa) = 35.38786 41.40582 38.39684
#
# Velocity S-wave (km/s) = 3.63863 3.93588 3.79017
# Velocity P-wave (km/s) = 5.40001 5.85793 5.63363
#
# Compressibility (1/GPa) = 0.03251248
#
# Stress axis : x y z
#
# Youngs Moduli (GPa) = 74.28950 100.68144 62.44385
#
# Poissons Ratio (x) = 0.13983 0.02846
# Poissons Ratio (y) = 0.10318 0.10010
# Poissons Ratio (z) = 0.03385 0.16139
#
# Static dielectric constant tensor:
#      x y z
#    x 2.201950 0.043530 0.008990 
#    y 0.043530 1.948390 0.003190 
#    z 0.008990 0.003190 2.121010 
# 
# From -- ./inp_files/217581.got.cif
#   From: 2010.05.17/outbox.cif.g08.bks.cpg/sg2_109_cif.got.tgz:217581.got - 2010.06.03 11:33:40.
