data_PCOD9101255
_publ_section_title
;
Structure prediction by ZEFSAII (Michael W. Deem and Ramdas Pophale) SiO2 
 PCOD9101255
Probable space group: P -1
;
_chemical_formula_sum "Si O2"
_cell_formula_units_Z 16
_cell_length_a 6.969948
_cell_length_b 17.716484
_cell_length_c 6.997369
_cell_angle_alpha 126.578231
_cell_angle_beta 61.041397
_cell_angle_gamma 113.712479
_cell_volume 599.129899
_symmetry_space_group_name_H-M "P -1"
_symmetry_group_IT_number 2
_symmetry_cell_setting 'triclinic'
loop_
_space_group_symop_operation_xyz
x,y,z
-x,-y,-z
loop_
_atom_site_type_symbol
_atom_site_label
_atom_site_fract_x
_atom_site_fract_y
_atom_site_fract_z
Si Si1 0.855182 0.151165 0.165758
Si Si2 0.803666 0.667671 0.588189
Si Si3 0.116830 0.422118 0.219264
Si Si4 0.787304 0.938452 0.283724
Si Si5 0.231344 0.581178 0.123725
Si Si6 0.583535 0.062035 0.863221
Si Si7 0.329049 0.673697 0.844207
Si Si8 0.532252 0.222854 0.692080
O O1 0.705825 0.157572 0.056508
O O2 0.972427 0.062061 0.919607
O O3 0.677172 0.151463 0.419024
O O4 0.055116 0.230132 0.268076
O O5 0.740166 0.618149 0.749625
O O6 0.988884 0.615190 0.318665
O O7 0.562438 0.671777 0.620774
O O8 0.000000 0.500000 0.500000
O O9 0.235940 0.482265 0.078381
O O10 0.911663 0.338924 0.152649
O O11 0.620162 0.935719 0.180590
O O12 0.713100 0.835911 0.272840
O O13 0.752153 0.017222 0.574518
O O14 0.278185 0.581130 0.875734
O O15 0.399107 0.671580 0.269928
O O16 0.500000 0.000000 0.000000
O O17 0.380903 0.754506 0.102025
#
# Coordination Sequence:
#
# PCOD9101255 Si02
#       8
#     2   2   2   2   2   2   2   2
#     4  11  21  42  66  91 129 167 210 261 312 380
#     4  10  21  36  61  88 117 167 202 246 315 360
#     4  10  21  37  58  90 124 161 210 253 303 369
#     4  11  23  45  66  93 131 170 203 258 328 365
#     4   8  19  36  57  84 120 158 199 255 296 358
#     4  11  25  43  67  98 129 163 210 262 312 388
#     4  10  20  38  58  81 123 159 202 257 306 355
#     4   9  20  38  63  89 124 165 212 256 308 376
#
# _framework density 26.705393000000001
#
# number of rings (size 3 to 8) (size 9 to 14) (size 15 to 20)
#    0.750    1.250    2.500    0.750    1.750    3.000 
#    2.250    3.750    0.000    0.000    0.000    0.000 
#    0.000    0.000    0.000    0.000    0.000    0.000 
#
# Total GULP energy -89256.777509 kJ/mol
# GULP energy per Si atom -5578.548594 kJ/mol
# Density = 2.664461 g / cm^3
# Si number density = 26.705393 Si / 1000 Ang^3
#
#
#
# Elastic Constant Matrix: (Units=GPa)
#
#
# Indices 1 2 3 4 5 6 
#
# 1 105.9132 10.6272 36.9816 -7.6613 -3.2553 7.1469
# 2 10.6272 94.5615 18.2875 0.7639 14.8715 25.1431
# 3 36.9816 18.2875 96.1245 -11.1663 -16.0447 16.2808
# 4 -7.6613 0.7639 -11.1663 31.4879 12.4205 5.4602
# 5 -3.2553 14.8715 -16.0447 12.4205 43.3532 -7.1557
# 6 7.1469 25.1431 16.2808 5.4602 -7.1557 33.6410
#
#
#
# Elastic Compliance Matrix: (Units=1/GPa)
#
#
# Indices 1 2 3 4 5 6 
#
# 1 0.011033 0.000027 -0.004088 0.001971 -0.001425 -0.001009
# 2 0.000027 0.016295 -0.001730 0.005515 -0.010186 -0.014410
# 3 -0.004088 -0.001730 0.014064 0.003280 0.003832 -0.004363
# 4 0.001971 0.005515 0.003280 0.042100 -0.015266 -0.016208
# 5 -0.001425 -0.010186 0.003832 -0.015266 0.034879 0.015958
# 6 -0.001009 -0.014410 -0.004363 -0.016208 0.015958 0.048846
#
#
# Mechanical properties :
#
#
# Convention : Reuss Voigt Hill
#
# Bulk Modulus (GPa) = 33.54348 47.59911 40.57129
# Shear Modulus (GPa) = 26.49194 37.07660 31.78427
#
# Velocity S-wave (km/s) = 3.15303 3.73011 3.45364
# Velocity P-wave (km/s) = 5.08363 6.03441 5.57931
#
# Compressibility (1/GPa) = 0.02981205
#
# Stress axis : x y z
#
# Youngs Moduli (GPa) = 90.63538 61.36710 71.10107
#
# Poissons Ratio (x) = -0.00166 0.29065
# Poissons Ratio (y) = -0.00245 0.12298
# Poissons Ratio (z) = 0.37051 0.10614
#
# Static dielectric constant tensor:
#      x y z
#    x 1.502840 -0.265160 0.084020 
#    y -0.265160 2.290700 0.058070 
#    z 0.084020 0.058070 2.027060 
# 
# From -- ./inp_files/142339.got.cif
#   From: 2010.05.17/outbox.cif.g08.bks.cpg/sg2_72_cif.got.tgz:142339.got - 2010.06.03 11:33:40.
