data_PCOD9101312
_publ_section_title
;
Structure prediction by ZEFSAII (Michael W. Deem and Ramdas Pophale) SiO2 
 PCOD9101312
Probable space group: P -1
;
_chemical_formula_sum "Si O2"
_cell_formula_units_Z 16
_cell_length_a 8.068199
_cell_length_b 22.439880
_cell_length_c 11.515681
_cell_angle_alpha 143.251438
_cell_angle_beta 43.820909
_cell_angle_gamma 147.177952
_cell_volume 668.639802
_symmetry_space_group_name_H-M "P -1"
_symmetry_group_IT_number 2
_symmetry_cell_setting 'triclinic'
loop_
_space_group_symop_operation_xyz
x,y,z
-x,-y,-z
loop_
_atom_site_type_symbol
_atom_site_label
_atom_site_fract_x
_atom_site_fract_y
_atom_site_fract_z
Si Si1 0.655194 0.660090 0.220074
Si Si2 0.420231 0.234725 0.878389
Si Si3 0.306177 0.829837 0.537121
Si Si4 0.871338 0.093495 0.747517
Si Si5 0.910814 0.352874 0.442037
Si Si6 0.492337 0.108244 0.115794
Si Si7 0.558905 0.540626 0.824935
Si Si8 0.142767 0.003000 0.811764
O O1 0.313506 0.620223 0.350409
O O2 0.701314 0.601436 0.216250
O O3 0.912732 0.812894 0.319238
O O4 0.676420 0.609195 0.003409
O O5 0.663213 0.250351 0.693615
O O6 0.100819 0.149496 0.829982
O O7 0.373009 0.146982 0.870781
O O8 0.504152 0.371456 0.069708
O O9 0.068531 0.728086 0.595532
O O10 0.242034 0.915632 0.638270
O O11 0.646543 0.941349 0.597302
O O12 0.627063 0.117429 0.935840
O O13 0.718707 0.244202 0.272413
O O14 0.220185 0.458729 0.378203
O O15 0.158798 0.067517 0.226195
O O16 0.500000 0.000000 0.000000
O O17 0.000000 0.000000 0.000000
#
# Coordination Sequence:
#
# PCOD9101312 Si02
#       8
#     2   2   2   2   2   2   2   2
#     4  10  22  35  58  90 116 156 199 246 287 338
#     4  11  21  38  57  86 120 157 190 250 288 348
#     4  12  23  35  57  94 121 156 191 232 310 359
#     4  11  20  37  58  85 125 149 190 240 294 349
#     4  12  20  37  62  89 119 156 193 244 296 350
#     4  12  20  35  57  85 120 156 192 236 295 356
#     4  10  20  38  58  87 119 149 204 248 287 333
#     4  12  23  36  54  86 124 160 192 233 298 366
#
# _framework density 23.929179000000001
#
# number of rings (size 3 to 8) (size 9 to 14) (size 15 to 20)
#    0.000    0.750    8.750    1.875    1.750    0.000 
#    0.000    0.000    0.000    0.750    0.000    5.250 
#    0.000    0.000    0.000    0.000    0.000    0.000 
#
# Total GULP energy -89222.599778 kJ/mol
# GULP energy per Si atom -5576.412486 kJ/mol
# Density = 2.387471 g / cm^3
# Si number density = 23.929179 Si / 1000 Ang^3
#
#
#
# Elastic Constant Matrix: (Units=GPa)
#
#
# Indices 1 2 3 4 5 6 
#
# 1 46.6308 21.8111 4.8287 6.5536 -20.0056 -21.0731
# 2 21.8111 139.5382 25.8709 -30.0735 -6.6197 -45.9793
# 3 4.8287 25.8709 103.7354 -17.7255 -14.4718 -10.8618
# 4 6.5536 -30.0735 -17.7255 31.4484 -12.5393 3.4524
# 5 -20.0056 -6.6197 -14.4718 -12.5393 29.0474 4.4534
# 6 -21.0731 -45.9793 -10.8618 3.4524 4.4534 30.5406
#
#
#
# Elastic Compliance Matrix: (Units=1/GPa)
#
#
# Indices 1 2 3 4 5 6 
#
# 1 0.054565 0.012918 0.009080 0.018397 0.045066 0.051676
# 2 0.012918 0.026024 0.006078 0.030622 0.024448 0.043228
# 3 0.009080 0.006078 0.015701 0.019642 0.021543 0.015638
# 4 0.018397 0.030622 0.019642 0.086947 0.059725 0.047244
# 5 0.045066 0.024448 0.021543 0.059725 0.099220 0.054344
# 6 0.051676 0.043228 0.015638 0.047244 0.054344 0.125777
#
#
# Mechanical properties :
#
#
# Convention : Reuss Voigt Hill
#
# Bulk Modulus (GPa) = 6.55990 43.88065 25.22028
# Shear Modulus (GPa) = 12.41018 34.03353 23.22186
#
# Velocity S-wave (km/s) = 2.27980 3.77538 3.11857
# Velocity P-wave (km/s) = 3.11084 6.11410 4.85075
#
# Compressibility (1/GPa) = 0.15244126
#
# Stress axis : x y z
#
# Youngs Moduli (GPa) = 18.32692 38.42584 63.69214
#
# Poissons Ratio (x) = -0.49640 -0.57831
# Poissons Ratio (y) = -0.23675 -0.38711
# Poissons Ratio (z) = -0.16640 -0.23355
#
# Static dielectric constant tensor:
#      x y z
#    x 2.054560 -0.039500 -0.039930 
#    y -0.039500 1.993620 -0.029600 
#    z -0.039930 -0.029600 1.978870 
# 
# From -- ./inp_files/177822.got.cif
#   From: 2010.05.17/outbox.cif.g08.bks.cpg/sg2_89_cif.got.tgz:177822.got - 2010.06.03 11:33:40.
