data_PCOD9101104
_publ_section_title
;
Structure prediction by ZEFSAII (Michael W. Deem and Ramdas Pophale) SiO2 
 PCOD9101104
Probable space group: P -1
;
_chemical_formula_sum "Si O2"
_cell_formula_units_Z 16
_cell_length_a 6.763093
_cell_length_b 6.937056
_cell_length_c 14.414907
_cell_angle_alpha 75.346729
_cell_angle_beta 95.511988
_cell_angle_gamma 61.248269
_cell_volume 554.403894
_symmetry_space_group_name_H-M "P -1"
_symmetry_group_IT_number 2
_symmetry_cell_setting 'triclinic'
loop_
_space_group_symop_operation_xyz
x,y,z
-x,-y,-z
loop_
_atom_site_type_symbol
_atom_site_label
_atom_site_fract_x
_atom_site_fract_y
_atom_site_fract_z
Si Si1 0.902421 0.565423 0.308320
Si Si2 0.799035 0.607508 0.831790
Si Si3 0.097712 0.981659 0.781949
Si Si4 0.240759 0.054656 0.457721
Si Si5 0.783454 0.139132 0.903400
Si Si6 0.516896 0.734204 0.970495
Si Si7 0.552385 0.349060 0.614968
Si Si8 0.401417 0.769027 0.671945
O O1 0.972637 0.493553 0.210559
O O2 0.770376 0.227385 0.259007
O O3 0.656276 0.650934 0.338169
O O4 0.072939 0.328164 0.402089
O O5 0.760759 0.388236 0.861293
O O6 0.745427 0.684625 0.929194
O O7 0.582968 0.804192 0.735746
O O8 0.296541 0.914578 0.876600
O O9 0.060407 0.216454 0.705106
O O10 0.874220 0.017031 0.822465
O O11 0.263421 0.904306 0.386525
O O12 0.220561 0.938410 0.565142
O O13 0.500000 0.000000 0.500000
O O14 0.552830 0.173936 0.938120
O O15 0.000000 0.000000 0.000000
O O16 0.500000 0.500000 0.000000
O O17 0.500000 0.500000 0.500000
O O18 0.575946 0.523678 0.662404
#
# Coordination Sequence:
#
# PCOD9101104 Si02
#       8
#     2   2   2   2   2   2   2   2
#     4  11  22  38  59  87 114 156 205 240 298 337
#     4   9  17  31  55  86 110 150 191 238 292 338
#     4   9  18  31  57  87 116 147 195 242 287 347
#     4  11  22  40  61  82 115 157 202 249 294 345
#     4   8  14  27  47  87 116 138 180 237 295 342
#     4   8  14  27  52  84 123 140 177 245 298 337
#     4  10  25  42  56  81 118 159 203 248 297 349
#     4  10  20  38  53  82 119 152 197 247 289 351
#
# _framework density 28.859824
#
# number of rings (size 3 to 8) (size 9 to 14) (size 15 to 20)
#    0.000    2.500    1.250    0.750    1.750    4.000 
#    6.750    0.000    0.000    0.000    0.000  110.250 
#    0.000    0.000    0.000    0.000    0.000    0.000 
#
# Total GULP energy -89347.881132 kJ/mol
# GULP energy per Si atom -5584.242571 kJ/mol
# Density = 2.879414 g / cm^3
# Si number density = 28.859824 Si / 1000 Ang^3
#
#
#
# Elastic Constant Matrix: (Units=GPa)
#
#
# Indices 1 2 3 4 5 6 
#
# 1 108.7966 34.9876 56.7126 8.1438 -39.4156 -18.7664
# 2 34.9876 145.6258 68.9058 4.3335 -9.1484 -26.0732
# 3 56.7126 68.9058 168.3119 25.4408 -33.7445 -15.1453
# 4 8.1438 4.3335 25.4408 94.2263 -26.0414 -16.2151
# 5 -39.4156 -9.1484 -33.7445 -26.0414 57.4306 0.2020
# 6 -18.7664 -26.0732 -15.1453 -16.2151 0.2020 45.9378
#
#
#
# Elastic Compliance Matrix: (Units=1/GPa)
#
#
# Indices 1 2 3 4 5 6 
#
# 1 0.015426 -0.000751 -0.002777 0.003358 0.010337 0.006100
# 2 -0.000751 0.009400 -0.003498 0.001159 -0.000562 0.004287
# 3 -0.002777 -0.003498 0.008889 -0.001560 0.002056 -0.000748
# 4 0.003358 0.001159 -0.001560 0.013974 0.007886 0.006413
# 5 0.010337 -0.000562 0.002056 0.007886 0.029176 0.007237
# 6 0.006100 0.004287 -0.000748 0.006413 0.007237 0.028679
#
#
# Mechanical properties :
#
#
# Convention : Reuss Voigt Hill
#
# Bulk Modulus (GPa) = 50.84990 82.66070 66.75530
# Shear Modulus (GPa) = 39.63578 56.99414 48.31496
#
# Velocity S-wave (km/s) = 3.70995 4.44876 4.09605
# Velocity P-wave (km/s) = 6.00079 7.42246 6.74916
#
# Compressibility (1/GPa) = 0.01966572
#
# Stress axis : x y z
#
# Youngs Moduli (GPa) = 64.82476 106.38348 112.49393
#
# Poissons Ratio (x) = 0.07987 0.31235
# Poissons Ratio (y) = 0.04867 0.39345
# Poissons Ratio (z) = 0.17999 0.37208
#
# Static dielectric constant tensor:
#      x y z
#    x 2.384770 0.075830 -0.076170 
#    y 0.075830 2.352450 -0.050620 
#    z -0.076170 -0.050620 2.421310 
# 
# From -- ./inp_files/494648.got.cif
#   From: 2010.05.17/outbox.cif.g08.bks.cpg/sg2_248_cif.got.tgz:494648.got - 2010.06.03 11:33:40.
