data_PCOD9101159
_publ_section_title
;
Structure prediction by ZEFSAII (Michael W. Deem and Ramdas Pophale) SiO2 
 PCOD9101159
Probable space group: P -1
;
_chemical_formula_sum "Si O2"
_cell_formula_units_Z 14
_cell_length_a 24.891858
_cell_length_b 6.734845
_cell_length_c 14.774320
_cell_angle_alpha 70.322227
_cell_angle_beta 163.759669
_cell_angle_gamma 110.879267
_cell_volume 647.054897
_symmetry_space_group_name_H-M "P -1"
_symmetry_group_IT_number 2
_symmetry_cell_setting 'triclinic'
loop_
_space_group_symop_operation_xyz
x,y,z
-x,-y,-z
loop_
_atom_site_type_symbol
_atom_site_label
_atom_site_fract_x
_atom_site_fract_y
_atom_site_fract_z
Si Si1 0.929263 0.368471 0.179032
Si Si2 0.282421 0.202869 0.680311
Si Si3 0.504181 0.720050 0.524683
Si Si4 0.502549 0.891839 0.671239
Si Si5 0.195196 0.721806 0.622137
Si Si6 0.139941 0.839059 0.715004
Si Si7 0.547166 0.444381 0.216915
O O1 0.881335 0.332482 0.213320
O O2 0.089099 0.230341 0.420505
O O3 0.033405 0.609245 0.309373
O O4 0.723465 0.295707 0.812253
O O5 0.295216 0.368384 0.592638
O O6 0.278419 0.956995 0.688443
O O7 0.466625 0.292470 0.026456
O O8 0.500000 0.500000 0.500000
O O9 0.608988 0.770977 0.782066
O O10 0.569370 0.914455 0.532136
O O11 0.392427 0.705170 0.582450
O O12 0.650275 0.023620 0.959029
O O13 0.112837 0.752006 0.584492
O O14 0.361772 0.565942 0.924262
O O15 0.000000 0.000000 0.500000
#
# Coordination Sequence:
#
# PCOD9101159 Si02
#       7
#     2   2   2   2   2   2   2
#     4  10  22  35  54  84 115 148 185 235 285 331
#     4  10  20  38  56  87 120 148 184 230 282 339
#     4  10  24  39  59  80 110 151 196 235 277 333
#     4  10  22  39  56  83 111 151 188 233 283 325
#     4  11  20  33  57  89 118 148 184 224 287 342
#     4  11  19  33  56  87 118 144 178 234 294 338
#     4  10  21  36  60  85 117 151 186 228 281 339
#
# _framework density 21.636493999999999
#
# number of rings (size 3 to 8) (size 9 to 14) (size 15 to 20)
#    0.000    1.714    2.857    1.714    6.000    1.143 
#    0.000    0.714    0.000    1.714    0.000    0.000 
#    0.000    0.000    0.000    0.000    0.000    0.000 
#
# Total GULP energy -78020.401045 kJ/mol
# GULP energy per Si atom -5572.885789 kJ/mol
# Density = 2.158725 g / cm^3
# Si number density = 21.636494 Si / 1000 Ang^3
#
#
#
# Elastic Constant Matrix: (Units=GPa)
#
#
# Indices 1 2 3 4 5 6 
#
# 1 74.9436 39.3557 -0.3658 -4.7204 -2.5633 20.9519
# 2 39.3557 166.6869 9.2135 12.7555 -7.8736 8.3774
# 3 -0.3658 9.2135 30.4363 8.7976 6.1240 -1.9278
# 4 -4.7204 12.7555 8.7976 16.6831 -0.7335 -0.3856
# 5 -2.5633 -7.8736 6.1240 -0.7335 23.3091 0.8642
# 6 20.9519 8.3774 -1.9278 -0.3856 0.8642 53.4177
#
#
#
# Elastic Compliance Matrix: (Units=1/GPa)
#
#
# Indices 1 2 3 4 5 6 
#
# 1 0.018153 -0.004515 -0.001867 0.009490 0.001499 -0.006435
# 2 -0.004515 0.007695 -0.000872 -0.006598 0.002108 0.000451
# 3 -0.001867 -0.000872 0.042298 -0.022657 -0.012416 0.002433
# 4 0.009490 -0.006598 -0.022657 0.079873 0.007394 -0.003048
# 5 0.001499 0.002108 -0.012416 0.007394 0.047350 -0.002079
# 6 -0.006435 0.000451 0.002433 -0.003048 -0.002079 0.021273
#
#
# Mechanical properties :
#
#
# Convention : Reuss Voigt Hill
#
# Bulk Modulus (GPa) = 18.64348 40.94150 29.79249
# Shear Modulus (GPa) = 20.07774 33.60620 26.84197
#
# Velocity S-wave (km/s) = 3.04954 3.94536 3.52602
# Velocity P-wave (km/s) = 4.58639 6.30223 5.51149
#
# Compressibility (1/GPa) = 0.05363806
#
# Stress axis : x y z
#
# Youngs Moduli (GPa) = 55.08638 129.95003 23.64160
#
# Poissons Ratio (x) = 0.58671 0.04415
# Poissons Ratio (y) = 0.24871 0.02062
# Poissons Ratio (z) = 0.10287 0.11333
#
# Static dielectric constant tensor:
#      x y z
#    x 1.809450 0.022640 -0.003550 
#    y 0.022640 1.904640 0.060450 
#    z -0.003550 0.060450 1.936720 
# 
# From -- ./inp_files/63423.got.cif
#   From: 2010.05.17/outbox.cif.g08.bks.cpg/sg2_32_cif.got.tgz:63423.got - 2010.06.03 11:33:40.
