data_PCOD9101814
_publ_section_title
;
Structure prediction by ZEFSAII (Michael W. Deem and Ramdas Pophale) SiO2 
 PCOD9101814
Probable space group: P -1
;
_chemical_formula_sum "Si O2"
_cell_formula_units_Z 14
_cell_length_a 28.290206
_cell_length_b 5.003942
_cell_length_c 11.990898
_cell_angle_alpha 96.452426
_cell_angle_beta 155.777585
_cell_angle_gamma 93.887962
_cell_volume 628.760295
_symmetry_space_group_name_H-M "P -1"
_symmetry_group_IT_number 2
_symmetry_cell_setting 'triclinic'
loop_
_space_group_symop_operation_xyz
x,y,z
-x,-y,-z
loop_
_atom_site_type_symbol
_atom_site_label
_atom_site_fract_x
_atom_site_fract_y
_atom_site_fract_z
Si Si1 0.856516 0.131136 0.653985
Si Si2 0.528590 0.997497 0.195749
Si Si3 0.925021 0.879746 0.005659
Si Si4 0.315686 0.345980 0.400708
Si Si5 0.731842 0.463666 0.292161
Si Si6 0.106655 0.304950 0.787641
Si Si7 0.079552 0.457852 0.499026
O O1 0.759537 0.806837 0.383680
O O2 0.899797 0.071494 0.863224
O O3 0.800479 0.368736 0.534526
O O4 0.976977 0.234919 0.837489
O O5 0.569988 0.332662 0.340797
O O6 0.639644 0.894422 0.463441
O O7 0.500000 0.000000 0.000000
O O8 0.411429 0.764723 0.004271
O O9 0.789562 0.645706 0.740353
O O10 0.998755 0.119824 0.270201
O O11 0.230922 0.279134 0.103019
O O12 0.804979 0.425892 0.337041
O O13 0.139473 0.496618 0.753467
O O14 0.031169 0.426445 0.716932
O O15 0.000000 0.000000 0.500000
#
# Coordination Sequence:
#
# PCOD9101814 Si02
#       7
#     2   2   2   2   2   2   2
#     4  10  22  36  64  94 134 162 211 266 334 398
#     4  12  26  44  66  94 134 180 220 262 312 392
#     4  10  20  38  61 100 125 165 208 273 336 396
#     4  12  24  41  67  94 129 171 222 266 324 385
#     4  11  23  43  61  93 131 180 214 262 322 383
#     4  11  23  43  68 100 128 166 220 282 341 383
#     4  10  23  40  67  94 134 168 214 279 337 386
#
# _framework density 22.266038999999999
#
# number of rings (size 3 to 8) (size 9 to 14) (size 15 to 20)
#    0.000    1.143    1.429    4.714    4.000    7.429 
#    0.000    1.429    0.000    0.000    0.000    0.000 
#    0.000    0.000    0.000    0.000    0.000    0.000 
#
# Total GULP energy -78167.945624 kJ/mol
# GULP energy per Si atom -5583.424687 kJ/mol
# Density = 2.221536 g / cm^3
# Si number density = 22.266039 Si / 1000 Ang^3
#
#
#
# Elastic Constant Matrix: (Units=GPa)
#
#
# Indices 1 2 3 4 5 6 
#
# 1 111.7913 12.5015 35.9651 1.2814 -0.1568 19.3056
# 2 12.5015 79.7131 23.5238 -4.4204 -1.4663 4.9505
# 3 35.9651 23.5238 96.3956 -13.0874 -1.2918 5.8337
# 4 1.2814 -4.4204 -13.0874 52.1578 15.8201 1.6637
# 5 -0.1568 -1.4663 -1.2918 15.8201 39.2260 5.6763
# 6 19.3056 4.9505 5.8337 1.6637 5.6763 25.0209
#
#
#
# Elastic Compliance Matrix: (Units=1/GPa)
#
#
# Indices 1 2 3 4 5 6 
#
# 1 0.011722 -0.000190 -0.004011 -0.001576 0.001754 -0.008365
# 2 -0.000190 0.013636 -0.003092 0.000270 0.000585 -0.001981
# 3 -0.004011 -0.003092 0.013034 0.003447 -0.001195 0.000710
# 4 -0.001576 0.000270 0.003447 0.022873 -0.009243 0.000935
# 5 0.001754 0.000585 -0.001195 -0.009243 0.030288 -0.007447
# 6 -0.008365 -0.001981 0.000710 0.000935 -0.007447 0.048274
#
#
# Mechanical properties :
#
#
# Convention : Reuss Voigt Hill
#
# Bulk Modulus (GPa) = 42.00859 47.98678 44.99769
# Shear Modulus (GPa) = 30.79768 37.67490 34.23629
#
# Velocity S-wave (km/s) = 3.72313 4.11790 3.92548
# Velocity P-wave (km/s) = 6.11473 6.64889 6.38740
#
# Compressibility (1/GPa) = 0.02380465
#
# Stress axis : x y z
#
# Youngs Moduli (GPa) = 85.30934 73.33452 76.72157
#
# Poissons Ratio (x) = 0.01395 0.30775
# Poissons Ratio (y) = 0.01623 0.23725
# Poissons Ratio (z) = 0.34220 0.22677
#
# Static dielectric constant tensor:
#      x y z
#    x 1.876960 0.054780 -0.020160 
#    y 0.054780 1.869090 -0.018660 
#    z -0.020160 -0.018660 1.873570 
# 
# From -- ./inp_files/72439.got.cif
#   From: 2010.05.17/outbox.cif.g08.bks.cpg/sg2_37_cif.got.tgz:72439.got - 2010.06.03 11:33:40.
