data_PCOD9101573
_publ_section_title
;
Structure prediction by ZEFSAII (Michael W. Deem and Ramdas Pophale) SiO2 
 PCOD9101573
Probable space group: P -1
;
_chemical_formula_sum "Si O2"
_cell_formula_units_Z 16
_cell_length_a 8.789225
_cell_length_b 15.328645
_cell_length_c 13.714040
_cell_angle_alpha 39.984370
_cell_angle_beta 115.579066
_cell_angle_gamma 87.118279
_cell_volume 806.860243
_symmetry_space_group_name_H-M "P -1"
_symmetry_group_IT_number 2
_symmetry_cell_setting 'triclinic'
loop_
_space_group_symop_operation_xyz
x,y,z
-x,-y,-z
loop_
_atom_site_type_symbol
_atom_site_label
_atom_site_fract_x
_atom_site_fract_y
_atom_site_fract_z
Si Si1 0.057211 0.549422 0.270630
Si Si2 0.193185 0.386801 0.231614
Si Si3 0.937128 0.824535 0.571581
Si Si4 0.763336 0.206468 0.151824
Si Si5 0.463995 0.679753 0.354477
Si Si6 0.341916 0.751546 0.484312
Si Si7 0.258042 0.523795 0.755729
Si Si8 0.081488 0.839719 0.975928
O O1 0.101627 0.496232 0.213796
O O2 0.287201 0.391734 0.525942
O O3 0.861697 0.551557 0.245453
O O4 0.021042 0.730594 0.106968
O O5 0.429696 0.333540 0.321258
O O6 0.229231 0.207834 0.415867
O O7 0.000000 0.500000 0.000000
O O8 0.064577 0.811584 0.713013
O O9 0.117145 0.662297 0.687198
O O10 0.821424 0.016022 0.327664
O O11 0.794173 0.251432 0.014186
O O12 0.514415 0.356953 0.994271
O O13 0.500000 0.500000 0.500000
O O14 0.394815 0.740966 0.394172
O O15 0.260654 0.826633 0.102369
O O16 0.268096 0.636989 0.581657
O O17 0.141126 0.957819 0.279529
#
# Coordination Sequence:
#
# PCOD9101573 Si02
#       8
#     2   2   2   2   2   2   2   2
#     4   9  21  37  60  86 117 154 203 242 296 358
#     4  10  20  38  60  82 120 159 201 239 297 351
#     4  10  22  39  57  89 121 157 203 243 294 356
#     4  11  22  38  61  86 123 159 198 247 298 349
#     4   9  19  40  63  83 115 159 199 247 295 356
#     4  11  22  37  63  89 120 155 202 246 297 358
#     4  11  21  39  61  88 123 156 198 246 303 346
#     4  11  21  40  60  89 119 157 204 242 299 354
#
# _framework density 19.829951999999999
#
# number of rings (size 3 to 8) (size 9 to 14) (size 15 to 20)
#    0.000    1.750    1.250    4.500    1.750    1.000 
#    0.000    7.500    0.000    0.000    0.000    0.000 
#    0.000    0.000    0.000    0.000    0.000    0.000 
#
# Total GULP energy -89292.652009 kJ/mol
# GULP energy per Si atom -5580.790751 kJ/mol
# Density = 1.978482 g / cm^3
# Si number density = 19.829952 Si / 1000 Ang^3
#
#
#
# Elastic Constant Matrix: (Units=GPa)
#
#
# Indices 1 2 3 4 5 6 
#
# 1 90.8817 -4.8596 30.2508 -0.5061 -6.7125 24.8315
# 2 -4.8596 24.1193 18.7958 -2.6436 4.5175 7.2578
# 3 30.2508 18.7958 80.6749 3.8072 6.5278 11.1323
# 4 -0.5061 -2.6436 3.8072 32.3898 5.7580 2.2957
# 5 -6.7125 4.5175 6.5278 5.7580 23.7580 -4.1105
# 6 24.8315 7.2578 11.1323 2.2957 -4.1105 28.3004
#
#
#
# Elastic Compliance Matrix: (Units=1/GPa)
#
#
# Indices 1 2 3 4 5 6 
#
# 1 0.020188 0.017193 -0.009247 0.003993 0.000773 -0.018697
# 2 0.017193 0.071820 -0.018855 0.012452 -0.011616 -0.028784
# 3 -0.009247 -0.018855 0.019966 -0.003907 -0.002698 0.005020
# 4 0.003993 0.012452 -0.003907 0.034909 -0.010268 -0.009484
# 5 0.000773 -0.011616 -0.002698 -0.010268 0.049723 0.011417
# 6 -0.018697 -0.028784 0.005020 -0.009484 0.011417 0.059576
#
#
# Mechanical properties :
#
#
# Convention : Reuss Voigt Hill
#
# Bulk Modulus (GPa) = 11.09196 31.56111 21.32654
# Shear Modulus (GPa) = 16.23097 26.98888 21.60992
#
# Velocity S-wave (km/s) = 2.86406 3.69320 3.30474
# Velocity P-wave (km/s) = 4.06729 5.84266 5.03386
#
# Compressibility (1/GPa) = 0.09015537
#
# Stress axis : x y z
#
# Youngs Moduli (GPa) = 49.53329 13.92366 50.08634
#
# Poissons Ratio (x) = -0.23938 0.46313
# Poissons Ratio (y) = -0.85160 0.94440
# Poissons Ratio (z) = 0.45801 0.26254
#
# Static dielectric constant tensor:
#      x y z
#    x 1.719850 0.008400 -0.005720 
#    y 0.008400 1.694750 0.000480 
#    z -0.005720 0.000480 1.720880 
# 
# From -- ./inp_files/169760.got.cif
#   From: 2010.05.17/outbox.cif.g08.bks.cpg/sg2_85_cif.got.tgz:169760.got - 2010.06.03 11:33:40.
