data_PCOD9101708
_publ_section_title
;
Structure prediction by ZEFSAII (Michael W. Deem and Ramdas Pophale) SiO2 
 PCOD9101708
Probable space group: P -1
;
_chemical_formula_sum "Si O2"
_cell_formula_units_Z 14
_cell_length_a 8.507453
_cell_length_b 7.912744
_cell_length_c 15.859342
_cell_angle_alpha 114.424198
_cell_angle_beta 42.866586
_cell_angle_gamma 129.765430
_cell_volume 555.140373
_symmetry_space_group_name_H-M "P -1"
_symmetry_group_IT_number 2
_symmetry_cell_setting 'triclinic'
loop_
_space_group_symop_operation_xyz
x,y,z
-x,-y,-z
loop_
_atom_site_type_symbol
_atom_site_label
_atom_site_fract_x
_atom_site_fract_y
_atom_site_fract_z
Si Si1 0.598208 0.252943 0.253939
Si Si2 0.444861 0.787331 0.927605
Si Si3 0.051930 0.217996 0.476182
Si Si4 0.053236 0.974631 0.687437
Si Si5 0.735953 0.635026 0.003917
Si Si6 0.713024 0.945171 0.207754
Si Si7 0.182526 0.405713 0.627823
O O1 0.657502 0.220017 0.128226
O O2 0.373799 0.318682 0.346394
O O3 0.500815 0.018538 0.287085
O O4 0.811776 0.424451 0.274155
O O5 0.236191 0.556888 0.006388
O O6 0.743457 0.820366 0.811601
O O7 0.500000 0.000000 0.000000
O O8 0.045920 0.370764 0.582470
O O9 0.897154 0.150191 0.433629
O O10 0.000000 0.000000 0.500000
O O11 0.062729 0.177622 0.678121
O O12 0.248719 0.064014 0.709742
O O13 0.652731 0.736339 0.134238
O O14 0.500000 0.500000 0.000000
O O15 0.999679 0.846519 0.900463
O O16 0.500000 0.500000 0.500000
#
# Coordination Sequence:
#
# PCOD9101708 Si02
#       7
#     2   2   2   2   2   2   2
#     4  10  21  36  59  92 117 158 213 252 299 371
#     4  11  23  38  62  90 123 168 214 252 299 372
#     4   8  17  37  60  82 117 155 200 258 306 358
#     4  10  20  38  60  89 120 164 204 250 319 368
#     4  11  23  42  59  84 135 172 204 253 309 360
#     4  11  24  39  61  91 128 169 205 253 312 370
#     4   9  18  37  62  85 116 157 208 259 306 360
#
# _framework density 25.218848000000001
#
# number of rings (size 3 to 8) (size 9 to 14) (size 15 to 20)
#    0.000    2.000    1.429    1.714    4.000    0.571 
#    2.571    7.143    0.000    0.000    0.000    0.000 
#    0.000    0.000    0.000    0.000    0.000    0.000 
#
# Total GULP energy -78184.593371 kJ/mol
# GULP energy per Si atom -5584.613812 kJ/mol
# Density = 2.516145 g / cm^3
# Si number density = 25.218848 Si / 1000 Ang^3
#
#
#
# Elastic Constant Matrix: (Units=GPa)
#
#
# Indices 1 2 3 4 5 6 
#
# 1 100.1911 36.0104 52.4277 39.0178 45.9073 23.2395
# 2 36.0104 140.7841 56.3342 37.8375 31.3461 23.1351
# 3 52.4277 56.3342 117.6408 32.8065 45.4771 22.8857
# 4 39.0178 37.8375 32.8065 54.9701 31.3742 14.7031
# 5 45.9073 31.3461 45.4771 31.3742 57.9756 7.9840
# 6 23.2395 23.1351 22.8857 14.7031 7.9840 41.5757
#
#
#
# Elastic Compliance Matrix: (Units=1/GPa)
#
#
# Indices 1 2 3 4 5 6 
#
# 1 0.018882 0.000678 -0.002319 -0.005307 -0.009816 -0.005894
# 2 0.000678 0.009908 -0.003024 -0.004353 -0.000818 -0.002531
# 3 -0.002319 -0.003024 0.014546 0.000400 -0.007646 -0.003701
# 4 -0.005307 -0.004353 0.000400 0.031716 -0.010363 -0.004058
# 5 -0.009816 -0.000818 -0.007646 -0.010363 0.036122 0.006879
# 6 -0.005894 -0.002531 -0.003701 -0.004058 0.006879 0.030907
#
#
# Mechanical properties :
#
#
# Convention : Reuss Voigt Hill
#
# Bulk Modulus (GPa) = 29.40660 72.01784 50.71222
# Shear Modulus (GPa) = 30.72299 45.16054 37.94177
#
# Velocity S-wave (km/s) = 3.49414 4.23631 3.88300
# Velocity P-wave (km/s) = 5.28815 7.24897 6.34477
#
# Compressibility (1/GPa) = 0.03400597
#
# Stress axis : x y z
#
# Youngs Moduli (GPa) = 52.96170 100.93309 68.74609
#
# Poissons Ratio (x) = -0.06848 0.15940
# Poissons Ratio (y) = -0.03593 0.20792
# Poissons Ratio (z) = 0.12280 0.30527
#
# Static dielectric constant tensor:
#      x y z
#    x 2.127250 0.053230 -0.115820 
#    y 0.053230 1.921440 0.067020 
#    z -0.115820 0.067020 1.986550 
# 
# From -- ./inp_files/493327.got.cif
#   From: 2010.05.17/outbox.cif.g08.bks.cpg/sg2_247_cif.got.tgz:493327.got - 2010.06.03 11:33:40.
