data_PCOD9101991
_publ_section_title
;
Structure prediction by ZEFSAII (Michael W. Deem and Ramdas Pophale) SiO2 
 PCOD9101991
Probable space group: P -1
;
_chemical_formula_sum "Si O2"
_cell_formula_units_Z 16
_cell_length_a 8.187907
_cell_length_b 18.086641
_cell_length_c 10.479793
_cell_angle_alpha 135.857888
_cell_angle_beta 124.749334
_cell_angle_gamma 87.559686
_cell_volume 682.095784
_symmetry_space_group_name_H-M "P -1"
_symmetry_group_IT_number 2
_symmetry_cell_setting 'triclinic'
loop_
_space_group_symop_operation_xyz
x,y,z
-x,-y,-z
loop_
_atom_site_type_symbol
_atom_site_label
_atom_site_fract_x
_atom_site_fract_y
_atom_site_fract_z
Si Si1 0.216501 0.966855 0.467310
Si Si2 0.963021 0.361521 0.816700
Si Si3 0.192917 0.008543 0.789219
Si Si4 0.942646 0.132630 0.167443
Si Si5 0.419403 0.170968 0.454492
Si Si6 0.773112 0.534074 0.674326
Si Si7 0.302160 0.778480 0.119847
Si Si8 0.783034 0.282577 0.378364
O O1 0.161432 0.930252 0.547361
O O2 0.478009 0.127346 0.771658
O O3 0.267366 0.877602 0.302676
O O4 0.984325 0.950601 0.274680
O O5 0.663883 0.238110 0.558994
O O6 0.988207 0.333347 0.648263
O O7 0.000000 0.500000 0.000000
O O8 0.125701 0.388479 0.046711
O O9 0.108981 0.926129 0.782486
O O10 0.493837 0.140389 0.099011
O O11 0.892297 0.239469 0.267273
O O12 0.233529 0.197348 0.348995
O O13 0.752589 0.995045 0.827181
O O14 0.540723 0.240422 0.731168
O O15 0.500000 0.500000 0.500000
O O16 0.753742 0.398963 0.493118
O O17 0.006861 0.638301 0.807600
#
# Coordination Sequence:
#
# PCOD9101991 Si02
#       8
#     2   2   2   2   2   2   2   2
#     4  10  22  36  62  91 124 162 205 251 316 363
#     4   9  20  38  63  88 120 162 205 249 307 374
#     4  11  21  37  58  93 127 161 200 257 308 369
#     4  11  22  35  62  93 129 157 205 260 304 369
#     4  10  20  38  61  90 121 162 201 255 314 356
#     4  10  22  41  64  90 123 165 208 256 310 376
#     4  10  20  40  61  88 120 162 205 257 302 377
#     4  11  22  39  61  94 122 164 207 253 309 368
#
# _framework density 23.457115999999999
#
# number of rings (size 3 to 8) (size 9 to 14) (size 15 to 20)
#    0.000    1.750    2.500    1.875    3.500    0.000 
#    0.000    6.250    0.000    0.000    0.000    0.000 
#    0.000    0.000    0.000    0.000    0.000    0.000 
#
# Total GULP energy -89317.208302 kJ/mol
# GULP energy per Si atom -5582.325519 kJ/mol
# Density = 2.340373 g / cm^3
# Si number density = 23.457116 Si / 1000 Ang^3
#
#
#
# Elastic Constant Matrix: (Units=GPa)
#
#
# Indices 1 2 3 4 5 6 
#
# 1 58.4004 22.5646 30.2089 -9.4519 11.4463 -29.4719
# 2 22.5646 64.5946 29.5320 -13.8323 6.6947 -10.4656
# 3 30.2089 29.5320 94.2031 -16.9269 19.7379 -28.4812
# 4 -9.4519 -13.8323 -16.9269 34.6127 -6.8732 -4.9233
# 5 11.4463 6.6947 19.7379 -6.8732 34.4434 -7.5741
# 6 -29.4719 -10.4656 -28.4812 -4.9233 -7.5741 44.1396
#
#
#
# Elastic Compliance Matrix: (Units=1/GPa)
#
#
# Indices 1 2 3 4 5 6 
#
# 1 0.031413 -0.005533 -0.000082 0.008535 -0.003213 0.020010
# 2 -0.005533 0.020038 -0.004213 0.004504 0.001041 -0.000981
# 3 -0.000082 -0.004213 0.017444 0.007161 -0.005510 0.010055
# 4 0.008535 0.004504 0.007161 0.039597 0.003701 0.016439
# 5 -0.003213 0.001041 -0.005510 0.003701 0.033968 0.000788
# 6 0.020010 -0.000981 0.010055 0.016439 0.000788 0.044240
#
#
# Mechanical properties :
#
#
# Convention : Reuss Voigt Hill
#
# Bulk Modulus (GPa) = 20.30956 42.42324 31.36640
# Shear Modulus (GPa) = 22.44496 31.63197 27.03847
#
# Velocity S-wave (km/s) = 3.09666 3.67618 3.39879
# Velocity P-wave (km/s) = 4.63278 6.01197 5.36686
#
# Compressibility (1/GPa) = 0.04923789
#
# Stress axis : x y z
#
# Youngs Moduli (GPa) = 31.83433 49.90594 57.32791
#
# Poissons Ratio (x) = 0.27613 0.00471
# Poissons Ratio (y) = 0.17614 0.24151
# Poissons Ratio (z) = 0.00262 0.21024
#
# Static dielectric constant tensor:
#      x y z
#    x 1.907430 0.043720 -0.049700 
#    y 0.043720 1.940950 -0.030450 
#    z -0.049700 -0.030450 1.899140 
# 
# From -- ./inp_files/404964.got.cif
#   From: 2010.05.17/outbox.cif.g08.bks.cpg/sg2_203_cif.got.tgz:404964.got - 2010.06.03 11:33:40.
