data_PCOD9101825
_publ_section_title
;
Structure prediction by ZEFSAII (Michael W. Deem and Ramdas Pophale) SiO2 
 PCOD9101825
Probable space group: P -1
;
_chemical_formula_sum "Si O2"
_cell_formula_units_Z 12
_cell_length_a 29.400809
_cell_length_b 23.240179
_cell_length_c 26.155627
_cell_angle_alpha 10.119495
_cell_angle_beta 170.252898
_cell_angle_gamma 168.431769
_cell_volume 504.049797
_symmetry_space_group_name_H-M "P -1"
_symmetry_group_IT_number 2
_symmetry_cell_setting 'triclinic'
loop_
_space_group_symop_operation_xyz
x,y,z
-x,-y,-z
loop_
_atom_site_type_symbol
_atom_site_label
_atom_site_fract_x
_atom_site_fract_y
_atom_site_fract_z
Si Si1 0.318443 0.289187 0.861318
Si Si2 0.992794 0.173980 0.987105
Si Si3 0.849355 0.268807 0.082127
Si Si4 0.288207 0.799090 0.818119
Si Si5 0.230507 0.146266 0.083476
Si Si6 0.012358 0.313402 0.026326
O O1 0.216053 0.587788 0.460230
O O2 0.608478 0.467802 0.056205
O O3 0.291304 0.980874 0.060586
O O4 0.107682 0.093289 0.844347
O O5 0.285383 0.471649 0.066074
O O6 0.947095 0.950716 0.080537
O O7 0.893504 0.507746 0.971672
O O8 0.000000 0.000000 0.500000
O O9 0.000000 0.500000 0.000000
O O10 0.546689 0.032199 0.933877
O O11 0.211158 0.067334 0.460796
O O12 0.068289 0.599655 0.793670
O O13 0.500000 0.000000 0.500000
O O14 0.000000 0.000000 0.000000
#
# Coordination Sequence:
#
# PCOD9101825 Si02
#       6
#     2   2   2   2   2   2
#     4   9  19  37  61  88 119 157 208 261 314 374
#     4   9  19  37  61  88 119 157 208 261 314 374
#     4  12  24  36  54  86 122 154 198 256 312 372
#     4  10  20  38  61  82 112 158 204 249 306 375
#     4  10  21  40  64  94 130 170 214 264 318 380
#     4  10  20  38  61  82 112 158 204 249 306 375
#
# _framework density 23.807171
#
# number of rings (size 3 to 8) (size 9 to 14) (size 15 to 20)
#    0.000    2.000    0.000    3.500    0.000    1.333 
#    0.000   20.000    0.000    0.000    0.000    0.000 
#    0.000    0.000    0.000    0.000    0.000    0.000 
#
# Total GULP energy -66858.500559 kJ/mol
# GULP energy per Si atom -5571.541713 kJ/mol
# Density = 2.375298 g / cm^3
# Si number density = 23.807171 Si / 1000 Ang^3
#
#
#
# Elastic Constant Matrix: (Units=GPa)
#
#
# Indices 1 2 3 4 5 6 
#
# 1 125.1736 104.5940 43.1240 36.7917 -59.0343 -33.0172
# 2 104.5940 184.9776 8.5577 -35.8246 26.5935 -61.8885
# 3 43.1240 8.5577 87.6668 -18.2166 -5.5705 6.1234
# 4 36.7917 -35.8246 -18.2166 -22.3219 38.4088 -10.9391
# 5 -59.0343 26.5935 -5.5705 38.4088 2.4465 -3.6466
# 6 -33.0172 -61.8885 6.1234 -10.9391 -3.6466 70.4982
#
#
#
# Elastic Compliance Matrix: (Units=1/GPa)
#
#
# Indices 1 2 3 4 5 6 
#
# 1 0.006859 -0.000108 -0.001430 0.010856 0.000368 0.004945
# 2 -0.000108 0.005764 -0.001466 -0.004161 0.003700 0.004682
# 3 -0.001430 -0.001466 0.012800 0.000071 0.005322 -0.002782
# 4 0.010856 -0.004161 0.000071 0.018565 0.024161 0.005556
# 5 0.000368 0.003700 0.005322 0.024161 0.021897 0.007840
# 6 0.004945 0.004682 -0.002782 0.005556 0.007840 0.022121
#
#
# Mechanical properties :
#
#
# Convention : Reuss Voigt Hill
#
# Bulk Modulus (GPa) = 51.50475 78.92993 65.21734
# Shear Modulus (GPa) = 49.75813 26.22739 37.99276
#
# Velocity S-wave (km/s) = 4.57666 3.32273 3.99915
# Velocity P-wave (km/s) = 7.04336 6.92434 6.98410
#
# Compressibility (1/GPa) = 0.01941569
#
# Stress axis : x y z
#
# Youngs Moduli (GPa) = 145.79220 173.49341 78.12234
#
# Poissons Ratio (x) = 0.01878 0.11169
# Poissons Ratio (y) = 0.01578 0.11453
# Poissons Ratio (z) = 0.20843 0.25434
#
# Static dielectric constant tensor:
#      x y z
#    x 2.006100 -0.190300 0.074330 
#    y -0.190300 2.204170 0.004930 
#    z 0.074330 0.004930 1.985710 
# 
# From -- ./inp_files/5419.got.cif
#   From: 2010.05.17/outbox.cif.g08.bks.cpg/sg2_3_cif.got.tgz:5419.got - 2010.06.03 11:33:40.
