data_PCOD9101892
_publ_section_title
;
Structure prediction by ZEFSAII (Michael W. Deem and Ramdas Pophale) SiO2 
 PCOD9101892
Probable space group: P -1
;
_chemical_formula_sum "Si O2"
_cell_formula_units_Z 14
_cell_length_a 5.539416
_cell_length_b 4.944259
_cell_length_c 26.784462
_cell_angle_alpha 56.215521
_cell_angle_beta 119.202021
_cell_angle_gamma 96.904879
_cell_volume 520.546889
_symmetry_space_group_name_H-M "P -1"
_symmetry_group_IT_number 2
_symmetry_cell_setting 'triclinic'
loop_
_space_group_symop_operation_xyz
x,y,z
-x,-y,-z
loop_
_atom_site_type_symbol
_atom_site_label
_atom_site_fract_x
_atom_site_fract_y
_atom_site_fract_z
Si Si1 0.430492 0.052511 0.774411
Si Si2 0.736212 0.971623 0.653431
Si Si3 0.249752 0.305714 0.511243
Si Si4 0.031650 0.206584 0.074528
Si Si5 0.244623 0.299702 0.931290
Si Si6 0.982789 0.414774 0.369706
Si Si7 0.163967 0.471894 0.791580
O O1 0.329826 0.356116 0.693979
O O2 0.219145 0.181868 0.786521
O O3 0.358249 0.735547 0.772245
O O4 0.719970 0.923650 0.846915
O O5 0.938829 0.851268 0.638696
O O6 0.844804 0.684088 0.733922
O O7 0.425673 0.022629 0.594002
O O8 0.814153 0.313185 0.644826
O O9 0.500000 0.500000 0.500000
O O10 0.000000 0.500000 0.500000
O O11 0.096630 0.244773 0.450718
O O12 0.783751 0.381010 0.069863
O O13 0.021210 0.880455 0.074322
O O14 0.000000 0.500000 0.000000
O O15 0.249190 0.372430 0.866118
O O16 0.500000 0.000000 0.000000
#
# Coordination Sequence:
#
# PCOD9101892 Si02
#       7
#     2   2   2   2   2   2   2
#     4  10  20  38  61  86 118 155 196 251 311 373
#     4   9  19  37  61  88 123 163 206 255 319 386
#     4  10  21  40  64  94 130 172 220 272 328 390
#     4  12  24  39  59  85 117 156 202 252 308 374
#     4  12  24  39  59  85 117 156 202 252 308 374
#     4   9  19  37  61  88 123 163 206 255 319 386
#     4  10  20  38  61  86 118 155 196 251 311 373
#
# _framework density 26.894791999999999
#
# number of rings (size 3 to 8) (size 9 to 14) (size 15 to 20)
#    0.000    1.714    0.000    4.714    0.000    1.143 
#    0.000   17.143    0.000    0.000    0.000    0.000 
#    0.000    0.000    0.000    0.000    0.000    0.000 
#
# Total GULP energy -78228.448681 kJ/mol
# GULP energy per Si atom -5587.746334 kJ/mol
# Density = 2.683358 g / cm^3
# Si number density = 26.894792 Si / 1000 Ang^3
#
#
#
# Elastic Constant Matrix: (Units=GPa)
#
#
# Indices 1 2 3 4 5 6 
#
# 1 57.5473 18.5212 44.4838 -1.7442 17.1463 -3.4157
# 2 18.5212 95.9018 25.3072 15.6168 -4.0556 -2.3327
# 3 44.4838 25.3072 270.4662 6.5556 42.8903 -13.5541
# 4 -1.7442 15.6168 6.5556 54.8596 -0.6935 5.3593
# 5 17.1463 -4.0556 42.8903 -0.6935 54.5492 6.9416
# 6 -3.4157 -2.3327 -13.5541 5.3593 6.9416 34.8590
#
#
#
# Elastic Compliance Matrix: (Units=1/GPa)
#
#
# Indices 1 2 3 4 5 6 
#
# 1 0.022421 -0.004227 -0.002337 0.001942 -0.005735 0.001849
# 2 -0.004227 0.012139 -0.000799 -0.003465 0.002807 0.000061
# 3 -0.002337 -0.000799 0.004839 -0.000703 -0.003443 0.002393
# 4 0.001942 -0.003465 -0.000703 0.019699 0.000369 -0.003417
# 5 -0.005735 0.002807 -0.003443 0.000369 0.023886 -0.006526
# 6 0.001849 0.000061 0.002393 -0.003417 -0.006526 0.031628
#
#
# Mechanical properties :
#
#
# Convention : Reuss Voigt Hill
#
# Bulk Modulus (GPa) = 40.52919 66.72663 53.62791
# Shear Modulus (GPa) = 36.34693 51.22709 43.78701
#
# Velocity S-wave (km/s) = 3.68019 4.36905 4.03933
# Velocity P-wave (km/s) = 5.75853 7.09334 6.46050
#
# Compressibility (1/GPa) = 0.02467357
#
# Stress axis : x y z
#
# Youngs Moduli (GPa) = 44.60011 82.37922 206.63632
#
# Poissons Ratio (x) = 0.34824 0.48293
# Poissons Ratio (y) = 0.18854 0.16504
# Poissons Ratio (z) = 0.10424 0.06580
#
# Static dielectric constant tensor:
#      x y z
#    x 2.272910 0.144830 -0.052530 
#    y 0.144830 2.030680 -0.057750 
#    z -0.052530 -0.057750 2.236510 
# 
# From -- ./inp_files/143218.got.cif
#   From: 2010.05.17/outbox.cif.g08.bks.cpg/sg2_72_cif.got.tgz:143218.got - 2010.06.03 11:33:40.
