data_PCOD9101548
_publ_section_title
;
Structure prediction by ZEFSAII (Michael W. Deem and Ramdas Pophale) SiO2 
 PCOD9101548
Probable space group: P -1
;
_chemical_formula_sum "Si O2"
_cell_formula_units_Z 14
_cell_length_a 13.332852
_cell_length_b 12.052132
_cell_length_c 11.015703
_cell_angle_alpha 73.864339
_cell_angle_beta 77.439053
_cell_angle_gamma 142.157321
_cell_volume 700.000229
_symmetry_space_group_name_H-M "P -1"
_symmetry_group_IT_number 2
_symmetry_cell_setting 'triclinic'
loop_
_space_group_symop_operation_xyz
x,y,z
-x,-y,-z
loop_
_atom_site_type_symbol
_atom_site_label
_atom_site_fract_x
_atom_site_fract_y
_atom_site_fract_z
Si Si1 0.655068 0.495228 0.999109
Si Si2 0.571017 0.672323 0.336272
Si Si3 0.862882 0.614193 0.424735
Si Si4 0.498578 0.038255 0.627536
Si Si5 0.756203 0.841201 0.970383
Si Si6 0.118772 0.821685 0.756883
Si Si7 0.717818 0.025621 0.611592
O O1 0.482921 0.346296 0.974190
O O2 0.470205 0.269073 0.222603
O O3 0.786694 0.748262 0.925441
O O4 0.840799 0.579088 0.907437
O O5 0.500000 0.500000 0.500000
O O6 0.321045 0.485579 0.430493
O O7 0.739612 0.932486 0.286144
O O8 0.702923 0.771154 0.147511
O O9 0.696646 0.341927 0.499118
O O10 0.055411 0.760130 0.424379
O O11 0.017170 0.843802 0.214745
O O12 0.586200 0.012946 0.680392
O O13 0.500000 0.000000 0.500000
O O14 0.232347 0.821815 0.787973
O O15 0.196739 0.893013 0.574195
#
# Coordination Sequence:
#
# PCOD9101548 Si02
#       7
#     2   2   2   2   2   2   2
#     4  10  21  37  58  83 113 151 187 227 277 329
#     4  11  22  35  55  84 116 148 184 229 280 332
#     4  10  21  38  60  82 111 151 187 229 277 329
#     4   9  20  37  58  84 112 146 186 232 282 326
#     4  10  22  38  57  84 115 148 188 227 274 337
#     4  10  21  35  55  83 113 146 184 231 281 327
#     4  10  20  38  60  81 112 149 190 231 272 330
#
# _framework density 19.999993
#
# number of rings (size 3 to 8) (size 9 to 14) (size 15 to 20)
#    0.000    2.000    0.000    3.000    0.000    6.286 
#    0.000   10.000    0.000   15.429    0.000    0.000 
#    0.000    0.000    0.000    0.000    0.000    0.000 
#
# Total GULP energy -78112.278891 kJ/mol
# GULP energy per Si atom -5579.448492 kJ/mol
# Density = 1.995447 g / cm^3
# Si number density = 19.999993 Si / 1000 Ang^3
#
#
#
# Elastic Constant Matrix: (Units=GPa)
#
#
# Indices 1 2 3 4 5 6 
#
# 1 100.2050 20.5773 20.1173 -11.8846 -20.6924 16.4602
# 2 20.5773 51.3892 28.9291 1.9990 3.0222 -2.6828
# 3 20.1173 28.9291 73.2823 6.8004 0.1381 8.8618
# 4 -11.8846 1.9990 6.8004 23.5993 0.0615 -1.0796
# 5 -20.6924 3.0222 0.1381 0.0615 36.7246 -7.9293
# 6 16.4602 -2.6828 8.8618 -1.0796 -7.9293 28.0774
#
#
#
# Elastic Compliance Matrix: (Units=1/GPa)
#
#
# Indices 1 2 3 4 5 6 
#
# 1 0.015268 -0.006261 -0.001727 0.008399 0.007706 -0.006505
# 2 -0.006261 0.028567 -0.010370 -0.002187 -0.004010 0.008457
# 3 -0.001727 -0.010370 0.019599 -0.005949 -0.001665 -0.006863
# 4 0.008399 -0.002187 -0.005949 0.048490 0.004849 -0.000022
# 5 0.007706 -0.004010 -0.001665 0.004849 0.033008 0.005133
# 6 -0.006505 0.008457 -0.006863 -0.000022 0.005133 0.043852
#
#
# Mechanical properties :
#
#
# Convention : Reuss Voigt Hill
#
# Bulk Modulus (GPa) = 37.42975 40.45820 38.94397
# Shear Modulus (GPa) = 21.33052 28.03043 24.68047
#
# Velocity S-wave (km/s) = 3.26931 3.74775 3.51668
# Velocity P-wave (km/s) = 5.74515 6.24504 6.00030
#
# Compressibility (1/GPa) = 0.02671672
#
# Stress axis : x y z
#
# Youngs Moduli (GPa) = 65.49694 35.00585 51.02307
#
# Poissons Ratio (x) = 0.21916 0.08812
# Poissons Ratio (y) = 0.41006 0.52913
# Poissons Ratio (z) = 0.11312 0.36303
#
# Static dielectric constant tensor:
#      x y z
#    x 1.758520 0.029850 -0.023740 
#    y 0.029850 1.669730 -0.017160 
#    z -0.023740 -0.017160 1.693200 
# 
# From -- ./inp_files/171342.got.cif
#   From: 2010.05.17/outbox.cif.g08.bks.cpg/sg2_86_cif.got.tgz:171342.got - 2010.06.03 11:33:40.
