data_PCOD9101645
_publ_section_title
;
Structure prediction by ZEFSAII (Michael W. Deem and Ramdas Pophale) SiO2 
 PCOD9101645
Probable space group: P -1
;
_chemical_formula_sum "Si O2"
_cell_formula_units_Z 16
_cell_length_a 12.733553
_cell_length_b 12.289218
_cell_length_c 12.377788
_cell_angle_alpha 23.403711
_cell_angle_beta 75.820918
_cell_angle_gamma 75.404842
_cell_volume 744.068061
_symmetry_space_group_name_H-M "P -1"
_symmetry_group_IT_number 2
_symmetry_cell_setting 'triclinic'
loop_
_space_group_symop_operation_xyz
x,y,z
-x,-y,-z
loop_
_atom_site_type_symbol
_atom_site_label
_atom_site_fract_x
_atom_site_fract_y
_atom_site_fract_z
Si Si1 0.168591 0.291281 0.260029
Si Si2 0.381606 0.147622 0.921815
Si Si3 0.750937 0.411306 0.833643
Si Si4 0.990026 0.111403 0.021958
Si Si5 0.949734 0.350315 0.394971
Si Si6 0.344495 0.122985 0.717118
Si Si7 0.219974 0.703904 0.694039
Si Si8 0.594688 0.255660 0.537595
O O1 0.247911 0.421753 0.207239
O O2 0.048077 0.357757 0.276810
O O3 0.187254 0.966522 0.536840
O O4 0.188739 0.436550 0.009392
O O5 0.315671 0.108270 0.864909
O O6 0.394031 0.464754 0.653615
O O7 0.500000 0.000000 0.000000
O O8 0.349167 0.993610 0.178422
O O9 0.868056 0.248494 0.940717
O O10 0.729627 0.639615 0.538884
O O11 0.668010 0.174725 0.059806
O O12 0.065281 0.356950 0.808922
O O13 0.000000 0.000000 0.000000
O O14 0.014384 0.873503 0.320145
O O15 0.846842 0.281279 0.414218
O O16 0.468471 0.204287 0.602286
O O17 0.344369 0.710647 0.621040
#
# Coordination Sequence:
#
# PCOD9101645 Si02
#       8
#     2   2   2   2   2   2   2   2
#     4  11  23  43  62  87 119 159 208 255 299 356
#     4  10  20  38  60  86 122 160 195 243 295 355
#     4  11  23  40  63  87 119 166 206 237 294 371
#     4  11  24  42  62  96 131 154 193 252 298 357
#     4  11  23  42  66  91 119 162 203 241 305 375
#     4  11  21  39  63  88 121 167 200 235 296 372
#     4  12  24  41  65  90 120 157 201 265 308 336
#     4  11  23  39  59  95 126 151 203 256 295 352
#
# _framework density 21.503409000000001
#
# number of rings (size 3 to 8) (size 9 to 14) (size 15 to 20)
#    0.000    1.000    0.000   10.125    0.000    3.000 
#    0.000    3.750    0.000    0.000    0.000    0.000 
#    0.000    0.000    0.000    0.000    0.000    0.000 
#
# Total GULP energy -89525.947813 kJ/mol
# GULP energy per Si atom -5595.371738 kJ/mol
# Density = 2.145447 g / cm^3
# Si number density = 21.503409 Si / 1000 Ang^3
#
#
#
# Elastic Constant Matrix: (Units=GPa)
#
#
# Indices 1 2 3 4 5 6 
#
# 1 37.3371 20.4049 10.5029 1.5846 -5.4430 16.5899
# 2 20.4049 72.3725 1.6515 -9.8507 -4.5895 11.8488
# 3 10.5029 1.6515 106.0678 9.5974 0.2876 14.0111
# 4 1.5846 -9.8507 9.5974 48.3330 20.6998 -5.0714
# 5 -5.4430 -4.5895 0.2876 20.6998 22.9387 -2.5315
# 6 16.5899 11.8488 14.0111 -5.0714 -2.5315 30.9500
#
#
#
# Elastic Compliance Matrix: (Units=1/GPa)
#
#
# Indices 1 2 3 4 5 6 
#
# 1 0.044803 -0.009890 -0.000363 -0.013556 0.018599 -0.020765
# 2 -0.009890 0.017225 0.000362 0.005284 -0.003773 -0.000900
# 3 -0.000363 0.000362 0.010446 -0.003615 0.002560 -0.005056
# 4 -0.013556 0.005284 -0.003615 0.039825 -0.036905 0.010387
# 5 0.018599 -0.003773 0.002560 -0.036905 0.079505 -0.009228
# 6 -0.020765 -0.000900 -0.005056 0.010387 -0.009228 0.047021
#
#
# Mechanical properties :
#
#
# Convention : Reuss Voigt Hill
#
# Bulk Modulus (GPa) = 18.97815 31.21067 25.09441
# Shear Modulus (GPa) = 18.10469 32.65887 25.38178
#
# Velocity S-wave (km/s) = 2.90478 3.90138 3.43937
# Velocity P-wave (km/s) = 4.48276 5.90255 5.24096
#
# Compressibility (1/GPa) = 0.05269218
#
# Stress axis : x y z
#
# Youngs Moduli (GPa) = 22.31992 58.05590 95.72735
#
# Poissons Ratio (x) = 0.57416 0.03478
# Poissons Ratio (y) = 0.22074 -0.03466
# Poissons Ratio (z) = 0.00811 -0.02102
#
# Static dielectric constant tensor:
#      x y z
#    x 1.820700 0.004890 -0.026590 
#    y 0.004890 1.776040 0.017610 
#    z -0.026590 0.017610 1.777940 
# 
# From -- ./inp_files/452073.got.cif
#   From: 2010.05.17/outbox.cif.g08.bks.cpg/sg2_227_cif.got.tgz:452073.got - 2010.06.03 11:33:40.
