data_PCOD9101494
_publ_section_title
;
Structure prediction by ZEFSAII (Michael W. Deem and Ramdas Pophale) SiO2 
 PCOD9101494
Probable space group: P -1
;
_chemical_formula_sum "Si O2"
_cell_formula_units_Z 16
_cell_length_a 13.339016
_cell_length_b 8.257354
_cell_length_c 10.658629
_cell_angle_alpha 96.281858
_cell_angle_beta 46.278746
_cell_angle_gamma 72.925957
_cell_volume 723.436578
_symmetry_space_group_name_H-M "P -1"
_symmetry_group_IT_number 2
_symmetry_cell_setting 'triclinic'
loop_
_space_group_symop_operation_xyz
x,y,z
-x,-y,-z
loop_
_atom_site_type_symbol
_atom_site_label
_atom_site_fract_x
_atom_site_fract_y
_atom_site_fract_z
Si Si1 0.333452 0.497498 0.635616
Si Si2 0.359410 0.426164 0.886920
Si Si3 0.569598 0.318078 0.014957
Si Si4 0.057185 0.488006 0.215160
Si Si5 0.704890 0.690625 0.596742
Si Si6 0.971226 0.897910 0.216672
Si Si7 0.025972 0.178293 0.064871
Si Si8 0.691641 0.082309 0.657495
O O1 0.500000 0.500000 0.500000
O O2 0.315452 0.423316 0.780212
O O3 0.331097 0.372142 0.511852
O O4 0.170269 0.701936 0.774383
O O5 0.348170 0.625494 0.942563
O O6 0.541844 0.260556 0.735740
O O7 0.244422 0.398351 0.081591
O O8 0.418302 0.314477 0.200835
O O9 0.500000 0.500000 0.000000
O O10 0.685144 0.139495 0.813284
O O11 0.898416 0.552962 0.442294
O O12 0.029631 0.684874 0.195553
O O13 0.060224 0.333315 0.105812
O O14 0.672983 0.901280 0.642240
O O15 0.070533 0.000169 0.100644
O O16 0.851996 0.031086 0.439595
O O17 0.897057 0.894335 0.144396
#
# Coordination Sequence:
#
# PCOD9101494 Si02
#       8
#     2   2   2   2   2   2   2   2
#     4  11  20  35  64  94 127 157 203 254 309 377
#     4  11  22  40  60  95 126 158 203 258 311 355
#     4  10  22  42  66  82 121 169 210 249 304 373
#     4  10  22  39  62  89 129 159 202 257 310 374
#     4  10  22  40  65  91 119 167 201 254 320 362
#     4  10  20  38  59  90 117 173 203 238 310 368
#     4  10  21  36  62  86 134 167 196 246 317 382
#     4  10  23  40  64  88 123 161 216 250 298 371
#
# _framework density 22.116658000000001
#
# number of rings (size 3 to 8) (size 9 to 14) (size 15 to 20)
#    0.000    1.750    2.500    1.500    8.750    0.500 
#    6.750    5.000    0.000    0.000    0.000    0.000 
#    0.000    0.000    0.000    0.000    0.000    0.000 
#
# Total GULP energy -89194.834032 kJ/mol
# GULP energy per Si atom -5574.677127 kJ/mol
# Density = 2.206632 g / cm^3
# Si number density = 22.116658 Si / 1000 Ang^3
#
#
#
# Elastic Constant Matrix: (Units=GPa)
#
#
# Indices 1 2 3 4 5 6 
#
# 1 34.7169 10.3136 8.7975 5.8275 6.4559 7.5391
# 2 10.3136 58.9203 10.4604 9.8321 8.5898 10.5551
# 3 8.7975 10.4604 113.7135 -5.3932 28.9587 16.9347
# 4 5.8275 9.8321 -5.3932 43.9714 13.5843 1.8920
# 5 6.4559 8.5898 28.9587 13.5843 28.8243 -4.6970
# 6 7.5391 10.5551 16.9347 1.8920 -4.6970 20.1243
#
#
#
# Elastic Compliance Matrix: (Units=1/GPa)
#
#
# Indices 1 2 3 4 5 6 
#
# 1 0.035222 -0.001208 0.004953 0.002373 -0.017034 -0.020929
# 2 -0.001208 0.021448 0.004307 0.000907 -0.013763 -0.017719
# 3 0.004953 0.004307 0.023767 0.014794 -0.038878 -0.034580
# 4 0.002373 0.000907 0.014794 0.036633 -0.037155 -0.025930
# 5 -0.017034 -0.013763 -0.038878 -0.037155 0.111538 0.075842
# 6 -0.020929 -0.017719 -0.034580 -0.025930 0.075842 0.116063
#
#
# Mechanical properties :
#
#
# Convention : Reuss Voigt Hill
#
# Bulk Modulus (GPa) = 10.35816 29.61040 19.98428
# Shear Modulus (GPa) = 13.86011 30.43595 22.14803
#
# Velocity S-wave (km/s) = 2.50608 3.71368 3.16795
# Velocity P-wave (km/s) = 3.61490 5.63967 4.73674
#
# Compressibility (1/GPa) = 0.09654222
#
# Stress axis : x y z
#
# Youngs Moduli (GPa) = 28.39110 46.62387 42.07569
#
# Poissons Ratio (x) = 0.05633 -0.20842
# Poissons Ratio (y) = 0.03430 -0.18123
# Poissons Ratio (z) = -0.14063 -0.20082
#
# Static dielectric constant tensor:
#      x y z
#    x 1.873480 -0.016840 -0.004270 
#    y -0.016840 1.806810 -0.006410 
#    z -0.004270 -0.006410 1.873900 
# 
# From -- ./inp_files/285144.got.cif
#   From: 2010.05.17/outbox.cif.g08.bks.cpg/sg2_143_cif.got.tgz:285144.got - 2010.06.03 11:33:40.
