data_PCOD9101445
_publ_section_title
;
Structure prediction by ZEFSAII (Michael W. Deem and Ramdas Pophale) SiO2 
 PCOD9101445
Probable space group: P -1
;
_chemical_formula_sum "Si O2"
_cell_formula_units_Z 12
_cell_length_a 13.029251
_cell_length_b 5.204067
_cell_length_c 7.504358
_cell_angle_alpha 62.228496
_cell_angle_beta 79.901910
_cell_angle_gamma 86.144850
_cell_volume 443.187115
_symmetry_space_group_name_H-M "P -1"
_symmetry_group_IT_number 2
_symmetry_cell_setting 'triclinic'
loop_
_space_group_symop_operation_xyz
x,y,z
-x,-y,-z
loop_
_atom_site_type_symbol
_atom_site_label
_atom_site_fract_x
_atom_site_fract_y
_atom_site_fract_z
Si Si1 0.885206 0.238787 0.046410
Si Si2 0.591535 0.175143 0.662230
Si Si3 0.990356 0.380064 0.323571
Si Si4 0.829659 0.714509 0.448624
Si Si5 0.286241 0.329683 0.151419
Si Si6 0.551216 0.367683 0.244446
O O1 0.964605 0.268542 0.174389
O O2 0.818559 0.954438 0.219049
O O3 0.810408 0.516311 0.962252
O O4 0.955952 0.294780 0.831609
O O5 0.622272 0.308699 0.417527
O O6 0.529386 0.399860 0.727432
O O7 0.685240 0.005801 0.782539
O O8 0.507900 0.922386 0.710704
O O9 0.879972 0.434965 0.432325
O O10 0.076195 0.212515 0.462934
O O11 0.734667 0.662142 0.630394
O O12 0.381813 0.504718 0.977769
#
# Coordination Sequence:
#
# PCOD9101445 Si02
#       6
#     2   2   2   2   2   2
#     4  10  20  38  59  86 123 158 208 253 309 371
#     4  10  22  44  68  91 127 170 211 258 317 381
#     4   9  20  38  60  84 116 168 204 250 310 371
#     4  10  20  38  59  86 123 158 208 253 309 371
#     4  11  22  38  58  96 122 156 208 262 316 375
#     4  10  22  44  68  91 127 170 211 258 317 381
#
# _framework density 27.076602999999999
#
# number of rings (size 3 to 8) (size 9 to 14) (size 15 to 20)
#    0.000    2.000    0.000    3.000    0.000    0.000 
#   21.000    0.000    0.000    0.000    0.000    0.000 
#    0.000    0.000    0.000    0.000    0.000    0.000 
#
# Total GULP energy -67056.098025 kJ/mol
# GULP energy per Si atom -5588.008169 kJ/mol
# Density = 2.701498 g / cm^3
# Si number density = 27.076603 Si / 1000 Ang^3
#
#
#
# Elastic Constant Matrix: (Units=GPa)
#
#
# Indices 1 2 3 4 5 6 
#
# 1 80.5214 36.4211 37.1359 -3.7947 -4.2093 -23.9470
# 2 36.4211 98.1492 26.3328 -8.2841 -0.5647 -11.9132
# 3 37.1359 26.3328 208.9599 -8.9689 -11.7992 -17.1949
# 4 -3.7947 -8.2841 -8.9689 40.5836 -15.8466 6.3928
# 5 -4.2093 -0.5647 -11.7992 -15.8466 61.1457 -0.5865
# 6 -23.9470 -11.9132 -17.1949 6.3928 -0.5865 28.5208
#
#
#
# Elastic Compliance Matrix: (Units=1/GPa)
#
#
# Indices 1 2 3 4 5 6 
#
# 1 0.019607 -0.005288 -0.001726 -0.001485 0.000713 0.013561
# 2 -0.005288 0.012464 -0.000536 0.001996 0.000165 -0.000001
# 3 -0.001726 -0.000536 0.005391 0.001194 0.001239 0.001335
# 4 -0.001485 0.001996 0.001194 0.029108 0.007632 -0.006061
# 5 0.000713 0.000165 0.001239 0.007632 0.018623 0.000087
# 6 0.013561 -0.000001 0.001335 -0.006061 0.000087 0.048613
#
#
# Mechanical properties :
#
#
# Convention : Reuss Voigt Hill
#
# Bulk Modulus (GPa) = 44.71768 65.26779 54.99274
# Shear Modulus (GPa) = 31.97757 45.23273 38.60515
#
# Velocity S-wave (km/s) = 3.44030 4.09167 3.78004
# Velocity P-wave (km/s) = 5.68612 6.81759 6.27740
#
# Compressibility (1/GPa) = 0.02236252
#
# Stress axis : x y z
#
# Youngs Moduli (GPa) = 51.00175 80.23136 185.49762
#
# Poissons Ratio (x) = 0.42427 0.32012
# Poissons Ratio (y) = 0.26970 0.09943
# Poissons Ratio (z) = 0.08801 0.04300
#
# Static dielectric constant tensor:
#      x y z
#    x 2.249420 0.061820 -0.046820 
#    y 0.061820 2.158830 -0.105030 
#    z -0.046820 -0.105030 2.145900 
# 
# From -- ./inp_files/117456.got.cif
#   From: 2010.05.17/outbox.cif.g08.bks.cpg/sg2_59_cif.got.tgz:117456.got - 2010.06.03 11:33:40.
