data_PCOD9101006
_publ_section_title
;
Structure prediction by ZEFSAII (Michael W. Deem and Ramdas Pophale) SiO2 
 PCOD9101006
Probable space group: P -1
;
_chemical_formula_sum "Si O2"
_cell_formula_units_Z 16
_cell_length_a 13.048576
_cell_length_b 11.918716
_cell_length_c 8.779494
_cell_angle_alpha 118.067999
_cell_angle_beta 44.288585
_cell_angle_gamma 126.710692
_cell_volume 762.109823
_symmetry_space_group_name_H-M "P -1"
_symmetry_group_IT_number 2
_symmetry_cell_setting 'triclinic'
loop_
_space_group_symop_operation_xyz
x,y,z
-x,-y,-z
loop_
_atom_site_type_symbol
_atom_site_label
_atom_site_fract_x
_atom_site_fract_y
_atom_site_fract_z
Si Si1 0.615630 0.802553 0.465744
Si Si2 0.420192 0.722767 0.908121
Si Si3 0.865152 0.080792 0.009523
Si Si4 0.669925 0.511861 0.891643
Si Si5 0.886224 0.824004 0.956717
Si Si6 0.882991 0.335313 0.026267
Si Si7 0.327685 0.687231 0.478988
Si Si8 0.486390 0.942803 0.244560
O O1 0.563680 0.737213 0.647331
O O2 0.781546 0.831265 0.221737
O O3 0.480095 0.699443 0.427311
O O4 0.588240 0.944235 0.601610
O O5 0.262008 0.704121 0.966425
O O6 0.369893 0.587523 0.982132
O O7 0.471184 0.859257 0.049468
O O8 0.945083 0.211253 0.888866
O O9 0.891481 0.937290 0.897217
O O10 0.673727 0.022245 0.145112
O O11 0.938932 0.140125 0.135466
O O12 0.737403 0.444485 0.646396
O O13 0.500000 0.500000 0.000000
O O14 0.793936 0.668782 0.893920
O O15 0.803634 0.318295 0.265588
O O16 0.000000 0.500000 0.000000
O O17 0.397029 0.823867 0.387606
#
# Coordination Sequence:
#
# PCOD9101006 Si02
#       8
#     2   2   2   2   2   2   2   2
#     4  11  19  36  62  95 121 158 216 253 310 371
#     4  10  23  37  66  93 120 164 214 263 306 368
#     4  11  22  39  65  86 133 164 204 257 318 370
#     4  11  21  41  61  90 130 163 215 258 303 381
#     4  11  23  38  60  96 125 172 204 258 314 374
#     4  11  23  43  64  94 130 160 204 270 322 358
#     4  10  20  37  68  91 115 171 213 249 304 376
#     4  11  19  39  68  94 120 164 216 263 299 371
#
# _framework density 20.994350000000001
#
# number of rings (size 3 to 8) (size 9 to 14) (size 15 to 20)
#    0.000    1.250    5.000    3.000    0.000    0.500 
#    2.250    8.750    0.000    0.000    0.000    0.000 
#    0.000    0.000    0.000    0.000    0.000    0.000 
#
# Total GULP energy -89282.014041 kJ/mol
# GULP energy per Si atom -5580.125878 kJ/mol
# Density = 2.094657 g / cm^3
# Si number density = 20.994350 Si / 1000 Ang^3
#
#
#
# Elastic Constant Matrix: (Units=GPa)
#
#
# Indices 1 2 3 4 5 6 
#
# 1 96.5456 62.7915 28.3966 2.0774 10.5000 -13.7114
# 2 62.7915 194.4951 34.5042 12.4438 17.4284 8.9036
# 3 28.3966 34.5042 72.6798 1.6512 24.8454 8.8225
# 4 2.0774 12.4438 1.6512 22.8346 2.9671 4.3313
# 5 10.5000 17.4284 24.8454 2.9671 26.8843 -4.2898
# 6 -13.7114 8.9036 8.8225 4.3313 -4.2898 37.9554
#
#
#
# Elastic Compliance Matrix: (Units=1/GPa)
#
#
# Indices 1 2 3 4 5 6 
#
# 1 0.016321 -0.004860 -0.006715 -0.000681 0.004523 0.009186
# 2 -0.004860 0.007313 -0.000024 -0.002466 -0.003113 -0.003536
# 3 -0.006715 -0.000024 0.025689 0.003982 -0.023375 -0.011488
# 4 -0.000681 -0.002466 0.003982 0.047279 -0.008136 -0.006908
# 5 0.004523 -0.003113 -0.023375 -0.008136 0.062467 0.015786
# 6 0.009186 -0.003536 -0.011488 -0.006908 0.015786 0.035737
#
#
# Mechanical properties :
#
#
# Convention : Reuss Voigt Hill
#
# Bulk Modulus (GPa) = 38.27747 68.34500 53.31124
# Shear Modulus (GPa) = 22.05434 33.40341 27.72888
#
# Velocity S-wave (km/s) = 3.24464 3.99315 3.63819
# Velocity P-wave (km/s) = 5.68408 7.34064 6.56482
#
# Compressibility (1/GPa) = 0.02612503
#
# Stress axis : x y z
#
# Youngs Moduli (GPa) = 61.26972 136.73491 38.92784
#
# Poissons Ratio (x) = 0.66455 0.26142
# Poissons Ratio (y) = 0.29778 0.00092
# Poissons Ratio (z) = 0.41145 0.00322
#
# Static dielectric constant tensor:
#      x y z
#    x 1.786920 -0.057130 -0.041340 
#    y -0.057130 1.814160 0.037160 
#    z -0.041340 0.037160 1.800480 
# 
# From -- ./inp_files/262806.got.cif
#   From: 2010.05.17/outbox.cif.g08.bks.cpg/sg2_132_cif.got.tgz:262806.got - 2010.06.03 11:33:40.
