data_PCOD9101397
_publ_section_title
;
Structure prediction by ZEFSAII (Michael W. Deem and Ramdas Pophale) SiO2 
 PCOD9101397
Probable space group: P -1
;
_chemical_formula_sum "Si O2"
_cell_formula_units_Z 16
_cell_length_a 14.677125
_cell_length_b 14.733214
_cell_length_c 7.739381
_cell_angle_alpha 73.311659
_cell_angle_beta 82.975463
_cell_angle_gamma 146.556873
_cell_volume 643.167508
_symmetry_space_group_name_H-M "P -1"
_symmetry_group_IT_number 2
_symmetry_cell_setting 'triclinic'
loop_
_space_group_symop_operation_xyz
x,y,z
-x,-y,-z
loop_
_atom_site_type_symbol
_atom_site_label
_atom_site_fract_x
_atom_site_fract_y
_atom_site_fract_z
Si Si1 0.424936 0.683708 0.434827
Si Si2 0.667504 0.746190 0.177690
Si Si3 0.283152 0.251959 0.460004
Si Si4 0.992947 0.649174 0.458320
Si Si5 0.809792 0.182965 0.055885
Si Si6 0.717738 0.353123 0.205156
Si Si7 0.596394 0.067209 0.654493
Si Si8 0.091031 0.948107 0.385987
O O1 0.467684 0.626759 0.360893
O O2 0.311594 0.581908 0.705124
O O3 0.275982 0.608985 0.379595
O O4 0.666363 0.957881 0.268545
O O5 0.540822 0.532409 0.258965
O O6 0.797662 0.848265 0.270841
O O7 0.798347 0.919610 0.897073
O O8 0.251325 0.135108 0.401257
O O9 0.131822 0.196980 0.460234
O O10 0.150715 0.715024 0.456493
O O11 0.031838 0.781748 0.484170
O O12 0.089316 0.748960 0.188186
O O13 0.624023 0.090272 0.123203
O O14 0.013016 0.398482 0.023820
O O15 0.656872 0.203081 0.419210
O O16 0.518653 0.146411 0.228318
#
# Coordination Sequence:
#
# PCOD9101397 Si02
#       8
#     2   2   2   2   2   2   2   2
#     4  10  21  37  59  87 124 163 205 257 310 374
#     4  11  21  42  67  91 126 169 209 254 324 377
#     4  10  24  40  68  93 125 164 209 264 316 377
#     4  11  22  36  59  88 126 163 205 262 313 368
#     4  10  20  38  59  83 116 164 207 251 313 372
#     4   9  21  38  58  84 121 159 207 267 306 367
#     4  10  21  37  59  85 120 160 208 257 316 367
#     4  11  22  42  63  95 129 161 211 265 310 379
#
# _framework density 24.876878000000001
#
# number of rings (size 3 to 8) (size 9 to 14) (size 15 to 20)
#    0.000    1.750    2.500    1.500    1.750    5.500 
#    0.000    0.000    5.500    0.000    0.000    0.000 
#    0.000    0.000    0.000    0.000    0.000    0.000 
#
# Total GULP energy -89214.723781 kJ/mol
# GULP energy per Si atom -5575.920236 kJ/mol
# Density = 2.482026 g / cm^3
# Si number density = 24.876878 Si / 1000 Ang^3
#
#
#
# Elastic Constant Matrix: (Units=GPa)
#
#
# Indices 1 2 3 4 5 6 
#
# 1 58.0313 20.0161 0.3086 -9.9073 -19.4485 8.4890
# 2 20.0161 107.9444 7.5424 -23.0217 -7.2664 -19.7909
# 3 0.3086 7.5424 40.2180 -8.5148 -5.2465 -5.3639
# 4 -9.9073 -23.0217 -8.5148 37.8625 0.6061 -6.3906
# 5 -19.4485 -7.2664 -5.2465 0.6061 26.2942 -0.1699
# 6 8.4890 -19.7909 -5.3639 -6.3906 -0.1699 36.4072
#
#
#
# Elastic Compliance Matrix: (Units=1/GPa)
#
#
# Indices 1 2 3 4 5 6 
#
# 1 0.026870 -0.004616 0.002803 0.003250 0.019033 -0.007702
# 2 -0.004616 0.013969 0.000816 0.009219 0.000464 0.010411
# 3 0.002803 0.000816 0.028202 0.008368 0.007768 0.005450
# 4 0.003250 0.009219 0.008368 0.036673 0.005853 0.011951
# 5 0.019033 0.000464 0.007768 0.005853 0.053641 -0.001764
# 6 -0.007702 0.010411 0.005450 0.011951 -0.001764 0.037815
#
#
# Mechanical properties :
#
#
# Convention : Reuss Voigt Hill
#
# Bulk Modulus (GPa) = 14.91477 29.10311 22.00894
# Shear Modulus (GPa) = 22.57229 32.00122 27.28675
#
# Velocity S-wave (km/s) = 3.01551 3.59051 3.31550
# Velocity P-wave (km/s) = 4.25827 5.37711 4.85006
#
# Compressibility (1/GPa) = 0.06704761
#
# Stress axis : x y z
#
# Youngs Moduli (GPa) = 37.21683 71.58672 35.45879
#
# Poissons Ratio (x) = 0.33045 -0.09940
# Poissons Ratio (y) = 0.17180 -0.02895
# Poissons Ratio (z) = -0.10433 -0.05845
#
# Static dielectric constant tensor:
#      x y z
#    x 2.021000 0.007640 -0.058810 
#    y 0.007640 2.159080 0.036300 
#    z -0.058810 0.036300 1.971830 
# 
# From -- ./inp_files/51634.got.cif
#   From: 2010.05.17/outbox.cif.g08.bks.cpg/sg2_26_cif.got.tgz:51634.got - 2010.06.03 11:33:40.
