data_PCOD9101788
_publ_section_title
;
Structure prediction by ZEFSAII (Michael W. Deem and Ramdas Pophale) SiO2 
 PCOD9101788
Probable space group: P -1
;
_chemical_formula_sum "Si O2"
_cell_formula_units_Z 16
_cell_length_a 20.387040
_cell_length_b 12.491088
_cell_length_c 20.550482
_cell_angle_alpha 150.555249
_cell_angle_beta 19.873587
_cell_angle_gamma 138.053380
_cell_volume 780.998854
_symmetry_space_group_name_H-M "P -1"
_symmetry_group_IT_number 2
_symmetry_cell_setting 'triclinic'
loop_
_space_group_symop_operation_xyz
x,y,z
-x,-y,-z
loop_
_atom_site_type_symbol
_atom_site_label
_atom_site_fract_x
_atom_site_fract_y
_atom_site_fract_z
Si Si1 0.245379 0.321950 0.691506
Si Si2 0.630157 0.199892 0.664496
Si Si3 0.189131 0.634792 0.533969
Si Si4 0.437443 0.341834 0.714517
Si Si5 0.728051 0.022915 0.614298
Si Si6 0.755582 0.275596 0.011508
Si Si7 0.290840 0.160544 0.874194
Si Si8 0.425458 0.089847 0.043898
O O1 0.248775 0.098743 0.613287
O O2 0.342441 0.174065 0.456476
O O3 0.330265 0.499430 0.738113
O O4 0.000000 0.500000 0.000000
O O5 0.745174 0.317547 0.574061
O O6 0.649364 0.227532 0.738895
O O7 0.396778 0.255855 0.882279
O O8 0.359164 0.666716 0.439924
O O9 0.229926 0.359492 0.363311
O O10 0.941131 0.810535 0.873777
O O11 0.284372 0.303537 0.889641
O O12 0.543902 0.114992 0.445682
O O13 0.304614 0.587201 0.928924
O O14 0.614573 0.103909 0.831884
O O15 0.986663 0.888164 0.307712
O O16 0.644577 0.099867 0.023475
O O17 0.500000 0.000000 0.000000
#
# Coordination Sequence:
#
# PCOD9101788 Si02
#       8
#     2   2   2   2   2   2   2   2
#     4   8  17  41  66  95 122 159 213 266 326 365
#     4   9  20  42  63  91 124 159 212 264 319 369
#     4  11  24  41  60  90 133 168 215 259 302 391
#     4  10  20  38  60  93 129 163 215 257 321 376
#     4   9  23  43  66  95 125 168 209 271 320 366
#     4  11  21  40  69  93 127 168 205 273 323 369
#     4  10  21  37  64  93 124 170 206 265 323 367
#     4  12  27  43  59  97 133 172 223 247 310 397
#
# _framework density 20.486584000000001
#
# number of rings (size 3 to 8) (size 9 to 14) (size 15 to 20)
#    0.750    1.250    2.500    0.375    1.750    4.500 
#    4.500    1.250    0.000    0.000    0.000    0.000 
#    0.000    0.000    0.000    0.000    0.000    0.000 
#
# Total GULP energy -89124.403993 kJ/mol
# GULP energy per Si atom -5570.275250 kJ/mol
# Density = 2.043996 g / cm^3
# Si number density = 20.486584 Si / 1000 Ang^3
#
#
#
# Elastic Constant Matrix: (Units=GPa)
#
#
# Indices 1 2 3 4 5 6 
#
# 1 104.8218 39.1019 36.9790 -17.2850 -3.3287 -23.9906
# 2 39.1019 81.2339 11.5378 -0.5915 1.7640 -5.6981
# 3 36.9790 11.5378 39.3405 -13.2971 0.3572 -20.2347
# 4 -17.2850 -0.5915 -13.2971 33.1434 0.4331 1.5285
# 5 -3.3287 1.7640 0.3572 0.4331 19.5709 2.7196
# 6 -23.9906 -5.6981 -20.2347 1.5285 2.7196 28.7504
#
#
#
# Elastic Compliance Matrix: (Units=1/GPa)
#
#
# Indices 1 2 3 4 5 6 
#
# 1 0.017906 -0.006784 -0.010225 0.004806 0.002922 0.005869
# 2 -0.006784 0.015504 -0.000676 -0.003381 -0.002091 -0.002686
# 3 -0.010225 -0.000676 0.056728 0.016076 -0.007391 0.031103
# 4 0.004806 -0.003381 0.016076 0.038502 -0.001799 0.012778
# 5 0.002922 -0.002091 -0.007391 -0.001799 0.053083 -0.008104
# 6 0.005869 -0.002686 0.031103 0.012778 -0.008104 0.061125
#
#
# Mechanical properties :
#
#
# Convention : Reuss Voigt Hill
#
# Bulk Modulus (GPa) = 18.25885 44.51484 31.38684
# Shear Modulus (GPa) = 16.86494 25.47811 21.17153
#
# Velocity S-wave (km/s) = 2.87229 3.53037 3.21819
# Velocity P-wave (km/s) = 4.46453 6.19628 5.40027
#
# Compressibility (1/GPa) = 0.05476797
#
# Stress axis : x y z
#
# Youngs Moduli (GPa) = 55.84599 64.50017 17.62810
#
# Poissons Ratio (x) = 0.43755 0.18025
# Poissons Ratio (y) = 0.37884 0.01191
# Poissons Ratio (z) = 0.57105 0.04359
#
# Static dielectric constant tensor:
#      x y z
#    x 1.799370 0.036690 0.053870 
#    y 0.036690 1.755110 0.081860 
#    z 0.053870 0.081860 1.756700 
# 
# From -- ./inp_files/601443.got.cif
#   From: 2010.05.17/outbox.cif.g08.bks.cpg/sg2_301_cif.got.tgz:601443.got - 2010.06.03 11:33:40.
