data_PCOD9101919
_publ_section_title
;
Structure prediction by ZEFSAII (Michael W. Deem and Ramdas Pophale) SiO2 
 PCOD9101919
Probable space group: P -1
;
_chemical_formula_sum "Si O2"
_cell_formula_units_Z 14
_cell_length_a 7.995247
_cell_length_b 9.181712
_cell_length_c 19.581995
_cell_angle_alpha 59.932287
_cell_angle_beta 150.471781
_cell_angle_gamma 123.757116
_cell_volume 588.493877
_symmetry_space_group_name_H-M "P -1"
_symmetry_group_IT_number 2
_symmetry_cell_setting 'triclinic'
loop_
_space_group_symop_operation_xyz
x,y,z
-x,-y,-z
loop_
_atom_site_type_symbol
_atom_site_label
_atom_site_fract_x
_atom_site_fract_y
_atom_site_fract_z
Si Si1 0.710760 0.502221 0.340912
Si Si2 0.600669 0.641386 0.076190
Si Si3 0.897871 0.732710 0.978582
Si Si4 0.299556 0.822871 0.805401
Si Si5 0.162755 0.342136 0.442600
Si Si6 0.390565 0.157869 0.847447
Si Si7 0.702546 0.364145 0.737585
O O1 0.730456 0.689731 0.270802
O O2 0.372063 0.481798 0.276591
O O3 0.000000 0.500000 0.500000
O O4 0.827712 0.391225 0.347956
O O5 0.722268 0.818480 0.121673
O O6 0.325876 0.472812 0.053281
O O7 0.415754 0.691355 0.931565
O O8 0.039400 0.411146 0.796670
O O9 0.180430 0.785744 0.006957
O O10 0.164566 0.753273 0.132886
O O11 0.641525 0.852423 0.870528
O O12 0.979688 0.765207 0.651366
O O13 0.262860 0.979678 0.803040
O O14 0.500000 0.500000 0.500000
O O15 0.356769 0.273728 0.591165
#
# Coordination Sequence:
#
# PCOD9101919 Si02
#       7
#     2   2   2   2   2   2   2
#     4   9  20  38  60  85 117 160 204 246 299 364
#     4  11  21  39  64  90 121 165 208 246 297 368
#     4  10  20  38  61  87 119 161 207 251 298 365
#     4  11  23  38  60  94 127 158 200 253 310 360
#     4  11  20  37  62  87 118 160 204 250 299 364
#     4  11  22  38  61  92 125 159 201 258 309 355
#     4   9  19  36  59  85 115 151 203 252 289 348
#
# _framework density 23.789542000000001
#
# number of rings (size 3 to 8) (size 9 to 14) (size 15 to 20)
#    0.000    1.714    0.000    6.429    0.000    1.143 
#    0.000   12.857    0.000    6.857    0.000    0.000 
#    0.000    0.000    0.000    0.000    0.000    0.000 
#
# Total GULP energy -77935.741182 kJ/mol
# GULP energy per Si atom -5566.838656 kJ/mol
# Density = 2.373540 g / cm^3
# Si number density = 23.789542 Si / 1000 Ang^3
#
#
#
# Elastic Constant Matrix: (Units=GPa)
#
#
# Indices 1 2 3 4 5 6 
#
# 1 85.6926 35.0321 27.4454 16.4106 13.8660 -36.4240
# 2 35.0321 129.8719 57.9884 22.9243 5.5099 -46.6449
# 3 27.4454 57.9884 158.4556 13.2237 -2.0070 -22.7065
# 4 16.4106 22.9243 13.2237 25.6609 -8.5216 -13.9726
# 5 13.8660 5.5099 -2.0070 -8.5216 38.3852 -0.3736
# 6 -36.4240 -46.6449 -22.7065 -13.9726 -0.3736 40.5610
#
#
#
# Elastic Compliance Matrix: (Units=1/GPa)
#
#
# Indices 1 2 3 4 5 6 
#
# 1 0.023292 0.004536 -0.001921 -0.009942 -0.011163 0.021530
# 2 0.004536 0.016059 -0.003538 -0.007540 -0.005628 0.017911
# 3 -0.001921 -0.003538 0.007746 0.000191 0.001636 -0.001376
# 4 -0.009942 -0.007540 0.000191 0.059695 0.017968 0.003238
# 5 -0.011163 -0.005628 0.001636 0.017968 0.034878 -0.009070
# 6 0.021530 0.017911 -0.001376 0.003238 -0.009070 0.064846
#
#
# Mechanical properties :
#
#
# Convention : Reuss Voigt Hill
#
# Bulk Modulus (GPa) = 22.09908 68.32799 45.21354
# Shear Modulus (GPa) = 22.37686 37.82501 30.10093
#
# Velocity S-wave (km/s) = 3.07028 3.99179 3.56097
# Velocity P-wave (km/s) = 4.67743 7.07319 5.99618
#
# Compressibility (1/GPa) = 0.04525076
#
# Stress axis : x y z
#
# Youngs Moduli (GPa) = 42.93332 62.27195 129.10083
#
# Poissons Ratio (x) = -0.28245 0.24797
# Poissons Ratio (y) = -0.19474 0.45675
# Poissons Ratio (z) = 0.08246 0.22031
#
# Static dielectric constant tensor:
#      x y z
#    x 2.228450 0.013770 -0.040460 
#    y 0.013770 1.984100 0.002350 
#    z -0.040460 0.002350 1.902870 
# 
# From -- ./inp_files/587375.got.cif
#   From: 2010.05.17/outbox.cif.g08.bks.cpg/sg2_294_cif.got.tgz:587375.got - 2010.06.03 11:33:40.
