data_PCOD9101847
_publ_section_title
;
Structure prediction by ZEFSAII (Michael W. Deem and Ramdas Pophale) SiO2 
 PCOD9101847
Probable space group: P -1
;
_chemical_formula_sum "Si O2"
_cell_formula_units_Z 16
_cell_length_a 13.894883
_cell_length_b 9.477329
_cell_length_c 12.980958
_cell_angle_alpha 144.458728
_cell_angle_beta 128.279016
_cell_angle_gamma 51.738027
_cell_volume 754.772403
_symmetry_space_group_name_H-M "P -1"
_symmetry_group_IT_number 2
_symmetry_cell_setting 'triclinic'
loop_
_space_group_symop_operation_xyz
x,y,z
-x,-y,-z
loop_
_atom_site_type_symbol
_atom_site_label
_atom_site_fract_x
_atom_site_fract_y
_atom_site_fract_z
Si Si1 0.126303 0.339937 0.536039
Si Si2 0.253591 0.611209 0.261345
Si Si3 0.562663 0.320554 0.762607
Si Si4 0.248158 0.698856 0.961087
Si Si5 0.337073 0.245352 0.466168
Si Si6 0.776130 0.755554 0.819989
Si Si7 0.920882 0.414258 0.050975
Si Si8 0.878838 0.938595 0.433244
O O1 0.205405 0.508374 0.745087
O O2 0.218849 0.206920 0.430083
O O3 0.087270 0.172026 0.496591
O O4 0.000000 0.500000 0.500000
O O5 0.353792 0.659641 0.272389
O O6 0.283599 0.340602 0.176089
O O7 0.228637 0.813275 0.458676
O O8 0.125818 0.631325 0.120910
O O9 0.419650 0.403105 0.675349
O O10 0.577195 0.039240 0.650763
O O11 0.625753 0.429544 0.965283
O O12 0.137816 0.751862 0.006916
O O13 0.250976 0.948812 0.048652
O O14 0.282252 0.347147 0.380452
O O15 0.928341 0.647150 0.868501
O O16 0.856879 0.705657 0.213326
O O17 0.000000 0.000000 0.500000
#
# Coordination Sequence:
#
# PCOD9101847 Si02
#       8
#     2   2   2   2   2   2   2   2
#     4  11  23  36  59  91 118 151 188 247 298 338
#     4  11  22  37  60  84 120 162 185 243 300 344
#     4   9  20  40  61  80 109 157 203 237 285 346
#     4   9  21  36  56  82 116 151 194 240 287 347
#     4  10  20  38  61  84 112 150 203 242 279 350
#     4  11  21  35  56  86 115 152 192 238 293 350
#     4  10  21  37  56  85 118 157 193 238 291 355
#     4  11  22  36  55  88 119 152 194 230 294 356
#
# _framework density 21.198443000000001
#
# number of rings (size 3 to 8) (size 9 to 14) (size 15 to 20)
#    0.000    1.750    2.500    2.250    1.750    1.000 
#    0.000    0.000    0.000    0.750    0.000    0.000 
#    0.000    0.000    0.000    0.000    0.000    0.000 
#
# Total GULP energy -89130.059860 kJ/mol
# GULP energy per Si atom -5570.628741 kJ/mol
# Density = 2.115019 g / cm^3
# Si number density = 21.198443 Si / 1000 Ang^3
#
#
#
# Elastic Constant Matrix: (Units=GPa)
#
#
# Indices 1 2 3 4 5 6 
#
# 1 81.7351 40.0724 11.2007 -10.0306 12.0130 12.4184
# 2 40.0724 81.4860 29.8499 -14.7679 8.2155 32.0383
# 3 11.2007 29.8499 97.8646 -12.9244 7.6774 -1.2508
# 4 -10.0306 -14.7679 -12.9244 40.3646 -3.4549 10.5758
# 5 12.0130 8.2155 7.6774 -3.4549 25.2636 -1.9870
# 6 12.4184 32.0383 -1.2508 10.5758 -1.9870 35.1370
#
#
#
# Elastic Compliance Matrix: (Units=1/GPa)
#
#
# Indices 1 2 3 4 5 6 
#
# 1 0.016996 -0.008816 0.001256 0.000515 -0.005399 0.001616
# 2 -0.008816 0.039094 -0.008389 0.019077 -0.006425 -0.038934
# 3 0.001256 -0.008389 0.012719 -0.000845 -0.001233 0.007843
# 4 0.000515 0.019077 -0.000845 0.039082 -0.003171 -0.029549
# 5 -0.005399 -0.006425 -0.001233 -0.003171 0.045063 0.011225
# 6 0.001616 -0.038934 0.007843 -0.029549 0.011225 0.073197
#
#
# Mechanical properties :
#
#
# Convention : Reuss Voigt Hill
#
# Bulk Modulus (GPa) = 27.09326 47.03685 37.06506
# Shear Modulus (GPa) = 18.49440 32.15054 25.32247
#
# Velocity S-wave (km/s) = 2.95692 3.89864 3.45997
# Velocity P-wave (km/s) = 4.94635 6.51942 5.78659
#
# Compressibility (1/GPa) = 0.03690954
#
# Stress axis : x y z
#
# Youngs Moduli (GPa) = 58.83779 25.57957 78.62491
#
# Poissons Ratio (x) = 0.22551 -0.09875
# Poissons Ratio (y) = 0.51872 0.65961
# Poissons Ratio (z) = -0.07390 0.21459
#
# Static dielectric constant tensor:
#      x y z
#    x 1.790130 -0.002860 0.011860 
#    y -0.002860 1.769600 0.025460 
#    z 0.011860 0.025460 1.822870 
# 
# From -- ./inp_files/204188.got.cif
#   From: 2010.05.17/outbox.cif.g08.bks.cpg/sg2_103_cif.got.tgz:204188.got - 2010.06.03 11:33:40.
