data_PCOD9101206
_publ_section_title
;
Structure prediction by ZEFSAII (Michael W. Deem and Ramdas Pophale) SiO2 
 PCOD9101206
Probable space group: P -1
;
_chemical_formula_sum "Si O2"
_cell_formula_units_Z 16
_cell_length_a 23.351627
_cell_length_b 10.083957
_cell_length_c 14.952187
_cell_angle_alpha 30.980106
_cell_angle_beta 156.153427
_cell_angle_gamma 148.766269
_cell_volume 688.871483
_symmetry_space_group_name_H-M "P -1"
_symmetry_group_IT_number 2
_symmetry_cell_setting 'triclinic'
loop_
_space_group_symop_operation_xyz
x,y,z
-x,-y,-z
loop_
_atom_site_type_symbol
_atom_site_label
_atom_site_fract_x
_atom_site_fract_y
_atom_site_fract_z
Si Si1 0.167900 0.864029 0.228072
Si Si2 0.199633 0.158270 0.742558
Si Si3 0.299830 0.538652 0.493416
Si Si4 0.576034 0.971453 0.357008
Si Si5 0.598291 0.572445 0.478923
Si Si6 0.596826 0.518589 0.998826
Si Si7 0.735276 0.509068 0.023606
Si Si8 0.924358 0.340601 0.253239
O O1 0.222689 0.764337 0.271750
O O2 0.013868 0.645302 0.168863
O O3 0.298722 0.873458 0.481113
O O4 0.176208 0.173437 0.054659
O O5 0.229220 0.314464 0.598870
O O6 0.328502 0.296608 0.917616
O O7 0.051227 0.211811 0.535811
O O8 0.162691 0.844027 0.846788
O O9 0.293698 0.426876 0.449391
O O10 0.477929 0.637640 0.714649
O O11 0.650672 0.825863 0.474983
O O12 0.450109 0.715514 0.371133
O O13 0.519203 0.201054 0.100359
O O14 0.436906 0.576059 0.208585
O O15 0.718425 0.495048 0.114040
O O16 0.817230 0.339507 0.183392
#
# Coordination Sequence:
#
# PCOD9101206 Si02
#       8
#     2   2   2   2   2   2   2   2
#     4  10  21  43  58  84 118 160 193 234 288 341
#     4  10  22  39  58  90 115 151 194 242 293 332
#     4  10  21  38  61  86 120 152 185 241 294 348
#     4  10  20  38  57  86 124 146 196 232 292 345
#     4   9  22  37  58  91 117 156 184 238 297 350
#     4  11  22  37  59  94 114 150 192 244 291 347
#     4  10  23  37  62  87 117 154 196 235 287 345
#     4  10  21  40  61  80 116 159 196 238 281 341
#
# _framework density 23.226391
#
# number of rings (size 3 to 8) (size 9 to 14) (size 15 to 20)
#    0.000    2.000    2.500    0.750    3.500    6.000 
#    0.000    0.625    0.000    0.000    0.000    0.000 
#    0.000    0.000    0.000    0.000    0.000    0.000 
#
# Total GULP energy -89474.374676 kJ/mol
# GULP energy per Si atom -5592.148417 kJ/mol
# Density = 2.317353 g / cm^3
# Si number density = 23.226391 Si / 1000 Ang^3
#
#
#
# Elastic Constant Matrix: (Units=GPa)
#
#
# Indices 1 2 3 4 5 6 
#
# 1 140.7850 7.8933 25.5337 -10.7764 40.0061 -26.0034
# 2 7.8933 60.2288 1.1121 -7.1628 10.2213 -4.5877
# 3 25.5337 1.1121 36.6179 -8.0285 21.3662 -7.7801
# 4 -10.7764 -7.1628 -8.0285 13.4588 -1.8316 4.6989
# 5 40.0061 10.2213 21.3662 -1.8316 37.0725 -8.2912
# 6 -26.0034 -4.5877 -7.7801 4.6989 -8.2912 22.2711
#
#
#
# Elastic Compliance Matrix: (Units=1/GPa)
#
#
# Indices 1 2 3 4 5 6 
#
# 1 0.012605 0.002163 0.002505 0.007620 -0.013132 0.009541
# 2 0.002163 0.020061 0.008309 0.015067 -0.011435 0.002125
# 3 0.002505 0.008309 0.052110 0.031673 -0.032560 0.004037
# 4 0.007620 0.015067 0.031673 0.106973 -0.027527 -0.009753
# 5 -0.013132 -0.011435 -0.032560 -0.027527 0.061634 -0.000309
# 6 0.009541 0.002125 0.004037 -0.009753 -0.000309 0.059832
#
#
# Mechanical properties :
#
#
# Convention : Reuss Voigt Hill
#
# Bulk Modulus (GPa) = 9.03084 34.07888 21.55486
# Shear Modulus (GPa) = 15.42408 28.10001 21.76204
#
# Velocity S-wave (km/s) = 2.57976 3.48204 3.06429
# Velocity P-wave (km/s) = 3.57354 5.55612 4.67122
#
# Compressibility (1/GPa) = 0.11073163
#
# Stress axis : x y z
#
# Youngs Moduli (GPa) = 79.33631 49.84856 19.19025
#
# Poissons Ratio (x) = -0.10784 -0.04808
# Poissons Ratio (y) = -0.17164 -0.15946
# Poissons Ratio (z) = -0.19877 -0.41421
#
# Static dielectric constant tensor:
#      x y z
#    x 1.887940 0.013870 0.002840 
#    y 0.013870 1.868920 -0.001430 
#    z 0.002840 -0.001430 1.905290 
# 
# From -- ./inp_files/540395.got.cif
#   From: 2010.05.17/outbox.cif.g08.bks.cpg/sg2_271_cif.got.tgz:540395.got - 2010.06.03 11:33:40.
