data_PCOD9101804
_publ_section_title
;
Structure prediction by ZEFSAII (Michael W. Deem and Ramdas Pophale) SiO2 
 PCOD9101804
Probable space group: P -1
;
_chemical_formula_sum "Si O2"
_cell_formula_units_Z 16
_cell_length_a 9.615341
_cell_length_b 5.172557
_cell_length_c 14.330416
_cell_angle_alpha 117.133578
_cell_angle_beta 101.895505
_cell_angle_gamma 77.622723
_cell_volume 614.720148
_symmetry_space_group_name_H-M "P -1"
_symmetry_group_IT_number 2
_symmetry_cell_setting 'triclinic'
loop_
_space_group_symop_operation_xyz
x,y,z
-x,-y,-z
loop_
_atom_site_type_symbol
_atom_site_label
_atom_site_fract_x
_atom_site_fract_y
_atom_site_fract_z
Si Si1 0.636095 0.655855 0.511850
Si Si2 0.484821 0.713274 0.319865
Si Si3 0.187057 0.842890 0.776396
Si Si4 0.287705 0.763379 0.988623
Si Si5 0.931541 0.252175 0.899908
Si Si6 0.801065 0.431930 0.728353
Si Si7 0.442209 0.171197 0.860523
Si Si8 0.082365 0.237964 0.356120
O O1 0.500000 0.500000 0.500000
O O2 0.620517 0.671499 0.400017
O O3 0.803725 0.570997 0.548589
O O4 0.595526 0.970220 0.607740
O O5 0.368584 0.508070 0.301681
O O6 0.511889 0.705064 0.212261
O O7 0.237407 0.745666 0.871739
O O8 0.090123 0.681795 0.664450
O O9 0.332878 0.947891 0.777982
O O10 0.060071 0.100851 0.828599
O O11 0.350191 0.419184 0.952966
O O12 0.152245 0.885516 0.052176
O O13 0.418401 0.925281 0.071826
O O14 0.815042 0.400012 0.835332
O O15 0.000000 0.500000 0.000000
O O16 0.873787 0.687351 0.732605
O O17 0.874552 0.097140 0.654458
#
# Coordination Sequence:
#
# PCOD9101804 Si02
#       8
#     2   2   2   2   2   2   2   2
#     4  10  20  39  67  98 120 167 222 285 333 396
#     4  10  21  39  64  93 134 165 221 275 338 394
#     4  11  24  40  62  94 134 178 219 277 331 394
#     4  11  23  41  62  93 132 183 224 265 323 398
#     4  11  20  38  62  91 130 172 233 271 316 383
#     4  10  20  38  60  97 128 170 214 276 326 382
#     4  11  24  43  60  95 139 177 217 268 337 408
#     4  10  22  38  67  95 131 163 221 278 333 389
#
# _framework density 26.028102000000001
#
# number of rings (size 3 to 8) (size 9 to 14) (size 15 to 20)
#    0.000    1.500    3.750    1.500    1.750    2.000 
#    0.000    0.625    0.000    1.500    0.000    0.000 
#    0.000    0.000    0.000    0.000    0.000    0.000 
#
# Total GULP energy -89126.905794 kJ/mol
# GULP energy per Si atom -5570.431612 kJ/mol
# Density = 2.596886 g / cm^3
# Si number density = 26.028102 Si / 1000 Ang^3
#
#
#
# Elastic Constant Matrix: (Units=GPa)
#
#
# Indices 1 2 3 4 5 6 
#
# 1 165.6879 17.0887 52.9144 -5.9298 51.1351 1.7252
# 2 17.0887 40.6771 6.1890 -10.0891 2.1240 0.3623
# 3 52.9144 6.1890 91.1825 -12.6075 20.8470 -14.4706
# 4 -5.9298 -10.0891 -12.6075 37.1459 -11.8697 9.0691
# 5 51.1351 2.1240 20.8470 -11.8697 67.0963 -0.4112
# 6 1.7252 0.3623 -14.4706 9.0691 -0.4112 33.3014
#
#
#
# Elastic Compliance Matrix: (Units=1/GPa)
#
#
# Indices 1 2 3 4 5 6 
#
# 1 0.009788 -0.003704 -0.004623 -0.002600 -0.006377 -0.001847
# 2 -0.003704 0.028120 0.000316 0.008802 0.003378 -0.002332
# 3 -0.004623 0.000316 0.015123 0.002798 -0.000653 0.006038
# 4 -0.002600 0.008802 0.002798 0.033946 0.006790 -0.007906
# 5 -0.006377 0.003378 -0.000653 0.006790 0.021052 -0.001579
# 6 -0.001847 -0.002332 0.006038 -0.007906 -0.001579 0.034907
#
#
# Mechanical properties :
#
#
# Convention : Reuss Voigt Hill
#
# Bulk Modulus (GPa) = 27.02183 49.99243 38.50713
# Shear Modulus (GPa) = 29.18937 42.26573 35.72755
#
# Velocity S-wave (km/s) = 3.35245 4.03407 3.70895
# Velocity P-wave (km/s) = 5.03880 6.39899 5.75920
#
# Compressibility (1/GPa) = 0.03700712
#
# Stress axis : x y z
#
# Youngs Moduli (GPa) = 102.16196 35.56251 66.12478
#
# Poissons Ratio (x) = 0.13173 0.30572
# Poissons Ratio (y) = 0.37841 -0.02087
# Poissons Ratio (z) = 0.47233 -0.01122
#
# Static dielectric constant tensor:
#      x y z
#    x 2.120250 -0.071330 0.087200 
#    y -0.071330 2.303260 0.025760 
#    z 0.087200 0.025760 2.187320 
# 
# From -- ./inp_files/139035.got.cif
#   From: 2010.05.17/outbox.cif.g08.bks.cpg/sg2_70_cif.got.tgz:139035.got - 2010.06.03 11:33:40.
