data_PCOD9101748
_publ_section_title
;
Structure prediction by ZEFSAII (Michael W. Deem and Ramdas Pophale) SiO2 
 PCOD9101748
Probable space group: P -1
;
_chemical_formula_sum "Si O2"
_cell_formula_units_Z 14
_cell_length_a 7.227793
_cell_length_b 17.963609
_cell_length_c 7.900170
_cell_angle_alpha 120.513478
_cell_angle_beta 141.838614
_cell_angle_gamma 59.584718
_cell_volume 534.854995
_symmetry_space_group_name_H-M "P -1"
_symmetry_group_IT_number 2
_symmetry_cell_setting 'triclinic'
loop_
_space_group_symop_operation_xyz
x,y,z
-x,-y,-z
loop_
_atom_site_type_symbol
_atom_site_label
_atom_site_fract_x
_atom_site_fract_y
_atom_site_fract_z
Si Si1 0.272735 0.617356 0.170421
Si Si2 0.151992 0.489670 0.408435
Si Si3 0.316812 0.936520 0.198069
Si Si4 0.743150 0.192189 0.467583
Si Si5 0.177747 0.770147 0.815911
Si Si6 0.314401 0.093664 0.910736
Si Si7 0.283822 0.340333 0.748192
O O1 0.488058 0.539023 0.339745
O O2 0.239095 0.712156 0.341421
O O3 0.470488 0.625218 0.152416
O O4 0.965176 0.588945 0.860467
O O5 0.000000 0.500000 0.500000
O O6 0.994359 0.580731 0.312012
O O7 0.538337 0.902242 0.162519
O O8 0.500000 0.000000 0.500000
O O9 0.208134 0.845491 0.062112
O O10 0.000000 0.000000 0.000000
O O11 0.858798 0.190960 0.355361
O O12 0.956363 0.115672 0.642014
O O13 0.413231 0.167536 0.185386
O O14 0.887603 0.723252 0.560030
O O15 0.505119 0.703987 0.997417
O O16 0.500000 0.000000 0.000000
#
# Coordination Sequence:
#
# PCOD9101748 Si02
#       7
#     2   2   2   2   2   2   2
#     4  11  22  39  64  90 119 161 206 247 293 355
#     4  10  20  38  60  90 124 156 198 256 301 338
#     4  11  23  41  63  88 119 156 197 246 298 352
#     4  11  24  43  60  87 126 159 191 245 308 356
#     4  11  23  40  60  88 125 158 192 248 309 354
#     4  11  24  43  63  87 120 159 196 245 301 356
#     4  11  21  38  63  90 117 159 206 247 293 355
#
# _framework density 26.175318000000001
#
# number of rings (size 3 to 8) (size 9 to 14) (size 15 to 20)
#    0.000    1.143    0.000    9.857    0.000    3.429 
#    0.000    4.286    0.000    0.000    0.000    0.000 
#    0.000    0.000    0.000    0.000    0.000    0.000 
#
# Total GULP energy -78312.737916 kJ/mol
# GULP energy per Si atom -5593.766994 kJ/mol
# Density = 2.611574 g / cm^3
# Si number density = 26.175318 Si / 1000 Ang^3
#
#
#
# Elastic Constant Matrix: (Units=GPa)
#
#
# Indices 1 2 3 4 5 6 
#
# 1 51.4507 -7.9823 13.1432 -2.5678 -4.4282 -6.2972
# 2 -7.9823 109.3027 53.8268 -11.1514 -15.9718 3.7551
# 3 13.1432 53.8268 195.0679 2.1988 7.9762 -3.1655
# 4 -2.5678 -11.1514 2.1988 70.9029 -2.0567 -3.1003
# 5 -4.4282 -15.9718 7.9762 -2.0567 28.9227 5.4161
# 6 -6.2972 3.7551 -3.1655 -3.1003 5.4161 29.7043
#
#
#
# Elastic Compliance Matrix: (Units=1/GPa)
#
#
# Indices 1 2 3 4 5 6 
#
# 1 0.021678 0.003851 -0.002731 0.001772 0.005772 0.002950
# 2 0.003851 0.013438 -0.004451 0.002553 0.009964 -0.002907
# 3 -0.002731 -0.004451 0.006785 -0.001091 -0.005110 0.001525
# 4 0.001772 0.002553 -0.001091 0.014728 0.002851 0.000954
# 5 0.005772 0.009964 -0.005110 0.002851 0.044133 -0.008330
# 6 0.002950 -0.002907 0.001525 0.000954 -0.008330 0.036439
#
#
# Mechanical properties :
#
#
# Convention : Reuss Voigt Hill
#
# Bulk Modulus (GPa) = 28.37837 52.64407 40.51122
# Shear Modulus (GPa) = 32.13181 45.69487 38.91334
#
# Velocity S-wave (km/s) = 3.50746 4.18272 3.85988
# Velocity P-wave (km/s) = 5.22190 6.59413 5.94772
#
# Compressibility (1/GPa) = 0.03523811
#
# Stress axis : x y z
#
# Youngs Moduli (GPa) = 46.13046 74.41355 147.39129
#
# Poissons Ratio (x) = -0.28658 0.40258
# Poissons Ratio (y) = -0.17765 0.65604
# Poissons Ratio (z) = 0.12600 0.33122
#
# Static dielectric constant tensor:
#      x y z
#    x 2.100750 0.083750 -0.006170 
#    y 0.083750 2.285220 0.033980 
#    z -0.006170 0.033980 2.075960 
# 
# From -- ./inp_files/213168.got.cif
#   From: 2010.05.17/outbox.cif.g08.bks.cpg/sg2_107_cif.got.tgz:213168.got - 2010.06.03 11:33:40.
