data_PCOD9101427
_publ_section_title
;
Structure prediction by ZEFSAII (Michael W. Deem and Ramdas Pophale) SiO2 
 PCOD9101427
Probable space group: P -1
;
_chemical_formula_sum "Si O2"
_cell_formula_units_Z 16
_cell_length_a 21.548328
_cell_length_b 7.186082
_cell_length_c 12.300063
_cell_angle_alpha 127.989793
_cell_angle_beta 146.253399
_cell_angle_gamma 44.048282
_cell_volume 734.848500
_symmetry_space_group_name_H-M "P -1"
_symmetry_group_IT_number 2
_symmetry_cell_setting 'triclinic'
loop_
_space_group_symop_operation_xyz
x,y,z
-x,-y,-z
loop_
_atom_site_type_symbol
_atom_site_label
_atom_site_fract_x
_atom_site_fract_y
_atom_site_fract_z
Si Si1 0.515372 0.664071 0.725317
Si Si2 0.298898 0.609355 0.280998
Si Si3 0.858195 0.974356 0.181433
Si Si4 0.574262 0.293954 0.879361
Si Si5 0.892943 0.936897 0.973301
Si Si6 0.399972 0.245669 0.780945
Si Si7 0.823635 0.473308 0.726194
Si Si8 0.866839 0.380007 0.517019
O O1 0.396614 0.717487 0.495275
O O2 0.633933 0.586775 0.791782
O O3 0.544637 0.418058 0.760210
O O4 0.475330 0.945036 0.825872
O O5 0.276772 0.491353 0.316876
O O6 0.169499 0.841174 0.128290
O O7 0.985554 0.687274 0.280724
O O8 0.866862 0.166120 0.354849
O O9 0.874444 0.054887 0.111195
O O10 0.713018 0.032978 0.994925
O O11 0.465483 0.247248 0.760936
O O12 0.585528 0.529814 0.047653
O O13 0.824248 0.751257 0.805474
O O14 0.039862 0.733057 0.100574
O O15 0.249544 0.339827 0.588936
O O16 0.821827 0.349631 0.561572
#
# Coordination Sequence:
#
# PCOD9101427 Si02
#       8
#     2   2   2   2   2   2   2   2
#     4  11  23  36  55  84 118 155 192 235 286 346
#     4  11  23  36  55  84 118 155 192 235 286 346
#     4   9  18  34  61  83 113 147 189 238 292 342
#     4  10  20  38  59  85 114 152 192 242 294 342
#     4  10  20  38  59  85 114 152 192 242 294 342
#     4  10  21  36  61  84 114 152 194 239 292 348
#     4  10  21  36  61  84 114 152 194 239 292 348
#     4   9  18  36  57  86 112 148 189 238 290 341
#
# _framework density 21.773195999999999
#
# number of rings (size 3 to 8) (size 9 to 14) (size 15 to 20)
#    0.000    2.000    1.250    2.250    1.750    0.000 
#    0.000    3.125    0.000    0.000    0.000   21.875 
#    0.000    0.000    0.000    0.000    0.000    0.000 
#
# Total GULP energy -89199.148950 kJ/mol
# GULP energy per Si atom -5574.946809 kJ/mol
# Density = 2.172364 g / cm^3
# Si number density = 21.773196 Si / 1000 Ang^3
#
#
#
# Elastic Constant Matrix: (Units=GPa)
#
#
# Indices 1 2 3 4 5 6 
#
# 1 106.4804 24.4969 27.5257 -3.7332 -11.1222 -9.2652
# 2 24.4969 57.8752 27.9135 -11.2211 5.6011 -11.3602
# 3 27.5257 27.9135 57.5261 -9.9361 -10.2108 -5.6667
# 4 -3.7332 -11.2211 -9.9361 16.9156 -9.5690 2.3287
# 5 -11.1222 5.6011 -10.2108 -9.5690 37.4374 -6.4834
# 6 -9.2652 -11.3602 -5.6667 2.3287 -6.4834 23.8519
#
#
#
# Elastic Compliance Matrix: (Units=1/GPa)
#
#
# Indices 1 2 3 4 5 6 
#
# 1 0.011567 -0.003102 -0.002958 0.000440 0.003777 0.003296
# 2 -0.003102 0.026906 -0.010407 0.007438 -0.004646 0.007148
# 3 -0.002958 -0.010407 0.029495 0.017052 0.013589 0.002930
# 4 0.000440 0.007438 0.017052 0.088822 0.027510 0.006571
# 5 0.003777 -0.004646 0.013589 0.027510 0.041169 0.010987
# 6 0.003296 0.007148 0.002930 0.006571 0.010987 0.049651
#
#
# Mechanical properties :
#
#
# Convention : Reuss Voigt Hill
#
# Bulk Modulus (GPa) = 28.54516 42.41710 35.48113
# Shear Modulus (GPa) = 17.11028 25.10401 21.10715
#
# Velocity S-wave (km/s) = 2.80633 3.39924 3.11691
# Velocity P-wave (km/s) = 4.86203 5.91016 5.41153
#
# Compressibility (1/GPa) = 0.03503221
#
# Stress axis : x y z
#
# Youngs Moduli (GPa) = 86.45621 37.16647 33.90457
#
# Poissons Ratio (x) = 0.11530 0.10029
# Poissons Ratio (y) = 0.26821 0.35285
# Poissons Ratio (z) = 0.25574 0.38680
#
# Static dielectric constant tensor:
#      x y z
#    x 1.792910 -0.049990 -0.001060 
#    y -0.049990 1.775470 -0.010700 
#    z -0.001060 -0.010700 1.834230 
# 
# From -- ./inp_files/113158.got.cif
#   From: 2010.05.17/outbox.cif.g08.bks.cpg/sg2_57_cif.got.tgz:113158.got - 2010.06.03 11:33:40.
