data_PCOD9101654
_publ_section_title
;
Structure prediction by ZEFSAII (Michael W. Deem and Ramdas Pophale) SiO2 
 PCOD9101654
Probable space group: P -1
;
_chemical_formula_sum "Si O2"
_cell_formula_units_Z 16
_cell_length_a 11.742974
_cell_length_b 22.467364
_cell_length_c 8.869351
_cell_angle_alpha 135.802218
_cell_angle_beta 142.601560
_cell_angle_gamma 32.721745
_cell_volume 759.802751
_symmetry_space_group_name_H-M "P -1"
_symmetry_group_IT_number 2
_symmetry_cell_setting 'triclinic'
loop_
_space_group_symop_operation_xyz
x,y,z
-x,-y,-z
loop_
_atom_site_type_symbol
_atom_site_label
_atom_site_fract_x
_atom_site_fract_y
_atom_site_fract_z
Si Si1 0.437016 0.974215 0.043967
Si Si2 0.928769 0.636790 0.026215
Si Si3 0.359207 0.379683 0.051664
Si Si4 0.749911 0.998627 0.628873
Si Si5 0.407946 0.231318 0.339491
Si Si6 0.917192 0.081679 0.703272
Si Si7 0.292670 0.230032 0.549005
Si Si8 0.932168 0.247572 0.414662
O O1 0.602714 0.968593 0.331349
O O2 0.501974 0.857971 0.862250
O O3 0.500000 0.000000 0.000000
O O4 0.154615 0.067510 0.958452
O O5 0.733315 0.645727 0.944871
O O6 0.981309 0.717509 0.290034
O O7 0.821421 0.659684 0.786047
O O8 0.181281 0.511816 0.084027
O O9 0.313826 0.324389 0.771370
O O10 0.641078 0.323908 0.251642
O O11 0.957498 0.881033 0.710224
O O12 0.869063 0.030557 0.696103
O O13 0.524427 0.118451 0.678428
O O14 0.662019 0.200957 0.605820
O O15 0.324631 0.208492 0.364219
O O16 0.000000 0.000000 0.500000
O O17 0.047412 0.264247 0.424401
#
# Coordination Sequence:
#
# PCOD9101654 Si02
#       8
#     2   2   2   2   2   2   2   2
#     4  11  18  33  56  87 125 153 189 243 288 344
#     4  10  22  43  65  86 111 153 211 250 286 336
#     4  10  24  42  61  85 119 156 198 252 289 344
#     4  11  21  35  58  89 121 159 190 235 294 356
#     4  10  20  38  60  87 117 151 197 244 292 343
#     4   9  19  29  51  88 124 143 189 235 290 350
#     4  10  23  40  55  90 126 153 188 240 303 358
#     4  11  23  39  65  84 119 160 199 236 296 353
#
# _framework density 21.058097
#
# number of rings (size 3 to 8) (size 9 to 14) (size 15 to 20)
#    0.000    1.750    5.000    0.750    3.500    3.000 
#    0.000    0.625    0.000    0.000    0.000    0.000 
#    0.000    0.000    0.000    0.000    0.000    0.000 
#
# Total GULP energy -89216.718741 kJ/mol
# GULP energy per Si atom -5576.044921 kJ/mol
# Density = 2.101017 g / cm^3
# Si number density = 21.058097 Si / 1000 Ang^3
#
#
#
# Elastic Constant Matrix: (Units=GPa)
#
#
# Indices 1 2 3 4 5 6 
#
# 1 94.8642 33.4527 50.5826 -29.6976 19.2888 -18.4783
# 2 33.4527 80.3395 36.0218 -13.6149 4.1818 -6.1587
# 3 50.5826 36.0218 84.8871 -18.1715 19.2146 -11.5193
# 4 -29.6976 -13.6149 -18.1715 43.2179 -12.0320 5.7500
# 5 19.2888 4.1818 19.2146 -12.0320 32.7839 -9.1251
# 6 -18.4783 -6.1587 -11.5193 5.7500 -9.1251 30.9105
#
#
#
# Elastic Compliance Matrix: (Units=1/GPa)
#
#
# Indices 1 2 3 4 5 6 
#
# 1 0.019735 -0.002913 -0.007453 0.008071 -0.002155 0.006302
# 2 -0.002913 0.016292 -0.005596 0.001761 0.003605 0.000156
# 3 -0.007453 -0.005596 0.020056 -0.000337 -0.006790 -0.000038
# 4 0.008071 0.001761 -0.000337 0.030845 0.006922 0.001356
# 5 -0.002155 0.003605 -0.006790 0.006922 0.039887 0.007387
# 6 0.006302 0.000156 -0.000038 0.001356 0.007387 0.038064
#
#
# Mechanical properties :
#
#
# Convention : Reuss Voigt Hill
#
# Bulk Modulus (GPa) = 41.39080 55.57835 48.48458
# Shear Modulus (GPa) = 24.40766 30.71802 27.56284
#
# Velocity S-wave (km/s) = 3.40819 3.82347 3.62179
# Velocity P-wave (km/s) = 5.93177 6.77806 6.36899
#
# Compressibility (1/GPa) = 0.02415996
#
# Stress axis : x y z
#
# Youngs Moduli (GPa) = 50.67130 61.38114 49.86155
#
# Poissons Ratio (x) = 0.17879 0.37161
# Poissons Ratio (y) = 0.14759 0.27900
# Poissons Ratio (z) = 0.37765 0.34346
#
# Static dielectric constant tensor:
#      x y z
#    x 1.754330 0.000130 -0.021150 
#    y 0.000130 1.875580 -0.031360 
#    z -0.021150 -0.031360 1.841370 
# 
# From -- ./inp_files/284994.got.cif
#   From: 2010.05.17/outbox.cif.g08.bks.cpg/sg2_143_cif.got.tgz:284994.got - 2010.06.03 11:33:40.
