data_PCOD9101641
_publ_section_title
;
Structure prediction by ZEFSAII (Michael W. Deem and Ramdas Pophale) SiO2 
 PCOD9101641
Probable space group: P -1
;
_chemical_formula_sum "Si O2"
_cell_formula_units_Z 16
_cell_length_a 10.061995
_cell_length_b 23.407519
_cell_length_c 12.027941
_cell_angle_alpha 161.432183
_cell_angle_beta 124.882226
_cell_angle_gamma 51.002852
_cell_volume 697.586672
_symmetry_space_group_name_H-M "P -1"
_symmetry_group_IT_number 2
_symmetry_cell_setting 'triclinic'
loop_
_space_group_symop_operation_xyz
x,y,z
-x,-y,-z
loop_
_atom_site_type_symbol
_atom_site_label
_atom_site_fract_x
_atom_site_fract_y
_atom_site_fract_z
Si Si1 0.635164 0.816495 0.167052
Si Si2 0.802732 0.360617 0.203526
Si Si3 0.259463 0.200298 0.588057
Si Si4 0.221920 0.673873 0.223343
Si Si5 0.682568 0.240602 0.154154
Si Si6 0.933589 0.710710 0.975240
Si Si7 0.530946 0.322882 0.827398
Si Si8 0.075956 0.784979 0.596194
O O1 0.744214 0.709093 0.125732
O O2 0.500000 0.000000 0.500000
O O3 0.523007 0.697644 0.842536
O O4 0.766806 0.862554 0.231498
O O5 0.766976 0.274848 0.143630
O O6 0.855665 0.547123 0.598739
O O7 0.969575 0.232516 0.976607
O O8 0.638689 0.390490 0.098518
O O9 0.430554 0.195469 0.598583
O O10 0.081399 0.295824 0.615562
O O11 0.269086 0.984933 0.217568
O O12 0.330767 0.768730 0.371953
O O13 0.127070 0.781818 0.485946
O O14 0.372024 0.490766 0.006323
O O15 0.081563 0.638543 0.007656
O O16 0.758262 0.313508 0.431028
O O17 0.000000 0.000000 0.000000
#
# Coordination Sequence:
#
# PCOD9101641 Si02
#       8
#     2   2   2   2   2   2   2   2
#     4  10  20  38  60  86 121 154 201 249 297 355
#     4  10  22  40  60  91 124 157 200 247 304 358
#     4  10  20  40  60  86 122 158 203 247 300 355
#     4  10  22  41  61  88 122 162 202 242 303 360
#     4  10  22  38  60  88 124 157 199 252 301 356
#     4  10  22  40  62  88 124 160 198 248 300 363
#     4  10  22  39  63  89 121 160 201 248 298 363
#     4  10  22  40  60  86 122 159 203 251 295 358
#
# _framework density 22.936219999999999
#
# number of rings (size 3 to 8) (size 9 to 14) (size 15 to 20)
#    0.000    2.000    2.500    0.000    3.500    2.000 
#    0.000   10.000    0.000    0.000    0.000    0.000 
#    0.000    0.000    0.000    0.000    0.000    0.000 
#
# Total GULP energy -89232.002585 kJ/mol
# GULP energy per Si atom -5577.000162 kJ/mol
# Density = 2.288402 g / cm^3
# Si number density = 22.936220 Si / 1000 Ang^3
#
#
#
# Elastic Constant Matrix: (Units=GPa)
#
#
# Indices 1 2 3 4 5 6 
#
# 1 222.2507 55.1108 35.8515 -18.0379 7.4343 2.8060
# 2 55.1108 102.3319 28.5973 -48.5682 21.3753 -8.7496
# 3 35.8515 28.5973 52.0605 -13.0855 -0.0464 -8.2770
# 4 -18.0379 -48.5682 -13.0855 47.0355 -7.8436 10.7295
# 5 7.4343 21.3753 -0.0464 -7.8436 36.6852 -8.2431
# 6 2.8060 -8.7496 -8.2770 10.7295 -8.2431 45.0344
#
#
#
# Elastic Compliance Matrix: (Units=1/GPa)
#
#
# Indices 1 2 3 4 5 6 
#
# 1 0.005589 -0.003105 -0.002702 -0.001556 0.000103 -0.001059
# 2 -0.003105 0.026194 -0.007038 0.022921 -0.010504 -0.003395
# 3 -0.002702 -0.007038 0.025342 -0.001439 0.005451 0.004799
# 4 -0.001556 0.022921 -0.001439 0.044746 -0.005118 -0.007312
# 5 0.000103 -0.010504 0.005451 -0.005118 0.033696 0.006342
# 6 -0.001059 -0.003395 0.004799 -0.007312 0.006342 0.025397
#
#
# Mechanical properties :
#
#
# Convention : Reuss Voigt Hill
#
# Bulk Modulus (GPa) = 31.81352 68.41803 50.11577
# Shear Modulus (GPa) = 25.36370 42.88992 34.12681
#
# Velocity S-wave (km/s) = 3.32902 4.32900 3.86152
# Velocity P-wave (km/s) = 5.35509 7.40820 6.46369
#
# Compressibility (1/GPa) = 0.03143318
#
# Stress axis : x y z
#
# Youngs Moduli (GPa) = 178.92247 38.17682 39.46093
#
# Poissons Ratio (x) = 0.11856 0.10664
# Poissons Ratio (y) = 0.55563 0.27771
# Poissons Ratio (z) = 0.48353 0.26868
#
# Static dielectric constant tensor:
#      x y z
#    x 1.898140 -0.051900 0.009070 
#    y -0.051900 1.968140 -0.095670 
#    z 0.009070 -0.095670 1.790190 
# 
# From -- ./inp_files/405288.got.cif
#   From: 2010.05.17/outbox.cif.g08.bks.cpg/sg2_203_cif.got.tgz:405288.got - 2010.06.03 11:33:40.
