data_PCOD9101358
_publ_section_title
;
Structure prediction by ZEFSAII (Michael W. Deem and Ramdas Pophale) SiO2 
 PCOD9101358
Probable space group: P -1
;
_chemical_formula_sum "Si O2"
_cell_formula_units_Z 16
_cell_length_a 12.509490
_cell_length_b 14.028042
_cell_length_c 17.385518
_cell_angle_alpha 32.946628
_cell_angle_beta 149.525233
_cell_angle_gamma 128.265492
_cell_volume 779.461787
_symmetry_space_group_name_H-M "P -1"
_symmetry_group_IT_number 2
_symmetry_cell_setting 'triclinic'
loop_
_space_group_symop_operation_xyz
x,y,z
-x,-y,-z
loop_
_atom_site_type_symbol
_atom_site_label
_atom_site_fract_x
_atom_site_fract_y
_atom_site_fract_z
Si Si1 0.954880 0.596063 0.152063
Si Si2 0.291433 0.717607 0.068806
Si Si3 0.480635 0.303543 0.099315
Si Si4 0.197574 0.393464 0.294378
Si Si5 0.174145 0.232794 0.831579
Si Si6 0.704492 0.202199 0.803119
Si Si7 0.811391 0.584926 0.437428
Si Si8 0.929313 0.964104 0.566471
O O1 0.002343 0.501426 0.162270
O O2 0.117065 0.715337 0.176813
O O3 0.050439 0.431085 0.387201
O O4 0.696942 0.718332 0.933059
O O5 0.201390 0.545237 0.130658
O O6 0.275394 0.786100 0.100367
O O7 0.551672 0.635269 0.261505
O O8 0.148012 0.884771 0.810386
O O9 0.729667 0.144666 0.355202
O O10 0.500000 0.500000 0.000000
O O11 0.357815 0.298543 0.944943
O O12 0.446737 0.328490 0.533542
O O13 0.167978 0.203006 0.382046
O O14 0.174524 0.268886 0.716611
O O15 0.933180 0.377322 0.615674
O O16 0.233536 0.014884 0.034323
O O17 0.000000 0.000000 0.500000
#
# Coordination Sequence:
#
# PCOD9101358 Si02
#       8
#     2   2   2   2   2   2   2   2
#     4  10  21  40  68  92 123 168 210 262 322 368
#     4  11  23  40  65  94 131 163 214 262 323 370
#     4  11  24  43  62  89 131 174 208 257 321 381
#     4  11  21  43  64  96 130 167 214 263 319 379
#     4  10  23  37  62  93 127 161 219 261 318 369
#     4  11  21  41  67  98 125 163 219 266 313 376
#     4  10  20  38  58  93 124 161 205 273 311 364
#     4  12  26  42  64  95 129 176 215 255 316 391
#
# _framework density 20.526983999999999
#
# number of rings (size 3 to 8) (size 9 to 14) (size 15 to 20)
#    0.000    1.250    3.750    2.625    0.000    7.500 
#    0.000    2.500    0.000    0.000    0.000    0.000 
#    0.000    0.000    0.000    0.000    0.000    0.000 
#
# Total GULP energy -89407.338711 kJ/mol
# GULP energy per Si atom -5587.958669 kJ/mol
# Density = 2.048026 g / cm^3
# Si number density = 20.526984 Si / 1000 Ang^3
#
#
#
# Elastic Constant Matrix: (Units=GPa)
#
#
# Indices 1 2 3 4 5 6 
#
# 1 92.6027 4.0551 46.7161 0.7328 13.8644 15.4566
# 2 4.0551 77.6075 26.2628 -9.5700 7.9578 -1.9919
# 3 46.7161 26.2628 133.2063 -4.9615 11.3877 6.1399
# 4 0.7328 -9.5700 -4.9615 29.7270 -0.2591 4.7885
# 5 13.8644 7.9578 11.3877 -0.2591 39.7034 5.9432
# 6 15.4566 -1.9919 6.1399 4.7885 5.9432 10.7264
#
#
#
# Elastic Compliance Matrix: (Units=1/GPa)
#
#
# Indices 1 2 3 4 5 6 
#
# 1 0.017118 0.000648 -0.004901 0.002517 -0.001377 -0.022102
# 2 0.000648 0.014657 -0.002896 0.003651 -0.002815 0.003375
# 3 -0.004901 -0.002896 0.009834 0.000668 -0.000669 0.000968
# 4 0.002517 0.003651 0.000668 0.038317 0.001643 -0.021348
# 5 -0.001377 -0.002815 -0.000669 0.001643 0.028644 -0.014760
# 6 -0.022102 0.003375 0.000968 -0.021348 -0.014760 0.142858
#
#
# Mechanical properties :
#
#
# Convention : Reuss Voigt Hill
#
# Bulk Modulus (GPa) = 36.61367 50.83159 43.72263
# Shear Modulus (GPa) = 18.19301 31.12351 24.65826
#
# Velocity S-wave (km/s) = 2.98030 3.89810 3.46968
# Velocity P-wave (km/s) = 5.45147 6.71396 6.11538
#
# Compressibility (1/GPa) = 0.02731220
#
# Stress axis : x y z
#
# Youngs Moduli (GPa) = 58.41708 68.22677 101.68321
#
# Poissons Ratio (x) = -0.04424 0.49836
# Poissons Ratio (y) = -0.03788 0.29448
# Poissons Ratio (z) = 0.28631 0.19759
#
# Static dielectric constant tensor:
#      x y z
#    x 1.730230 -0.005650 -0.015560 
#    y -0.005650 1.761510 0.017960 
#    z -0.015560 0.017960 1.722180 
# 
# From -- ./inp_files/205182.got.cif
#   From: 2010.05.17/outbox.cif.g08.bks.cpg/sg2_103_cif.got.tgz:205182.got - 2010.06.03 11:33:40.
