data_PCOD9101270
_publ_section_title
;
Structure prediction by ZEFSAII (Michael W. Deem and Ramdas Pophale) SiO2 
 PCOD9101270
Probable space group: P -1
;
_chemical_formula_sum "Si O2"
_cell_formula_units_Z 15
_cell_length_a 14.639655
_cell_length_b 7.216298
_cell_length_c 13.744209
_cell_angle_alpha 76.814339
_cell_angle_beta 30.267355
_cell_angle_gamma 92.846990
_cell_volume 615.997085
_symmetry_space_group_name_H-M "P -1"
_symmetry_group_IT_number 2
_symmetry_cell_setting 'triclinic'
loop_
_space_group_symop_operation_xyz
x,y,z
-x,-y,-z
loop_
_atom_site_type_symbol
_atom_site_label
_atom_site_fract_x
_atom_site_fract_y
_atom_site_fract_z
Si Si1 0.949452 0.618281 0.945122
Si Si2 0.533538 0.316812 0.426680
Si Si3 0.357199 0.983846 0.774887
Si Si4 0.900387 0.885705 0.245590
Si Si5 0.877507 0.626756 0.494642
Si Si6 0.789499 0.390355 0.921204
Si Si7 0.000000 0.000000 0.500000
Si Si8 0.428955 0.361956 0.983065
O O1 0.086476 0.879405 0.781489
O O2 0.938143 0.509538 0.863979
O O3 0.713926 0.554844 0.200202
O O4 0.000000 0.500000 0.000000
O O5 0.596886 0.166869 0.321617
O O6 0.518243 0.228323 0.561023
O O7 0.306315 0.263203 0.608135
O O8 0.352638 0.871162 0.895218
O O9 0.119156 0.935236 0.989989
O O10 0.882565 0.769791 0.378787
O O11 0.919210 0.783348 0.529456
O O12 0.650268 0.405004 0.732917
O O13 0.062542 0.574256 0.310137
O O14 0.653587 0.507051 0.022541
O O15 0.768804 0.875206 0.786007
O O16 0.500000 0.500000 0.000000
#
# Coordination Sequence:
#
# PCOD9101270 Si02
#       8
#     2   2   2   2   2   2   1   2
#     4  11  23  38  60  91 127 168 213 254 296 354
#     4  10  20  38  58  83 126 165 204 258 303 346
#     4   9  19  35  58  84 116 161 205 247 299 349
#     4  11  21  37  60  86 119 163 208 252 301 359
#     4  10  22  41  66  90 121 161 200 250 313 366
#     4  10  21  41  63  89 126 161 203 257 302 359
#     4  10  22  42  64  92 120 146 196 250 302 378
#     4  10  22  42  66  92 123 158 197 250 314 371
#
# _framework density 24.350764999999999
#
# number of rings (size 3 to 8) (size 9 to 14) (size 15 to 20)
#    0.000    1.867    0.000    5.200    0.000    3.733 
#    0.000   20.667    0.000    0.000    0.000    0.000 
#    0.000    0.000    0.000    0.000    0.000    0.000 
#
# Total GULP energy -83524.971931 kJ/mol
# GULP energy per Si atom -5568.331462 kJ/mol
# Density = 2.429534 g / cm^3
# Si number density = 24.350765 Si / 1000 Ang^3
#
#
#
# Elastic Constant Matrix: (Units=GPa)
#
#
# Indices 1 2 3 4 5 6 
#
# 1 60.4902 9.5953 -5.3930 -2.4796 2.4318 1.8592
# 2 9.5953 69.5183 15.2455 11.5804 -1.2575 15.6494
# 3 -5.3930 15.2455 170.1205 -13.7826 6.4184 4.1671
# 4 -2.4796 11.5804 -13.7826 47.2786 4.8702 2.6788
# 5 2.4318 -1.2575 6.4184 4.8702 27.7812 3.1417
# 6 1.8592 15.6494 4.1671 2.6788 3.1417 24.5170
#
#
#
# Elastic Compliance Matrix: (Units=1/GPa)
#
#
# Indices 1 2 3 4 5 6 
#
# 1 0.017299 -0.003169 0.001086 0.002210 -0.002363 0.000588
# 2 -0.003169 0.018734 -0.002059 -0.005104 0.003773 -0.011294
# 3 0.001086 -0.002059 0.006388 0.002637 -0.002141 0.000132
# 4 0.002210 -0.005104 0.002637 0.023790 -0.005286 0.000720
# 5 -0.002363 0.003773 -0.002141 -0.005286 0.038498 -0.006221
# 6 0.000588 -0.011294 0.000132 0.000720 -0.006221 0.048649
#
#
# Mechanical properties :
#
#
# Convention : Reuss Voigt Hill
#
# Bulk Modulus (GPa) = 29.29250 37.66940 33.48095
# Shear Modulus (GPa) = 28.89844 38.62744 33.76294
#
# Velocity S-wave (km/s) = 3.44867 3.98715 3.72765
# Velocity P-wave (km/s) = 5.28330 6.05802 5.68387
#
# Compressibility (1/GPa) = 0.03413844
#
# Stress axis : x y z
#
# Youngs Moduli (GPa) = 57.80799 53.37774 156.53718
#
# Poissons Ratio (x) = 0.16916 -0.17003
# Poissons Ratio (y) = 0.18320 0.32224
# Poissons Ratio (z) = -0.06279 0.10988
#
# Static dielectric constant tensor:
#      x y z
#    x 1.914170 -0.022940 0.031740 
#    y -0.022940 1.949480 0.016470 
#    z 0.031740 0.016470 1.988350 
# 
# From -- ./inp_files/529538.got.cif
#   From: 2010.05.17/outbox.cif.g08.bks.cpg/sg2_265_cif.got.tgz:529538.got - 2010.06.03 11:33:40.
