data_PCOD9101431
_publ_section_title
;
Structure prediction by ZEFSAII (Michael W. Deem and Ramdas Pophale) SiO2 
 PCOD9101431
Probable space group: P -1
;
_chemical_formula_sum "Si O2"
_cell_formula_units_Z 16
_cell_length_a 17.546259
_cell_length_b 16.129509
_cell_length_c 11.901550
_cell_angle_alpha 29.848407
_cell_angle_beta 151.393511
_cell_angle_gamma 156.087857
_cell_volume 616.206198
_symmetry_space_group_name_H-M "P -1"
_symmetry_group_IT_number 2
_symmetry_cell_setting 'triclinic'
loop_
_space_group_symop_operation_xyz
x,y,z
-x,-y,-z
loop_
_atom_site_type_symbol
_atom_site_label
_atom_site_fract_x
_atom_site_fract_y
_atom_site_fract_z
Si Si1 0.429888 0.565021 0.433357
Si Si2 0.098548 0.595604 0.867210
Si Si3 0.741799 0.118929 0.887933
Si Si4 0.690712 0.012813 0.192819
Si Si5 0.032777 0.774044 0.380637
Si Si6 0.542822 0.497554 0.873179
Si Si7 0.428977 0.697467 0.665748
Si Si8 0.994298 0.121590 0.016805
O O1 0.500000 0.500000 0.500000
O O2 0.389455 0.439054 0.642563
O O3 0.637486 0.814855 0.427279
O O4 0.251079 0.561035 0.156716
O O5 0.105957 0.754433 0.777175
O O6 0.161767 0.729711 0.674759
O O7 0.882780 0.361483 0.840089
O O8 0.582441 0.121846 0.604496
O O9 0.674238 0.977546 0.079363
O O10 0.880229 0.100711 0.006485
O O11 0.500000 0.000000 0.000000
O O12 0.805832 0.535851 0.357684
O O13 0.006907 0.933627 0.223698
O O14 0.104585 0.861515 0.244315
O O15 0.539944 0.653924 0.769591
O O16 0.775527 0.642876 0.957426
O O17 0.485762 0.297725 0.107486
#
# Coordination Sequence:
#
# PCOD9101431 Si02
#       8
#     2   2   2   2   2   2   2   2
#     4  11  23  38  59  87 122 161 200 247 297 358
#     4  10  21  38  62  88 120 161 203 248 301 367
#     4  11  22  39  64  96 119 154 211 258 301 352
#     4  10  22  40  60  84 123 165 198 244 304 364
#     4   9  20  38  60  87 121 163 199 244 313 362
#     4  10  20  38  59  85 118 158 199 240 305 358
#     4   9  20  37  64  86 114 157 201 249 297 362
#     4  10  21  38  62  89 122 156 203 259 300 357
#
# _framework density 25.965336000000001
#
# number of rings (size 3 to 8) (size 9 to 14) (size 15 to 20)
#    0.000    2.000    0.000    3.375    0.000    8.500 
#    0.000    4.375    0.000   15.750    0.000    0.000 
#    0.000    0.000    0.000    0.000    0.000    0.000 
#
# Total GULP energy -89498.349444 kJ/mol
# GULP energy per Si atom -5593.646840 kJ/mol
# Density = 2.590624 g / cm^3
# Si number density = 25.965336 Si / 1000 Ang^3
#
#
#
# Elastic Constant Matrix: (Units=GPa)
#
#
# Indices 1 2 3 4 5 6 
#
# 1 128.4788 1.9651 41.0220 3.9777 -31.4485 22.6079
# 2 1.9651 63.9730 11.3519 1.4140 2.0699 0.3163
# 3 41.0220 11.3519 164.4849 20.9970 -57.1329 4.1034
# 4 3.9777 1.4140 20.9970 31.4162 -0.2437 -1.2110
# 5 -31.4485 2.0699 -57.1329 -0.2437 43.5101 -4.2355
# 6 22.6079 0.3163 4.1034 -1.2110 -4.2355 28.1014
#
#
#
# Elastic Compliance Matrix: (Units=1/GPa)
#
#
# Indices 1 2 3 4 5 6 
#
# 1 0.010988 -0.000586 0.000437 -0.001898 0.007773 -0.007807
# 2 -0.000586 0.016286 -0.002841 0.001202 -0.004921 0.000013
# 3 0.000437 -0.002841 0.013691 -0.008933 0.018386 0.000067
# 4 -0.001898 0.001202 -0.008933 0.037987 -0.012699 0.002541
# 5 0.007773 -0.004921 0.018386 -0.012699 0.052763 -0.001478
# 6 -0.007807 0.000013 0.000067 0.002541 -0.001478 0.041743
#
#
# Mechanical properties :
#
#
# Convention : Reuss Voigt Hill
#
# Bulk Modulus (GPa) = 28.58264 51.73497 40.15881
# Shear Modulus (GPa) = 26.16428 40.77872 33.47150
#
# Velocity S-wave (km/s) = 3.17781 3.96726 3.59428
# Velocity P-wave (km/s) = 4.94940 6.39949 5.72058
#
# Compressibility (1/GPa) = 0.03498627
#
# Stress axis : x y z
#
# Youngs Moduli (GPa) = 91.00768 61.40146 73.03814
#
# Poissons Ratio (x) = 0.03598 -0.03192
# Poissons Ratio (y) = 0.05333 0.20748
# Poissons Ratio (z) = -0.03977 0.17443
#
# Static dielectric constant tensor:
#      x y z
#    x 1.989220 0.021110 -0.072870 
#    y 0.021110 2.073410 0.150870 
#    z -0.072870 0.150870 1.903940 
# 
# From -- ./inp_files/466418.got.cif
#   From: 2010.05.17/outbox.cif.g08.bks.cpg/sg2_234_cif.got.tgz:466418.got - 2010.06.03 11:33:40.
