data_PCOD9101241
_publ_section_title
;
Structure prediction by ZEFSAII (Michael W. Deem and Ramdas Pophale) SiO2 
 PCOD9101241
Probable space group: P -1
;
_chemical_formula_sum "Si O2"
_cell_formula_units_Z 16
_cell_length_a 10.073479
_cell_length_b 19.517320
_cell_length_c 9.907213
_cell_angle_alpha 50.568030
_cell_angle_beta 138.146917
_cell_angle_gamma 139.711485
_cell_volume 830.202878
_symmetry_space_group_name_H-M "P -1"
_symmetry_group_IT_number 2
_symmetry_cell_setting 'triclinic'
loop_
_space_group_symop_operation_xyz
x,y,z
-x,-y,-z
loop_
_atom_site_type_symbol
_atom_site_label
_atom_site_fract_x
_atom_site_fract_y
_atom_site_fract_z
Si Si1 0.855377 0.377989 0.498193
Si Si2 0.893463 0.384976 0.000054
Si Si3 0.549970 0.791579 0.242316
Si Si4 0.916080 0.863927 0.207405
Si Si5 0.321095 0.103091 0.252863
Si Si6 0.126601 0.732525 0.601849
Si Si7 0.068159 0.725045 0.062776
Si Si8 0.310902 0.219725 0.341052
O O1 0.920386 0.359466 0.422702
O O2 0.569912 0.323714 0.362040
O O3 0.000000 0.500000 0.500000
O O4 0.908068 0.311201 0.726491
O O5 0.889425 0.309318 0.207728
O O6 0.620843 0.326156 0.809806
O O7 0.000000 0.500000 0.000000
O O8 0.029464 0.376830 0.984532
O O9 0.675482 0.792252 0.473643
O O10 0.741980 0.866435 0.182690
O O11 0.340402 0.807718 0.108867
O O12 0.954482 0.772103 0.392555
O O13 0.170191 0.978053 0.261149
O O14 0.794436 0.849243 0.989070
O O15 0.600829 0.168044 0.347135
O O16 0.290692 0.124799 0.357553
O O17 0.902771 0.768194 0.873408
#
# Coordination Sequence:
#
# PCOD9101241 Si02
#       8
#     2   2   2   2   2   2   2   2
#     4  10  21  36  54  83 115 145 188 232 275 336
#     4  10  20  38  59  80 117 152 185 234 280 324
#     4   9  21  37  56  80 116 141 188 238 265 335
#     4  11  21  39  60  86 110 150 189 235 289 331
#     4  10  22  38  60  84 115 145 189 238 283 336
#     4  11  21  37  60  84 116 149 186 234 282 337
#     4   9  19  37  54  77 112 147 183 228 277 331
#     4  10  20  38  58  78 112 153 181 233 283 330
#
# _framework density 19.272397999999999
#
# number of rings (size 3 to 8) (size 9 to 14) (size 15 to 20)
#    0.750    1.250    1.250    2.625    0.000    1.000 
#    2.250    1.875    0.000    0.000    0.000    0.000 
#    0.000    0.000    0.000    0.000    0.000    0.000 
#
# Total GULP energy -89183.221466 kJ/mol
# GULP energy per Si atom -5573.951342 kJ/mol
# Density = 1.922853 g / cm^3
# Si number density = 19.272398 Si / 1000 Ang^3
#
#
#
# Elastic Constant Matrix: (Units=GPa)
#
#
# Indices 1 2 3 4 5 6 
#
# 1 33.1828 -1.8209 25.0765 5.0757 1.9742 0.9079
# 2 -1.8209 21.0707 7.8028 8.9562 2.0608 3.2151
# 3 25.0765 7.8028 91.0951 5.8724 2.2304 -0.7693
# 4 5.0757 8.9562 5.8724 20.6751 -5.2414 -1.6787
# 5 1.9742 2.0608 2.2304 -5.2414 35.9474 4.7342
# 6 0.9079 3.2151 -0.7693 -1.6787 4.7342 10.9786
#
#
#
# Elastic Compliance Matrix: (Units=1/GPa)
#
#
# Indices 1 2 3 4 5 6 
#
# 1 0.043449 0.017258 -0.012382 -0.016393 -0.003620 -0.010460
# 2 0.017258 0.072474 -0.008637 -0.036949 -0.006517 -0.026096
# 3 -0.012382 -0.008637 0.014979 0.002939 0.000010 0.005048
# 4 -0.016393 -0.036949 0.002939 0.071831 0.010848 0.018688
# 5 -0.003620 -0.006517 0.000010 0.010848 0.031237 -0.009602
# 6 -0.010460 -0.026096 0.005048 0.018688 -0.009602 0.106945
#
#
# Mechanical properties :
#
#
# Convention : Reuss Voigt Hill
#
# Bulk Modulus (GPa) = 8.10507 23.05171 15.57839
# Shear Modulus (GPa) = 12.83488 21.13956 16.98722
#
# Velocity S-wave (km/s) = 2.58344 3.31551 2.97210
# Velocity P-wave (km/s) = 3.62127 5.16176 4.45855
#
# Compressibility (1/GPa) = 0.12337952
#
# Stress axis : x y z
#
# Youngs Moduli (GPa) = 23.01535 13.79805 66.76110
#
# Poissons Ratio (x) = -0.23813 0.82663
# Poissons Ratio (y) = -0.39720 0.57665
# Poissons Ratio (z) = 0.28497 0.11918
#
# Static dielectric constant tensor:
#      x y z
#    x 1.679570 0.000800 0.002940 
#    y 0.000800 1.674210 0.013880 
#    z 0.002940 0.013880 1.664240 
# 
# From -- ./inp_files/217180.got.cif
#   From: 2010.05.17/outbox.cif.g08.bks.cpg/sg2_109_cif.got.tgz:217180.got - 2010.06.03 11:33:40.
