data_PCOD9101697
_publ_section_title
;
Structure prediction by ZEFSAII (Michael W. Deem and Ramdas Pophale) SiO2 
 PCOD9101697
Probable space group: P -1
;
_chemical_formula_sum "Si O2"
_cell_formula_units_Z 11
_cell_length_a 6.811117
_cell_length_b 10.571058
_cell_length_c 7.250956
_cell_angle_alpha 107.763440
_cell_angle_beta 115.120727
_cell_angle_gamma 105.166383
_cell_volume 401.176432
_symmetry_space_group_name_H-M "P -1"
_symmetry_group_IT_number 2
_symmetry_cell_setting 'triclinic'
loop_
_space_group_symop_operation_xyz
x,y,z
-x,-y,-z
loop_
_atom_site_type_symbol
_atom_site_label
_atom_site_fract_x
_atom_site_fract_y
_atom_site_fract_z
Si Si1 0.710735 0.829444 0.758598
Si Si2 0.900268 0.123842 0.362280
Si Si3 0.426928 0.919136 0.235464
Si Si4 0.038147 0.281799 0.888029
Si Si5 0.500000 0.500000 0.000000
Si Si6 0.736757 0.361469 0.317541
O O1 0.681224 0.976802 0.853363
O O2 0.441682 0.689965 0.597245
O O3 0.861208 0.854756 0.642427
O O4 0.856647 0.797779 0.963999
O O5 0.681663 0.962174 0.254218
O O6 0.988236 0.207277 0.631325
O O7 0.788202 0.218998 0.249506
O O8 0.500000 0.000000 0.500000
O O9 0.220899 0.757432 0.138753
O O10 0.249535 0.443845 0.004318
O O11 0.406209 0.595516 0.872259
O O12 0.000000 0.500000 0.500000
#
# Coordination Sequence:
#
# PCOD9101697 Si02
#       6
#     2   2   2   2   1   2
#     4  10  22  38  63  93 117 162 210 247 311 367
#     4  10  21  40  64  90 121 161 202 256 311 357
#     4   9  20  38  61  88 123 162 199 255 312 355
#     4  10  20  38  60  88 124 157 202 254 298 363
#     4  10  20  38  64  86 120 166 200 246 306 360
#     4  10  20  40  62  87 129 160 200 258 300 363
#
# _framework density 27.419359
#
# number of rings (size 3 to 8) (size 9 to 14) (size 15 to 20)
#    0.000    2.182    1.818    0.545    0.000    4.364 
#    0.000   20.000    0.000    0.000    0.000    0.000 
#    0.000    0.000    0.000    0.000    0.000    0.000 
#
# Total GULP energy -61300.998906 kJ/mol
# GULP energy per Si atom -5572.818082 kJ/mol
# Density = 2.735695 g / cm^3
# Si number density = 27.419359 Si / 1000 Ang^3
#
#
#
# Elastic Constant Matrix: (Units=GPa)
#
#
# Indices 1 2 3 4 5 6 
#
# 1 212.8771 98.8546 48.6691 14.4825 3.6513 69.1558
# 2 98.8546 182.9655 46.3913 -6.2986 21.8397 50.7745
# 3 48.6691 46.3913 76.5847 -27.3673 -0.8005 3.2320
# 4 14.4825 -6.2986 -27.3673 53.6889 13.1877 18.6559
# 5 3.6513 21.8397 -0.8005 13.1877 39.2285 -4.8300
# 6 69.1558 50.7745 3.2320 18.6559 -4.8300 74.8308
#
#
#
# Elastic Compliance Matrix: (Units=1/GPa)
#
#
# Indices 1 2 3 4 5 6 
#
# 1 0.009040 -0.002117 -0.005544 -0.003722 0.000773 -0.005701
# 2 -0.002117 0.010295 -0.003139 0.004366 -0.007865 -0.006490
# 3 -0.005544 -0.003139 0.022486 0.011620 -0.000773 0.003336
# 4 -0.003722 0.004366 0.011620 0.032636 -0.013934 -0.009060
# 5 0.000773 -0.007865 -0.000773 -0.013934 0.035752 0.010437
# 6 -0.005701 -0.006490 0.003336 -0.009060 0.010437 0.025824
#
#
# Mechanical properties :
#
#
# Convention : Reuss Voigt Hill
#
# Bulk Modulus (GPa) = 49.45444 95.58414 72.51929
# Shear Modulus (GPa) = 30.41854 52.11712 41.26783
#
# Velocity S-wave (km/s) = 3.33435 4.36448 3.88372
# Velocity P-wave (km/s) = 5.73580 7.76750 6.82764
#
# Compressibility (1/GPa) = 0.02022063
#
# Stress axis : x y z
#
# Youngs Moduli (GPa) = 110.61987 97.13058 44.47290
#
# Poissons Ratio (x) = 0.20563 0.24655
# Poissons Ratio (y) = 0.23418 0.13962
# Poissons Ratio (z) = 0.61325 0.30493
#
# Static dielectric constant tensor:
#      x y z
#    x 2.111130 0.000360 -0.018410 
#    y 0.000360 2.104750 0.085750 
#    z -0.018410 0.085750 2.356340 
# 
# From -- ./inp_files/19894.got.cif
#   From: 2010.05.17/outbox.cif.g08.bks.cpg/sg2_10_cif.got.tgz:19894.got - 2010.06.03 11:33:40.
