data_PCOD9101862
_publ_section_title
;
Structure prediction by ZEFSAII (Michael W. Deem and Ramdas Pophale) SiO2 
 PCOD9101862
Probable space group: P -1
;
_chemical_formula_sum "Si O2"
_cell_formula_units_Z 16
_cell_length_a 22.794859
_cell_length_b 8.157431
_cell_length_c 28.431026
_cell_angle_alpha 133.202950
_cell_angle_beta 168.914025
_cell_angle_gamma 48.032027
_cell_volume 740.803224
_symmetry_space_group_name_H-M "P -1"
_symmetry_group_IT_number 2
_symmetry_cell_setting 'triclinic'
loop_
_space_group_symop_operation_xyz
x,y,z
-x,-y,-z
loop_
_atom_site_type_symbol
_atom_site_label
_atom_site_fract_x
_atom_site_fract_y
_atom_site_fract_z
Si Si1 0.176771 0.848371 0.071082
Si Si2 0.167308 0.678925 0.467062
Si Si3 0.818555 0.135428 0.778587
Si Si4 0.470608 0.461466 0.105832
Si Si5 0.262316 0.321314 0.554380
Si Si6 0.164223 0.459718 0.052166
Si Si7 0.348773 0.635700 0.866574
Si Si8 0.850362 0.021809 0.335659
O O1 0.548358 0.855815 0.362436
O O2 0.110754 0.591345 0.986698
O O3 0.000000 0.000000 0.000000
O O4 0.053132 0.951704 0.945871
O O5 0.171312 0.522777 0.486897
O O6 0.503217 0.648857 0.705748
O O7 0.100907 0.935468 0.479274
O O8 0.883329 0.593935 0.195070
O O9 0.820466 0.338756 0.857998
O O10 0.500000 0.000000 0.500000
O O11 0.921252 0.266289 0.837765
O O12 0.498646 0.609490 0.203251
O O13 0.633075 0.525598 0.196502
O O14 0.687979 0.255044 0.249345
O O15 0.963215 0.270570 0.340037
O O16 0.500000 0.500000 0.000000
O O17 0.575630 0.842909 0.075700
O O18 0.000000 0.000000 0.500000
#
# Coordination Sequence:
#
# PCOD9101862 Si02
#       8
#     2   2   2   2   2   2   2   2
#     4   9  21  41  64  90 131 166 209 274 331 379
#     4  10  20  38  61  84 127 164 203 261 322 378
#     4  10  21  39  66  95 122 165 215 262 330 397
#     4  11  22  36  62  87 124 169 204 256 319 381
#     4  11  21  38  64  90 124 167 208 263 321 386
#     4   9  21  41  63  90 130 164 204 273 326 380
#     4  11  20  37  58  89 124 161 207 260 311 368
#     4  11  21  38  56  84 123 163 207 253 308 384
#
# _framework density 21.598178000000001
#
# number of rings (size 3 to 8) (size 9 to 14) (size 15 to 20)
#    0.000    1.750    3.750    1.875    1.750    2.500 
#    0.000    3.750    0.000    0.000    0.000    0.000 
#    0.000    0.000    0.000    0.000    0.000    0.000 
#
# Total GULP energy -89125.730282 kJ/mol
# GULP energy per Si atom -5570.358143 kJ/mol
# Density = 2.154902 g / cm^3
# Si number density = 21.598178 Si / 1000 Ang^3
#
#
#
# Elastic Constant Matrix: (Units=GPa)
#
#
# Indices 1 2 3 4 5 6 
#
# 1 70.8996 25.1407 30.1584 -6.7902 -1.0984 13.3633
# 2 25.1407 88.0582 50.7180 -23.5787 13.7139 6.1712
# 3 30.1584 50.7180 102.6441 -12.9020 12.8471 -2.3042
# 4 -6.7902 -23.5787 -12.9020 37.5946 -3.6988 7.7722
# 5 -1.0984 13.7139 12.8471 -3.6988 41.1798 -4.9574
# 6 13.3633 6.1712 -2.3042 7.7722 -4.9574 35.9259
#
#
#
# Elastic Compliance Matrix: (Units=1/GPa)
#
#
# Indices 1 2 3 4 5 6 
#
# 1 0.018251 -0.001757 -0.004603 0.002248 0.001866 -0.007011
# 2 -0.001757 0.020255 -0.007779 0.010586 -0.004159 -0.006189
# 3 -0.004603 -0.007779 0.015069 -0.001571 -0.001881 0.004095
# 4 0.002248 0.010586 -0.001571 0.035173 -0.001082 -0.010514
# 5 0.001866 -0.004159 -0.001881 -0.001082 0.026667 0.003814
# 6 -0.007011 -0.006189 0.004095 -0.010514 0.003814 0.034569
#
#
# Mechanical properties :
#
#
# Convention : Reuss Voigt Hill
#
# Bulk Modulus (GPa) = 39.53233 52.62624 46.07928
# Shear Modulus (GPa) = 26.78173 33.31240 30.04706
#
# Velocity S-wave (km/s) = 3.52518 3.93156 3.73391
# Velocity P-wave (km/s) = 5.90868 6.71033 6.32222
#
# Compressibility (1/GPa) = 0.02529575
#
# Stress axis : x y z
#
# Youngs Moduli (GPa) = 54.79179 49.37162 66.36313
#
# Poissons Ratio (x) = 0.08675 0.30544
# Poissons Ratio (y) = 0.09628 0.51627
# Poissons Ratio (z) = 0.25218 0.38409
#
# Static dielectric constant tensor:
#      x y z
#    x 1.209790 -0.174970 0.041430 
#    y -0.174970 1.784170 0.008660 
#    z 0.041430 0.008660 1.797580 
# 
# From -- ./inp_files/624136.got.cif
#   From: 2010.05.17/outbox.cif.g08.bks.cpg/sg2_313_cif.got.tgz:624136.got - 2010.06.03 11:33:40.
