data_PCOD9101756
_publ_section_title
;
Structure prediction by ZEFSAII (Michael W. Deem and Ramdas Pophale) SiO2 
 PCOD9101756
Probable space group: P -1
;
_chemical_formula_sum "Si O2"
_cell_formula_units_Z 16
_cell_length_a 7.710165
_cell_length_b 8.325215
_cell_length_c 15.892259
_cell_angle_alpha 88.108894
_cell_angle_beta 63.689978
_cell_angle_gamma 130.915303
_cell_volume 607.241672
_symmetry_space_group_name_H-M "P -1"
_symmetry_group_IT_number 2
_symmetry_cell_setting 'triclinic'
loop_
_space_group_symop_operation_xyz
x,y,z
-x,-y,-z
loop_
_atom_site_type_symbol
_atom_site_label
_atom_site_fract_x
_atom_site_fract_y
_atom_site_fract_z
Si Si1 0.780647 0.077080 0.969018
Si Si2 0.632912 0.893707 0.614970
Si Si3 0.035964 0.292173 0.642410
Si Si4 0.538497 0.229272 0.811210
Si Si5 0.058170 0.697373 0.750587
Si Si6 0.106336 0.066157 0.198989
Si Si7 0.572333 0.486130 0.226800
Si Si8 0.816538 0.310099 0.463404
O O1 0.780137 0.915899 0.915600
O O2 0.734385 0.017038 0.078497
O O3 0.095219 0.345571 0.874193
O O4 0.500000 0.000000 0.000000
O O5 0.327661 0.764168 0.724340
O O6 0.571317 0.668463 0.652488
O O7 0.940396 0.117323 0.590769
O O8 0.652627 0.051510 0.539294
O O9 0.746743 0.224380 0.723225
O O10 0.281470 0.576296 0.559390
O O11 0.055105 0.186313 0.719031
O O12 0.452352 0.335660 0.777699
O O13 0.747270 0.426239 0.839211
O O14 0.047956 0.682622 0.650269
O O15 0.091887 0.900597 0.764064
O O16 0.365116 0.278375 0.203035
O O17 0.000000 0.500000 0.500000
#
# Coordination Sequence:
#
# PCOD9101756 Si02
#       8
#     2   2   2   2   2   2   2   2
#     4  12  23  40  66  91 121 166 210 252 308 362
#     4  10  20  38  60  91 119 161 203 250 304 366
#     4   9  19  39  60  86 125 161 199 252 313 353
#     4  10  21  41  59  88 124 162 203 255 304 364
#     4  10  21  38  62  91 124 158 202 257 304 359
#     4  10  23  42  60  91 128 160 203 257 306 364
#     4  10  24  40  60  91 125 161 204 255 308 363
#     4   9  19  38  65  88 121 163 200 248 309 370
#
# _framework density 26.348654
#
# number of rings (size 3 to 8) (size 9 to 14) (size 15 to 20)
#    0.000    2.000    1.250    1.500    3.500    2.500 
#    2.250   17.500    0.000    0.000    0.000    0.000 
#    0.000    0.000    0.000    0.000    0.000    0.000 
#
# Total GULP energy -89104.514053 kJ/mol
# GULP energy per Si atom -5569.032128 kJ/mol
# Density = 2.628868 g / cm^3
# Si number density = 26.348654 Si / 1000 Ang^3
#
#
#
# Elastic Constant Matrix: (Units=GPa)
#
#
# Indices 1 2 3 4 5 6 
#
# 1 85.5331 -4.1891 19.1015 -10.8425 13.1396 -14.7848
# 2 -4.1891 123.9575 40.5431 -23.6633 3.2603 -8.2672
# 3 19.1015 40.5431 96.1844 -22.7327 24.5737 -11.2598
# 4 -10.8425 -23.6633 -22.7327 50.7451 -9.5161 5.7382
# 5 13.1396 3.2603 24.5737 -9.5161 42.8183 -7.3856
# 6 -14.7848 -8.2672 -11.2598 5.7382 -7.3856 37.7848
#
#
#
# Elastic Compliance Matrix: (Units=1/GPa)
#
#
# Indices 1 2 3 4 5 6 
#
# 1 0.013540 0.001830 -0.001970 0.001996 -0.001956 0.004425
# 2 0.001830 0.010220 -0.004202 0.003493 0.002122 0.001584
# 3 -0.001970 -0.004202 0.015158 0.002994 -0.006934 0.001016
# 4 0.001996 0.003493 0.002994 0.023655 0.002547 -0.000657
# 5 -0.001956 0.002122 -0.006934 0.002547 0.028836 0.002882
# 6 0.004425 0.001584 0.001016 -0.000657 0.002882 0.029510
#
#
# Mechanical properties :
#
#
# Convention : Reuss Voigt Hill
#
# Bulk Modulus (GPa) = 33.07855 46.28731 39.68293
# Shear Modulus (GPa) = 35.79582 42.95096 39.37339
#
# Velocity S-wave (km/s) = 3.68984 4.04183 3.86984
# Velocity P-wave (km/s) = 5.54389 6.27592 5.92123
#
# Compressibility (1/GPa) = 0.03023107
#
# Stress axis : x y z
#
# Youngs Moduli (GPa) = 73.85760 97.84492 65.97391
#
# Poissons Ratio (x) = -0.17903 0.13000
# Poissons Ratio (y) = -0.13514 0.27725
# Poissons Ratio (z) = 0.14553 0.41118
#
# Static dielectric constant tensor:
#      x y z
#    x 2.120170 0.054970 0.009930 
#    y 0.054970 2.259030 -0.066450 
#    z 0.009930 -0.066450 2.094740 
# 
# From -- ./inp_files/217643.got.cif
#   From: 2010.05.17/outbox.cif.g08.bks.cpg/sg2_109_cif.got.tgz:217643.got - 2010.06.03 11:33:40.
