data_PCOD9101774
_publ_section_title
;
Structure prediction by ZEFSAII (Michael W. Deem and Ramdas Pophale) SiO2 
 PCOD9101774
Probable space group: P -1
;
_chemical_formula_sum "Si O2"
_cell_formula_units_Z 14
_cell_length_a 8.774235
_cell_length_b 10.904119
_cell_length_c 12.542697
_cell_angle_alpha 139.234066
_cell_angle_beta 47.571636
_cell_angle_gamma 106.353664
_cell_volume 508.653294
_symmetry_space_group_name_H-M "P -1"
_symmetry_group_IT_number 2
_symmetry_cell_setting 'triclinic'
loop_
_space_group_symop_operation_xyz
x,y,z
-x,-y,-z
loop_
_atom_site_type_symbol
_atom_site_label
_atom_site_fract_x
_atom_site_fract_y
_atom_site_fract_z
Si Si1 0.708365 0.179492 0.251030
Si Si2 0.592832 0.158466 0.524906
Si Si3 0.398554 0.751552 0.199092
Si Si4 0.752412 0.105525 0.867338
Si Si5 0.917154 0.655874 0.860041
Si Si6 0.230535 0.209599 0.191004
Si Si7 0.765690 0.491595 0.215141
O O1 0.743028 0.112019 0.316125
O O2 0.453305 0.382220 0.517900
O O3 0.903563 0.243969 0.166934
O O4 0.709074 0.001623 0.053814
O O5 0.723041 0.164825 0.574846
O O6 0.352845 0.369917 0.743568
O O7 0.500000 0.000000 0.500000
O O8 0.249280 0.862758 0.238238
O O9 0.500000 0.500000 0.000000
O O10 0.637814 0.771441 0.090115
O O11 0.834467 0.871363 0.723682
O O12 0.469191 0.221741 0.103648
O O13 0.839859 0.253346 0.983798
O O14 0.923513 0.600753 0.694990
O O15 0.027350 0.504309 0.810924
#
# Coordination Sequence:
#
# PCOD9101774 Si02
#       7
#     2   2   2   2   2   2   2
#     4  10  21  39  64  96 126 164 208 265 309 367
#     4  10  22  40  63  90 126 169 203 252 317 370
#     4  11  22  43  63  91 126 170 209 256 316 380
#     4  10  20  38  60  92 126 168 201 251 319 364
#     4  11  22  38  67  99 118 163 220 262 305 372
#     4  10  21  36  66  93 127 159 210 262 306 369
#     4  10  22  38  67  91 131 162 210 261 313 371
#
# _framework density 27.523657
#
# number of rings (size 3 to 8) (size 9 to 14) (size 15 to 20)
#    0.857    0.857    2.857    2.571    0.000    0.571 
#    0.000    6.429    0.000    1.714    0.000    0.000 
#    0.000    0.000    0.000    0.000    0.000    0.000 
#
# Total GULP energy -78045.613831 kJ/mol
# GULP energy per Si atom -5574.686702 kJ/mol
# Density = 2.746101 g / cm^3
# Si number density = 27.523657 Si / 1000 Ang^3
#
#
#
# Elastic Constant Matrix: (Units=GPa)
#
#
# Indices 1 2 3 4 5 6 
#
# 1 149.7073 27.7281 27.4983 -13.6108 -1.7152 -65.1972
# 2 27.7281 140.3675 23.3518 -3.4201 -3.1173 -43.9384
# 3 27.4983 23.3518 65.1233 -8.0641 -5.7331 -10.4704
# 4 -13.6108 -3.4201 -8.0641 49.0580 -6.4289 -6.7129
# 5 -1.7152 -3.1173 -5.7331 -6.4289 39.8987 -5.9156
# 6 -65.1972 -43.9384 -10.4704 -6.7129 -5.9156 66.2044
#
#
#
# Elastic Compliance Matrix: (Units=1/GPa)
#
#
# Indices 1 2 3 4 5 6 
#
# 1 0.014960 0.003344 -0.003521 0.006725 0.004068 0.017441
# 2 0.003344 0.010247 -0.002876 0.002887 0.002502 0.010155
# 3 -0.003521 -0.002876 0.017933 0.001757 0.002162 -0.002169
# 4 0.006725 0.002887 0.001757 0.025243 0.006609 0.011966
# 5 0.004068 0.002502 0.002162 0.006609 0.028173 0.009196
# 6 0.017441 0.010155 -0.002169 0.011966 0.009196 0.040712
#
#
# Mechanical properties :
#
#
# Convention : Reuss Voigt Hill
#
# Bulk Modulus (GPa) = 27.00241 56.92829 41.96535
# Shear Modulus (GPa) = 32.10930 49.47356 40.79143
#
# Velocity S-wave (km/s) = 3.41927 4.24428 3.85392
# Velocity P-wave (km/s) = 5.04187 6.68931 5.92315
#
# Compressibility (1/GPa) = 0.03703373
#
# Stress axis : x y z
#
# Youngs Moduli (GPa) = 66.84304 97.59245 55.76383
#
# Poissons Ratio (x) = -0.32635 0.19636
# Poissons Ratio (y) = -0.22353 0.16037
# Poissons Ratio (z) = 0.23537 0.28066
#
# Static dielectric constant tensor:
#      x y z
#    x 2.164020 -0.066930 -0.032490 
#    y -0.066930 2.251810 0.112470 
#    z -0.032490 0.112470 2.289590 
# 
# From -- ./inp_files/500928.got.cif
#   From: 2010.05.17/outbox.cif.g08.bks.cpg/sg2_251_cif.got.tgz:500928.got - 2010.06.03 11:33:40.
