data_PCOD9101511
_publ_section_title
;
Structure prediction by ZEFSAII (Michael W. Deem and Ramdas Pophale) SiO2 
 PCOD9101511
Probable space group: P -1
;
_chemical_formula_sum "Si O2"
_cell_formula_units_Z 16
_cell_length_a 19.789766
_cell_length_b 25.978056
_cell_length_c 11.628662
_cell_angle_alpha 153.102100
_cell_angle_beta 151.855787
_cell_angle_gamma 18.721694
_cell_volume 839.228207
_symmetry_space_group_name_H-M "P -1"
_symmetry_group_IT_number 2
_symmetry_cell_setting 'triclinic'
loop_
_space_group_symop_operation_xyz
x,y,z
-x,-y,-z
loop_
_atom_site_type_symbol
_atom_site_label
_atom_site_fract_x
_atom_site_fract_y
_atom_site_fract_z
Si Si1 0.788536 0.622226 0.760517
Si Si2 0.254043 0.138572 0.202646
Si Si3 0.158899 0.565666 0.965669
Si Si4 0.986709 0.754225 0.321943
Si Si5 0.479997 0.909361 0.696475
Si Si6 0.531304 0.496940 0.404456
Si Si7 0.479243 0.778573 0.824059
Si Si8 0.777860 0.697871 0.314200
O O1 0.640213 0.722661 0.623392
O O2 0.634358 0.685186 0.759767
O O3 0.991311 0.420105 0.636676
O O4 0.901586 0.677226 0.068539
O O5 0.423765 0.101453 0.299383
O O6 0.292032 0.153422 0.419529
O O7 0.016339 0.322911 0.175342
O O8 0.288017 0.983892 0.926988
O O9 0.052534 0.704449 0.186809
O O10 0.390400 0.479415 0.105553
O O11 0.207794 0.652491 0.518158
O O12 0.385971 0.251269 0.925556
O O13 0.777539 0.959371 0.435741
O O14 0.188428 0.425137 0.788102
O O15 0.500000 0.000000 0.000000
O O16 0.500000 0.500000 0.500000
O O17 0.427536 0.679383 0.576675
#
# Coordination Sequence:
#
# PCOD9101511 Si02
#       8
#     2   2   2   2   2   2   2   2
#     4  10  18  32  58  87 110 140 193 235 282 320
#     4  12  22  34  57  90 122 142 178 238 295 329
#     4  10  19  37  56  79 111 155 192 216 271 341
#     4   9  15  31  54  81 105 135 185 233 271 311
#     4  10  16  32  53  86 115 139 180 238 278 329
#     4  10  20  35  56  80 111 154 191 233 262 338
#     4  12  21  35  57  90 112 143 190 241 283 319
#     4  11  22  35  56  89 117 150 177 231 295 340
#
# _framework density 19.065135000000001
#
# number of rings (size 3 to 8) (size 9 to 14) (size 15 to 20)
#    0.000    1.500   10.000    1.125    0.000    0.500 
#    0.000    0.000    0.000    1.500    6.500    0.000 
#    0.000    0.000    0.000    0.000    0.000    0.000 
#
# Total GULP energy -89201.491953 kJ/mol
# GULP energy per Si atom -5575.093247 kJ/mol
# Density = 1.902174 g / cm^3
# Si number density = 19.065135 Si / 1000 Ang^3
#
#
#
# Elastic Constant Matrix: (Units=GPa)
#
#
# Indices 1 2 3 4 5 6 
#
# 1 58.0348 1.6909 14.8609 8.5726 8.4137 -2.1335
# 2 1.6909 79.0073 5.1999 3.0554 9.1039 -7.2125
# 3 14.8609 5.1999 30.0089 5.0024 -3.9089 -7.2031
# 4 8.5726 3.0554 5.0024 11.3094 1.2529 2.0287
# 5 8.4137 9.1039 -3.9089 1.2529 23.5269 0.2407
# 6 -2.1335 -7.2125 -7.2031 2.0287 0.2407 27.7733
#
#
#
# Elastic Compliance Matrix: (Units=1/GPa)
#
#
# Indices 1 2 3 4 5 6 
#
# 1 0.023327 0.001925 -0.011091 -0.012228 -0.010282 0.000398
# 2 0.001925 0.013995 -0.002734 -0.003937 -0.006383 0.003416
# 3 -0.011091 -0.002734 0.046241 -0.014836 0.013380 0.011399
# 4 -0.012228 -0.003937 -0.014836 0.108013 -0.002181 -0.013680
# 5 -0.010282 -0.006383 0.013380 -0.002181 0.050984 0.000740
# 6 0.000398 0.003416 0.011399 -0.013680 0.000740 0.040873
#
#
# Mechanical properties :
#
#
# Convention : Reuss Voigt Hill
#
# Bulk Modulus (GPa) = 16.73236 23.39493 20.06364
# Shear Modulus (GPa) = 15.28337 22.20853 18.74595
#
# Velocity S-wave (km/s) = 2.83440 3.41673 3.13910
# Velocity P-wave (km/s) = 4.41670 5.27855 4.86674
#
# Compressibility (1/GPa) = 0.05976443
#
# Stress axis : x y z
#
# Youngs Moduli (GPa) = 42.86952 71.45191 21.62563
#
# Poissons Ratio (x) = -0.13753 0.23984
# Poissons Ratio (y) = -0.08251 0.05911
# Poissons Ratio (z) = 0.47545 0.19532
#
# Static dielectric constant tensor:
#      x y z
#    x 1.669140 0.011650 -0.002140 
#    y 0.011650 1.756830 0.010890 
#    z -0.002140 0.010890 1.668360 
# 
# From -- ./inp_files/473031.got.cif
#   From: 2010.05.17/outbox.cif.g08.bks.cpg/sg2_237_cif.got.tgz:473031.got - 2010.06.03 11:33:40.
