data_PCOD9101724
_publ_section_title
;
Structure prediction by ZEFSAII (Michael W. Deem and Ramdas Pophale) SiO2 
 PCOD9101724
Probable space group: P -1
;
_chemical_formula_sum "Si O2"
_cell_formula_units_Z 16
_cell_length_a 19.667126
_cell_length_b 11.584433
_cell_length_c 8.465071
_cell_angle_alpha 35.539402
_cell_angle_beta 135.707344
_cell_angle_gamma 147.985728
_cell_volume 592.204367
_symmetry_space_group_name_H-M "P -1"
_symmetry_group_IT_number 2
_symmetry_cell_setting 'triclinic'
loop_
_space_group_symop_operation_xyz
x,y,z
-x,-y,-z
loop_
_atom_site_type_symbol
_atom_site_label
_atom_site_fract_x
_atom_site_fract_y
_atom_site_fract_z
Si Si1 0.928352 0.202025 0.579152
Si Si2 0.042768 0.160265 0.131728
Si Si3 0.610073 0.590383 0.904840
Si Si4 0.360571 0.987212 0.086441
Si Si5 0.281458 0.774273 0.847821
Si Si6 0.918859 0.304270 0.936119
Si Si7 0.389939 0.564918 0.598763
Si Si8 0.381457 0.505261 0.296683
O O1 0.800842 0.164944 0.444544
O O2 0.031605 0.496552 0.351133
O O3 0.926244 0.028281 0.633190
O O4 0.977301 0.155741 0.867423
O O5 0.170312 0.461026 0.036881
O O6 0.952646 0.119418 0.166885
O O7 0.667481 0.614605 0.141729
O O8 0.483588 0.277639 0.021109
O O9 0.541320 0.710698 0.669163
O O10 0.687901 0.648926 0.810940
O O11 0.230989 0.871583 0.088667
O O12 0.381198 0.783145 0.374305
O O13 0.326242 0.947123 0.887380
O O14 0.392787 0.762404 0.000188
O O15 0.000000 0.500000 0.000000
O O16 0.337119 0.433568 0.485249
O O17 0.500000 0.500000 0.500000
#
# Coordination Sequence:
#
# PCOD9101724 Si02
#       8
#     2   2   2   2   2   2   2   2
#     4  10  22  40  62  89 126 167 207 260 314 376
#     4  10  22  41  61  89 124 165 212 256 314 381
#     4  10  21  40  61  86 125 163 203 254 310 367
#     4  11  22  37  60  90 117 159 206 245 312 369
#     4  10  20  38  60  89 124 159 206 260 310 375
#     4  11  21  40  59  90 123 155 205 259 311 365
#     4   9  21  39  59  87 127 157 202 262 302 371
#     4   9  20  39  62  91 122 163 204 254 317 376
#
# _framework density 27.017697999999999
#
# number of rings (size 3 to 8) (size 9 to 14) (size 15 to 20)
#    0.000    2.000    2.500    1.875    0.000    8.500 
#    0.000   10.000    0.000    0.000    0.000    0.000 
#    0.000    0.000    0.000    0.000    0.000    0.000 
#
# Total GULP energy -89374.309447 kJ/mol
# GULP energy per Si atom -5585.894340 kJ/mol
# Density = 2.695620 g / cm^3
# Si number density = 27.017698 Si / 1000 Ang^3
#
#
#
# Elastic Constant Matrix: (Units=GPa)
#
#
# Indices 1 2 3 4 5 6 
#
# 1 171.8748 50.9606 57.2214 -6.0876 28.0911 -24.2762
# 2 50.9606 128.0324 27.2574 -7.6176 20.1564 -14.9103
# 3 57.2214 27.2574 145.1083 14.3912 20.4678 -12.9732
# 4 -6.0876 -7.6176 14.3912 40.1921 -19.8895 2.3328
# 5 28.0911 20.1564 20.4678 -19.8895 52.7290 2.0368
# 6 -24.2762 -14.9103 -12.9732 2.3328 2.0368 44.2798
#
#
#
# Elastic Compliance Matrix: (Units=1/GPa)
#
#
# Indices 1 2 3 4 5 6 
#
# 1 0.008013 -0.001913 -0.002109 0.000012 -0.002840 0.003261
# 2 -0.001913 0.009299 -0.000542 0.000445 -0.002235 0.002003
# 3 -0.002109 -0.000542 0.009264 -0.006157 -0.004662 0.001914
# 4 0.000012 0.000445 -0.006157 0.035154 0.015637 -0.004219
# 5 -0.002840 -0.002235 -0.004662 0.015637 0.029266 -0.005846
# 6 0.003261 0.002003 0.001914 -0.004219 -0.005846 0.026098
#
#
# Mechanical properties :
#
#
# Convention : Reuss Voigt Hill
#
# Bulk Modulus (GPa) = 57.31520 79.54380 68.42950
# Shear Modulus (GPa) = 37.86761 48.07859 42.97310
#
# Velocity S-wave (km/s) = 3.74784 4.22301 3.99250
# Velocity P-wave (km/s) = 6.32364 7.29957 6.82906
#
# Compressibility (1/GPa) = 0.01744738
#
# Stress axis : x y z
#
# Youngs Moduli (GPa) = 124.80045 107.54066 107.94002
#
# Poissons Ratio (x) = 0.20568 0.22769
# Poissons Ratio (y) = 0.23870 0.05854
# Poissons Ratio (z) = 0.26325 0.05832
#
# Static dielectric constant tensor:
#      x y z
#    x 2.257770 0.061730 0.037620 
#    y 0.061730 2.112190 0.018960 
#    z 0.037620 0.018960 2.209300 
# 
# From -- ./inp_files/345901.got.cif
#   From: 2010.05.17/outbox.cif.g08.bks.cpg/sg2_173_cif.got.tgz:345901.got - 2010.06.03 11:33:40.
