data_PCOD9101464
_publ_section_title
;
Structure prediction by ZEFSAII (Michael W. Deem and Ramdas Pophale) SiO2 
 PCOD9101464
Probable space group: P -1
;
_chemical_formula_sum "Si O2"
_cell_formula_units_Z 15
_cell_length_a 14.867569
_cell_length_b 7.404303
_cell_length_c 7.681705
_cell_angle_alpha 54.315559
_cell_angle_beta 118.392590
_cell_angle_gamma 91.221733
_cell_volume 564.107625
_symmetry_space_group_name_H-M "P -1"
_symmetry_group_IT_number 2
_symmetry_cell_setting 'triclinic'
loop_
_space_group_symop_operation_xyz
x,y,z
-x,-y,-z
loop_
_atom_site_type_symbol
_atom_site_label
_atom_site_fract_x
_atom_site_fract_y
_atom_site_fract_z
Si Si1 0.104184 0.903179 0.457882
Si Si2 0.339620 0.546680 0.428693
Si Si3 0.556017 0.455285 0.853128
Si Si4 0.152473 0.232534 0.065860
Si Si5 0.862226 0.282544 0.047620
Si Si6 0.420636 0.039648 0.686847
Si Si7 0.633786 0.849318 0.830313
Si Si8 0.000000 0.500000 0.500000
O O1 0.164125 0.846440 0.732626
O O2 0.069732 0.674973 0.522424
O O3 0.169012 0.995713 0.324088
O O4 0.990087 0.130333 0.231732
O O5 0.425105 0.579248 0.626155
O O6 0.388517 0.557090 0.276091
O O7 0.355043 0.268428 0.611055
O O8 0.213312 0.707632 0.194346
O O9 0.604997 0.610911 0.931052
O O10 0.581168 0.198770 0.099388
O O11 0.240223 0.190792 0.012015
O O12 0.160867 0.442513 0.079796
O O13 0.037174 0.345085 0.800798
O O14 0.547899 0.016487 0.792090
O O15 0.385417 0.068715 0.435838
#
# Coordination Sequence:
#
# PCOD9101464 Si02
#       8
#     2   2   2   2   2   2   2   1
#     4  10  23  42  71  89 125 162 206 267 315 373
#     4  10  21  38  59  94 125 157 210 256 302 371
#     4  10  20  38  59  87 128 166 201 260 297 358
#     4  11  21  43  65  92 126 165 203 258 323 366
#     4  10  21  42  64  97 120 162 215 255 308 383
#     4  10  20  38  59  87 125 169 204 252 299 362
#     4  10  22  38  60  92 123 163 214 243 300 389
#     4  10  24  44  62  96 124 148 218 264 306 380
#
# _framework density 26.590672000000001
#
# number of rings (size 3 to 8) (size 9 to 14) (size 15 to 20)
#    0.000    1.867    2.667    1.600    1.867    0.000 
#   12.000    0.000    0.000    0.000    0.000    0.000 
#    0.000    0.000    0.000    0.000    0.000    0.000 
#
# Total GULP energy -83697.674665 kJ/mol
# GULP energy per Si atom -5579.844978 kJ/mol
# Density = 2.653015 g / cm^3
# Si number density = 26.590672 Si / 1000 Ang^3
#
#
#
# Elastic Constant Matrix: (Units=GPa)
#
#
# Indices 1 2 3 4 5 6 
#
# 1 70.1854 20.5345 37.7403 -7.8453 4.3278 9.8184
# 2 20.5345 100.3457 39.4339 -22.5241 0.5011 23.2037
# 3 37.7403 39.4339 119.4295 -24.9295 -25.5563 18.2237
# 4 -7.8453 -22.5241 -24.9295 32.8691 4.4315 -10.1938
# 5 4.3278 0.5011 -25.5563 4.4315 43.7636 -11.9480
# 6 9.8184 23.2037 18.2237 -10.1938 -11.9480 24.0127
#
#
#
# Elastic Compliance Matrix: (Units=1/GPa)
#
#
# Indices 1 2 3 4 5 6 
#
# 1 0.019341 0.000166 -0.007126 -0.001905 -0.007904 -0.007402
# 2 0.000166 0.015547 -0.003507 0.004668 -0.006442 -0.013654
# 3 -0.007126 -0.003507 0.014791 0.006646 0.009414 0.002583
# 4 -0.001905 0.004668 0.006646 0.040925 0.002568 0.009876
# 5 -0.007904 -0.006442 0.009414 0.002568 0.034568 0.020603
# 6 -0.007402 -0.013654 0.002583 0.009876 0.020603 0.070348
#
#
# Mechanical properties :
#
#
# Convention : Reuss Voigt Hill
#
# Bulk Modulus (GPa) = 34.78868 53.93088 44.35978
# Shear Modulus (GPa) = 22.12053 32.94587 27.53320
#
# Velocity S-wave (km/s) = 2.88738 3.52376 3.22133
# Velocity P-wave (km/s) = 4.92213 6.07304 5.52762
#
# Compressibility (1/GPa) = 0.02874498
#
# Stress axis : x y z
#
# Youngs Moduli (GPa) = 51.70287 64.32207 67.61096
#
# Poissons Ratio (x) = -0.01068 0.48181
# Poissons Ratio (y) = -0.00859 0.23709
# Poissons Ratio (z) = 0.36845 0.22555
#
# Static dielectric constant tensor:
#      x y z
#    x 2.194490 -0.025070 0.133920 
#    y -0.025070 2.136990 -0.036970 
#    z 0.133920 -0.036970 2.078660 
# 
# From -- ./inp_files/291714.got.cif
#   From: 2010.05.17/outbox.cif.g08.bks.cpg/sg2_146_cif.got.tgz:291714.got - 2010.06.03 11:33:40.
