data_PCOD9101662
_publ_section_title
;
Structure prediction by ZEFSAII (Michael W. Deem and Ramdas Pophale) SiO2 
 PCOD9101662
Probable space group: P -1
;
_chemical_formula_sum "Si O2"
_cell_formula_units_Z 16
_cell_length_a 8.794604
_cell_length_b 16.792682
_cell_length_c 20.264120
_cell_angle_alpha 152.327167
_cell_angle_beta 33.269657
_cell_angle_gamma 140.385340
_cell_volume 757.194607
_symmetry_space_group_name_H-M "P -1"
_symmetry_group_IT_number 2
_symmetry_cell_setting 'triclinic'
loop_
_space_group_symop_operation_xyz
x,y,z
-x,-y,-z
loop_
_atom_site_type_symbol
_atom_site_label
_atom_site_fract_x
_atom_site_fract_y
_atom_site_fract_z
Si Si1 0.827265 0.952757 0.632717
Si Si2 0.770275 0.128448 0.170515
Si Si3 0.874036 0.501418 0.475036
Si Si4 0.347627 0.603493 0.688770
Si Si5 0.833170 0.560182 0.930375
Si Si6 0.792049 0.207209 0.518443
Si Si7 0.947906 0.235074 0.701445
Si Si8 0.578404 0.867365 0.277021
O O1 0.513733 0.974940 0.777439
O O2 0.971033 0.877395 0.588048
O O3 0.835146 0.816761 0.469853
O O4 0.981489 0.130687 0.678863
O O5 0.838139 0.305116 0.317313
O O6 0.698379 0.209527 0.185335
O O7 0.000000 0.000000 0.000000
O O8 0.580904 0.585512 0.645953
O O9 0.000000 0.500000 0.500000
O O10 0.076767 0.621334 0.439892
O O11 0.500000 0.500000 0.500000
O O12 0.039902 0.529627 0.772281
O O13 0.938255 0.437963 0.858734
O O14 0.500000 0.500000 0.000000
O O15 0.836015 0.762268 0.090062
O O16 0.562095 0.217081 0.666534
O O17 0.667679 0.065862 0.406589
O O18 0.654164 0.160669 0.716886
#
# Coordination Sequence:
#
# PCOD9101662 Si02
#       8
#     2   2   2   2   2   2   2   2
#     4  10  20  38  60  87 120 163 210 257 312 384
#     4  11  25  39  65  95 126 163 217 272 321 384
#     4  11  25  43  68  90 127 179 221 267 324 399
#     4  10  22  43  67  94 129 177 216 262 327 399
#     4  10  21  36  65  98 126 158 215 272 322 374
#     4  10  21  42  61  88 125 172 214 251 329 388
#     4   9  19  34  63  89 119 157 211 259 311 378
#     4   9  21  37  62  90 125 166 205 269 316 382
#
# _framework density 21.130631000000001
#
# number of rings (size 3 to 8) (size 9 to 14) (size 15 to 20)
#    0.000    2.000    1.250    1.500   14.000    0.000 
#    6.750    1.875    0.000    0.000    0.000    0.000 
#    0.000    0.000    0.000    0.000    0.000    0.000 
#
# Total GULP energy -89194.897106 kJ/mol
# GULP energy per Si atom -5574.681069 kJ/mol
# Density = 2.108254 g / cm^3
# Si number density = 21.130631 Si / 1000 Ang^3
#
#
#
# Elastic Constant Matrix: (Units=GPa)
#
#
# Indices 1 2 3 4 5 6 
#
# 1 93.2812 13.7003 29.5507 0.5138 -16.7137 -14.6040
# 2 13.7003 61.4343 26.6933 -15.4312 -3.2134 -10.7437
# 3 29.5507 26.6933 118.8524 -8.1966 -34.9605 -6.0381
# 4 0.5138 -15.4312 -8.1966 36.7016 -0.3283 -5.4087
# 5 -16.7137 -3.2134 -34.9605 -0.3283 31.1615 8.4543
# 6 -14.6040 -10.7437 -6.0381 -5.4087 8.4543 28.0667
#
#
#
# Elastic Compliance Matrix: (Units=1/GPa)
#
#
# Indices 1 2 3 4 5 6 
#
# 1 0.012802 -0.001226 -0.001619 -0.000334 0.003650 0.004680
# 2 -0.001226 0.023231 -0.005978 0.010043 -0.007927 0.011292
# 3 -0.001619 -0.005978 0.014746 0.000235 0.016376 -0.004846
# 4 -0.000334 0.010043 0.000235 0.033063 -0.001383 0.010509
# 5 0.003650 -0.007927 0.016376 -0.001383 0.055554 -0.014612
# 6 0.004680 0.011292 -0.004846 0.010509 -0.014612 0.047771
#
#
# Mechanical properties :
#
#
# Convention : Reuss Voigt Hill
#
# Bulk Modulus (GPa) = 30.18178 45.93961 38.06069
# Shear Modulus (GPa) = 23.16348 32.76086 27.96217
#
# Velocity S-wave (km/s) = 3.31449 3.94178 3.64167
# Velocity P-wave (km/s) = 5.38166 6.51957 5.97775
#
# Compressibility (1/GPa) = 0.03313257
#
# Stress axis : x y z
#
# Youngs Moduli (GPa) = 78.11407 43.04573 67.81481
#
# Poissons Ratio (x) = 0.05277 0.10981
# Poissons Ratio (y) = 0.09576 0.40540
# Poissons Ratio (z) = 0.12648 0.25733
#
# Static dielectric constant tensor:
#      x y z
#    x 1.817020 0.016230 0.010080 
#    y 0.016230 1.827980 0.005670 
#    z 0.010080 0.005670 1.789950 
# 
# From -- ./inp_files/590985.got.cif
#   From: 2010.05.17/outbox.cif.g08.bks.cpg/sg2_296_cif.got.tgz:590985.got - 2010.06.03 11:33:40.
