data_PCOD9101818
_publ_section_title
;
Structure prediction by ZEFSAII (Michael W. Deem and Ramdas Pophale) SiO2 
 PCOD9101818
Probable space group: P -1
;
_chemical_formula_sum "Si O2"
_cell_formula_units_Z 16
_cell_length_a 14.135891
_cell_length_b 8.262383
_cell_length_c 9.037484
_cell_angle_alpha 71.374419
_cell_angle_beta 76.859521
_cell_angle_gamma 125.671367
_cell_volume 685.359058
_symmetry_space_group_name_H-M "P -1"
_symmetry_group_IT_number 2
_symmetry_cell_setting 'triclinic'
loop_
_space_group_symop_operation_xyz
x,y,z
-x,-y,-z
loop_
_atom_site_type_symbol
_atom_site_label
_atom_site_fract_x
_atom_site_fract_y
_atom_site_fract_z
Si Si1 0.669972 0.969594 0.793234
Si Si2 0.495477 0.696567 0.441127
Si Si3 0.043809 0.743308 0.466415
Si Si4 0.331397 0.878863 0.943890
Si Si5 0.775543 0.461763 0.486948
Si Si6 0.032327 0.411333 0.147850
Si Si7 0.130389 0.267633 0.929874
Si Si8 0.580290 0.355424 0.192357
O O1 0.810859 0.035896 0.727694
O O2 0.717499 0.199963 0.618215
O O3 0.546346 0.719963 0.827184
O O4 0.613251 0.976043 0.965048
O O5 0.500000 0.500000 0.500000
O O6 0.358463 0.586041 0.434317
O O7 0.480165 0.759056 0.590490
O O8 0.632055 0.937574 0.245931
O O9 0.000000 0.500000 0.500000
O O10 0.906458 0.672714 0.483482
O O11 0.064690 0.756032 0.631822
O O12 0.381768 0.764520 0.884547
O O13 0.170439 0.659260 0.099085
O O14 0.828918 0.553743 0.272428
O O15 0.075679 0.295369 0.083881
O O16 0.000000 0.500000 0.000000
O O17 0.277305 0.370649 0.896449
O O18 0.000000 0.000000 0.000000
#
# Coordination Sequence:
#
# PCOD9101818 Si02
#       8
#     2   2   2   2   2   2   2   2
#     4  11  21  39  72 106 130 165 228 288 335 394
#     4  11  25  42  64  97 137 180 221 275 341 398
#     4  10  20  38  61 104 138 163 213 287 342 383
#     4  11  22  39  71 100 130 170 226 280 337 401
#     4  10  21  42  68  92 142 170 222 280 339 391
#     4  11  22  36  67 101 126 171 228 276 327 398
#     4  10  24  42  64  91 132 183 220 271 335 399
#     4  10  23  42  69  98 127 175 228 282 333 388
#
# _framework density 23.345427999999998
#
# number of rings (size 3 to 8) (size 9 to 14) (size 15 to 20)
#    0.000    1.500    3.750    2.250    5.250    2.000 
#    0.000    1.250    0.000    0.000    0.000    0.000 
#    0.000    0.000    0.000    0.000    0.000    0.000 
#
# Total GULP energy -89259.411088 kJ/mol
# GULP energy per Si atom -5578.713193 kJ/mol
# Density = 2.329229 g / cm^3
# Si number density = 23.345428 Si / 1000 Ang^3
#
#
#
# Elastic Constant Matrix: (Units=GPa)
#
#
# Indices 1 2 3 4 5 6 
#
# 1 58.5281 15.9640 -0.5980 -3.5657 -6.8687 19.0189
# 2 15.9640 83.6092 29.5791 3.1023 -5.9338 36.6283
# 3 -0.5980 29.5791 131.2563 20.4451 -7.9810 -10.6864
# 4 -3.5657 3.1023 20.4451 37.0253 -2.4029 1.2377
# 5 -6.8687 -5.9338 -7.9810 -2.4029 25.1896 -0.2551
# 6 19.0189 36.6283 -10.6864 1.2377 -0.2551 30.8020
#
#
#
# Elastic Compliance Matrix: (Units=1/GPa)
#
#
# Indices 1 2 3 4 5 6 
#
# 1 0.025210 0.010472 -0.005118 0.005896 0.007979 -0.029966
# 2 0.010472 0.044668 -0.016236 0.008968 0.008426 -0.065506
# 3 -0.005118 -0.016236 0.014752 -0.008280 -0.001053 0.027909
# 4 0.005896 0.008968 -0.008280 0.032272 0.003989 -0.018441
# 5 0.007979 0.008426 -0.001053 0.003989 0.043753 -0.015109
# 6 -0.029966 -0.065506 0.027909 -0.018441 -0.015109 0.139163
#
#
# Mechanical properties :
#
#
# Convention : Reuss Voigt Hill
#
# Bulk Modulus (GPa) = 15.90688 40.36488 28.13588
# Shear Modulus (GPa) = 14.59695 33.83329 24.21512
#
# Velocity S-wave (km/s) = 2.50323 3.81103 3.22414
# Velocity P-wave (km/s) = 3.89659 6.05748 5.09296
#
# Compressibility (1/GPa) = 0.06286587
#
# Stress axis : x y z
#
# Youngs Moduli (GPa) = 39.66670 22.38761 67.78665
#
# Poissons Ratio (x) = -0.23445 0.34693
# Poissons Ratio (y) = -0.41540 1.10059
# Poissons Ratio (z) = 0.20302 0.36349
#
# Static dielectric constant tensor:
#      x y z
#    x 1.984880 0.065580 0.023850 
#    y 0.065580 1.963890 0.042060 
#    z 0.023850 0.042060 1.922450 
# 
# From -- ./inp_files/182714.got.cif
#   From: 2010.05.17/outbox.cif.g08.bks.cpg/sg2_92_cif.got.tgz:182714.got - 2010.06.03 11:33:40.
