data_PCOD9101091
_publ_section_title
;
Structure prediction by ZEFSAII (Michael W. Deem and Ramdas Pophale) SiO2 
 PCOD9101091
Probable space group: P -1
;
_chemical_formula_sum "Si O2"
_cell_formula_units_Z 14
_cell_length_a 16.537616
_cell_length_b 7.739955
_cell_length_c 9.236734
_cell_angle_alpha 94.647245
_cell_angle_beta 85.648045
_cell_angle_gamma 146.815804
_cell_volume 644.916086
_symmetry_space_group_name_H-M "P -1"
_symmetry_group_IT_number 2
_symmetry_cell_setting 'triclinic'
loop_
_space_group_symop_operation_xyz
x,y,z
-x,-y,-z
loop_
_atom_site_type_symbol
_atom_site_label
_atom_site_fract_x
_atom_site_fract_y
_atom_site_fract_z
Si Si1 0.442926 0.065975 0.094536
Si Si2 0.433608 0.251400 0.834897
Si Si3 0.877066 0.145105 0.058330
Si Si4 0.860706 0.442932 0.760691
Si Si5 0.247376 0.128209 0.250958
Si Si6 0.583624 0.153725 0.345602
Si Si7 0.167080 0.319645 0.459352
O O1 0.514327 0.172081 0.249152
O O2 0.266666 0.751427 0.115740
O O3 0.481949 0.288385 0.994956
O O4 0.500000 0.000000 0.000000
O O5 0.576450 0.593147 0.763147
O O6 0.269783 0.040515 0.856429
O O7 0.419538 0.040410 0.740652
O O8 0.979238 0.233487 0.169632
O O9 0.000000 0.500000 0.000000
O O10 0.815309 0.943382 0.907377
O O11 0.821932 0.496679 0.636504
O O12 0.837223 0.197363 0.709527
O O13 0.223546 0.250464 0.363354
O O14 0.746634 0.495839 0.391930
O O15 0.500000 0.000000 0.500000
O O16 0.000000 0.000000 0.500000
#
# Coordination Sequence:
#
# PCOD9101091 Si02
#       7
#     2   2   2   2   2   2   2
#     4  10  20  37  72  98 130 178 229 278 342 394
#     4  11  21  42  72 104 137 180 235 288 339 415
#     4  10  22  39  68 103 139 177 225 289 347 398
#     4  11  24  46  67 102 140 180 233 289 345 407
#     4  11  24  44  73 102 140 179 237 288 341 417
#     4  11  22  44  69  97 143 184 231 287 344 408
#     4  12  28  47  67 101 143 185 233 288 346 421
#
# _framework density 21.708251000000001
#
# number of rings (size 3 to 8) (size 9 to 14) (size 15 to 20)
#    0.000    1.143    5.714    1.286    4.000    2.286 
#    0.000    1.429    0.000    0.000    0.000    0.000 
#    0.000    0.000    0.000    0.000    0.000    0.000 
#
# Total GULP energy -78159.061838 kJ/mol
# GULP energy per Si atom -5582.790131 kJ/mol
# Density = 2.165884 g / cm^3
# Si number density = 21.708251 Si / 1000 Ang^3
#
#
#
# Elastic Constant Matrix: (Units=GPa)
#
#
# Indices 1 2 3 4 5 6 
#
# 1 84.9072 17.2091 31.0268 6.5146 8.4300 -4.8634
# 2 17.2091 108.2674 19.4179 4.7454 0.1631 18.5075
# 3 31.0268 19.4179 80.7936 6.5303 -1.4474 -4.6443
# 4 6.5146 4.7454 6.5303 37.4762 -4.7035 -1.1869
# 5 8.4300 0.1631 -1.4474 -4.7035 28.2728 3.7939
# 6 -4.8634 18.5075 -4.6443 -1.1869 3.7939 39.7731
#
#
#
# Elastic Compliance Matrix: (Units=1/GPa)
#
#
# Indices 1 2 3 4 5 6 
#
# 1 0.014814 -0.001778 -0.005047 -0.002062 -0.005343 0.002498
# 2 -0.001778 0.010911 -0.002187 -0.000746 0.000991 -0.005667
# 3 -0.005047 -0.002187 0.015082 -0.001182 0.001831 0.001952
# 4 -0.002062 -0.000746 -0.001182 0.028002 0.005177 0.000299
# 5 -0.005343 0.000991 0.001831 0.005177 0.038505 -0.004419
# 6 0.002498 -0.005667 0.001952 0.000299 -0.004419 0.028743
#
#
# Mechanical properties :
#
#
# Convention : Reuss Voigt Hill
#
# Bulk Modulus (GPa) = 43.89398 45.47510 44.68454
# Shear Modulus (GPa) = 30.92603 34.85872 32.89237
#
# Velocity S-wave (km/s) = 3.77851 4.01157 3.89678
# Velocity P-wave (km/s) = 6.26897 6.51542 6.39338
#
# Compressibility (1/GPa) = 0.02278217
#
# Stress axis : x y z
#
# Youngs Moduli (GPa) = 67.50354 91.64854 66.30562
#
# Poissons Ratio (x) = 0.16295 0.33465
# Poissons Ratio (y) = 0.12002 0.14503
# Poissons Ratio (z) = 0.34070 0.20046
#
# Static dielectric constant tensor:
#      x y z
#    x 1.837960 -0.007130 0.036160 
#    y -0.007130 1.646430 -0.100710 
#    z 0.036160 -0.100710 1.759290 
# 
# From -- ./inp_files/327588.got.cif
#   From: 2010.05.17/outbox.cif.g08.bks.cpg/sg2_164_cif.got.tgz:327588.got - 2010.06.03 11:33:40.
