data_PCOD9101920
_publ_section_title
;
Structure prediction by ZEFSAII (Michael W. Deem and Ramdas Pophale) SiO2 
 PCOD9101920
Probable space group: P -1
;
_chemical_formula_sum "Si O2"
_cell_formula_units_Z 12
_cell_length_a 11.663218
_cell_length_b 6.304754
_cell_length_c 11.669450
_cell_angle_alpha 102.331264
_cell_angle_beta 103.109141
_cell_angle_gamma 39.312308
_cell_volume 528.468644
_symmetry_space_group_name_H-M "P -1"
_symmetry_group_IT_number 2
_symmetry_cell_setting 'triclinic'
loop_
_space_group_symop_operation_xyz
x,y,z
-x,-y,-z
loop_
_atom_site_type_symbol
_atom_site_label
_atom_site_fract_x
_atom_site_fract_y
_atom_site_fract_z
Si Si1 0.009102 0.510044 0.716021
Si Si2 0.629235 0.633463 0.761911
Si Si3 0.683546 0.631743 0.324334
Si Si4 0.330297 0.799608 0.845180
Si Si5 0.825288 0.358825 0.555662
Si Si6 0.184963 0.207408 0.077235
O O1 0.127095 0.509068 0.669112
O O2 0.884994 0.520753 0.617239
O O3 0.879255 0.798375 0.816316
O O4 0.161958 0.149862 0.777434
O O5 0.515645 0.632867 0.815123
O O6 0.759489 0.353985 0.661114
O O7 0.731524 0.673557 0.863491
O O8 0.479151 0.978451 0.695296
O O9 0.677674 0.442287 0.212096
O O10 0.677575 0.556742 0.444202
O O11 0.308534 0.894632 0.983884
O O12 0.000000 0.000000 0.500000
O O13 0.000000 0.500000 0.000000
#
# Coordination Sequence:
#
# PCOD9101920 Si02
#       6
#     2   2   2   2   2   2
#     4   9  20  39  59  88 120 155 197 240 286 342
#     4  10  23  40  59  88 120 153 195 243 294 343
#     4  11  22  38  60  89 122 153 195 242 290 345
#     4  10  20  38  61  87 120 156 193 236 295 351
#     4  11  21  41  62  85 118 160 197 239 292 346
#     4   9  19  39  64  85 118 156 192 242 293 343
#
# _framework density 22.707118999999999
#
# number of rings (size 3 to 8) (size 9 to 14) (size 15 to 20)
#    0.000    2.000    1.667    1.500    0.000    2.000 
#    9.000    0.000    0.000    0.000    0.000    0.000 
#    0.000    0.000    0.000    0.000    0.000    0.000 
#
# Total GULP energy -67106.950786 kJ/mol
# GULP energy per Si atom -5592.245899 kJ/mol
# Density = 2.265544 g / cm^3
# Si number density = 22.707119 Si / 1000 Ang^3
#
#
#
# Elastic Constant Matrix: (Units=GPa)
#
#
# Indices 1 2 3 4 5 6 
#
# 1 79.6735 -0.3581 25.7333 13.4667 -12.2596 -23.9799
# 2 -0.3581 68.1152 24.4172 11.1091 -19.0269 -15.4698
# 3 25.7333 24.4172 143.7345 33.3324 -15.0423 -14.2508
# 4 13.4667 11.1091 33.3324 38.1201 -14.0778 -6.7455
# 5 -12.2596 -19.0269 -15.0423 -14.0778 26.4122 -0.7054
# 6 -23.9799 -15.4698 -14.2508 -6.7455 -0.7054 24.4145
#
#
#
# Elastic Compliance Matrix: (Units=1/GPa)
#
#
# Indices 1 2 3 4 5 6 
#
# 1 0.028879 0.017028 -0.002143 0.003951 0.027620 0.039793
# 2 0.017028 0.033265 -0.002669 0.006374 0.034786 0.039011
# 3 -0.002143 -0.002669 0.009265 -0.007188 -0.001484 -0.000418
# 4 0.003951 0.006374 -0.007188 0.041188 0.024708 0.015818
# 5 0.027620 0.034786 -0.001484 0.024708 0.089607 0.057719
# 6 0.039793 0.039011 -0.000418 0.015818 0.057719 0.110557
#
#
# Mechanical properties :
#
#
# Convention : Reuss Voigt Hill
#
# Bulk Modulus (GPa) = 10.43413 43.45644 26.94529
# Shear Modulus (GPa) = 15.61153 33.90475 24.75814
#
# Velocity S-wave (km/s) = 2.62490 3.86830 3.30559
# Velocity P-wave (km/s) = 3.71374 6.25548 5.14407
#
# Compressibility (1/GPa) = 0.09583928
#
# Stress axis : x y z
#
# Youngs Moduli (GPa) = 34.62730 30.06186 107.93701
#
# Poissons Ratio (x) = -0.51191 0.23136
# Poissons Ratio (y) = -0.58965 0.28813
# Poissons Ratio (z) = 0.07422 0.08025
#
# Static dielectric constant tensor:
#      x y z
#    x 1.805160 -0.028280 -0.028570 
#    y -0.028280 1.865940 -0.003680 
#    z -0.028570 -0.003680 1.830840 
# 
# From -- ./inp_files/22308.got.cif
#   From: 2010.05.17/outbox.cif.g08.bks.cpg/sg2_12_cif.got.tgz:22308.got - 2010.06.03 11:33:40.
