data_PCOD9101600
_publ_section_title
;
Structure prediction by ZEFSAII (Michael W. Deem and Ramdas Pophale) SiO2 
 PCOD9101600
Probable space group: P -1
;
_chemical_formula_sum "Si O2"
_cell_formula_units_Z 16
_cell_length_a 8.739680
_cell_length_b 16.286122
_cell_length_c 6.753909
_cell_angle_alpha 124.755851
_cell_angle_beta 74.262653
_cell_angle_gamma 122.399160
_cell_volume 666.052911
_symmetry_space_group_name_H-M "P -1"
_symmetry_group_IT_number 2
_symmetry_cell_setting 'triclinic'
loop_
_space_group_symop_operation_xyz
x,y,z
-x,-y,-z
loop_
_atom_site_type_symbol
_atom_site_label
_atom_site_fract_x
_atom_site_fract_y
_atom_site_fract_z
Si Si1 0.932195 0.675820 0.737418
Si Si2 0.384732 0.540070 0.232561
Si Si3 0.271771 0.277875 0.464260
Si Si4 0.035658 0.748515 0.213820
Si Si5 0.142825 0.013018 0.221419
Si Si6 0.201239 0.985304 0.708365
Si Si7 0.509690 0.967528 0.723738
Si Si8 0.758954 0.299181 0.635781
O O1 0.788751 0.560171 0.736463
O O2 0.817682 0.717827 0.704101
O O3 0.077718 0.666292 0.532232
O O4 0.036625 0.761093 0.997746
O O5 0.520715 0.627709 0.469181
O O6 0.324162 0.617319 0.234394
O O7 0.500000 0.500000 0.000000
O O8 0.232588 0.150561 0.350235
O O9 0.168380 0.311378 0.715203
O O10 0.118987 0.860932 0.472936
O O11 0.151184 0.689916 0.165637
O O12 0.279042 0.002163 0.315717
O O13 0.926446 0.964848 0.267024
O O14 0.153214 0.969795 0.938805
O O15 0.419206 0.031407 0.714090
O O16 0.389042 0.831823 0.543079
O O17 0.500000 0.000000 0.000000
#
# Coordination Sequence:
#
# PCOD9101600 Si02
#       8
#     2   2   2   2   2   2   2   2
#     4  11  23  40  60  84 121 165 197 250 307 355
#     4  12  23  41  62  88 119 159 205 257 301 357
#     4  10  20  38  60  84 119 156 203 248 301 362
#     4   9  19  39  59  86 120 155 198 248 297 366
#     4   9  15  30  56  84 117 154 197 246 299 360
#     4   8  16  28  55  89 114 152 199 242 299 360
#     4   9  16  31  59  88 115 154 197 243 300 363
#     4  10  22  40  62  88 119 157 205 247 304 367
#
# _framework density 24.022117000000001
#
# number of rings (size 3 to 8) (size 9 to 14) (size 15 to 20)
#    0.000    2.250    2.500    1.500    0.000    0.500 
#    4.500    0.625    0.000    8.250    0.000    0.000 
#    0.000    0.000    0.000    0.000    0.000    0.000 
#
# Total GULP energy -89369.037835 kJ/mol
# GULP energy per Si atom -5585.564865 kJ/mol
# Density = 2.396744 g / cm^3
# Si number density = 24.022117 Si / 1000 Ang^3
#
#
#
# Elastic Constant Matrix: (Units=GPa)
#
#
# Indices 1 2 3 4 5 6 
#
# 1 192.3138 34.8943 53.4441 -3.6236 14.5621 -15.1303
# 2 34.8943 100.9451 21.1074 10.5711 -1.2746 6.9155
# 3 53.4441 21.1074 71.0766 -0.8318 14.6804 2.0898
# 4 -3.6236 10.5711 -0.8318 26.8931 1.9591 -0.2114
# 5 14.5621 -1.2746 14.6804 1.9591 42.0577 -6.2253
# 6 -15.1303 6.9155 2.0898 -0.2114 -6.2253 40.4003
#
#
#
# Elastic Compliance Matrix: (Units=1/GPa)
#
#
# Indices 1 2 3 4 5 6 
#
# 1 0.007202 -0.001872 -0.004839 0.001616 -0.000462 0.003205
# 2 -0.001872 0.011782 -0.002443 -0.005105 0.001748 -0.002349
# 3 -0.004839 -0.002443 0.019753 0.001319 -0.005845 -0.003310
# 4 0.001616 -0.005105 0.001319 0.039666 -0.002848 0.001179
# 5 -0.000462 0.001748 -0.005845 -0.002848 0.026745 0.003936
# 6 0.003205 -0.002349 -0.003310 0.001179 0.003936 0.027139
#
#
# Mechanical properties :
#
#
# Convention : Reuss Voigt Hill
#
# Bulk Modulus (GPa) = 48.95054 64.80301 56.87677
# Shear Modulus (GPa) = 31.76510 38.86286 35.31398
#
# Velocity S-wave (km/s) = 3.64033 4.02655 3.83830
# Velocity P-wave (km/s) = 6.17178 6.97513 6.58571
#
# Compressibility (1/GPa) = 0.02042879
#
# Stress axis : x y z
#
# Youngs Moduli (GPa) = 138.85082 84.87572 50.62414
#
# Poissons Ratio (x) = 0.15891 0.24498
# Poissons Ratio (y) = 0.25997 0.12366
# Poissons Ratio (z) = 0.67193 0.20733
#
# Static dielectric constant tensor:
#      x y z
#    x 2.027730 0.020970 -0.018240 
#    y 0.020970 1.915380 -0.008370 
#    z -0.018240 -0.008370 1.930670 
# 
# From -- ./inp_files/48943.got.cif
#   From: 2010.05.17/outbox.cif.g08.bks.cpg/sg2_25_cif.got.tgz:48943.got - 2010.06.03 11:33:40.
