data_PCOD9101305
_publ_section_title
;
Structure prediction by ZEFSAII (Michael W. Deem and Ramdas Pophale) SiO2 
 PCOD9101305
Probable space group: P -1
;
_chemical_formula_sum "Si O2"
_cell_formula_units_Z 14
_cell_length_a 9.198705
_cell_length_b 23.943178
_cell_length_c 5.825457
_cell_angle_alpha 128.817534
_cell_angle_beta 124.322628
_cell_angle_gamma 36.467898
_cell_volume 589.210669
_symmetry_space_group_name_H-M "P -1"
_symmetry_group_IT_number 2
_symmetry_cell_setting 'triclinic'
loop_
_space_group_symop_operation_xyz
x,y,z
-x,-y,-z
loop_
_atom_site_type_symbol
_atom_site_label
_atom_site_fract_x
_atom_site_fract_y
_atom_site_fract_z
Si Si1 0.286476 0.897553 0.439809
Si Si2 0.877791 0.188582 0.166697
Si Si3 0.915106 0.558264 0.321690
Si Si4 0.303259 0.121118 0.089001
Si Si5 0.698644 0.443606 0.325832
Si Si6 0.438587 0.640807 0.299674
Si Si7 0.750415 0.965300 0.561523
O O1 0.510102 0.863806 0.715001
O O2 0.326623 0.936691 0.355920
O O3 0.270808 0.818435 0.162533
O O4 0.000000 0.000000 0.500000
O O5 0.696122 0.277750 0.412316
O O6 0.087147 0.183812 0.247905
O O7 0.048033 0.084312 0.191959
O O8 0.626058 0.633207 0.294835
O O9 0.000000 0.500000 0.500000
O O10 0.030000 0.603779 0.511102
O O11 0.000000 0.500000 0.000000
O O12 0.156790 0.123879 0.757867
O O13 0.500000 0.000000 0.000000
O O14 0.500000 0.500000 0.500000
O O15 0.588098 0.534693 0.289688
O O16 0.722400 0.359375 0.019287
O O17 0.500000 0.000000 0.500000
#
# Coordination Sequence:
#
# PCOD9101305 Si02
#       7
#     2   2   2   2   2   2   2
#     4  11  20  39  64  84 119 175 216 255 323 374
#     4  12  23  39  63  95 130 158 222 273 305 380
#     4  10  20  40  68  95 128 169 215 264 329 412
#     4  10  20  38  58  86 124 164 211 260 312 369
#     4  10  20  42  72  87 125 174 205 251 344 404
#     4  10  24  39  64 100 125 161 215 273 323 387
#     4  11  20  39  65  83 121 174 215 254 314 380
#
# _framework density 23.760601999999999
#
# number of rings (size 3 to 8) (size 9 to 14) (size 15 to 20)
#    0.000    1.429    7.143    0.429    0.000    2.286 
#    0.000    0.000    9.429    0.000    0.000    0.000 
#    0.000    0.000    0.000    0.000    0.000    0.000 
#
# Total GULP energy -77947.338615 kJ/mol
# GULP energy per Si atom -5567.667044 kJ/mol
# Density = 2.370652 g / cm^3
# Si number density = 23.760602 Si / 1000 Ang^3
#
#
#
# Elastic Constant Matrix: (Units=GPa)
#
#
# Indices 1 2 3 4 5 6 
#
# 1 176.8492 27.1865 70.2081 11.0122 19.3095 -54.6767
# 2 27.1865 65.0118 25.4889 4.9366 3.5607 0.2393
# 3 70.2081 25.4889 159.4492 11.7703 22.1801 -41.1047
# 4 11.0122 4.9366 11.7703 40.5062 -11.6490 -16.2639
# 5 19.3095 3.5607 22.1801 -11.6490 53.1240 -8.1928
# 6 -54.6767 0.2393 -41.1047 -16.2639 -8.1928 33.8771
#
#
#
# Elastic Compliance Matrix: (Units=1/GPa)
#
#
# Indices 1 2 3 4 5 6 
#
# 1 0.015218 -0.007995 0.001894 0.009334 0.001145 0.031674
# 2 -0.007995 0.021714 -0.005265 -0.009406 -0.002191 -0.024491
# 3 0.001894 -0.005265 0.010711 0.003689 -0.001292 0.017549
# 4 0.009334 -0.009406 0.003689 0.042876 0.011736 0.043029
# 5 0.001145 -0.002191 -0.001292 0.011736 0.023457 0.011602
# 6 0.031674 -0.024491 0.017549 0.043029 0.011602 0.125569
#
#
# Mechanical properties :
#
#
# Convention : Reuss Voigt Hill
#
# Bulk Modulus (GPa) = 40.14262 71.89747 56.02004
# Shear Modulus (GPa) = 18.47887 44.06323 31.27105
#
# Velocity S-wave (km/s) = 2.79177 4.31102 3.63173
# Velocity P-wave (km/s) = 5.22717 7.42325 6.41981
#
# Compressibility (1/GPa) = 0.02491118
#
# Stress axis : x y z
#
# Youngs Moduli (GPa) = 65.71120 46.05383 93.36622
#
# Poissons Ratio (x) = 0.36818 -0.17687
# Poissons Ratio (y) = 0.52533 0.49160
# Poissons Ratio (z) = -0.12448 0.24249
#
# Static dielectric constant tensor:
#      x y z
#    x 1.977210 -0.027080 -0.023400 
#    y -0.027080 1.287450 0.489910 
#    z -0.023400 0.489910 1.980780 
# 
# From -- ./inp_files/56271.got.cif
#   From: 2010.05.17/outbox.cif.g08.bks.cpg/sg2_29_cif.got.tgz:56271.got - 2010.06.03 11:33:40.
