data_PCOD9101348
_publ_section_title
;
Structure prediction by ZEFSAII (Michael W. Deem and Ramdas Pophale) SiO2 
 PCOD9101348
Probable space group: P -1
;
_chemical_formula_sum "Si O2"
_cell_formula_units_Z 16
_cell_length_a 18.298868
_cell_length_b 11.890416
_cell_length_c 5.663933
_cell_angle_alpha 52.690020
_cell_angle_beta 133.455436
_cell_angle_gamma 115.326412
_cell_volume 711.398166
_symmetry_space_group_name_H-M "P -1"
_symmetry_group_IT_number 2
_symmetry_cell_setting 'triclinic'
loop_
_space_group_symop_operation_xyz
x,y,z
-x,-y,-z
loop_
_atom_site_type_symbol
_atom_site_label
_atom_site_fract_x
_atom_site_fract_y
_atom_site_fract_z
Si Si1 0.521294 0.147742 0.983745
Si Si2 0.698978 0.221099 0.942829
Si Si3 0.025194 0.422310 0.906865
Si Si4 0.379677 0.497075 0.712818
Si Si5 0.836963 0.279130 0.568545
Si Si6 0.777018 0.578065 0.909160
Si Si7 0.310795 0.956652 0.236994
Si Si8 0.318274 0.232622 0.231229
O O1 0.609176 0.224776 0.930268
O O2 0.414556 0.217104 0.638051
O O3 0.577301 0.107346 0.398114
O O4 0.500000 0.000000 0.000000
O O5 0.667880 0.349312 0.539808
O O6 0.701896 0.062890 0.045349
O O7 0.806492 0.253988 0.258601
O O8 0.000000 0.500000 0.500000
O O9 0.952017 0.284682 0.899790
O O10 0.143782 0.403847 0.152869
O O11 0.000000 0.500000 0.000000
O O12 0.330972 0.459932 0.397492
O O13 0.500000 0.500000 0.000000
O O14 0.343304 0.371011 0.958512
O O15 0.772730 0.155994 0.709390
O O16 0.804163 0.443631 0.304689
O O17 0.774130 0.721404 0.870371
O O18 0.305778 0.099848 0.193709
#
# Coordination Sequence:
#
# PCOD9101348 Si02
#       8
#     2   2   2   2   2   2   2   2
#     4   9  20  35  53  82 121 170 216 253 306 381
#     4  10  20  38  58  91 119 167 216 261 314 387
#     4  10  23  42  73 102 129 168 219 279 336 392
#     4  11  23  37  59  91 126 167 209 267 326 384
#     4   9  21  41  66  92 120 160 217 268 319 387
#     4  10  24  40  64  92 127 161 213 272 328 385
#     4  10  22  37  63  85 127 169 217 260 316 391
#     4  11  23  38  56  91 129 171 211 267 326 383
#
# _framework density 22.490919999999999
#
# number of rings (size 3 to 8) (size 9 to 14) (size 15 to 20)
#    0.000    2.000    1.250    0.750   10.500    5.500 
#    0.000    0.625    0.000    1.500    0.000    0.000 
#    0.000    0.000    0.000    0.000    0.000    0.000 
#
# Total GULP energy -89103.855947 kJ/mol
# GULP energy per Si atom -5568.990997 kJ/mol
# Density = 2.243973 g / cm^3
# Si number density = 22.490920 Si / 1000 Ang^3
#
#
#
# Elastic Constant Matrix: (Units=GPa)
#
#
# Indices 1 2 3 4 5 6 
#
# 1 106.7447 57.7409 17.4335 -1.9139 5.3307 -1.1862
# 2 57.7409 143.9807 28.0233 14.7934 15.7071 -14.2762
# 3 17.4335 28.0233 39.6167 10.1233 7.1218 3.7922
# 4 -1.9139 14.7934 10.1233 33.1350 7.8813 2.4433
# 5 5.3307 15.7071 7.1218 7.8813 14.2738 0.6372
# 6 -1.1862 -14.2762 3.7922 2.4433 0.6372 49.7536
#
#
#
# Elastic Compliance Matrix: (Units=1/GPa)
#
#
# Indices 1 2 3 4 5 6 
#
# 1 0.012608 -0.005017 -0.002920 0.003903 0.000163 -0.001110
# 2 -0.005017 0.011151 -0.004088 -0.002601 -0.007082 0.003610
# 3 -0.002920 -0.004088 0.032632 -0.006401 -0.007011 -0.003326
# 4 0.003903 -0.002601 -0.006401 0.037462 -0.016006 -0.001800
# 5 0.000163 -0.007082 -0.007011 -0.016006 0.090210 -0.001863
# 6 -0.001110 0.003610 -0.003326 -0.001800 -0.001863 0.021474
#
#
# Mechanical properties :
#
#
# Convention : Reuss Voigt Hill
#
# Bulk Modulus (GPa) = 30.91923 55.19306 43.05614
# Shear Modulus (GPa) = 20.80150 31.90876 26.35513
#
# Velocity S-wave (km/s) = 3.04449 3.77070 3.42689
# Velocity P-wave (km/s) = 5.11232 6.59932 5.90283
#
# Compressibility (1/GPa) = 0.03234233
#
# Stress axis : x y z
#
# Youngs Moduli (GPa) = 79.31260 89.68032 30.64430
#
# Poissons Ratio (x) = 0.44992 0.08948
# Poissons Ratio (y) = 0.39791 0.12526
# Poissons Ratio (z) = 0.23160 0.36658
#
# Static dielectric constant tensor:
#      x y z
#    x 1.993520 -0.043110 -0.071510 
#    y -0.043110 1.874660 0.036360 
#    z -0.071510 0.036360 1.999520 
# 
# From -- ./inp_files/81016.got.cif
#   From: 2010.05.17/outbox.cif.g08.bks.cpg/sg2_41_cif.got.tgz:81016.got - 2010.06.03 11:33:40.
