data_PCOD9101449
_publ_section_title
;
Structure prediction by ZEFSAII (Michael W. Deem and Ramdas Pophale) SiO2 
 PCOD9101449
Probable space group: P -1
;
_chemical_formula_sum "Si O2"
_cell_formula_units_Z 16
_cell_length_a 8.933806
_cell_length_b 13.528186
_cell_length_c 10.515679
_cell_angle_alpha 123.022886
_cell_angle_beta 55.282930
_cell_angle_gamma 92.276364
_cell_volume 805.521430
_symmetry_space_group_name_H-M "P -1"
_symmetry_group_IT_number 2
_symmetry_cell_setting 'triclinic'
loop_
_space_group_symop_operation_xyz
x,y,z
-x,-y,-z
loop_
_atom_site_type_symbol
_atom_site_label
_atom_site_fract_x
_atom_site_fract_y
_atom_site_fract_z
Si Si1 0.201382 0.410559 0.405803
Si Si2 0.272023 0.185254 0.039094
Si Si3 0.708870 0.672838 0.424291
Si Si4 0.304567 0.891041 0.208238
Si Si5 0.074699 0.155613 0.645924
Si Si6 0.334466 0.901094 0.892860
Si Si7 0.419968 0.535615 0.707281
Si Si8 0.040817 0.784133 0.988543
O O1 0.231216 0.270067 0.244383
O O2 0.182555 0.414234 0.569127
O O3 0.398880 0.438356 0.297463
O O4 0.000000 0.500000 0.500000
O O5 0.096554 0.245588 0.066377
O O6 0.481685 0.179361 0.883146
O O7 0.304357 0.040225 0.955414
O O8 0.854514 0.730262 0.332681
O O9 0.524702 0.790825 0.659517
O O10 0.630380 0.585571 0.313245
O O11 0.151105 0.824571 0.260987
O O12 0.206501 0.033032 0.413687
O O13 0.336968 0.898855 0.045288
O O14 0.089537 0.132544 0.774083
O O15 0.150937 0.863554 0.922084
O O16 0.500000 0.500000 0.500000
O O17 0.217651 0.661518 0.879199
#
# Coordination Sequence:
#
# PCOD9101449 Si02
#       8
#     2   2   2   2   2   2   2   2
#     4  11  22  37  62  93 116 149 201 255 296 340
#     4  12  21  35  63  90 121 152 204 251 290 347
#     4  11  20  39  65  87 117 158 204 239 295 360
#     4  10  20  38  59  86 124 157 195 244 304 348
#     4  10  22  38  59  85 122 166 192 235 306 360
#     4  11  20  38  63  91 115 156 202 251 292 348
#     4  10  20  40  62  82 119 158 197 243 293 349
#     4  11  23  39  57  91 124 161 195 240 302 354
#
# _framework density 19.862909999999999
#
# number of rings (size 3 to 8) (size 9 to 14) (size 15 to 20)
#    0.000    1.250    5.000    3.750    0.000    1.000 
#    0.000    1.250    0.000    3.000    0.000    0.000 
#    0.000    0.000    0.000    0.000    0.000    0.000 
#
# Total GULP energy -89225.699006 kJ/mol
# GULP energy per Si atom -5576.606188 kJ/mol
# Density = 1.981770 g / cm^3
# Si number density = 19.862910 Si / 1000 Ang^3
#
#
#
# Elastic Constant Matrix: (Units=GPa)
#
#
# Indices 1 2 3 4 5 6 
#
# 1 125.0870 28.9811 18.8625 0.5572 -15.8198 22.3407
# 2 28.9811 88.0648 10.0296 5.5005 -13.3531 33.0229
# 3 18.8625 10.0296 56.9097 10.6601 -4.8746 -0.0397
# 4 0.5572 5.5005 10.6601 32.6781 7.2859 -2.1018
# 5 -15.8198 -13.3531 -4.8746 7.2859 27.4537 4.2042
# 6 22.3407 33.0229 -0.0397 -2.1018 4.2042 32.6954
#
#
#
# Elastic Compliance Matrix: (Units=1/GPa)
#
#
# Indices 1 2 3 4 5 6 
#
# 1 0.011144 0.002723 -0.002850 -0.002651 0.009750 -0.011793
# 2 0.002723 0.027022 -0.001683 -0.011144 0.022386 -0.032751
# 3 -0.002850 -0.001683 0.020268 -0.006638 0.002451 0.002930
# 4 -0.002651 -0.011144 -0.006638 0.040729 -0.021765 0.018476
# 5 0.009750 0.022386 0.002451 -0.021765 0.065122 -0.039043
# 6 -0.011793 -0.032751 0.002930 0.018476 -0.039043 0.077934
#
#
# Mechanical properties :
#
#
# Convention : Reuss Voigt Hill
#
# Bulk Modulus (GPa) = 18.24312 42.86754 30.55533
# Shear Modulus (GPa) = 18.93145 32.71131 25.82138
#
# Velocity S-wave (km/s) = 3.09059 4.06255 3.60943
# Velocity P-wave (km/s) = 4.68403 6.60562 5.72601
#
# Compressibility (1/GPa) = 0.05481520
#
# Stress axis : x y z
#
# Youngs Moduli (GPa) = 89.73106 37.00667 49.33796
#
# Poissons Ratio (x) = -0.10078 0.14063
# Poissons Ratio (y) = -0.24436 0.08303
# Poissons Ratio (z) = 0.25576 0.06228
#
# Static dielectric constant tensor:
#      x y z
#    x 1.748370 0.040310 0.002350 
#    y 0.040310 1.718950 0.020680 
#    z 0.002350 0.020680 1.736720 
# 
# From -- ./inp_files/182720.got.cif
#   From: 2010.05.17/outbox.cif.g08.bks.cpg/sg2_92_cif.got.tgz:182720.got - 2010.06.03 11:33:40.
