data_PCOD9101076
_publ_section_title
;
Structure prediction by ZEFSAII (Michael W. Deem and Ramdas Pophale) SiO2 
 PCOD9101076
Probable space group: P -1
;
_chemical_formula_sum "Si O2"
_cell_formula_units_Z 14
_cell_length_a 13.662111
_cell_length_b 7.357177
_cell_length_c 7.302712
_cell_angle_alpha 94.202947
_cell_angle_beta 45.667883
_cell_angle_gamma 108.386863
_cell_volume 486.400145
_symmetry_space_group_name_H-M "P -1"
_symmetry_group_IT_number 2
_symmetry_cell_setting 'triclinic'
loop_
_space_group_symop_operation_xyz
x,y,z
-x,-y,-z
loop_
_atom_site_type_symbol
_atom_site_label
_atom_site_fract_x
_atom_site_fract_y
_atom_site_fract_z
Si Si1 0.000000 0.000000 0.000000
Si Si2 0.732113 0.425879 0.761881
Si Si3 0.487458 0.719154 0.401636
Si Si4 0.000000 0.500000 0.500000
Si Si5 0.532742 0.929314 0.740495
Si Si6 0.227024 0.152727 0.357249
Si Si7 0.241578 0.401083 0.890411
Si Si8 0.086810 0.899770 0.178048
O O1 0.123143 0.216047 0.938663
O O2 0.122613 0.895623 0.921577
O O3 0.705171 0.608069 0.717696
O O4 0.866594 0.382593 0.504503
O O5 0.606402 0.240884 0.997129
O O6 0.827775 0.530901 0.835289
O O7 0.539725 0.848527 0.524203
O O8 0.323582 0.568504 0.648324
O O9 0.608200 0.618805 0.220566
O O10 0.484382 0.863204 0.253534
O O11 0.040089 0.708925 0.343061
O O12 0.666074 0.927503 0.686463
O O13 0.070311 0.073425 0.665146
O O14 0.183047 0.067094 0.203578
#
# Coordination Sequence:
#
# PCOD9101076 Si02
#       8
#     1   2   2   1   2   2   2   2
#     4  12  22  38  70  98 120 182 224 268 328 402
#     4  10  21  40  65  95 129 176 220 273 326 402
#     4   9  21  40  62 100 141 166 215 280 337 394
#     4  10  24  44  62  92 140 170 220 288 330 388
#     4  10  20  37  70  97 128 177 220 271 330 402
#     4  10  20  41  62  94 131 175 218 269 332 400
#     4  10  21  40  65  96 136 173 220 270 334 402
#     4  10  23  40  64  90 136 175 220 274 335 392
#
# _framework density 28.782888
#
# number of rings (size 3 to 8) (size 9 to 14) (size 15 to 20)
#    0.000    2.000    1.429    1.286    2.000    1.143 
#    2.571    6.429    0.000    0.000    0.000    0.000 
#    0.000    0.000    0.000    0.000    0.000    0.000 
#
# Total GULP energy -78079.159292 kJ/mol
# GULP energy per Si atom -5577.082807 kJ/mol
# Density = 2.871738 g / cm^3
# Si number density = 28.782888 Si / 1000 Ang^3
#
#
#
# Elastic Constant Matrix: (Units=GPa)
#
#
# Indices 1 2 3 4 5 6 
#
# 1 198.9375 69.0653 51.5054 -12.2459 27.7562 -22.8961
# 2 69.0653 114.4335 68.1359 -44.0270 17.1967 -38.8893
# 3 51.5054 68.1359 144.9693 -42.6853 4.4926 -15.4457
# 4 -12.2459 -44.0270 -42.6853 73.6475 5.3836 16.3570
# 5 27.7562 17.1967 4.4926 5.3836 54.6102 8.1596
# 6 -22.8961 -38.8893 -15.4457 16.3570 8.1596 50.2080
#
#
#
# Elastic Compliance Matrix: (Units=1/GPa)
#
#
# Indices 1 2 3 4 5 6 
#
# 1 0.006833 -0.003343 -0.001138 -0.001590 -0.002330 0.001073
# 2 -0.003343 0.022446 -0.005598 0.007285 -0.007569 0.012996
# 3 -0.001138 -0.005598 0.010477 0.003061 0.001609 -0.002890
# 4 -0.001590 0.007285 0.003061 0.019704 -0.003686 0.000039
# 5 -0.002330 -0.007569 0.001609 -0.003686 0.023461 -0.009042
# 6 0.001073 0.012996 -0.002890 0.000039 -0.009042 0.031040
#
#
# Mechanical properties :
#
#
# Convention : Reuss Voigt Hill
#
# Bulk Modulus (GPa) = 51.02568 92.86147 71.94357
# Shear Modulus (GPa) = 35.54897 53.66873 44.60885
#
# Velocity S-wave (km/s) = 3.51817 4.32279 3.94107
# Velocity P-wave (km/s) = 5.85403 7.56625 6.76453
#
# Compressibility (1/GPa) = 0.01959798
#
# Stress axis : x y z
#
# Youngs Moduli (GPa) = 146.35574 44.55061 95.45031
#
# Poissons Ratio (x) = 0.14895 0.10861
# Poissons Ratio (y) = 0.48931 0.53431
# Poissons Ratio (z) = 0.16653 0.24938
#
# Static dielectric constant tensor:
#      x y z
#    x 2.445580 -0.056610 -0.047090 
#    y -0.056610 2.328880 0.154560 
#    z -0.047090 0.154560 2.713740 
# 
# From -- ./inp_files/204703.got.cif
#   From: 2010.05.17/outbox.cif.g08.bks.cpg/sg2_103_cif.got.tgz:204703.got - 2010.06.03 11:33:40.
