data_PCOD9101268
_publ_section_title
;
Structure prediction by ZEFSAII (Michael W. Deem and Ramdas Pophale) SiO2 
 PCOD9101268
Probable space group: P -1
;
_chemical_formula_sum "Si O2"
_cell_formula_units_Z 16
_cell_length_a 20.366717
_cell_length_b 19.793661
_cell_length_c 8.361555
_cell_angle_alpha 42.073470
_cell_angle_beta 137.898408
_cell_angle_gamma 160.248018
_cell_volume 749.220665
_symmetry_space_group_name_H-M "P -1"
_symmetry_group_IT_number 2
_symmetry_cell_setting 'triclinic'
loop_
_space_group_symop_operation_xyz
x,y,z
-x,-y,-z
loop_
_atom_site_type_symbol
_atom_site_label
_atom_site_fract_x
_atom_site_fract_y
_atom_site_fract_z
Si Si1 0.026537 0.627179 0.422456
Si Si2 0.451768 0.140338 0.679855
Si Si3 0.755047 0.677267 0.797191
Si Si4 0.714389 0.469276 0.337213
Si Si5 0.829577 0.367150 0.055635
Si Si6 0.990686 0.269661 0.287848
Si Si7 0.467191 0.319265 0.666960
Si Si8 0.875242 0.078980 0.091545
O O1 0.170869 0.719959 0.661880
O O2 0.000000 0.500000 0.500000
O O3 0.826199 0.488602 0.390416
O O4 0.107712 0.795489 0.176770
O O5 0.509921 0.243372 0.435634
O O6 0.499199 0.267146 0.678183
O O7 0.227413 0.907519 0.718896
O O8 0.614868 0.199360 0.894269
O O9 0.657319 0.537925 0.708759
O O10 0.667592 0.710077 0.590276
O O11 0.988924 0.875544 0.843230
O O12 0.698016 0.557649 0.055025
O O13 0.860614 0.616852 0.495507
O O14 0.000000 0.500000 0.000000
O O15 0.915602 0.550962 0.951086
O O16 0.952866 0.155018 0.281992
O O17 0.347034 0.157212 0.876414
#
# Coordination Sequence:
#
# PCOD9101268 Si02
#       8
#     2   2   2   2   2   2   2   2
#     4  11  21  36  60  86 115 154 198 234 287 351
#     4  10  22  38  59  85 119 150 196 243 285 346
#     4  10  21  39  63  86 119 154 192 245 296 345
#     4  10  22  38  59  85 116 154 195 240 293 342
#     4  11  20  39  57  83 116 160 193 231 296 345
#     4  10  20  38  58  83 120 155 193 239 288 338
#     4  10  22  40  61  89 115 155 197 240 298 346
#     4  10  21  38  61  85 120 154 196 242 286 348
#
# _framework density 21.355525
#
# number of rings (size 3 to 8) (size 9 to 14) (size 15 to 20)
#    0.000    1.750    3.750    1.875    1.750    3.000 
#    0.000    6.250    0.000    0.000    0.000    0.000 
#    0.000    0.000    0.000    0.000    0.000    0.000 
#
# Total GULP energy -89294.838401 kJ/mol
# GULP energy per Si atom -5580.927400 kJ/mol
# Density = 2.130692 g / cm^3
# Si number density = 21.355525 Si / 1000 Ang^3
#
#
#
# Elastic Constant Matrix: (Units=GPa)
#
#
# Indices 1 2 3 4 5 6 
#
# 1 59.6424 27.6488 39.2109 -3.9068 0.4988 11.9649
# 2 27.6488 70.0849 13.6674 -18.9910 4.7639 25.4046
# 3 39.2109 13.6674 127.6792 -7.7791 -4.4927 18.9199
# 4 -3.9068 -18.9910 -7.7791 17.8562 4.2254 -9.4577
# 5 0.4988 4.7639 -4.4927 4.2254 22.1703 -3.2205
# 6 11.9649 25.4046 18.9199 -9.4577 -3.2205 41.8143
#
#
#
# Elastic Compliance Matrix: (Units=1/GPa)
#
#
# Indices 1 2 3 4 5 6 
#
# 1 0.026604 -0.012614 -0.007567 -0.010914 0.002837 0.001225
# 2 -0.012614 0.031577 0.003532 0.029338 -0.013054 -0.011544
# 3 -0.007567 0.003532 0.010620 0.004736 0.000122 -0.003705
# 4 -0.010914 0.029338 0.004736 0.093589 -0.022560 0.002586
# 5 0.002837 -0.013054 0.000122 -0.022560 0.053049 0.006047
# 6 0.001225 -0.011544 -0.003705 0.002586 0.006047 0.033305
#
#
# Mechanical properties :
#
#
# Convention : Reuss Voigt Hill
#
# Bulk Modulus (GPa) = 28.16539 46.49563 37.33051
# Shear Modulus (GPa) = 17.01393 28.16013 22.58703
#
# Velocity S-wave (km/s) = 2.82565 3.63524 3.25571
# Velocity P-wave (km/s) = 4.88499 6.28008 5.62595
#
# Compressibility (1/GPa) = 0.03550457
#
# Stress axis : x y z
#
# Youngs Moduli (GPa) = 37.58771 31.66838 94.16428
#
# Poissons Ratio (x) = 0.39947 0.71251
# Poissons Ratio (y) = 0.47413 -0.33262
# Poissons Ratio (z) = 0.28442 -0.11186
#
# Static dielectric constant tensor:
#      x y z
#    x 1.800690 -0.018860 -0.003020 
#    y -0.018860 1.793870 0.001720 
#    z -0.003020 0.001720 1.771520 
# 
# From -- ./inp_files/349450.got.cif
#   From: 2010.05.17/outbox.cif.g08.bks.cpg/sg2_175_cif.got.tgz:349450.got - 2010.06.03 11:33:40.
