data_PCOD9101987
_publ_section_title
;
Structure prediction by ZEFSAII (Michael W. Deem and Ramdas Pophale) SiO2 
 PCOD9101987
Probable space group: P -1
;
_chemical_formula_sum "Si O2"
_cell_formula_units_Z 16
_cell_length_a 7.954299
_cell_length_b 9.110615
_cell_length_c 19.398990
_cell_angle_alpha 120.267260
_cell_angle_beta 37.849869
_cell_angle_gamma 129.650453
_cell_volume 664.161421
_symmetry_space_group_name_H-M "P -1"
_symmetry_group_IT_number 2
_symmetry_cell_setting 'triclinic'
loop_
_space_group_symop_operation_xyz
x,y,z
-x,-y,-z
loop_
_atom_site_type_symbol
_atom_site_label
_atom_site_fract_x
_atom_site_fract_y
_atom_site_fract_z
Si Si1 0.637951 0.169915 0.941064
Si Si2 0.725917 0.025316 0.745700
Si Si3 0.871492 0.785203 0.461612
Si Si4 0.799309 0.857539 0.188975
Si Si5 0.209842 0.442761 0.972427
Si Si6 0.133694 0.574880 0.644135
Si Si7 0.227428 0.936891 0.627918
Si Si8 0.917876 0.232189 0.161504
O O1 0.567491 0.104621 0.870434
O O2 0.993040 0.212965 0.848632
O O3 0.574573 0.347197 0.019724
O O4 0.500000 0.000000 0.000000
O O5 0.991899 0.184096 0.652436
O O6 0.453300 0.873174 0.753029
O O7 0.919790 0.941210 0.703226
O O8 0.505377 0.677243 0.557765
O O9 0.970684 0.622146 0.410301
O O10 0.000000 0.000000 0.500000
O O11 0.642415 0.930004 0.314774
O O12 0.963746 0.051068 0.134092
O O13 0.654277 0.680018 0.141781
O O14 0.045871 0.319994 0.065084
O O15 0.000000 0.500000 0.000000
O O16 0.096888 0.720659 0.640334
O O17 0.007553 0.603190 0.766111
O O18 0.500000 0.000000 0.500000
#
# Coordination Sequence:
#
# PCOD9101987 Si02
#       8
#     2   2   2   2   2   2   2   2
#     4  10  21  40  61  88 123 159 205 257 310 369
#     4  11  21  36  64  89 122 163 207 260 304 372
#     4  11  21  39  61  91 123 158 214 254 306 367
#     4   9  21  38  60  88 122 163 200 255 312 369
#     4  10  20  38  61  90 120 162 200 251 317 370
#     4  10  22  39  63  87 123 167 200 259 315 363
#     4  10  20  39  63  89 125 163 207 260 311 364
#     4  11  21  39  63  91 124 161 206 251 319 369
#
# _framework density 24.090530000000001
#
# number of rings (size 3 to 8) (size 9 to 14) (size 15 to 20)
#    0.000    1.750    2.500    2.625    0.000    0.000 
#    0.000    9.375    2.750    0.000    0.000    0.000 
#    0.000    0.000    0.000    0.000    0.000    0.000 
#
# Total GULP energy -89148.027999 kJ/mol
# GULP energy per Si atom -5571.751750 kJ/mol
# Density = 2.403570 g / cm^3
# Si number density = 24.090530 Si / 1000 Ang^3
#
#
#
# Elastic Constant Matrix: (Units=GPa)
#
#
# Indices 1 2 3 4 5 6 
#
# 1 372.3166 55.4021 68.7636 614.5845 164.8376 -191.6276
# 2 55.4021 151.5220 56.2657 93.5109 21.6122 -13.9004
# 3 68.7636 56.2657 133.2666 117.1598 54.9298 -33.6025
# 4 614.5845 93.5109 117.1598 1222.3839 308.9345 -359.2549
# 5 164.8376 21.6122 54.9298 308.9345 117.8439 -98.5212
# 6 -191.6276 -13.9004 -33.6025 -359.2549 -98.5212 147.5166
#
#
#
# Elastic Compliance Matrix: (Units=1/GPa)
#
#
# Indices 1 2 3 4 5 6 
#
# 1 0.017256 -0.001388 -0.000221 -0.006448 -0.003205 0.004391
# 2 -0.001388 0.008501 -0.003711 -0.001014 0.002630 -0.002560
# 3 -0.000221 -0.003711 0.011175 0.001052 -0.007334 -0.000429
# 4 -0.006448 -0.001014 0.001052 0.006604 -0.004606 0.004776
# 5 -0.003205 0.002630 -0.007334 -0.004606 0.031546 0.004265
# 6 0.004391 -0.002560 -0.000429 0.004776 0.004265 0.026624
#
#
# Mechanical properties :
#
#
# Convention : Reuss Voigt Hill
#
# Bulk Modulus (GPa) = 38.03471 113.10755 75.57113
# Shear Modulus (GPa) = 41.28488 329.32715 185.30601
#
# Velocity S-wave (km/s) = 4.14422 11.70473 8.77996
# Velocity P-wave (km/s) = 6.22270 15.15654 11.58539
#
# Compressibility (1/GPa) = 0.02629177
#
# Stress axis : x y z
#
# Youngs Moduli (GPa) = 57.95089 117.63393 89.48433
#
# Poissons Ratio (x) = 0.16329 0.01977
# Poissons Ratio (y) = 0.08044 0.33208
# Poissons Ratio (z) = 0.01280 0.43655
#
# Static dielectric constant tensor:
#      x y z
#    x 1.121650 -0.276690 -1.306880 
#    y -0.276690 1.756640 -0.474940 
#    z -1.306880 -0.474940 0.392480 
# 
# From -- ./inp_files/587460.got.cif
#   From: 2010.05.17/outbox.cif.g08.bks.cpg/sg2_294_cif.got.tgz:587460.got - 2010.06.03 11:33:40.
