data_PCOD9101624
_publ_section_title
;
Structure prediction by ZEFSAII (Michael W. Deem and Ramdas Pophale) SiO2 
 PCOD9101624
Probable space group: P -1
;
_chemical_formula_sum "Si O2"
_cell_formula_units_Z 16
_cell_length_a 8.000721
_cell_length_b 5.758657
_cell_length_c 17.825383
_cell_angle_alpha 68.870513
_cell_angle_beta 93.985968
_cell_angle_gamma 124.174598
_cell_volume 624.304579
_symmetry_space_group_name_H-M "P -1"
_symmetry_group_IT_number 2
_symmetry_cell_setting 'triclinic'
loop_
_space_group_symop_operation_xyz
x,y,z
-x,-y,-z
loop_
_atom_site_type_symbol
_atom_site_label
_atom_site_fract_x
_atom_site_fract_y
_atom_site_fract_z
Si Si1 0.792741 0.721855 0.685696
Si Si2 0.740951 0.457435 0.881365
Si Si3 0.137611 0.221582 0.911635
Si Si4 0.290499 0.060956 0.133364
Si Si5 0.775795 0.163017 0.129152
Si Si6 0.247533 0.103391 0.598570
Si Si7 0.424137 0.191818 0.441959
Si Si8 0.493779 0.939492 0.284229
O O1 0.756869 0.594635 0.783291
O O2 0.677012 0.870370 0.636089
O O3 0.685686 0.414386 0.668866
O O4 0.028269 0.938048 0.648184
O O5 0.658617 0.605579 0.914541
O O6 0.976716 0.620377 0.893307
O O7 0.648719 0.104100 0.905052
O O8 0.260045 0.568797 0.903029
O O9 0.268966 0.103171 0.897816
O O10 0.962951 0.158783 0.852058
O O11 0.000000 0.000000 0.000000
O O12 0.381626 0.052591 0.217194
O O13 0.662828 0.985331 0.222402
O O14 0.251206 0.115179 0.507443
O O15 0.388655 0.455027 0.587346
O O16 0.361117 0.949944 0.651309
O O17 0.500000 0.000000 0.500000
#
# Coordination Sequence:
#
# PCOD9101624 Si02
#       8
#     2   2   2   2   2   2   2   2
#     4  10  20  38  60  85 122 163 210 258 325 375
#     4   9  18  36  56  88 118 161 200 258 309 361
#     4  10  21  40  65  92 129 172 206 251 319 384
#     4   9  20  35  59  88 125 155 205 252 309 365
#     4  10  20  38  62  94 128 162 211 264 308 375
#     4  10  21  42  60  81 125 160 209 260 322 373
#     4  10  23  39  57  89 118 162 212 263 311 383
#     4  10  21  38  61  93 119 162 212 269 313 372
#
# _framework density 25.628519000000001
#
# number of rings (size 3 to 8) (size 9 to 14) (size 15 to 20)
#    0.000    2.250    1.250    0.750    1.750    2.500 
#    6.750    1.250    0.000    0.000    0.000    0.000 
#    0.000    0.000    0.000    0.000    0.000    0.000 
#
# Total GULP energy -89248.811043 kJ/mol
# GULP energy per Si atom -5578.050690 kJ/mol
# Density = 2.557019 g / cm^3
# Si number density = 25.628519 Si / 1000 Ang^3
#
#
#
# Elastic Constant Matrix: (Units=GPa)
#
#
# Indices 1 2 3 4 5 6 
#
# 1 90.7541 62.0329 32.8833 -8.3730 11.0625 -10.1884
# 2 62.0329 136.8700 17.8770 -24.0077 9.7277 -32.1264
# 3 32.8833 17.8770 123.4448 4.5717 9.8459 5.8701
# 4 -8.3730 -24.0077 4.5717 28.1817 7.2075 3.0254
# 5 11.0625 9.7277 9.8459 7.2075 36.1257 3.1964
# 6 -10.1884 -32.1264 5.8701 3.0254 3.1964 47.9126
#
#
#
# Elastic Compliance Matrix: (Units=1/GPa)
#
#
# Indices 1 2 3 4 5 6 
#
# 1 0.017603 -0.007532 -0.003375 0.000051 -0.002387 -0.000738
# 2 -0.007532 0.014902 -0.000584 0.010816 -0.004420 0.008074
# 3 -0.003375 -0.000584 0.009330 -0.002629 -0.000647 -0.002043
# 4 0.000051 0.010816 -0.002629 0.047681 -0.012201 0.005388
# 5 -0.002387 -0.004420 -0.000647 -0.012201 0.032638 -0.004799
# 6 -0.000738 0.008074 -0.002043 0.005388 -0.004799 0.026359
#
#
# Mechanical properties :
#
#
# Convention : Reuss Voigt Hill
#
# Bulk Modulus (GPa) = 53.03609 64.07281 58.55445
# Shear Modulus (GPa) = 28.12492 38.32905 33.22698
#
# Velocity S-wave (km/s) = 3.31631 3.87145 3.60458
# Velocity P-wave (km/s) = 5.95004 6.71111 6.34200
#
# Compressibility (1/GPa) = 0.01885508
#
# Stress axis : x y z
#
# Youngs Moduli (GPa) = 56.81002 67.10308 107.17656
#
# Poissons Ratio (x) = 0.50540 0.36168
# Poissons Ratio (y) = 0.42787 0.06258
# Poissons Ratio (z) = 0.19171 0.03918
#
# Static dielectric constant tensor:
#      x y z
#    x 2.146360 -0.075160 0.079380 
#    y -0.075160 2.097210 0.044550 
#    z 0.079380 0.044550 2.005560 
# 
# From -- ./inp_files/585546.got.cif
#   From: 2010.05.17/outbox.cif.g08.bks.cpg/sg2_293_cif.got.tgz:585546.got - 2010.06.03 11:33:40.
