data_PCOD9101334
_publ_section_title
;
Structure prediction by ZEFSAII (Michael W. Deem and Ramdas Pophale) SiO2 
 PCOD9101334
Probable space group: P -1
;
_chemical_formula_sum "Si O2"
_cell_formula_units_Z 14
_cell_length_a 21.284963
_cell_length_b 8.857484
_cell_length_c 18.724287
_cell_angle_alpha 150.537875
_cell_angle_beta 20.005071
_cell_angle_gamma 147.925629
_cell_volume 584.966098
_symmetry_space_group_name_H-M "P -1"
_symmetry_group_IT_number 2
_symmetry_cell_setting 'triclinic'
loop_
_space_group_symop_operation_xyz
x,y,z
-x,-y,-z
loop_
_atom_site_type_symbol
_atom_site_label
_atom_site_fract_x
_atom_site_fract_y
_atom_site_fract_z
Si Si1 0.746565 0.334730 0.148149
Si Si2 0.957264 0.779777 0.710322
Si Si3 0.377339 0.904601 0.329370
Si Si4 0.943533 0.642518 0.936038
Si Si5 0.383982 0.435135 0.836554
Si Si6 0.696419 0.312500 0.357177
Si Si7 0.428011 0.592772 0.000784
O O1 0.827887 0.603605 0.117376
O O2 0.765937 0.390125 0.234745
O O3 0.529906 0.195170 0.309437
O O4 0.865240 0.057335 0.888941
O O5 0.000000 0.500000 0.500000
O O6 0.160825 0.908811 0.577235
O O7 0.781243 0.603820 0.870214
O O8 0.440076 0.620869 0.190029
O O9 0.405523 0.840812 0.188365
O O10 0.807569 0.475976 0.951786
O O11 0.139568 0.548038 0.706209
O O12 0.000000 0.000000 0.000000
O O13 0.517169 0.439051 0.627475
O O14 0.484773 0.643004 0.878762
O O15 0.349043 0.065320 0.743352
#
# Coordination Sequence:
#
# PCOD9101334 Si02
#       7
#     2   2   2   2   2   2   2
#     4  11  21  39  61  94 126 156 217 259 295 382
#     4   9  18  33  58  91 124 161 202 244 301 362
#     4   9  18  32  60  90 120 161 207 256 307 357
#     4  10  24  41  60  86 125 169 205 261 320 360
#     4  10  20  38  58  88 128 161 205 248 314 373
#     4  10  21  38  59  90 122 162 210 253 304 374
#     4   9  17  35  57  90 125 162 206 250 300 376
#
# _framework density 23.933011
#
# number of rings (size 3 to 8) (size 9 to 14) (size 15 to 20)
#    0.000    2.286    2.857    1.286    0.000    4.000 
#    0.000    0.714    0.000    4.286    0.000    0.000 
#    0.000    0.000    0.000    0.000    0.000    0.000 
#
# Total GULP energy -78145.686256 kJ/mol
# GULP energy per Si atom -5581.834733 kJ/mol
# Density = 2.387854 g / cm^3
# Si number density = 23.933011 Si / 1000 Ang^3
#
#
#
# Elastic Constant Matrix: (Units=GPa)
#
#
# Indices 1 2 3 4 5 6 
#
# 1 148.1297 23.1434 38.5149 10.7860 -1.4678 6.9247
# 2 23.1434 77.7747 25.2127 -1.4830 -1.0132 -9.2900
# 3 38.5149 25.2127 82.4495 -2.3595 -23.8920 11.4613
# 4 10.7860 -1.4830 -2.3595 26.5383 11.9023 5.0564
# 5 -1.4678 -1.0132 -23.8920 11.9023 49.2745 -11.2407
# 6 6.9247 -9.2900 11.4613 5.0564 -11.2407 35.9386
#
#
#
# Elastic Compliance Matrix: (Units=1/GPa)
#
#
# Indices 1 2 3 4 5 6 
#
# 1 0.008174 -0.001387 -0.003671 -0.003193 -0.000932 -0.000605
# 2 -0.001387 0.015615 -0.005199 0.000389 -0.001063 0.005575
# 3 -0.003671 -0.005199 0.018221 0.000169 0.007647 -0.004079
# 4 -0.003193 0.000389 0.000169 0.047129 -0.013731 -0.010264
# 5 -0.000932 -0.001063 0.007647 -0.013731 0.029217 0.008536
# 6 -0.000605 0.005575 -0.004079 -0.010264 0.008536 0.034798
#
#
# Mechanical properties :
#
#
# Convention : Reuss Voigt Hill
#
# Bulk Modulus (GPa) = 46.52202 53.56620 50.04411
# Shear Modulus (GPa) = 27.64959 37.11581 32.38270
#
# Velocity S-wave (km/s) = 3.40264 3.94232 3.68238
# Velocity P-wave (km/s) = 5.90914 6.56908 6.24783
#
# Compressibility (1/GPa) = 0.02149520
#
# Stress axis : x y z
#
# Youngs Moduli (GPa) = 122.34385 64.03974 54.88061
#
# Poissons Ratio (x) = 0.08885 0.20148
# Poissons Ratio (y) = 0.16974 0.28532
# Poissons Ratio (z) = 0.44916 0.33294
#
# Static dielectric constant tensor:
#      x y z
#    x 1.960930 -0.007660 0.011840 
#    y -0.007660 1.999140 -0.015830 
#    z 0.011840 -0.015830 1.925110 
# 
# From -- ./inp_files/283385.got.cif
#   From: 2010.05.17/outbox.cif.g08.bks.cpg/sg2_142_cif.got.tgz:283385.got - 2010.06.03 11:33:40.
