data_PCOD9101995
_publ_section_title
;
Structure prediction by ZEFSAII (Michael W. Deem and Ramdas Pophale) SiO2 
 PCOD9101995
Probable space group: P -1
;
_chemical_formula_sum "Si O2"
_cell_formula_units_Z 16
_cell_length_a 11.182683
_cell_length_b 7.243200
_cell_length_c 16.240011
_cell_angle_alpha 71.020400
_cell_angle_beta 29.936739
_cell_angle_gamma 81.401636
_cell_volume 595.855620
_symmetry_space_group_name_H-M "P -1"
_symmetry_group_IT_number 2
_symmetry_cell_setting 'triclinic'
loop_
_space_group_symop_operation_xyz
x,y,z
-x,-y,-z
loop_
_atom_site_type_symbol
_atom_site_label
_atom_site_fract_x
_atom_site_fract_y
_atom_site_fract_z
Si Si1 0.213121 0.775325 0.740393
Si Si2 0.904112 0.187448 0.691199
Si Si3 0.948220 0.453974 0.356707
Si Si4 0.715063 0.557815 0.987764
Si Si5 0.285054 0.227639 0.646716
Si Si6 0.563135 0.749061 0.266362
Si Si7 0.591605 0.951766 0.060345
Si Si8 0.532610 0.697596 0.698807
O O1 0.428647 0.739031 0.558287
O O2 0.333274 0.785215 0.757479
O O3 0.958369 0.609623 0.895536
O O4 0.170087 0.995077 0.720170
O O5 0.700732 0.062736 0.767161
O O6 0.953934 0.431203 0.633629
O O7 0.184440 0.176671 0.508346
O O8 0.765107 0.114738 0.872734
O O9 0.822115 0.606520 0.358143
O O10 0.718758 0.257799 0.538301
O O11 0.172405 0.429928 0.171433
O O12 0.595816 0.740250 0.045094
O O13 0.533760 0.348920 0.159539
O O14 0.279690 0.242446 0.746093
O O15 0.668190 0.925355 0.112054
O O16 0.520283 0.529821 0.278250
#
# Coordination Sequence:
#
# PCOD9101995 Si02
#       8
#     2   2   2   2   2   2   2   2
#     4  11  21  36  61  94 129 165 201 249 307 372
#     4  10  22  45  67  84 122 167 210 255 309 364
#     4  11  21  38  65  92 128 163 201 255 304 367
#     4  11  23  37  61  97 129 159 206 251 305 369
#     4  11  21  35  63  94 128 167 199 246 316 364
#     4  10  20  38  61  90 124 159 207 247 303 367
#     4  10  24  43  65  91 118 166 210 257 308 364
#     4  10  22  39  63  89 125 170 201 253 304 365
#
# _framework density 26.852142000000001
#
# number of rings (size 3 to 8) (size 9 to 14) (size 15 to 20)
#    0.000    1.500    3.750    2.250    1.750    7.000 
#    0.000    3.750    0.000    3.750    0.000    0.000 
#    0.000    0.000    0.000    0.000    0.000    0.000 
#
# Total GULP energy -89535.006855 kJ/mol
# GULP energy per Si atom -5595.937928 kJ/mol
# Density = 2.679103 g / cm^3
# Si number density = 26.852142 Si / 1000 Ang^3
#
#
#
# Elastic Constant Matrix: (Units=GPa)
#
#
# Indices 1 2 3 4 5 6 
#
# 1 78.2267 -1.8864 46.1826 -5.3980 4.1806 -1.7421
# 2 -1.8864 67.8230 7.7816 4.3588 -3.5082 0.6715
# 3 46.1826 7.7816 130.2368 -19.9382 0.9164 -4.2381
# 4 -5.3980 4.3588 -19.9382 21.0009 0.2485 0.6565
# 5 4.1806 -3.5082 0.9164 0.2485 50.4448 -6.2759
# 6 -1.7421 0.6715 -4.2381 0.6565 -6.2759 22.4995
#
#
#
# Elastic Compliance Matrix: (Units=1/GPa)
#
#
# Indices 1 2 3 4 5 6 
#
# 1 0.016384 0.001225 -0.006169 -0.001880 -0.001177 -0.000203
# 2 0.001225 0.015391 -0.002122 -0.004895 0.000988 -0.000346
# 3 -0.006169 -0.002122 0.011534 0.009753 0.000300 0.001557
# 4 -0.001880 -0.004895 0.009753 0.057418 -0.000647 -0.000018
# 5 -0.001177 0.000988 0.000300 -0.000647 0.020700 0.005729
# 6 -0.000203 -0.000346 0.001557 -0.000018 0.005729 0.046332
#
#
# Mechanical properties :
#
#
# Convention : Reuss Voigt Hill
#
# Bulk Modulus (GPa) = 34.27207 42.27134 38.27171
# Shear Modulus (GPa) = 26.09395 33.73629 29.91512
#
# Velocity S-wave (km/s) = 3.12069 3.54838 3.34139
# Velocity P-wave (km/s) = 5.07700 5.70653 5.40094
#
# Compressibility (1/GPa) = 0.02917827
#
# Stress axis : x y z
#
# Youngs Moduli (GPa) = 61.03682 64.97345 86.69745
#
# Poissons Ratio (x) = -0.07962 0.53484
# Poissons Ratio (y) = -0.07480 0.18394
# Poissons Ratio (z) = 0.37654 0.13785
#
# Static dielectric constant tensor:
#      x y z
#    x 2.153600 0.012790 -0.008760 
#    y 0.012790 2.106770 0.010140 
#    z -0.008760 0.010140 2.157480 
# 
# From -- ./inp_files/206091.got.cif
#   From: 2010.05.17/outbox.cif.g08.bks.cpg/sg2_104_cif.got.tgz:206091.got - 2010.06.03 11:33:40.
