data_PCOD9101656
_publ_section_title
;
Structure prediction by ZEFSAII (Michael W. Deem and Ramdas Pophale) SiO2 
 PCOD9101656
Probable space group: P -1
;
_chemical_formula_sum "Si O2"
_cell_formula_units_Z 16
_cell_length_a 11.540591
_cell_length_b 8.735359
_cell_length_c 14.811317
_cell_angle_alpha 104.904024
_cell_angle_beta 61.126114
_cell_angle_gamma 141.712253
_cell_volume 789.474602
_symmetry_space_group_name_H-M "P -1"
_symmetry_group_IT_number 2
_symmetry_cell_setting 'triclinic'
loop_
_space_group_symop_operation_xyz
x,y,z
-x,-y,-z
loop_
_atom_site_type_symbol
_atom_site_label
_atom_site_fract_x
_atom_site_fract_y
_atom_site_fract_z
Si Si1 0.158381 0.360520 0.720784
Si Si2 0.350960 0.090908 0.381404
Si Si3 0.101244 0.089279 0.368654
Si Si4 0.838218 0.920849 0.198878
Si Si5 0.868371 0.344615 0.742274
Si Si6 0.735866 0.525767 0.922274
Si Si7 0.471398 0.446543 0.147442
Si Si8 0.120769 0.827265 0.604513
O O1 0.404653 0.633804 0.674664
O O2 0.101528 0.196477 0.802632
O O3 0.013053 0.376127 0.759635
O O4 0.103640 0.199443 0.630667
O O5 0.201169 0.106604 0.423263
O O6 0.282199 0.903741 0.301076
O O7 0.293506 0.967989 0.482870
O O8 0.284562 0.214706 0.246435
O O9 0.061343 0.236553 0.385899
O O10 0.632683 0.702478 0.183615
O O11 0.800749 0.993640 0.313004
O O12 0.027611 0.181406 0.113054
O O13 0.751308 0.366860 0.849752
O O14 0.020205 0.578770 0.649426
O O15 0.630666 0.539029 0.888177
O O16 0.601171 0.427118 0.047883
#
# Coordination Sequence:
#
# PCOD9101656 Si02
#       8
#     2   2   2   2   2   2   2   2
#     4  10  21  37  56  80 122 153 188 235 281 337
#     4  11  22  38  61  82 118 163 189 225 295 341
#     4  10  20  39  61  86 117 144 200 246 278 332
#     4  10  20  38  60  87 118 145 193 244 279 338
#     4  10  22  40  55  84 122 150 190 240 279 344
#     4  10  22  39  64  89 113 144 197 241 287 342
#     4  11  19  38  68  87 108 152 189 244 297 327
#     4  10  21  40  58  88 118 149 195 244 276 336
#
# _framework density 20.266643999999999
#
# number of rings (size 3 to 8) (size 9 to 14) (size 15 to 20)
#    0.000    1.750    5.000    1.125    0.000    4.500 
#    4.500    3.125    0.000    0.000    0.000    0.000 
#    0.000    0.000    0.000    0.000    0.000    0.000 
#
# Total GULP energy -89272.518705 kJ/mol
# GULP energy per Si atom -5579.532419 kJ/mol
# Density = 2.022052 g / cm^3
# Si number density = 20.266644 Si / 1000 Ang^3
#
#
#
# Elastic Constant Matrix: (Units=GPa)
#
#
# Indices 1 2 3 4 5 6 
#
# 1 0.6514 26.0869 -42.2885 -4.5941 2.0510 -3.9000
# 2 26.0869 106.3726 6.9352 -2.5808 -6.4878 11.1098
# 3 -42.2885 6.9352 13.2064 -2.5190 9.1259 -7.4335
# 4 -4.5941 -2.5808 -2.5190 13.0399 -2.7721 0.8327
# 5 2.0510 -6.4878 9.1259 -2.7721 19.2410 3.3879
# 6 -3.9000 11.1098 -7.4335 0.8327 3.3879 36.4133
#
#
#
# Elastic Compliance Matrix: (Units=1/GPa)
#
#
# Indices 1 2 3 4 5 6 
#
# 1 -0.002064 0.003214 -0.020404 -0.001077 0.011963 -0.006455
# 2 0.003214 0.008590 0.005081 0.004115 0.000988 -0.001425
# 3 -0.020404 0.005081 0.003723 -0.004852 0.001960 -0.003047
# 4 -0.001077 0.004115 -0.004852 0.080023 0.016339 -0.005712
# 5 0.011963 0.000988 0.001960 0.016339 0.053148 -0.003939
# 6 -0.006455 -0.001425 -0.003047 -0.005712 -0.003939 0.027081
#
#
# Mechanical properties :
#
#
# Convention : Reuss Voigt Hill
#
# Bulk Modulus (GPa) = -71.59616 11.29972 -30.14822
# Shear Modulus (GPa) = 26.30706 22.37195 24.33950
#
# Velocity S-wave (km/s) = 3.60675 3.32607 3.46925
# Velocity P-wave (km/s) = 4.24958 4.50977 1.06749
#
# Compressibility (1/GPa) = -0.01396723
#
# Stress axis : x y z
#
# Youngs Moduli (GPa) = -484.42806 116.40944 268.58086
#
# Poissons Ratio (x) = -0.37416 5.48000
# Poissons Ratio (y) = 1.55704 -1.36467
# Poissons Ratio (z) = -9.88404 -0.59148
#
# Static dielectric constant tensor:
#      x y z
#    x 1.744670 -0.024580 -0.009700 
#    y -0.024580 1.706500 0.017690 
#    z -0.009700 0.017690 1.790190 
# 
# From -- ./inp_files/281896.got.cif
#   From: 2010.05.17/outbox.cif.g08.bks.cpg/sg2_141_cif.got.tgz:281896.got - 2010.06.03 11:33:40.
