data_PCOD9101528
_publ_section_title
;
Structure prediction by ZEFSAII (Michael W. Deem and Ramdas Pophale) SiO2 
 PCOD9101528
Probable space group: P -1
;
_chemical_formula_sum "Si O2"
_cell_formula_units_Z 14
_cell_length_a 5.337411
_cell_length_b 14.764094
_cell_length_c 13.993519
_cell_angle_alpha 132.529918
_cell_angle_beta 71.257844
_cell_angle_gamma 87.404563
_cell_volume 713.021281
_symmetry_space_group_name_H-M "P -1"
_symmetry_group_IT_number 2
_symmetry_cell_setting 'triclinic'
loop_
_space_group_symop_operation_xyz
x,y,z
-x,-y,-z
loop_
_atom_site_type_symbol
_atom_site_label
_atom_site_fract_x
_atom_site_fract_y
_atom_site_fract_z
Si Si1 0.568050 0.908101 0.144365
Si Si2 0.759509 0.226661 0.049611
Si Si3 0.916730 0.668754 0.364982
Si Si4 0.719073 0.972120 0.540786
Si Si5 0.499602 0.459264 0.716731
Si Si6 0.524755 0.878830 0.841157
Si Si7 0.993253 0.368926 0.457205
O O1 0.384291 0.844025 0.057872
O O2 0.902905 0.819160 0.038265
O O3 0.440430 0.937290 0.286063
O O4 0.542400 0.048447 0.200244
O O5 0.610532 0.383728 0.167487
O O6 0.688473 0.184111 0.132998
O O7 0.817356 0.819180 0.451778
O O8 0.753077 0.591740 0.274084
O O9 0.851198 0.657037 0.477198
O O10 0.258914 0.595612 0.270819
O O11 0.500000 0.000000 0.500000
O O12 0.000000 0.000000 0.500000
O O13 0.673906 0.396672 0.552631
O O14 0.836550 0.761460 0.717470
O O15 0.500000 0.000000 0.000000
O O16 0.000000 0.500000 0.500000
#
# Coordination Sequence:
#
# PCOD9101528 Si02
#       7
#     2   2   2   2   2   2   2
#     4  11  23  41  62  92 133 162 215 275 317 384
#     4  11  22  38  62  95 132 176 204 246 332 400
#     4  10  22  40  62  92 124 161 211 276 314 375
#     4  12  25  44  72  95 120 166 224 282 336 372
#     4  10  21  38  62  89 128 173 209 257 317 387
#     4  10  20  38  59  95 133 177 210 259 322 392
#     4  10  20  38  60  95 133 175 216 256 313 392
#
# _framework density 19.634757
#
# number of rings (size 3 to 8) (size 9 to 14) (size 15 to 20)
#    0.857    0.571    2.857    3.000    0.000    2.857 
#    5.143    0.000    0.000   17.143    0.000    0.000 
#    0.000    0.000    0.000    0.000    0.000    0.000 
#
# Total GULP energy -78087.645551 kJ/mol
# GULP energy per Si atom -5577.688968 kJ/mol
# Density = 1.959007 g / cm^3
# Si number density = 19.634757 Si / 1000 Ang^3
#
#
#
# Elastic Constant Matrix: (Units=GPa)
#
#
# Indices 1 2 3 4 5 6 
#
# 1 131.7201 54.9021 30.7858 1.9184 1.3272 2.7955
# 2 54.9021 96.9518 38.3507 7.9312 -13.3876 -5.8626
# 3 30.7858 38.3507 95.2484 9.9240 -17.4895 -6.0966
# 4 1.9184 7.9312 9.9240 43.0253 -3.5925 -4.0977
# 5 1.3272 -13.3876 -17.4895 -3.5925 19.7443 7.6503
# 6 2.7955 -5.8626 -6.0966 -4.0977 7.6503 20.9221
#
#
#
# Elastic Compliance Matrix: (Units=1/GPa)
#
#
# Indices 1 2 3 4 5 6 
#
# 1 0.010805 -0.006213 -0.002299 0.000529 -0.006321 -0.001440
# 2 -0.006213 0.016263 -0.002817 -0.001260 0.008210 0.001318
# 3 -0.002299 -0.002817 0.014559 -0.001875 0.011051 -0.000648
# 4 0.000529 -0.001260 -0.001875 0.024266 0.000464 0.003613
# 5 -0.006321 0.008210 0.011051 0.000464 0.074577 -0.020813
# 6 -0.001440 0.001318 -0.000648 0.003613 -0.020813 0.056487
#
#
# Mechanical properties :
#
#
# Convention : Reuss Voigt Hill
#
# Bulk Modulus (GPa) = 52.71347 63.55528 58.13438
# Shear Modulus (GPa) = 22.12990 30.06377 26.09683
#
# Velocity S-wave (km/s) = 3.36084 3.91724 3.64966
# Velocity P-wave (km/s) = 6.47809 7.27315 6.88710
#
# Compressibility (1/GPa) = 0.01897048
#
# Stress axis : x y z
#
# Youngs Moduli (GPa) = 92.54838 61.48840 68.68487
#
# Poissons Ratio (x) = 0.38200 0.15790
# Poissons Ratio (y) = 0.57496 0.19349
# Poissons Ratio (z) = 0.21276 0.17322
#
# Static dielectric constant tensor:
#      x y z
#    x 1.696900 -0.015570 -0.004150 
#    y -0.015570 1.694760 -0.030220 
#    z -0.004150 -0.030220 1.699800 
# 
# From -- ./inp_files/484442.got.cif
#   From: 2010.05.17/outbox.cif.g08.bks.cpg/sg2_243_cif.got.tgz:484442.got - 2010.06.03 11:33:40.
