data_PCOD9101355
_publ_section_title
;
Structure prediction by ZEFSAII (Michael W. Deem and Ramdas Pophale) SiO2 
 PCOD9101355
Probable space group: P -1
;
_chemical_formula_sum "Si O2"
_cell_formula_units_Z 14
_cell_length_a 7.495152
_cell_length_b 13.725531
_cell_length_c 7.247881
_cell_angle_alpha 55.386240
_cell_angle_beta 107.732124
_cell_angle_gamma 126.369821
_cell_volume 493.528017
_symmetry_space_group_name_H-M "P -1"
_symmetry_group_IT_number 2
_symmetry_cell_setting 'triclinic'
loop_
_space_group_symop_operation_xyz
x,y,z
-x,-y,-z
loop_
_atom_site_type_symbol
_atom_site_label
_atom_site_fract_x
_atom_site_fract_y
_atom_site_fract_z
Si Si1 0.169514 0.178959 0.075177
Si Si2 0.456078 0.145048 0.656529
Si Si3 0.220024 0.258032 0.603619
Si Si4 0.352689 0.657300 0.818382
Si Si5 0.484562 0.097216 0.155330
Si Si6 0.742301 0.489730 0.567678
Si Si7 0.959894 0.626995 0.106836
O O1 0.110878 0.174982 0.845335
O O2 0.001401 0.218384 0.070204
O O3 0.404729 0.309758 0.084926
O O4 0.259917 0.072205 0.212357
O O5 0.238124 0.157005 0.572239
O O6 0.630698 0.282007 0.446914
O O7 0.470022 0.025278 0.686810
O O8 0.472957 0.121209 0.905893
O O9 0.480362 0.372756 0.617286
O O10 0.154859 0.370140 0.422538
O O11 0.329255 0.759933 0.839222
O O12 0.181697 0.494594 0.953223
O O13 0.801441 0.563680 0.307914
O O14 0.855256 0.403992 0.738550
#
# Coordination Sequence:
#
# PCOD9101355 Si02
#       7
#     2   2   2   2   2   2   2
#     4   8  18  30  48  73 105 130 165 203 246 301
#     4  10  16  32  53  73  98 134 169 213 242 290
#     4   9  16  32  50  72  97 132 172 206 244 299
#     4  10  18  29  52  76 102 134 164 206 250 301
#     4   8  19  30  49  80  98 127 179 204 241 298
#     4   9  18  29  50  75  99 135 172 199 254 305
#     4  10  17  30  48  76 107 132 161 210 254 292
#
# _framework density 28.367186
#
# number of rings (size 3 to 8) (size 9 to 14) (size 15 to 20)
#    0.857    2.000    1.429    0.857    0.000    0.000 
#    0.000    0.714    0.000    1.714    7.429    0.000 
#    0.000    0.000    0.000    0.000    0.000    0.000 
#
# Total GULP energy -77979.586813 kJ/mol
# GULP energy per Si atom -5569.970487 kJ/mol
# Density = 2.830262 g / cm^3
# Si number density = 28.367186 Si / 1000 Ang^3
#
#
#
# Elastic Constant Matrix: (Units=GPa)
#
#
# Indices 1 2 3 4 5 6 
#
# 1 96.3017 53.1615 21.1784 -11.0511 22.3628 -43.0174
# 2 53.1615 136.1058 27.6889 -19.5361 25.6142 -56.6972
# 3 21.1784 27.6889 134.0432 -2.6234 2.6684 -17.0324
# 4 -11.0511 -19.5361 -2.6234 40.9050 -13.0719 20.0006
# 5 22.3628 25.6142 2.6684 -13.0719 32.4410 -11.0159
# 6 -43.0174 -56.6972 -17.0324 20.0006 -11.0159 72.3827
#
#
#
# Elastic Compliance Matrix: (Units=1/GPa)
#
#
# Indices 1 2 3 4 5 6 
#
# 1 0.016791 -0.001928 -0.001163 -0.002956 -0.008529 0.007714
# 2 -0.001928 0.012616 -0.001221 -0.000215 -0.006042 0.007589
# 3 -0.001163 -0.001221 0.007927 -0.000240 0.001174 0.000463
# 4 -0.002956 -0.000215 -0.000240 0.031722 0.011979 -0.008924
# 5 -0.008529 -0.006042 0.001174 0.011979 0.044127 -0.006119
# 6 0.007714 0.007589 0.000463 -0.008924 -0.006119 0.025988
#
#
# Mechanical properties :
#
#
# Convention : Reuss Voigt Hill
#
# Bulk Modulus (GPa) = 34.82926 63.38982 49.10954
# Shear Modulus (GPa) = 31.77341 46.77386 39.27364
#
# Velocity S-wave (km/s) = 3.35038 4.06504 3.72489
# Velocity P-wave (km/s) = 5.22221 6.66539 5.98744
#
# Compressibility (1/GPa) = 0.02871149
#
# Stress axis : x y z
#
# Youngs Moduli (GPa) = 59.55546 79.26401 126.15180
#
# Poissons Ratio (x) = 0.15279 0.14666
# Poissons Ratio (y) = 0.11480 0.15405
# Poissons Ratio (z) = 0.06924 0.09679
#
# Static dielectric constant tensor:
#      x y z
#    x 2.437210 -0.074620 0.018310 
#    y -0.074620 2.359170 -0.005720 
#    z 0.018310 -0.005720 2.229070 
# 
# From -- ./inp_files/195859.got.cif
#   From: 2010.05.17/outbox.cif.g08.bks.cpg/sg2_98_cif.got.tgz:195859.got - 2010.06.03 11:33:40.
