data_PCOD9101408
_publ_section_title
;
Structure prediction by ZEFSAII (Michael W. Deem and Ramdas Pophale) SiO2 
 PCOD9101408
Probable space group: P -1
;
_chemical_formula_sum "Si O2"
_cell_formula_units_Z 16
_cell_length_a 16.293574
_cell_length_b 11.926528
_cell_length_c 5.201954
_cell_angle_alpha 83.412212
_cell_angle_beta 123.769279
_cell_angle_gamma 111.321337
_cell_volume 777.807145
_symmetry_space_group_name_H-M "P -1"
_symmetry_group_IT_number 2
_symmetry_cell_setting 'triclinic'
loop_
_space_group_symop_operation_xyz
x,y,z
-x,-y,-z
loop_
_atom_site_type_symbol
_atom_site_label
_atom_site_fract_x
_atom_site_fract_y
_atom_site_fract_z
Si Si1 0.904787 0.058285 0.103243
Si Si2 0.299733 0.512549 0.416915
Si Si3 0.508228 0.639170 0.510600
Si Si4 0.853091 0.850790 0.436611
Si Si5 0.911221 0.202337 0.597365
Si Si6 0.634494 0.697921 0.223001
Si Si7 0.128824 0.357485 0.795399
Si Si8 0.104497 0.550817 0.350859
O O1 0.899019 0.148118 0.303081
O O2 0.028654 0.073760 0.278961
O O3 0.844195 0.926341 0.149505
O O4 0.868293 0.099495 0.764757
O O5 0.392177 0.623479 0.417097
O O6 0.349954 0.432323 0.694123
O O7 0.208979 0.546490 0.390276
O O8 0.237570 0.420123 0.111063
O O9 0.500000 0.500000 0.500000
O O10 0.551061 0.698398 0.296554
O O11 0.590291 0.702040 0.862031
O O12 0.746636 0.807888 0.426891
O O13 0.858367 0.723856 0.390410
O O14 0.872913 0.313314 0.549878
O O15 0.038328 0.268056 0.841532
O O16 0.089248 0.458899 0.585430
O O17 0.000000 0.500000 0.000000
#
# Coordination Sequence:
#
# PCOD9101408 Si02
#       8
#     2   2   2   2   2   2   2   2
#     4  10  24  38  57  83 115 155 195 241 281 342
#     4  11  22  34  57  85 121 158 190 234 294 350
#     4  10  22  35  54  82 121 152 190 233 289 357
#     4  10  20  38  59  84 114 151 193 240 296 346
#     4  11  23  39  53  81 120 155 196 229 275 344
#     4  11  21  37  56  85 116 155 187 238 295 352
#     4  11  22  35  57  85 121 156 191 235 296 347
#     4  12  23  37  56  87 120 165 195 232 285 355
#
# _framework density 20.570651999999999
#
# number of rings (size 3 to 8) (size 9 to 14) (size 15 to 20)
#    0.000    1.250    2.500    5.625    3.500    7.500 
#    0.000    0.000    0.000    0.000    0.000    5.250 
#    0.000    0.000    0.000    0.000    0.000    0.000 
#
# Total GULP energy -89392.514855 kJ/mol
# GULP energy per Si atom -5587.032178 kJ/mol
# Density = 2.052383 g / cm^3
# Si number density = 20.570652 Si / 1000 Ang^3
#
#
#
# Elastic Constant Matrix: (Units=GPa)
#
#
# Indices 1 2 3 4 5 6 
#
# 1 119.8597 27.9741 9.9934 3.9257 -0.0317 17.0439
# 2 27.9741 61.4782 2.3352 -10.3057 -3.3831 9.4933
# 3 9.9934 2.3352 51.7281 3.8685 -14.9281 -7.2092
# 4 3.9257 -10.3057 3.8685 29.2869 3.4952 -4.9616
# 5 -0.0317 -3.3831 -14.9281 3.4952 28.1596 0.2777
# 6 17.0439 9.4933 -7.2092 -4.9616 0.2777 36.7129
#
#
#
# Elastic Compliance Matrix: (Units=1/GPa)
#
#
# Indices 1 2 3 4 5 6 
#
# 1 0.010379 -0.004540 -0.002623 -0.003243 -0.001477 -0.004587
# 2 -0.004540 0.019962 -0.000504 0.007178 0.001257 -0.002192
# 3 -0.002623 -0.000504 0.024823 -0.003766 0.013508 0.005611
# 4 -0.003243 0.007178 -0.003766 0.039039 -0.006025 0.004232
# 5 -0.001477 0.001257 0.013508 -0.006025 0.043552 0.001869
# 6 -0.004587 -0.002192 0.005611 0.004232 0.001869 0.031594
#
#
# Mechanical properties :
#
#
# Convention : Reuss Voigt Hill
#
# Bulk Modulus (GPa) = 25.10606 34.85237 29.97921
# Shear Modulus (GPa) = 25.25761 31.68277 28.47019
#
# Velocity S-wave (km/s) = 3.50787 3.92879 3.72428
# Velocity P-wave (km/s) = 5.35146 6.12862 5.75318
#
# Compressibility (1/GPa) = 0.03983102
#
# Stress axis : x y z
#
# Youngs Moduli (GPa) = 96.34425 50.09566 40.28471
#
# Poissons Ratio (x) = 0.22743 0.10567
# Poissons Ratio (y) = 0.43739 0.02029
# Poissons Ratio (z) = 0.25272 0.02524
#
# Static dielectric constant tensor:
#      x y z
#    x 1.810860 0.008950 -0.022880 
#    y 0.008950 1.743240 0.006430 
#    z -0.022880 0.006430 1.776350 
# 
# From -- ./inp_files/109003.got.cif
#   From: 2010.05.17/outbox.cif.g08.bks.cpg/sg2_55_cif.got.tgz:109003.got - 2010.06.03 11:33:40.
