data_PCOD9101144
_publ_section_title
;
Structure prediction by ZEFSAII (Michael W. Deem and Ramdas Pophale) SiO2 
 PCOD9101144
Probable space group: P -1
;
_chemical_formula_sum "Si O2"
_cell_formula_units_Z 16
_cell_length_a 8.605568
_cell_length_b 11.346559
_cell_length_c 16.137176
_cell_angle_alpha 41.586370
_cell_angle_beta 145.081650
_cell_angle_gamma 121.232764
_cell_volume 579.731781
_symmetry_space_group_name_H-M "P -1"
_symmetry_group_IT_number 2
_symmetry_cell_setting 'triclinic'
loop_
_space_group_symop_operation_xyz
x,y,z
-x,-y,-z
loop_
_atom_site_type_symbol
_atom_site_label
_atom_site_fract_x
_atom_site_fract_y
_atom_site_fract_z
Si Si1 0.167072 0.862940 0.032864
Si Si2 0.213515 0.100296 0.585745
Si Si3 0.776355 0.464378 0.256976
Si Si4 0.725645 0.219108 0.700653
Si Si5 0.803365 0.027420 0.181524
Si Si6 0.868555 0.672099 0.792017
Si Si7 0.753943 0.343377 0.480284
Si Si8 0.207948 0.388414 0.979936
O O1 0.912257 0.770005 0.950499
O O2 0.302294 0.741258 0.234501
O O3 0.335123 0.875778 0.015375
O O4 0.009318 0.063587 0.889593
O O5 0.464403 0.126209 0.623696
O O6 0.033784 0.294230 0.438968
O O7 0.340773 0.995224 0.782092
O O8 0.000000 0.000000 0.500000
O O9 0.760648 0.494963 0.333142
O O10 0.775494 0.622800 0.106698
O O11 0.501512 0.398704 0.141800
O O12 0.734157 0.373002 0.555226
O O13 0.007316 0.156044 0.228886
O O14 0.996341 0.832048 0.339777
O O15 0.538171 0.710866 0.635162
O O16 0.989767 0.580010 0.806385
O O17 0.000000 0.500000 0.000000
#
# Coordination Sequence:
#
# PCOD9101144 Si02
#       8
#     2   2   2   2   2   2   2   2
#     4  10  21  40  58  85 112 159 198 237 288 342
#     4  11  21  36  58  87 115 147 196 241 289 341
#     4  10  21  35  55  85 117 149 185 240 299 339
#     4  10  22  39  62  80 114 155 205 239 277 346
#     4  10  21  36  60  84 117 153 192 238 287 345
#     4  12  20  33  58  90 119 148 190 235 292 351
#     4  10  20  38  56  82 117 156 194 236 286 340
#     4  11  21  35  57  85 123 149 184 244 296 345
#
# _framework density 27.598972
#
# number of rings (size 3 to 8) (size 9 to 14) (size 15 to 20)
#    0.000    1.500    2.500    3.375    0.000    5.500 
#    0.000    3.125    0.000    0.000    0.000    0.000 
#    0.000    0.000    0.000    0.000    0.000    0.000 
#
# Total GULP energy -89542.281868 kJ/mol
# GULP energy per Si atom -5596.392617 kJ/mol
# Density = 2.753616 g / cm^3
# Si number density = 27.598972 Si / 1000 Ang^3
#
#
#
# Elastic Constant Matrix: (Units=GPa)
#
#
# Indices 1 2 3 4 5 6 
#
# 1 202.1628 32.0024 77.9250 1.6374 -57.6015 5.6943
# 2 32.0024 88.9145 17.4025 -5.0982 6.3441 -1.9975
# 3 77.9250 17.4025 102.9518 12.0899 -25.9686 -20.6027
# 4 1.6374 -5.0982 12.0899 29.2948 -13.0174 2.3849
# 5 -57.6015 6.3441 -25.9686 -13.0174 82.7365 4.5493
# 6 5.6943 -1.9975 -20.6027 2.3849 4.5493 46.6152
#
#
#
# Elastic Compliance Matrix: (Units=1/GPa)
#
#
# Indices 1 2 3 4 5 6 
#
# 1 0.009932 -0.002396 -0.007299 0.005102 0.005906 -0.005379
# 2 -0.002396 0.012618 -0.001085 0.001502 -0.002770 0.000547
# 3 -0.007299 -0.001085 0.017986 -0.008500 -0.001204 0.009347
# 4 0.005102 0.001502 -0.008500 0.041634 0.007716 -0.007199
# 5 0.005906 -0.002770 -0.001204 0.007716 0.017438 -0.003469
# 6 -0.005379 0.000547 0.009347 -0.007199 -0.003469 0.026971
#
#
# Mechanical properties :
#
#
# Convention : Reuss Voigt Hill
#
# Bulk Modulus (GPa) = 52.69589 72.07656 62.38622
# Shear Modulus (GPa) = 32.37037 49.50926 40.93981
#
# Velocity S-wave (km/s) = 3.42845 4.24002 3.85565
# Velocity P-wave (km/s) = 5.89977 7.08115 6.51728
#
# Compressibility (1/GPa) = 0.01897681
#
# Stress axis : x y z
#
# Youngs Moduli (GPa) = 100.68366 79.25497 55.59934
#
# Poissons Ratio (x) = 0.18990 0.40579
# Poissons Ratio (y) = 0.24124 0.06031
# Poissons Ratio (z) = 0.73484 0.08597
#
# Static dielectric constant tensor:
#      x y z
#    x 2.175290 -0.002820 -0.103120 
#    y -0.002820 2.141540 0.137520 
#    z -0.103120 0.137520 2.202970 
# 
# From -- ./inp_files/181799.got.cif
#   From: 2010.05.17/outbox.cif.g08.bks.cpg/sg2_91_cif.got.tgz:181799.got - 2010.06.03 11:33:40.
