data_PCOD9101619
_publ_section_title
;
Structure prediction by ZEFSAII (Michael W. Deem and Ramdas Pophale) SiO2 
 PCOD9101619
Probable space group: P -1
;
_chemical_formula_sum "Si O2"
_cell_formula_units_Z 16
_cell_length_a 9.050272
_cell_length_b 18.422850
_cell_length_c 19.072511
_cell_angle_alpha 160.167820
_cell_angle_beta 138.487785
_cell_angle_gamma 52.277061
_cell_volume 651.661159
_symmetry_space_group_name_H-M "P -1"
_symmetry_group_IT_number 2
_symmetry_cell_setting 'triclinic'
loop_
_space_group_symop_operation_xyz
x,y,z
-x,-y,-z
loop_
_atom_site_type_symbol
_atom_site_label
_atom_site_fract_x
_atom_site_fract_y
_atom_site_fract_z
Si Si1 0.557585 0.126599 0.423860
Si Si2 0.028743 0.865347 0.169723
Si Si3 0.790845 0.282709 0.171152
Si Si4 0.644836 0.436767 0.554740
Si Si5 0.981702 0.896000 0.477607
Si Si6 0.552664 0.236602 0.825579
Si Si7 0.292859 0.356411 0.471602
Si Si8 0.925466 0.649762 0.429757
O O1 0.425571 0.302278 0.536319
O O2 0.824930 0.221334 0.568787
O O3 0.548697 0.006586 0.386216
O O4 0.379400 0.911211 0.117363
O O5 0.094610 0.105406 0.366993
O O6 0.265542 0.801474 0.200410
O O7 0.944531 0.911864 0.259112
O O8 0.829594 0.662322 0.868326
O O9 0.650684 0.368111 0.256308
O O10 0.907792 0.520828 0.381003
O O11 0.007779 0.236300 0.241529
O O12 0.500000 0.500000 0.500000
O O13 0.433860 0.291921 0.401488
O O14 0.808111 0.310706 0.468967
O O15 0.000000 0.000000 0.500000
O O16 0.700438 0.736528 0.253513
O O17 0.722202 0.450064 0.128932
#
# Coordination Sequence:
#
# PCOD9101619 Si02
#       8
#     2   2   2   2   2   2   2   2
#     4  10  20  38  60  85 120 159 197 248 305 358
#     4  11  22  39  65  88 123 167 203 248 311 365
#     4  10  21  37  56  87 120 159 199 250 293 359
#     4  11  23  40  57  90 127 164 203 253 297 359
#     4  10  21  40  64  93 120 159 205 259 311 359
#     4   9  21  39  63  89 125 154 204 259 303 363
#     4  11  21  36  58  84 120 160 204 242 303 356
#     4  10  21  40  61  90 126 160 205 249 303 369
#
# _framework density 24.552638999999999
#
# number of rings (size 3 to 8) (size 9 to 14) (size 15 to 20)
#    0.000    1.750    1.250    3.000    0.000    1.000 
#    4.500    2.500    0.000   18.000    0.000    0.000 
#    0.000    0.000    0.000    0.000    0.000    0.000 
#
# Total GULP energy -89328.420527 kJ/mol
# GULP energy per Si atom -5583.026283 kJ/mol
# Density = 2.449676 g / cm^3
# Si number density = 24.552639 Si / 1000 Ang^3
#
#
#
# Elastic Constant Matrix: (Units=GPa)
#
#
# Indices 1 2 3 4 5 6 
#
# 1 101.6364 39.1939 14.6744 -7.0390 8.5944 -19.9447
# 2 39.1939 116.2281 29.6316 -11.3848 10.8709 -19.8017
# 3 14.6744 29.6316 55.0543 -13.8381 -0.7676 -11.2647
# 4 -7.0390 -11.3848 -13.8381 40.5370 -0.6393 4.7817
# 5 8.5944 10.8709 -0.7676 -0.6393 28.4495 -8.5425
# 6 -19.9447 -19.8017 -11.2647 4.7817 -8.5425 62.8162
#
#
#
# Elastic Compliance Matrix: (Units=1/GPa)
#
#
# Indices 1 2 3 4 5 6 
#
# 1 0.011819 -0.003158 -0.000853 0.000573 -0.001673 0.002333
# 2 -0.003158 0.011519 -0.004946 0.000801 -0.003188 0.001247
# 3 -0.000853 -0.004946 0.023125 0.006138 0.003612 0.002341
# 4 0.000573 0.000801 0.006138 0.027151 0.000143 -0.000512
# 5 -0.001673 -0.003188 0.003612 0.000143 0.038267 0.004305
# 6 0.002333 0.001247 0.002341 -0.000512 0.004305 0.018097
#
#
# Mechanical properties :
#
#
# Convention : Reuss Voigt Hill
#
# Bulk Modulus (GPa) = 35.02637 48.87986 41.95312
# Shear Modulus (GPa) = 31.76449 38.98848 35.37648
#
# Velocity S-wave (km/s) = 3.60075 3.98924 3.79996
# Velocity P-wave (km/s) = 5.61996 6.41639 6.03134
#
# Compressibility (1/GPa) = 0.02854992
#
# Stress axis : x y z
#
# Youngs Moduli (GPa) = 84.61019 86.81494 43.24257
#
# Poissons Ratio (x) = 0.27417 0.03686
# Poissons Ratio (y) = 0.26721 0.21388
# Poissons Ratio (z) = 0.07213 0.42938
#
# Static dielectric constant tensor:
#      x y z
#    x 2.053500 0.054100 0.029690 
#    y 0.054100 2.141750 0.016040 
#    z 0.029690 0.016040 1.922270 
# 
# From -- ./inp_files/521874.got.cif
#   From: 2010.05.17/outbox.cif.g08.bks.cpg/sg2_261_cif.got.tgz:521874.got - 2010.06.03 11:33:40.
