data_PCOD9101007
_publ_section_title
;
Structure prediction by ZEFSAII (Michael W. Deem and Ramdas Pophale) SiO2 
 PCOD9101007
Probable space group: P -1
;
_chemical_formula_sum "Si O2"
_cell_formula_units_Z 16
_cell_length_a 15.336711
_cell_length_b 10.821267
_cell_length_c 16.787379
_cell_angle_alpha 134.020638
_cell_angle_beta 155.626967
_cell_angle_gamma 63.711659
_cell_volume 634.861918
_symmetry_space_group_name_H-M "P -1"
_symmetry_group_IT_number 2
_symmetry_cell_setting 'triclinic'
loop_
_space_group_symop_operation_xyz
x,y,z
-x,-y,-z
loop_
_atom_site_type_symbol
_atom_site_label
_atom_site_fract_x
_atom_site_fract_y
_atom_site_fract_z
Si Si1 0.534620 0.533474 0.447913
Si Si2 0.547415 0.217964 0.049192
Si Si3 0.413466 0.769382 0.359548
Si Si4 0.581949 0.184826 0.322490
Si Si5 0.150188 0.438642 0.691805
Si Si6 0.099601 0.767217 0.235189
Si Si7 0.932983 0.869705 0.645908
Si Si8 0.403478 0.487521 0.093446
O O1 0.500000 0.500000 0.500000
O O2 0.625020 0.764031 0.588646
O O3 0.669070 0.425944 0.482089
O O4 0.221895 0.367437 0.082405
O O5 0.657336 0.349860 0.113686
O O6 0.354566 0.256099 0.950909
O O7 0.838470 0.343382 0.391533
O O8 0.403592 0.960986 0.795103
O O9 0.170961 0.691757 0.183988
O O10 0.325962 0.594661 0.138573
O O11 0.500000 0.000000 0.500000
O O12 0.744731 0.214905 0.549774
O O13 0.255559 0.026373 0.001515
O O14 0.116112 0.238201 0.529440
O O15 0.284199 0.485752 0.909296
O O16 0.193769 0.008465 0.401489
O O17 0.737556 0.663410 0.449749
#
# Coordination Sequence:
#
# PCOD9101007 Si02
#       8
#     2   2   2   2   2   2   2   2
#     4  11  25  46  69  93 124 172 226 256 310 400
#     4   9  18  33  58  92 122 169 212 259 306 385
#     4  12  26  44  64  98 135 166 210 268 331 371
#     4  10  20  37  68  92 121 164 228 255 305 374
#     4   9  17  31  56  88 131 165 213 254 318 371
#     4  11  21  42  69  90 128 171 216 260 318 384
#     4   9  18  33  59  98 122 170 218 263 302 389
#     4  11  20  36  56  90 137 166 203 266 327 365
#
# _framework density 25.202328999999999
#
# number of rings (size 3 to 8) (size 9 to 14) (size 15 to 20)
#    0.000    1.750    2.500    4.125    0.000    0.000 
#    2.250    1.875    0.000   10.500    0.000    0.000 
#    0.000    0.000    0.000    0.000    0.000    0.000 
#
# Total GULP energy -89376.103779 kJ/mol
# GULP energy per Si atom -5586.006486 kJ/mol
# Density = 2.514497 g / cm^3
# Si number density = 25.202329 Si / 1000 Ang^3
#
#
#
# Elastic Constant Matrix: (Units=GPa)
#
#
# Indices 1 2 3 4 5 6 
#
# 1 90.9306 57.0814 43.0264 7.9810 -22.9094 -15.8816
# 2 57.0814 188.8321 52.2669 14.0312 -28.3762 -26.7936
# 3 43.0264 52.2669 89.9841 -11.4958 -18.4567 -2.6374
# 4 7.9810 14.0312 -11.4958 47.1394 -7.6338 -12.5398
# 5 -22.9094 -28.3762 -18.4567 -7.6338 27.4624 14.7743
# 6 -15.8816 -26.7936 -2.6374 -12.5398 14.7743 46.5108
#
#
#
# Elastic Compliance Matrix: (Units=1/GPa)
#
#
# Indices 1 2 3 4 5 6 
#
# 1 0.017327 -0.002218 -0.005836 -0.002181 0.006794 0.001562
# 2 -0.002218 0.007591 -0.003025 -0.001647 0.002278 0.002277
# 3 -0.005836 -0.003025 0.018004 0.006635 0.007777 -0.003396
# 4 -0.002181 -0.001647 0.006635 0.025653 0.006099 0.003662
# 5 0.006794 0.002278 0.007777 0.006099 0.058232 -0.012780
# 6 0.001562 0.002277 -0.003396 0.003662 -0.012780 0.028199
#
#
# Mechanical properties :
#
#
# Convention : Reuss Voigt Hill
#
# Bulk Modulus (GPa) = 48.16077 74.94404 61.55240
# Shear Modulus (GPa) = 27.16102 38.71400 32.93751
#
# Velocity S-wave (km/s) = 3.28642 3.92360 3.61906
# Velocity P-wave (km/s) = 5.79240 7.09420 6.47609
#
# Compressibility (1/GPa) = 0.02076379
#
# Stress axis : x y z
#
# Youngs Moduli (GPa) = 57.71325 131.73080 55.54235
#
# Poissons Ratio (x) = 0.29214 0.32416
# Poissons Ratio (y) = 0.12799 0.16804
# Poissons Ratio (z) = 0.33683 0.39855
#
# Static dielectric constant tensor:
#      x y z
#    x 2.058200 0.035290 0.039610 
#    y 0.035290 2.141100 0.116490 
#    z 0.039610 0.116490 2.003450 
# 
# From -- ./inp_files/575795.got.cif
#   From: 2010.05.17/outbox.cif.g08.bks.cpg/sg2_288_cif.got.tgz:575795.got - 2010.06.03 11:33:40.
