data_PCOD9101475
_publ_section_title
;
Structure prediction by ZEFSAII (Michael W. Deem and Ramdas Pophale) SiO2 
 PCOD9101475
Probable space group: P -1
;
_chemical_formula_sum "Si O2"
_cell_formula_units_Z 16
_cell_length_a 9.027720
_cell_length_b 12.411608
_cell_length_c 15.805624
_cell_angle_alpha 139.585577
_cell_angle_beta 46.105010
_cell_angle_gamma 105.544535
_cell_volume 687.521243
_symmetry_space_group_name_H-M "P -1"
_symmetry_group_IT_number 2
_symmetry_cell_setting 'triclinic'
loop_
_space_group_symop_operation_xyz
x,y,z
-x,-y,-z
loop_
_atom_site_type_symbol
_atom_site_label
_atom_site_fract_x
_atom_site_fract_y
_atom_site_fract_z
Si Si1 0.401380 0.607758 0.223182
Si Si2 0.886158 0.241756 0.008401
Si Si3 0.973039 0.553750 0.329318
Si Si4 0.161496 0.383522 0.780867
Si Si5 0.297098 0.814392 0.208901
Si Si6 0.444654 0.712435 0.681296
Si Si7 0.829100 0.987259 0.398525
Si Si8 0.711837 0.890248 0.100327
O O1 0.401606 0.694109 0.182990
O O2 0.154876 0.609505 0.326669
O O3 0.614295 0.375155 0.002639
O O4 0.378239 0.779974 0.393378
O O5 0.731915 0.479914 0.194756
O O6 0.720908 0.221358 0.129793
O O7 0.982277 0.097716 0.804937
O O8 0.153398 0.178290 0.903464
O O9 0.942389 0.598488 0.265543
O O10 0.718233 0.665468 0.546936
O O11 0.100669 0.315013 0.147370
O O12 0.264163 0.154842 0.626086
O O13 0.000000 0.500000 0.000000
O O14 0.010091 0.958178 0.387044
O O15 0.449027 0.917987 0.206728
O O16 0.500000 0.500000 0.500000
O O17 0.305458 0.908140 0.793793
#
# Coordination Sequence:
#
# PCOD9101475 Si02
#       8
#     2   2   2   2   2   2   2   2
#     4  10  21  36  59  91 117 159 198 240 292 359
#     4  10  23  41  57  89 126 154 196 250 298 343
#     4  10  20  38  59  88 118 151 204 243 286 353
#     4   9  18  33  56  84 120 152 182 242 298 339
#     4  10  21  37  64  87 120 154 203 239 288 364
#     4  12  22  37  65  87 111 163 209 238 290 357
#     4  11  21  39  62  86 127 159 186 246 307 349
#     4  10  22  39  60  89 118 150 200 254 286 341
#
# _framework density 23.272009000000001
#
# number of rings (size 3 to 8) (size 9 to 14) (size 15 to 20)
#    0.000    1.750    3.750    1.500    3.500    0.000 
#    2.250    3.125    0.000    3.000    0.000    0.000 
#    0.000    0.000    0.000    0.000    0.000    0.000 
#
# Total GULP energy -89112.583789 kJ/mol
# GULP energy per Si atom -5569.536487 kJ/mol
# Density = 2.321904 g / cm^3
# Si number density = 23.272009 Si / 1000 Ang^3
#
#
#
# Elastic Constant Matrix: (Units=GPa)
#
#
# Indices 1 2 3 4 5 6 
#
# 1 58.1613 11.1067 14.7337 1.3047 6.9248 1.4895
# 2 11.1067 100.9101 43.0808 27.0125 4.2006 3.4521
# 3 14.7337 43.0808 81.3504 35.6742 21.3422 5.4330
# 4 1.3047 27.0125 35.6742 49.9397 -0.3276 -0.6036
# 5 6.9248 4.2006 21.3422 -0.3276 29.3125 -1.0420
# 6 1.4895 3.4521 5.4330 -0.6036 -1.0420 16.3037
#
#
#
# Elastic Compliance Matrix: (Units=1/GPa)
#
#
# Indices 1 2 3 4 5 6 
#
# 1 0.018426 -0.001199 -0.003336 0.002535 -0.001736 -0.000335
# 2 -0.001199 0.013402 -0.006559 -0.002518 0.003094 -0.000438
# 3 -0.003336 -0.006559 0.030876 -0.018690 -0.021340 -0.010651
# 4 0.002535 -0.002518 -0.018690 0.034869 0.014070 0.008720
# 5 -0.001736 0.003094 -0.021340 0.014070 0.050144 0.010340
# 6 -0.000335 -0.000438 -0.010651 0.008720 0.010340 0.065992
#
#
# Mechanical properties :
#
#
# Convention : Reuss Voigt Hill
#
# Bulk Modulus (GPa) = 24.68102 42.02934 33.35518
# Shear Modulus (GPa) = 20.04799 30.54454 25.29626
#
# Velocity S-wave (km/s) = 2.93825 3.62678 3.30052
# Velocity P-wave (km/s) = 4.70527 5.96969 5.37480
#
# Compressibility (1/GPa) = 0.04051696
#
# Stress axis : x y z
#
# Youngs Moduli (GPa) = 54.27116 74.61640 32.38757
#
# Poissons Ratio (x) = 0.08943 0.10806
# Poissons Ratio (y) = 0.06504 0.21242
# Poissons Ratio (z) = 0.18107 0.48938
#
# Static dielectric constant tensor:
#      x y z
#    x 1.999050 -0.016870 0.008780 
#    y -0.016870 1.866660 0.012310 
#    z 0.008780 0.012310 1.973740 
# 
# From -- ./inp_files/569204.got.cif
#   From: 2010.05.17/outbox.cif.g08.bks.cpg/sg2_285_cif.got.tgz:569204.got - 2010.06.03 11:33:40.
