data_PCOD9101009
_publ_section_title
;
Structure prediction by ZEFSAII (Michael W. Deem and Ramdas Pophale) SiO2 
 PCOD9101009
Probable space group: P -1
;
_chemical_formula_sum "Si O2"
_cell_formula_units_Z 16
_cell_length_a 12.666207
_cell_length_b 8.846105
_cell_length_c 18.844380
_cell_angle_alpha 147.208430
_cell_angle_beta 45.729632
_cell_angle_gamma 120.069690
_cell_volume 798.556487
_symmetry_space_group_name_H-M "P -1"
_symmetry_group_IT_number 2
_symmetry_cell_setting 'triclinic'
loop_
_space_group_symop_operation_xyz
x,y,z
-x,-y,-z
loop_
_atom_site_type_symbol
_atom_site_label
_atom_site_fract_x
_atom_site_fract_y
_atom_site_fract_z
Si Si1 0.084748 0.059342 0.055570
Si Si2 0.412508 0.857261 0.633411
Si Si3 0.312027 0.566143 0.699117
Si Si4 0.874963 0.924921 0.390464
Si Si5 0.975150 0.184992 0.871467
Si Si6 0.309086 0.482536 0.926936
Si Si7 0.619872 0.252599 0.731710
Si Si8 0.832682 0.377688 0.799583
O O1 0.000899 0.993106 0.138699
O O2 0.105898 0.378530 0.173269
O O3 0.246552 0.835375 0.885654
O O4 0.000000 0.000000 0.000000
O O5 0.323673 0.697825 0.666746
O O6 0.520337 0.628331 0.442076
O O7 0.322906 0.158961 0.761425
O O8 0.536760 0.985332 0.671219
O O9 0.194553 0.359019 0.680585
O O10 0.925777 0.945820 0.293998
O O11 0.026158 0.877210 0.348183
O O12 0.746450 0.175330 0.581249
O O13 0.797324 0.262359 0.964081
O O14 0.000000 0.500000 0.000000
O O15 0.480720 0.500727 0.869081
O O16 0.230110 0.484838 0.041583
O O17 0.700852 0.298561 0.784133
#
# Coordination Sequence:
#
# PCOD9101009 Si02
#       8
#     2   2   2   2   2   2   2   2
#     4  12  21  34  56  81 110 137 183 232 279 331
#     4   8  18  30  55  78 113 142 178 223 268 319
#     4  10  16  32  51  83 113 138 175 230 270 318
#     4  10  20  35  56  84 116 141 183 232 273 326
#     4  11  22  35  54  81 112 146 182 228 285 329
#     4   9  19  34  55  80 111 145 184 224 269 330
#     4   9  19  36  57  81 113 149 189 218 272 327
#     4  11  19  33  59  86 109 147 186 229 266 323
#
# _framework density 20.036154
#
# number of rings (size 3 to 8) (size 9 to 14) (size 15 to 20)
#    0.750    1.250    3.750    1.500    0.000    0.000 
#    0.000    3.750    0.000    0.000    0.000    0.000 
#    0.000    0.000    0.000    0.000    0.000    0.000 
#
# Total GULP energy -89135.512454 kJ/mol
# GULP energy per Si atom -5570.969528 kJ/mol
# Density = 1.999055 g / cm^3
# Si number density = 20.036154 Si / 1000 Ang^3
#
#
#
# Elastic Constant Matrix: (Units=GPa)
#
#
# Indices 1 2 3 4 5 6 
#
# 1 76.9658 29.5697 13.2176 -16.3134 -6.9676 -2.9721
# 2 29.5697 54.9851 12.6862 -10.8126 4.6634 -8.0986
# 3 13.2176 12.6862 60.0500 -21.4702 -20.3068 -10.9921
# 4 -16.3134 -10.8126 -21.4702 16.7367 3.8491 3.2640
# 5 -6.9676 4.6634 -20.3068 3.8491 27.1875 -4.2435
# 6 -2.9721 -8.0986 -10.9921 3.2640 -4.2435 16.4848
#
#
#
# Elastic Compliance Matrix: (Units=1/GPa)
#
#
# Indices 1 2 3 4 5 6 
#
# 1 0.021617 -0.009576 0.012377 0.026536 0.013557 0.005682
# 2 -0.009576 0.026655 -0.005444 0.002502 -0.010748 0.004476
# 3 0.012377 -0.005444 0.065287 0.072993 0.048974 0.041245
# 4 0.026536 0.002502 0.072993 0.164577 0.042758 0.033105
# 5 0.013557 -0.010748 0.048974 0.042758 0.079138 0.041725
# 6 0.005682 0.004476 0.041245 0.033105 0.041725 0.095573
#
#
# Mechanical properties :
#
#
# Convention : Reuss Voigt Hill
#
# Bulk Modulus (GPa) = 9.23580 33.66087 21.44833
# Shear Modulus (GPa) = 10.11685 21.18364 15.65024
#
# Velocity S-wave (km/s) = 2.24950 3.25510 2.79785
# Velocity P-wave (km/s) = 3.37144 5.56454 4.60058
#
# Compressibility (1/GPa) = 0.10827435
#
# Stress axis : x y z
#
# Youngs Moduli (GPa) = 46.25910 37.51606 15.31690
#
# Poissons Ratio (x) = 0.35924 -0.18958
# Poissons Ratio (y) = 0.44296 0.08339
# Poissons Ratio (z) = -0.57256 0.20425
#
# Static dielectric constant tensor:
#      x y z
#    x 1.779890 -0.009420 -0.056340 
#    y -0.009420 1.689990 0.011810 
#    z -0.056340 0.011810 1.758050 
# 
# From -- ./inp_files/572478.got.cif
#   From: 2010.05.17/outbox.cif.g08.bks.cpg/sg2_287_cif.got.tgz:572478.got - 2010.06.03 11:33:40.
