data_PCOD9101806
_publ_section_title
;
Structure prediction by ZEFSAII (Michael W. Deem and Ramdas Pophale) SiO2 
 PCOD9101806
Probable space group: P -1
;
_chemical_formula_sum "Si O2"
_cell_formula_units_Z 13
_cell_length_a 12.960602
_cell_length_b 15.138053
_cell_length_c 11.843336
_cell_angle_alpha 142.655803
_cell_angle_beta 147.152444
_cell_angle_gamma 25.792219
_cell_volume 541.014196
_symmetry_space_group_name_H-M "P -1"
_symmetry_group_IT_number 2
_symmetry_cell_setting 'triclinic'
loop_
_space_group_symop_operation_xyz
x,y,z
-x,-y,-z
loop_
_atom_site_type_symbol
_atom_site_label
_atom_site_fract_x
_atom_site_fract_y
_atom_site_fract_z
Si Si1 0.006028 0.355503 0.120432
Si Si2 0.556019 0.083366 0.808181
Si Si3 0.415954 0.700818 0.761578
Si Si4 0.638924 0.090009 0.643523
Si Si5 0.333844 0.417140 0.364785
Si Si6 0.000000 0.500000 0.500000
Si Si7 0.857765 0.138841 0.691672
O O1 0.106085 0.432564 0.212950
O O2 0.906473 0.471016 0.266029
O O3 0.261412 0.115984 0.147161
O O4 0.835549 0.325144 0.867717
O O5 0.706834 0.047103 0.794507
O O6 0.332606 0.091165 0.562548
O O7 0.491823 0.257889 0.001862
O O8 0.307219 0.595252 0.568978
O O9 0.625822 0.593772 0.742931
O O10 0.146217 0.930840 0.705177
O O11 0.323586 0.304452 0.562299
O O12 0.812962 0.101566 0.738923
O O13 0.614211 0.210779 0.466917
#
# Coordination Sequence:
#
# PCOD9101806 Si02
#       7
#     2   2   2   2   2   1   2
#     4  10  23  40  65  95 131 167 219 258 331 368
#     4   9  20  41  62  95 124 175 203 267 319 385
#     4  10  25  42  69  90 133 171 217 262 328 369
#     4  10  21  39  66  95 135 159 223 257 328 382
#     4  11  23  48  61 100 130 168 219 271 305 396
#     4  10  20  38  60  98 126 170 202 278 304 388
#     4  11  23  44  66  98 125 178 207 269 321 386
#
# _framework density 24.028945
#
# number of rings (size 3 to 8) (size 9 to 14) (size 15 to 20)
#    0.000    1.846    3.077    0.462    2.154   10.462 
#    2.769    1.538    0.000    0.000    0.000    0.000 
#    0.000    0.000    0.000    0.000    0.000    0.000 
#
# Total GULP energy -72423.823224 kJ/mol
# GULP energy per Si atom -5571.063325 kJ/mol
# Density = 2.397425 g / cm^3
# Si number density = 24.028945 Si / 1000 Ang^3
#
#
#
# Elastic Constant Matrix: (Units=GPa)
#
#
# Indices 1 2 3 4 5 6 
#
# 1 136.2627 3.2049 72.3949 19.5676 17.2021 9.0858
# 2 3.2049 51.3323 25.2138 19.5235 0.9321 -9.5002
# 3 72.3949 25.2138 141.8749 15.2439 2.8027 -5.4454
# 4 19.5676 19.5235 15.2439 44.9556 14.1069 -3.1249
# 5 17.2021 0.9321 2.8027 14.1069 31.4912 -1.6958
# 6 9.0858 -9.5002 -5.4454 -3.1249 -1.6958 30.0579
#
#
#
# Elastic Compliance Matrix: (Units=1/GPa)
#
#
# Indices 1 2 3 4 5 6 
#
# 1 0.012028 0.002797 -0.006383 -0.003041 -0.004965 -0.004504
# 2 0.002797 0.027363 -0.004822 -0.012285 0.003911 0.005873
# 3 -0.006383 -0.004822 0.011162 0.000463 0.002569 0.002621
# 4 -0.003041 -0.012285 0.000463 0.032711 -0.012680 -0.000194
# 5 -0.004965 0.003911 0.002569 -0.012680 0.040026 0.004142
# 6 -0.004504 0.005873 0.002621 -0.000194 0.004142 0.037175
#
#
# Mechanical properties :
#
#
# Convention : Reuss Voigt Hill
#
# Bulk Modulus (GPa) = 29.64011 59.01079 44.32545
# Shear Modulus (GPa) = 26.52137 36.54470 31.53304
#
# Velocity S-wave (km/s) = 3.32584 3.90405 3.62649
# Velocity P-wave (km/s) = 5.20675 6.70326 6.00183
#
# Compressibility (1/GPa) = 0.03373806
#
# Stress axis : x y z
#
# Youngs Moduli (GPa) = 83.14031 36.54565 89.58636
#
# Poissons Ratio (x) = -0.10223 0.57180
# Poissons Ratio (y) = -0.23256 0.43200
# Poissons Ratio (z) = 0.53066 0.17623
#
# Static dielectric constant tensor:
#      x y z
#    x 1.626450 0.252350 -0.066680 
#    y 0.252350 1.922300 -0.006040 
#    z -0.066680 -0.006040 1.929890 
# 
# From -- ./inp_files/431986.got.cif
#   From: 2010.05.17/outbox.cif.g08.bks.cpg/sg2_216_cif.got.tgz:431986.got - 2010.06.03 11:33:40.
