data_PCOD9101164
_publ_section_title
;
Structure prediction by ZEFSAII (Michael W. Deem and Ramdas Pophale) SiO2 
 PCOD9101164
Probable space group: P -1
;
_chemical_formula_sum "Si O2"
_cell_formula_units_Z 15
_cell_length_a 21.059054
_cell_length_b 6.704100
_cell_length_c 13.442638
_cell_angle_alpha 78.543163
_cell_angle_beta 163.205087
_cell_angle_gamma 99.224565
_cell_volume 534.458889
_symmetry_space_group_name_H-M "P -1"
_symmetry_group_IT_number 2
_symmetry_cell_setting 'triclinic'
loop_
_space_group_symop_operation_xyz
x,y,z
-x,-y,-z
loop_
_atom_site_type_symbol
_atom_site_label
_atom_site_fract_x
_atom_site_fract_y
_atom_site_fract_z
Si Si1 0.000000 0.000000 0.000000
Si Si2 0.535068 0.436044 0.807004
Si Si3 0.719340 0.239313 0.729613
Si Si4 0.091976 0.545289 0.261884
Si Si5 0.798725 0.156339 0.457713
Si Si6 0.833710 0.714916 0.305510
Si Si7 0.494849 0.036286 0.846541
Si Si8 0.825016 0.065489 0.094031
O O1 0.204725 0.921281 0.228519
O O2 0.979965 0.751137 0.020645
O O3 0.477560 0.597680 0.619075
O O4 0.319243 0.476089 0.551493
O O5 0.539061 0.197189 0.812748
O O6 0.763186 0.496328 0.190963
O O7 0.926827 0.374942 0.040723
O O8 0.652018 0.157692 0.744473
O O9 0.159289 0.624800 0.462776
O O10 0.753682 0.020641 0.504529
O O11 0.990965 0.036925 0.697626
O O12 0.588394 0.147317 0.072125
O O13 0.058935 0.757093 0.692122
O O14 0.806968 0.874956 0.157942
O O15 0.635692 0.819631 0.067682
#
# Coordination Sequence:
#
# PCOD9101164 Si02
#       8
#     1   2   2   2   2   2   2   2
#     4  10  20  38  56  88 130 162 192 260 296 370
#     4  11  23  37  63  91 124 165 201 257 312 377
#     4  11  24  38  63  95 127 162 212 249 317 364
#     4  11  22  35  62  97 123 164 202 256 312 366
#     4  10  20  39  65  90 123 163 208 258 312 354
#     4  10  23  44  66  86 125 166 208 258 317 353
#     4  10  22  40  60  94 125 160 206 260 308 371
#     4  10  22  45  64  90 123 164 211 262 301 377
#
# _framework density 28.065770000000001
#
# number of rings (size 3 to 8) (size 9 to 14) (size 15 to 20)
#    0.000    1.600    2.667    2.400    3.733    1.067 
#    2.400    2.667    0.000    0.000    0.000    0.000 
#    0.000    0.000    0.000    0.000    0.000    0.000 
#
# Total GULP energy -83827.879526 kJ/mol
# GULP energy per Si atom -5588.525302 kJ/mol
# Density = 2.800189 g / cm^3
# Si number density = 28.065770 Si / 1000 Ang^3
#
#
#
# Elastic Constant Matrix: (Units=GPa)
#
#
# Indices 1 2 3 4 5 6 
#
# 1 84.5679 6.5710 -3.4156 7.6142 -27.6968 3.5852
# 2 6.5710 128.7027 31.0037 18.0024 -7.9260 -10.9035
# 3 -3.4156 31.0037 67.3140 23.8190 -6.9194 7.8931
# 4 7.6142 18.0024 23.8190 66.9175 5.4192 -3.8940
# 5 -27.6968 -7.9260 -6.9194 5.4192 39.8234 -4.8748
# 6 3.5852 -10.9035 7.8931 -3.8940 -4.8748 39.8860
#
#
#
# Elastic Compliance Matrix: (Units=1/GPa)
#
#
# Indices 1 2 3 4 5 6 
#
# 1 0.016582 -0.000568 0.004061 -0.004273 0.012544 -0.001333
# 2 -0.000568 0.009330 -0.004328 -0.000800 0.001251 0.003533
# 3 0.004061 -0.004328 0.021026 -0.007597 0.005949 -0.005724
# 4 -0.004273 -0.000800 -0.007597 0.019050 -0.006712 0.002708
# 5 0.012544 0.001251 0.005949 -0.006712 0.036253 0.001813
# 6 -0.001333 0.003533 -0.005724 0.002708 0.001813 0.027776
#
#
# Mechanical properties :
#
#
# Convention : Reuss Voigt Hill
#
# Bulk Modulus (GPa) = 22.09094 38.76696 30.42895
# Shear Modulus (GPa) = 34.06528 45.75374 39.90951
#
# Velocity S-wave (km/s) = 3.48769 4.04199 3.77503
# Velocity P-wave (km/s) = 4.90988 5.96879 5.46504
#
# Compressibility (1/GPa) = 0.04526743
#
# Stress axis : x y z
#
# Youngs Moduli (GPa) = 60.30514 107.18316 47.56011
#
# Poissons Ratio (x) = 0.06083 -0.19312
# Poissons Ratio (y) = 0.03423 0.20586
# Poissons Ratio (z) = -0.24487 0.46392
#
# Static dielectric constant tensor:
#      x y z
#    x 2.133700 0.053500 0.221680 
#    y 0.053500 2.126600 -0.001100 
#    z 0.221680 -0.001100 1.786340 
# 
# From -- ./inp_files/451490.got.cif
#   From: 2010.05.17/outbox.cif.g08.bks.cpg/sg2_226_cif.got.tgz:451490.got - 2010.06.03 11:33:40.
