data_PCOD9101783
_publ_section_title
;
Structure prediction by ZEFSAII (Michael W. Deem and Ramdas Pophale) SiO2 
 PCOD9101783
Probable space group: P -1
;
_chemical_formula_sum "Si O2"
_cell_formula_units_Z 14
_cell_length_a 7.833086
_cell_length_b 9.827597
_cell_length_c 17.815551
_cell_angle_alpha 37.605553
_cell_angle_beta 93.912699
_cell_angle_gamma 68.603934
_cell_volume 605.899946
_symmetry_space_group_name_H-M "P -1"
_symmetry_group_IT_number 2
_symmetry_cell_setting 'triclinic'
loop_
_space_group_symop_operation_xyz
x,y,z
-x,-y,-z
loop_
_atom_site_type_symbol
_atom_site_label
_atom_site_fract_x
_atom_site_fract_y
_atom_site_fract_z
Si Si1 0.890521 0.225268 0.055587
Si Si2 0.307619 0.862143 0.328187
Si Si3 0.729350 0.639278 0.724697
Si Si4 0.977550 0.661403 0.273218
Si Si5 0.353101 0.080879 0.623004
Si Si6 0.920352 0.308178 0.328384
Si Si7 0.803911 0.260820 0.195675
O O1 0.166704 0.003527 0.183379
O O2 0.839494 0.008876 0.135986
O O3 0.759134 0.413754 0.046799
O O4 0.825219 0.418335 0.895887
O O5 0.500000 0.500000 0.500000
O O6 0.444544 0.962551 0.310641
O O7 0.089103 0.992032 0.318323
O O8 0.825370 0.440760 0.738657
O O9 0.457899 0.922842 0.612474
O O10 0.857299 0.761711 0.669840
O O11 0.846116 0.563629 0.275861
O O12 0.125155 0.436831 0.446038
O O13 0.290354 0.903925 0.734550
O O14 0.745111 0.425680 0.201539
O O15 0.000000 0.000000 0.500000
#
# Coordination Sequence:
#
# PCOD9101783 Si02
#       7
#     2   2   2   2   2   2   2
#     4  10  22  41  61  93 130 165 201 264 318 370
#     4  10  21  37  61  91 124 164 207 257 311 364
#     4  10  22  37  65  90 130 162 209 255 322 366
#     4  10  21  36  67  89 122 165 212 254 315 367
#     4  12  20  39  65  96 118 170 213 257 304 376
#     4  10  20  38  60  93 121 164 210 258 305 367
#     4  10  22  38  63  94 125 158 215 257 307 369
#
# _framework density 23.106126
#
# number of rings (size 3 to 8) (size 9 to 14) (size 15 to 20)
#    1.714    0.000    4.286    0.857    0.000    5.143 
#    0.000    0.000    0.000    0.857    0.000    0.000 
#    0.000    0.000    0.000    0.000    0.000    0.000 
#
# Total GULP energy -78003.351237 kJ/mol
# GULP energy per Si atom -5571.667945 kJ/mol
# Density = 2.305354 g / cm^3
# Si number density = 23.106126 Si / 1000 Ang^3
#
#
#
# Elastic Constant Matrix: (Units=GPa)
#
#
# Indices 1 2 3 4 5 6 
#
# 1 123.6170 23.2462 34.1905 6.3537 -17.3490 28.7456
# 2 23.2462 75.5685 21.9701 11.3690 -6.3929 25.8383
# 3 34.1905 21.9701 102.8470 22.4212 -6.7315 18.8469
# 4 6.3537 11.3690 22.4212 28.7881 -4.3791 -5.4567
# 5 -17.3490 -6.3929 -6.7315 -4.3791 30.0948 1.9445
# 6 28.7456 25.8383 18.8469 -5.4567 1.9445 37.1186
#
#
#
# Elastic Compliance Matrix: (Units=1/GPa)
#
#
# Indices 1 2 3 4 5 6 
#
# 1 0.011659 0.001252 -0.001182 -0.003008 0.006938 -0.010106
# 2 0.001252 0.021019 0.001531 -0.012527 0.004900 -0.018477
# 3 -0.001182 0.001531 0.014527 -0.013228 0.001586 -0.009555
# 4 -0.003008 -0.012527 -0.013228 0.055424 -0.000966 0.025964
# 5 0.006938 0.004900 0.001586 -0.000966 0.039245 -0.011788
# 6 -0.010106 -0.018477 -0.009555 0.025964 -0.011788 0.056915
#
#
# Mechanical properties :
#
#
# Convention : Reuss Voigt Hill
#
# Bulk Modulus (GPa) = 19.83764 51.20512 35.52138
# Shear Modulus (GPa) = 23.54152 34.04202 28.79177
#
# Velocity S-wave (km/s) = 3.19540 3.84251 3.53380
# Velocity P-wave (km/s) = 4.71361 6.47267 5.66187
#
# Compressibility (1/GPa) = 0.05040922
#
# Stress axis : x y z
#
# Youngs Moduli (GPa) = 85.76782 47.57490 68.83508
#
# Poissons Ratio (x) = -0.05956 0.08134
# Poissons Ratio (y) = -0.10738 -0.10540
# Poissons Ratio (z) = 0.10135 -0.07284
#
# Static dielectric constant tensor:
#      x y z
#    x 1.846840 0.029660 0.022340 
#    y 0.029660 2.010220 0.019880 
#    z 0.022340 0.019880 1.854380 
# 
# From -- ./inp_files/588579.got.cif
#   From: 2010.05.17/outbox.cif.g08.bks.cpg/sg2_295_cif.got.tgz:588579.got - 2010.06.03 11:33:40.
