data_PCOD9101473
_publ_section_title
;
Structure prediction by ZEFSAII (Michael W. Deem and Ramdas Pophale) SiO2 
 PCOD9101473
Probable space group: P -1
;
_chemical_formula_sum "Si O2"
_cell_formula_units_Z 14
_cell_length_a 13.375406
_cell_length_b 12.382603
_cell_length_c 11.695068
_cell_angle_alpha 113.534368
_cell_angle_beta 148.296260
_cell_angle_gamma 45.129996
_cell_volume 607.433341
_symmetry_space_group_name_H-M "P -1"
_symmetry_group_IT_number 2
_symmetry_cell_setting 'triclinic'
loop_
_space_group_symop_operation_xyz
x,y,z
-x,-y,-z
loop_
_atom_site_type_symbol
_atom_site_label
_atom_site_fract_x
_atom_site_fract_y
_atom_site_fract_z
Si Si1 0.865255 0.818111 0.397074
Si Si2 0.813325 0.562577 0.458238
Si Si3 0.600496 0.329330 0.466143
Si Si4 0.755153 0.925284 0.088049
Si Si5 0.746225 0.715409 0.834942
Si Si6 0.722929 0.307412 0.066148
Si Si7 0.912924 0.381607 0.079715
O O1 0.780231 0.930921 0.250653
O O2 0.092914 0.613363 0.488096
O O3 0.009382 0.824836 0.640986
O O4 0.575628 0.885019 0.185758
O O5 0.000000 0.500000 0.500000
O O6 0.923533 0.599074 0.676023
O O7 0.470812 0.714433 0.161495
O O8 0.500000 0.500000 0.500000
O O9 0.524794 0.245417 0.426006
O O10 0.943900 0.169231 0.709346
O O11 0.392545 0.428359 0.192379
O O12 0.740404 0.795922 0.976841
O O13 0.856041 0.747993 0.853203
O O14 0.000000 0.500000 0.000000
O O15 0.833792 0.313904 0.059797
O O16 0.500000 0.500000 0.000000
#
# Coordination Sequence:
#
# PCOD9101473 Si02
#       7
#     2   2   2   2   2   2   2
#     4  10  22  40  61  90 125 160 191 248 307 357
#     4  11  21  37  61  88 121 154 202 247 287 356
#     4  11  21  36  62  91 117 158 200 248 297 355
#     4  11  22  41  59  90 130 154 194 250 305 357
#     4  10  21  37  58  88 116 157 205 243 291 353
#     4  10  20  38  59  88 115 161 202 243 294 350
#     4  11  21  35  63  91 117 152 210 250 291 344
#
# _framework density 23.047794
#
# number of rings (size 3 to 8) (size 9 to 14) (size 15 to 20)
#    0.000    1.429    5.714    3.429    2.000    0.000 
#    2.571    2.857    0.000    1.714    0.000    0.000 
#    0.000    0.000    0.000    0.000    0.000    0.000 
#
# Total GULP energy -78096.531193 kJ/mol
# GULP energy per Si atom -5578.323657 kJ/mol
# Density = 2.299534 g / cm^3
# Si number density = 23.047794 Si / 1000 Ang^3
#
#
#
# Elastic Constant Matrix: (Units=GPa)
#
#
# Indices 1 2 3 4 5 6 
#
# 1 117.1610 29.9962 64.2574 12.9871 29.0223 -19.1688
# 2 29.9962 36.5693 18.9982 3.0879 0.5987 -6.5355
# 3 64.2574 18.9982 200.1800 16.8577 23.8419 -10.2782
# 4 12.9871 3.0879 16.8577 30.5472 -7.9341 5.7160
# 5 29.0223 0.5987 23.8419 -7.9341 49.3171 2.8902
# 6 -19.1688 -6.5355 -10.2782 5.7160 2.8902 23.6623
#
#
#
# Elastic Compliance Matrix: (Units=1/GPa)
#
#
# Indices 1 2 3 4 5 6 
#
# 1 0.020174 -0.011171 -0.001707 -0.013439 -0.014098 0.017485
# 2 -0.011171 0.036419 -0.001143 0.003864 0.007384 -0.001323
# 3 -0.001707 -0.001143 0.006446 -0.003908 -0.002867 0.002395
# 4 -0.013439 0.003864 -0.003908 0.050100 0.019334 -0.025981
# 5 -0.014098 0.007384 -0.002867 0.019334 0.034121 -0.019465
# 6 0.017485 -0.001323 0.002395 -0.025981 -0.019465 0.065755
#
#
# Mechanical properties :
#
#
# Convention : Reuss Voigt Hill
#
# Bulk Modulus (GPa) = 28.57453 64.49042 46.53248
# Shear Modulus (GPa) = 19.78464 36.74921 28.26692
#
# Velocity S-wave (km/s) = 2.93306 3.99742 3.50587
# Velocity P-wave (km/s) = 4.88828 7.02480 6.05157
#
# Compressibility (1/GPa) = 0.03499620
#
# Stress axis : x y z
#
# Youngs Moduli (GPa) = 49.56810 27.45838 155.14585
#
# Poissons Ratio (x) = 0.30673 0.26485
# Poissons Ratio (y) = 0.55372 0.17737
# Poissons Ratio (z) = 0.08462 0.03139
#
# Static dielectric constant tensor:
#      x y z
#    x 1.992180 0.001270 0.003000 
#    y 0.001270 1.888820 -0.041730 
#    z 0.003000 -0.041730 1.940170 
# 
# From -- ./inp_files/455842.got.cif
#   From: 2010.05.17/outbox.cif.g08.bks.cpg/sg2_228_cif.got.tgz:455842.got - 2010.06.03 11:33:40.
