data_PCOD9101167
_publ_section_title
;
Structure prediction by ZEFSAII (Michael W. Deem and Ramdas Pophale) SiO2 
 PCOD9101167
Probable space group: P -1
;
_chemical_formula_sum "Si O2"
_cell_formula_units_Z 14
_cell_length_a 13.655829
_cell_length_b 10.535190
_cell_length_c 7.864380
_cell_angle_alpha 85.578933
_cell_angle_beta 67.721009
_cell_angle_gamma 137.796371
_cell_volume 575.028921
_symmetry_space_group_name_H-M "P -1"
_symmetry_group_IT_number 2
_symmetry_cell_setting 'triclinic'
loop_
_space_group_symop_operation_xyz
x,y,z
-x,-y,-z
loop_
_atom_site_type_symbol
_atom_site_label
_atom_site_fract_x
_atom_site_fract_y
_atom_site_fract_z
Si Si1 0.520646 0.397377 0.375650
Si Si2 0.595007 0.187674 0.779066
Si Si3 0.088171 0.963031 0.724477
Si Si4 0.291504 0.754322 0.856020
Si Si5 0.054812 0.490227 0.692931
Si Si6 0.319832 0.531342 0.046685
Si Si7 0.923319 0.764075 0.228845
O O1 0.500000 0.500000 0.500000
O O2 0.703676 0.519121 0.338912
O O3 0.302125 0.127554 0.533999
O O4 0.591358 0.493167 0.123207
O O5 0.800060 0.337719 0.572456
O O6 0.611485 0.345635 0.830555
O O7 0.448227 0.022894 0.736313
O O8 0.500000 0.000000 0.000000
O O9 0.909513 0.717644 0.774297
O O10 0.074940 0.101755 0.685626
O O11 0.043172 0.901386 0.961399
O O12 0.184958 0.638853 0.760941
O O13 0.375342 0.703183 0.863808
O O14 0.131114 0.619848 0.119370
O O15 0.002443 0.288723 0.727762
#
# Coordination Sequence:
#
# PCOD9101167 Si02
#       7
#     2   2   2   2   2   2   2
#     4   9  17  31  56  84 113 148 190 234 280 333
#     4  10  24  40  57  80 122 161 192 235 286 348
#     4   9  17  32  58  82 114 145 187 237 286 336
#     4  10  22  39  60  90 113 153 196 242 290 337
#     4  11  21  39  60  86 120 146 198 241 289 343
#     4  10  20  38  56  89 116 150 197 231 287 350
#     4   9  18  34  54  88 112 143 190 239 284 337
#
# _framework density 24.346603000000002
#
# number of rings (size 3 to 8) (size 9 to 14) (size 15 to 20)
#    0.000    2.286    2.857    1.286    0.000    6.857 
#    0.000    0.714    0.000    4.286    0.000    0.000 
#    0.000    0.000    0.000    0.000    0.000    0.000 
#
# Total GULP energy -78077.388257 kJ/mol
# GULP energy per Si atom -5576.956304 kJ/mol
# Density = 2.429119 g / cm^3
# Si number density = 24.346603 Si / 1000 Ang^3
#
#
#
# Elastic Constant Matrix: (Units=GPa)
#
#
# Indices 1 2 3 4 5 6 
#
# 1 9.9196 -1.4737 13.9890 0.7216 -6.7297 -9.5616
# 2 -1.4737 138.4771 11.2838 -7.9456 -6.7861 3.1950
# 3 13.9890 11.2838 144.0117 -10.6592 -24.0838 -2.8322
# 4 0.7216 -7.9456 -10.6592 38.7448 3.3414 -4.3983
# 5 -6.7297 -6.7861 -24.0838 3.3414 32.3604 -0.1680
# 6 -9.5616 3.1950 -2.8322 -4.3983 -0.1680 24.1651
#
#
#
# Elastic Compliance Matrix: (Units=1/GPa)
#
#
# Indices 1 2 3 4 5 6 
#
# 1 0.238475 0.003535 -0.015048 -0.000807 0.039697 0.092257
# 2 0.003535 0.007446 -0.000526 0.001230 0.001781 0.000589
# 3 -0.015048 -0.000526 0.009046 0.001872 0.003276 -0.004461
# 4 -0.000807 0.001230 0.001872 0.027237 -0.001305 0.004686
# 5 0.039697 0.001781 0.003276 -0.001305 0.042186 0.015912
# 6 0.092257 0.000589 -0.004461 0.004686 0.015912 0.078249
#
#
# Mechanical properties :
#
#
# Convention : Reuss Voigt Hill
#
# Bulk Modulus (GPa) = 4.33113 37.77851 21.05482
# Shear Modulus (GPa) = 9.92692 36.96136 23.44414
#
# Velocity S-wave (km/s) = 2.02143 3.90055 3.10648
# Velocity P-wave (km/s) = 2.68906 5.98635 4.64044
#
# Compressibility (1/GPa) = 0.23088638
#
# Stress axis : x y z
#
# Youngs Moduli (GPa) = 4.19331 134.29735 110.55198
#
# Poissons Ratio (x) = -0.47468 1.66363
# Poissons Ratio (y) = -0.01482 0.05819
# Poissons Ratio (z) = 0.06310 0.07069
#
# Static dielectric constant tensor:
#      x y z
#    x 1.996720 0.006060 0.005110 
#    y 0.006060 2.032160 0.046100 
#    z 0.005110 0.046100 1.993180 
# 
# From -- ./inp_files/253316.got.cif
#   From: 2010.05.17/outbox.cif.g08.bks.cpg/sg2_127_cif.got.tgz:253316.got - 2010.06.03 11:33:40.
