data_PCOD9101757
_publ_section_title
;
Structure prediction by ZEFSAII (Michael W. Deem and Ramdas Pophale) SiO2 
 PCOD9101757
Probable space group: P -1
;
_chemical_formula_sum "Si O2"
_cell_formula_units_Z 14
_cell_length_a 8.918259
_cell_length_b 14.152488
_cell_length_c 9.704395
_cell_angle_alpha 49.878519
_cell_angle_beta 62.525165
_cell_angle_gamma 39.029196
_cell_volume 587.840481
_symmetry_space_group_name_H-M "P -1"
_symmetry_group_IT_number 2
_symmetry_cell_setting 'triclinic'
loop_
_space_group_symop_operation_xyz
x,y,z
-x,-y,-z
loop_
_atom_site_type_symbol
_atom_site_label
_atom_site_fract_x
_atom_site_fract_y
_atom_site_fract_z
Si Si1 0.629016 0.992605 0.648352
Si Si2 0.555609 0.155018 0.255210
Si Si3 0.591757 0.378115 0.909660
Si Si4 0.570307 0.364481 0.483087
Si Si5 0.902185 0.097987 0.791310
Si Si6 0.050633 0.195547 0.046353
Si Si7 0.791274 0.672538 0.335862
O O1 0.618459 0.109269 0.432716
O O2 0.372647 0.143553 0.688212
O O3 0.612421 0.871934 0.687957
O O4 0.838781 0.878057 0.779449
O O5 0.448219 0.337338 0.071358
O O6 0.819096 0.016004 0.206045
O O7 0.453497 0.560947 0.724659
O O8 0.753669 0.241646 0.840085
O O9 0.771877 0.326409 0.002299
O O10 0.500000 0.500000 0.500000
O O11 0.827600 0.187827 0.588653
O O12 0.390141 0.344634 0.600828
O O13 0.850686 0.977942 0.913413
O O14 0.121142 0.292492 0.863519
O O15 0.000000 0.500000 0.500000
#
# Coordination Sequence:
#
# PCOD9101757 Si02
#       7
#     2   2   2   2   2   2   2
#     4  11  24  40  61  90 116 162 197 246 300 340
#     4  10  23  41  61  85 125 154 200 245 293 356
#     4  10  20  38  60  91 120 158 192 244 296 350
#     4  10  22  36  57  93 120 153 193 240 306 342
#     4  10  20  38  62  89 118 157 200 241 291 351
#     4  11  21  36  63  87 114 153 203 245 291 339
#     4  12  23  39  61  90 122 150 199 253 287 352
#
# _framework density 23.815982999999999
#
# number of rings (size 3 to 8) (size 9 to 14) (size 15 to 20)
#    0.000    1.429    2.857    3.857    6.000    2.286 
#    0.000    2.143    0.000    3.429    0.000    0.000 
#    0.000    0.000    0.000    0.000    0.000    0.000 
#
# Total GULP energy -78146.790345 kJ/mol
# GULP energy per Si atom -5581.913596 kJ/mol
# Density = 2.376178 g / cm^3
# Si number density = 23.815983 Si / 1000 Ang^3
#
#
#
# Elastic Constant Matrix: (Units=GPa)
#
#
# Indices 1 2 3 4 5 6 
#
# 1 83.4459 8.7027 47.6184 -8.3932 17.0206 16.7977
# 2 8.7027 31.7397 12.0919 -6.1949 7.5006 6.5207
# 3 47.6184 12.0919 201.6203 -15.6893 19.9765 8.6012
# 4 -8.3932 -6.1949 -15.6893 36.8937 -3.5566 2.4874
# 5 17.0206 7.5006 19.9765 -3.5566 53.0882 -12.0803
# 6 16.7977 6.5207 8.6012 2.4874 -12.0803 25.0733
#
#
#
# Elastic Compliance Matrix: (Units=1/GPa)
#
#
# Indices 1 2 3 4 5 6 
#
# 1 0.018941 0.002206 -0.002690 0.003818 -0.008997 -0.017054
# 2 0.002206 0.037936 -0.000685 0.006798 -0.009025 -0.016131
# 3 -0.002690 -0.000685 0.005944 0.001729 -0.001364 -0.000887
# 4 0.003818 0.006798 0.001729 0.030196 -0.002935 -0.009329
# 5 -0.008997 -0.009025 -0.001364 -0.002935 0.028517 0.022873
# 6 -0.017054 -0.016131 -0.000887 -0.009329 0.022873 0.067754
#
#
# Mechanical properties :
#
#
# Convention : Reuss Voigt Hill
#
# Bulk Modulus (GPa) = 16.53342 50.40356 33.46849
# Shear Modulus (GPa) = 23.60883 39.57056 31.58970
#
# Velocity S-wave (km/s) = 3.15191 4.08059 3.64594
# Velocity P-wave (km/s) = 4.49481 6.58872 5.63979
#
# Compressibility (1/GPa) = 0.06048356
#
# Stress axis : x y z
#
# Youngs Moduli (GPa) = 52.79639 26.36030 168.24731
#
# Poissons Ratio (x) = -0.05816 0.45253
# Poissons Ratio (y) = -0.11648 0.11523
# Poissons Ratio (z) = 0.14200 0.01805
#
# Static dielectric constant tensor:
#      x y z
#    x 1.939240 0.056900 -0.007050 
#    y 0.056900 2.060500 -0.042790 
#    z -0.007050 -0.042790 1.979190 
# 
# From -- ./inp_files/199071.got.cif
#   From: 2010.05.17/outbox.cif.g08.bks.cpg/sg2_100_cif.got.tgz:199071.got - 2010.06.03 11:33:40.
