data_PCOD9101712
_publ_section_title
;
Structure prediction by ZEFSAII (Michael W. Deem and Ramdas Pophale) SiO2 
 PCOD9101712
Probable space group: P -1
;
_chemical_formula_sum "Si O2"
_cell_formula_units_Z 16
_cell_length_a 9.597421
_cell_length_b 11.638176
_cell_length_c 19.805724
_cell_angle_alpha 127.192634
_cell_angle_beta 35.872503
_cell_angle_gamma 100.865515
_cell_volume 788.682624
_symmetry_space_group_name_H-M "P -1"
_symmetry_group_IT_number 2
_symmetry_cell_setting 'triclinic'
loop_
_space_group_symop_operation_xyz
x,y,z
-x,-y,-z
loop_
_atom_site_type_symbol
_atom_site_label
_atom_site_fract_x
_atom_site_fract_y
_atom_site_fract_z
Si Si1 0.805675 0.942691 0.140509
Si Si2 0.136648 0.511571 0.881188
Si Si3 0.745067 0.969861 0.015196
Si Si4 0.831964 0.651283 0.679032
Si Si5 0.161568 0.565011 0.650079
Si Si6 0.846044 0.772791 0.436109
Si Si7 0.583225 0.467321 0.780184
Si Si8 0.818745 0.389239 0.880780
O O1 0.712688 0.996596 0.117854
O O2 0.495431 0.047409 0.343460
O O3 0.007501 0.720789 0.991168
O O4 0.013653 0.001754 0.095163
O O5 0.487682 0.404472 0.731726
O O6 0.011007 0.459602 0.851718
O O7 0.000000 0.500000 0.000000
O O8 0.410643 0.134109 0.173330
O O9 0.900360 0.757709 0.860549
O O10 0.653518 0.596886 0.770392
O O11 0.000000 0.500000 0.500000
O O12 0.081867 0.610633 0.618778
O O13 0.500000 0.500000 0.500000
O O14 0.154228 0.402064 0.618653
O O15 0.117731 0.711664 0.360482
O O16 0.941197 0.780412 0.325573
O O17 0.314224 0.599099 0.989077
O O18 0.500000 0.500000 0.000000
#
# Coordination Sequence:
#
# PCOD9101712 Si02
#       8
#     2   2   2   2   2   2   2   2
#     4  11  22  37  62  92 124 162 209 256 307 374
#     4  10  20  39  64  85 115 164 206 246 315 366
#     4  11  22  38  59  90 131 166 206 256 314 365
#     4  11  23  38  62  90 129 168 207 256 309 372
#     4  11  22  37  60  94 128 166 210 252 312 375
#     4  10  20  38  60  89 121 160 208 254 302 369
#     4   9  19  37  58  84 119 156 204 246 306 360
#     4   9  19  37  62  85 112 155 200 251 305 357
#
# _framework density 20.286994
#
# number of rings (size 3 to 8) (size 9 to 14) (size 15 to 20)
#    0.000    1.750    2.500    2.625    1.750    1.000 
#    0.000    8.125    0.000    4.500    0.000    0.000 
#    0.000    0.000    0.000    0.000    0.000    0.000 
#
# Total GULP energy -89110.957507 kJ/mol
# GULP energy per Si atom -5569.434844 kJ/mol
# Density = 2.024082 g / cm^3
# Si number density = 20.286994 Si / 1000 Ang^3
#
#
#
# Elastic Constant Matrix: (Units=GPa)
#
#
# Indices 1 2 3 4 5 6 
#
# 1 151.7683 10.3353 32.3136 -2.1734 -13.4564 7.5559
# 2 10.3353 23.7613 -12.1090 -9.6524 -3.8283 -4.0998
# 3 32.3136 -12.1090 92.3660 -19.9911 3.5899 -3.5905
# 4 -2.1734 -9.6524 -19.9911 24.5494 -0.7991 4.8969
# 5 -13.4564 -3.8283 3.5899 -0.7991 23.4356 -3.0238
# 6 7.5559 -4.0998 -3.5905 4.8969 -3.0238 24.6049
#
#
#
# Elastic Compliance Matrix: (Units=1/GPa)
#
#
# Indices 1 2 3 4 5 6 
#
# 1 0.009080 -0.010406 -0.006505 -0.007771 0.003799 -0.003458
# 2 -0.010406 0.083498 0.025762 0.050798 0.006949 0.011612
# 3 -0.006505 0.025762 0.022554 0.027071 -0.001542 0.004004
# 4 -0.007771 0.050798 0.027071 0.082401 0.002329 -0.001312
# 5 0.003799 0.006949 -0.001542 0.002329 0.046957 0.005073
# 6 -0.003458 0.011612 0.004004 -0.001312 0.005073 0.045108
#
#
# Mechanical properties :
#
#
# Convention : Reuss Voigt Hill
#
# Bulk Modulus (GPa) = 7.52807 36.55281 22.04044
# Shear Modulus (GPa) = 15.81408 30.34171 23.07790
#
# Velocity S-wave (km/s) = 2.79501 3.87152 3.37645
# Velocity P-wave (km/s) = 3.75965 6.16781 5.10769
#
# Compressibility (1/GPa) = 0.13283623
#
# Stress axis : x y z
#
# Youngs Moduli (GPa) = 110.12811 11.97629 44.33767
#
# Poissons Ratio (x) = 0.12462 0.28841
# Poissons Ratio (y) = 1.14598 -1.14225
# Poissons Ratio (z) = 0.71637 -0.30854
#
# Static dielectric constant tensor:
#      x y z
#    x 1.791630 0.017300 0.031050 
#    y 0.017300 1.717690 -0.036070 
#    z 0.031050 -0.036070 1.656730 
# 
# From -- ./inp_files/186928.got.cif
#   From: 2010.05.17/outbox.cif.g08.bks.cpg/sg2_94_cif.got.tgz:186928.got - 2010.06.03 11:33:40.
