data_PCOD9101803
_publ_section_title
;
Structure prediction by ZEFSAII (Michael W. Deem and Ramdas Pophale) SiO2 
 PCOD9101803
Probable space group: P -1
;
_chemical_formula_sum "Si O2"
_cell_formula_units_Z 16
_cell_length_a 14.650690
_cell_length_b 18.459468
_cell_length_c 26.697104
_cell_angle_alpha 21.183227
_cell_angle_beta 162.390262
_cell_angle_gamma 149.769515
_cell_volume 768.842936
_symmetry_space_group_name_H-M "P -1"
_symmetry_group_IT_number 2
_symmetry_cell_setting 'triclinic'
loop_
_space_group_symop_operation_xyz
x,y,z
-x,-y,-z
loop_
_atom_site_type_symbol
_atom_site_label
_atom_site_fract_x
_atom_site_fract_y
_atom_site_fract_z
Si Si1 0.449287 0.703699 0.989474
Si Si2 0.897013 0.365035 0.986433
Si Si3 0.565631 0.919711 0.505522
Si Si4 0.196612 0.168294 0.986355
Si Si5 0.175652 0.376053 0.019010
Si Si6 0.649517 0.500216 0.327874
Si Si7 0.832462 0.021638 0.474414
Si Si8 0.125155 0.533694 0.783293
O O1 0.728731 0.794251 0.056426
O O2 0.448605 0.497064 0.091644
O O3 0.474506 0.637873 0.102231
O O4 0.116490 0.853652 0.709601
O O5 0.126318 0.143295 0.258415
O O6 0.966503 0.426876 0.926665
O O7 0.532748 0.394521 0.786377
O O8 0.000000 0.500000 0.000000
O O9 0.394724 0.733305 0.544418
O O10 0.333870 0.135946 0.255020
O O11 0.695683 0.935065 0.507860
O O12 0.537510 0.088745 0.240649
O O13 0.045235 0.381810 0.797505
O O14 0.000000 0.000000 0.000000
O O15 0.031868 0.457011 0.838119
O O16 0.000000 0.500000 0.500000
O O17 0.971410 0.221086 0.431230
O O18 0.500000 0.500000 0.000000
#
# Coordination Sequence:
#
# PCOD9101803 Si02
#       8
#     2   2   2   2   2   2   2   2
#     4  12  22  40  66  94 123 176 220 264 315 391
#     4  10  20  38  60  97 118 160 221 260 307 385
#     4  11  20  37  66  91 123 164 210 273 311 378
#     4  11  24  41  64  98 132 167 216 267 335 382
#     4  12  20  37  68  94 126 163 226 270 313 369
#     4  11  25  42  61  92 134 167 210 268 335 384
#     4  11  21  40  68  94 128 170 224 264 311 387
#     4  10  20  39  62  97 127 168 217 261 315 394
#
# _framework density 20.810493000000001
#
# number of rings (size 3 to 8) (size 9 to 14) (size 15 to 20)
#    0.000    1.000    8.750    1.500    1.750    0.000 
#    0.000    1.250    2.750    0.000    0.000    0.000 
#    0.000    0.000    0.000    0.000    0.000    0.000 
#
# Total GULP energy -89233.206548 kJ/mol
# GULP energy per Si atom -5577.075409 kJ/mol
# Density = 2.076313 g / cm^3
# Si number density = 20.810493 Si / 1000 Ang^3
#
#
#
# Elastic Constant Matrix: (Units=GPa)
#
#
# Indices 1 2 3 4 5 6 
#
# 1 168.6676 36.2313 24.6274 -8.7578 6.4713 34.0828
# 2 36.2313 89.3835 39.9451 -24.9311 16.2996 30.0035
# 3 24.6274 39.9451 66.1498 -14.5276 -2.2574 20.6840
# 4 -8.7578 -24.9311 -14.5276 27.7412 8.8463 -5.6367
# 5 6.4713 16.2996 -2.2574 8.8463 20.9904 0.6564
# 6 34.0828 30.0035 20.6840 -5.6367 0.6564 30.2757
#
#
#
# Elastic Compliance Matrix: (Units=1/GPa)
#
#
# Indices 1 2 3 4 5 6 
#
# 1 0.008046 0.003719 -0.000838 0.005599 -0.007475 -0.010966
# 2 0.003719 0.064402 -0.014344 0.068175 -0.080062 -0.043781
# 3 -0.000838 -0.014344 0.024157 -0.006456 0.016807 -0.002912
# 4 0.005599 0.068175 -0.006456 0.119908 -0.104492 -0.044865
# 5 -0.007475 -0.080062 0.016807 -0.104492 0.156289 0.053432
# 6 -0.010966 -0.043781 -0.002912 -0.044865 0.053432 0.081241
#
#
# Mechanical properties :
#
#
# Convention : Reuss Voigt Hill
#
# Bulk Modulus (GPa) = 13.57235 58.42317 35.99776
# Shear Modulus (GPa) = 9.96952 30.69462 20.33207
#
# Velocity S-wave (km/s) = 2.19112 3.84469 3.12911
# Velocity P-wave (km/s) = 3.59686 6.91691 5.51276
#
# Compressibility (1/GPa) = 0.07367922
#
# Stress axis : x y z
#
# Youngs Moduli (GPa) = 124.28943 15.52743 41.39559
#
# Poissons Ratio (x) = -0.05774 0.03467
# Poissons Ratio (y) = -0.46221 0.59379
# Poissons Ratio (z) = 0.10410 0.22273
#
# Static dielectric constant tensor:
#      x y z
#    x 1.797210 -0.010600 -0.004500 
#    y -0.010600 1.782170 0.000800 
#    z -0.004500 0.000800 1.801700 
# 
# From -- ./inp_files/619740.got.cif
#   From: 2010.05.17/outbox.cif.g08.bks.cpg/sg2_310_cif.got.tgz:619740.got - 2010.06.03 11:33:40.
