data_PCOD9101098
_publ_section_title
;
Structure prediction by ZEFSAII (Michael W. Deem and Ramdas Pophale) SiO2 
 PCOD9101098
Probable space group: P -1
;
_chemical_formula_sum "Si O2"
_cell_formula_units_Z 16
_cell_length_a 5.157203
_cell_length_b 11.535630
_cell_length_c 21.544702
_cell_angle_alpha 135.406009
_cell_angle_beta 70.258176
_cell_angle_gamma 101.193802
_cell_volume 844.891935
_symmetry_space_group_name_H-M "P -1"
_symmetry_group_IT_number 2
_symmetry_cell_setting 'triclinic'
loop_
_space_group_symop_operation_xyz
x,y,z
-x,-y,-z
loop_
_atom_site_type_symbol
_atom_site_label
_atom_site_fract_x
_atom_site_fract_y
_atom_site_fract_z
Si Si1 0.169786 0.858956 0.890541
Si Si2 0.690252 0.968668 0.910577
Si Si3 0.253289 0.207280 0.598243
Si Si4 0.922647 0.279803 0.948025
Si Si5 0.669356 0.528244 0.926263
Si Si6 0.852750 0.490046 0.200420
Si Si7 0.648836 0.742470 0.201263
Si Si8 0.681912 0.047750 0.599610
O O1 0.445913 0.930131 0.868832
O O2 0.930068 0.826189 0.848626
O O3 0.262967 0.689145 0.853169
O O4 0.000000 0.000000 0.000000
O O5 0.856946 0.121661 0.933604
O O6 0.500000 0.000000 0.000000
O O7 0.523079 0.146188 0.593010
O O8 0.192451 0.399184 0.692564
O O9 0.983556 0.116683 0.609654
O O10 0.290447 0.139569 0.499472
O O11 0.114475 0.402729 0.016324
O O12 0.091166 0.232562 0.854121
O O13 0.619662 0.370181 0.000075
O O14 0.826067 0.554464 0.858921
O O15 0.579628 0.342164 0.854213
O O16 0.737837 0.609648 0.198622
O O17 0.506740 0.903003 0.307430
#
# Coordination Sequence:
#
# PCOD9101098 Si02
#       8
#     2   2   2   2   2   2   2   2
#     4  10  21  34  52  71 101 135 179 217 255 299
#     4  10  20  38  50  69  93 142 181 222 251 291
#     4   9  18  32  53  76 104 137 167 215 261 320
#     4  12  25  36  53  73 110 145 186 211 260 313
#     4  12  22  35  47  78 107 144 173 211 252 318
#     4  11  22  35  57  81 107 140 178 217 271 313
#     4  11  24  35  54  80 109 144 173 217 266 324
#     4   9  18  34  50  75 108 134 170 209 266 318
#
# _framework density 18.937332999999999
#
# number of rings (size 3 to 8) (size 9 to 14) (size 15 to 20)
#    0.000    1.500    2.500    4.500    3.500    0.000 
#    0.000    0.000    0.000    0.000    0.000    1.750 
#    0.000    0.000    0.000    0.000    0.000    0.000 
#
# Total GULP energy -89088.212478 kJ/mol
# GULP energy per Si atom -5568.013280 kJ/mol
# Density = 1.889423 g / cm^3
# Si number density = 18.937333 Si / 1000 Ang^3
#
#
#
# Elastic Constant Matrix: (Units=GPa)
#
#
# Indices 1 2 3 4 5 6 
#
# 1 115.3351 15.6529 16.9715 -4.3083 -14.1101 15.8450
# 2 15.6529 72.6162 35.7360 1.2204 2.0524 7.5511
# 3 16.9715 35.7360 152.0176 -9.0445 4.1833 3.0878
# 4 -4.3083 1.2204 -9.0445 18.9027 6.5503 -2.3518
# 5 -14.1101 2.0524 4.1833 6.5503 16.9661 -3.6639
# 6 15.8450 7.5511 3.0878 -2.3518 -3.6639 18.9690
#
#
#
# Elastic Compliance Matrix: (Units=1/GPa)
#
#
# Indices 1 2 3 4 5 6 
#
# 1 0.010979 -0.001298 -0.001131 -0.001867 0.008775 -0.007007
# 2 -0.001298 0.016616 -0.003771 -0.003127 -0.002190 -0.005727
# 3 -0.001131 -0.003771 0.008015 0.005451 -0.004355 0.000976
# 4 -0.001867 -0.003127 0.005451 0.065112 -0.026610 0.004850
# 5 0.008775 -0.002190 -0.004355 -0.026610 0.079200 0.006249
# 6 -0.007007 -0.005727 0.000976 0.004850 0.006249 0.062500
#
#
# Mechanical properties :
#
#
# Convention : Reuss Voigt Hill
#
# Bulk Modulus (GPa) = 43.08182 52.96553 48.02367
# Shear Modulus (GPa) = 19.04330 29.07480 24.05905
#
# Velocity S-wave (km/s) = 3.17455 3.92256 3.56821
# Velocity P-wave (km/s) = 6.01964 6.96742 6.51080
#
# Compressibility (1/GPa) = 0.02321165
#
# Stress axis : x y z
#
# Youngs Moduli (GPa) = 91.08002 60.18136 124.76333
#
# Poissons Ratio (x) = 0.07812 0.14109
# Poissons Ratio (y) = 0.11824 0.47044
# Poissons Ratio (z) = 0.10300 0.22692
#
# Static dielectric constant tensor:
#      x y z
#    x 1.872660 -0.051430 0.058510 
#    y -0.051430 1.708470 0.000110 
#    z 0.058510 0.000110 1.708640 
# 
# From -- ./inp_files/615373.got.cif
#   From: 2010.05.17/outbox.cif.g08.bks.cpg/sg2_308_cif.got.tgz:615373.got - 2010.06.03 11:33:40.
