data_PCOD9101085
_publ_section_title
;
Structure prediction by ZEFSAII (Michael W. Deem and Ramdas Pophale) SiO2 
 PCOD9101085
Probable space group: P -1
;
_chemical_formula_sum "Si O2"
_cell_formula_units_Z 14
_cell_length_a 9.783715
_cell_length_b 9.252038
_cell_length_c 7.035516
_cell_angle_alpha 92.995805
_cell_angle_beta 70.153392
_cell_angle_gamma 98.799909
_cell_volume 591.972864
_symmetry_space_group_name_H-M "P -1"
_symmetry_group_IT_number 2
_symmetry_cell_setting 'triclinic'
loop_
_space_group_symop_operation_xyz
x,y,z
-x,-y,-z
loop_
_atom_site_type_symbol
_atom_site_label
_atom_site_fract_x
_atom_site_fract_y
_atom_site_fract_z
Si Si1 0.870854 0.644616 0.254410
Si Si2 0.024059 0.845127 0.890869
Si Si3 0.573852 0.796449 0.336087
Si Si4 0.652556 0.119605 0.242695
Si Si5 0.470759 0.501363 0.284294
Si Si6 0.760071 0.399681 0.015644
Si Si7 0.160751 0.368403 0.307159
O O1 0.727969 0.731541 0.295484
O O2 0.830647 0.479982 0.181479
O O3 0.911732 0.643325 0.453914
O O4 0.153971 0.512382 0.191550
O O5 0.999060 0.730278 0.070653
O O6 0.902957 0.772398 0.794477
O O7 0.187551 0.862161 0.726794
O O8 0.000000 0.000000 0.000000
O O9 0.610473 0.947919 0.217016
O O10 0.465114 0.672627 0.269400
O O11 0.480328 0.830148 0.569656
O O12 0.700062 0.228688 0.054147
O O13 0.500000 0.500000 0.500000
O O14 0.607055 0.465425 0.100892
O O15 0.330574 0.389589 0.288884
#
# Coordination Sequence:
#
# PCOD9101085 Si02
#       7
#     2   2   2   2   2   2   2
#     4  10  20  43  68  95 125 168 219 263 311 388
#     4  11  25  43  64  94 135 173 210 264 327 386
#     4  10  20  37  71  93 125 173 210 267 322 369
#     4  11  21  40  63  95 133 171 208 267 329 369
#     4  11  18  39  69  97 127 165 220 267 312 382
#     4  10  21  38  66  97 128 167 213 269 314 378
#     4  11  22  38  71  93 122 176 221 255 320 389
#
# _framework density 23.649733000000001
#
# number of rings (size 3 to 8) (size 9 to 14) (size 15 to 20)
#    0.000    1.429    5.714    0.429    0.000    2.857 
#    0.000    7.143    3.143    0.000    0.000    0.000 
#    0.000    0.000    0.000    0.000    0.000    0.000 
#
# Total GULP energy -78106.863552 kJ/mol
# GULP energy per Si atom -5579.061682 kJ/mol
# Density = 2.359591 g / cm^3
# Si number density = 23.649733 Si / 1000 Ang^3
#
#
#
# Elastic Constant Matrix: (Units=GPa)
#
#
# Indices 1 2 3 4 5 6 
#
# 1 74.7662 30.6381 43.1961 8.7648 2.7835 24.7762
# 2 30.6381 168.3270 45.8344 15.0072 11.6500 12.2309
# 3 43.1961 45.8344 111.0942 -6.7705 2.6047 2.0654
# 4 8.7648 15.0072 -6.7705 28.6557 -4.3324 -2.1204
# 5 2.7835 11.6500 2.6047 -4.3324 55.8065 -4.3338
# 6 24.7762 12.2309 2.0654 -2.1204 -4.3338 37.0277
#
#
#
# Elastic Compliance Matrix: (Units=1/GPa)
#
#
# Indices 1 2 3 4 5 6 
#
# 1 0.027977 0.001003 -0.011685 -0.013848 -0.003658 -0.019621
# 2 0.001003 0.007738 -0.003821 -0.005865 -0.002223 -0.003610
# 3 -0.011685 -0.003821 0.015526 0.010239 0.002154 0.009053
# 4 -0.013848 -0.005865 0.010239 0.046589 0.006143 0.014019
# 5 -0.003658 -0.002223 0.002154 0.006143 0.019383 0.005682
# 6 -0.019621 -0.003610 0.009053 0.014019 0.005682 0.042291
#
#
# Mechanical properties :
#
#
# Convention : Reuss Voigt Hill
#
# Bulk Modulus (GPa) = 44.97387 65.94717 55.46052
# Shear Modulus (GPa) = 25.52052 39.93258 32.72655
#
# Velocity S-wave (km/s) = 3.28854 4.11359 3.72398
# Velocity P-wave (km/s) = 5.78595 7.10688 6.48016
#
# Compressibility (1/GPa) = 0.02223513
#
# Stress axis : x y z
#
# Youngs Moduli (GPa) = 35.74416 129.23968 64.40671
#
# Poissons Ratio (x) = -0.12965 0.75261
# Poissons Ratio (y) = -0.03586 0.24607
# Poissons Ratio (z) = 0.41768 0.49377
#
# Static dielectric constant tensor:
#      x y z
#    x 2.060080 -0.078860 -0.034210 
#    y -0.078860 1.975160 -0.035160 
#    z -0.034210 -0.035160 1.916320 
# 
# From -- ./inp_files/377053.got.cif
#   From: 2010.05.17/outbox.cif.g08.bks.cpg/sg2_189_cif.got.tgz:377053.got - 2010.06.03 11:33:40.
