data_PCOD9101260
_publ_section_title
;
Structure prediction by ZEFSAII (Michael W. Deem and Ramdas Pophale) SiO2 
 PCOD9101260
Probable space group: P -1
;
_chemical_formula_sum "Si O2"
_cell_formula_units_Z 14
_cell_length_a 9.028038
_cell_length_b 25.474800
_cell_length_c 18.992249
_cell_angle_alpha 159.528487
_cell_angle_beta 143.227864
_cell_angle_gamma 24.142354
_cell_volume 578.805531
_symmetry_space_group_name_H-M "P -1"
_symmetry_group_IT_number 2
_symmetry_cell_setting 'triclinic'
loop_
_space_group_symop_operation_xyz
x,y,z
-x,-y,-z
loop_
_atom_site_type_symbol
_atom_site_label
_atom_site_fract_x
_atom_site_fract_y
_atom_site_fract_z
Si Si1 0.459840 0.846504 0.772083
Si Si2 0.408374 0.896947 0.528518
Si Si3 0.569640 0.320332 0.020113
Si Si4 0.554558 0.298050 0.274235
Si Si5 0.499997 0.706263 0.464021
Si Si6 0.557143 0.134483 0.654811
Si Si7 0.505947 0.190288 0.971858
O O1 0.607904 0.683165 0.689502
O O2 0.629312 0.729097 0.612985
O O3 0.994526 0.042927 0.835300
O O4 0.500000 0.000000 0.000000
O O5 0.624191 0.726684 0.464546
O O6 0.600024 0.789070 0.388939
O O7 0.347908 0.101491 0.777799
O O8 0.000000 0.000000 0.500000
O O9 0.393295 0.332608 0.897031
O O10 0.405854 0.354317 0.077316
O O11 0.600249 0.483810 0.227997
O O12 0.500000 0.500000 0.500000
O O13 0.394399 0.291151 0.134936
O O14 0.021178 0.046738 0.140768
O O15 0.024028 0.937215 0.574500
O O16 0.500000 0.000000 0.500000
#
# Coordination Sequence:
#
# PCOD9101260 Si02
#       7
#     2   2   2   2   2   2   2
#     4  10  21  37  57  82 120 152 185 238 289 338
#     4  10  21  39  59  85 119 154 189 238 291 341
#     4  10  21  37  59  84 113 153 194 234 286 343
#     4  10  21  36  59  87 110 150 197 235 285 342
#     4  10  22  37  58  86 114 149 195 232 286 344
#     4  10  20  39  59  80 116 148 187 237 284 335
#     4  10  20  38  58  82 119 150 188 242 286 337
#
# _framework density 24.187743000000001
#
# number of rings (size 3 to 8) (size 9 to 14) (size 15 to 20)
#    0.000    2.000    1.429    1.714    0.000    2.857 
#    0.000    0.000    0.000    0.000    0.000    0.000 
#    0.000    0.000    0.000    0.000    0.000    0.000 
#
# Total GULP energy -78320.129010 kJ/mol
# GULP energy per Si atom -5594.294929 kJ/mol
# Density = 2.413269 g / cm^3
# Si number density = 24.187743 Si / 1000 Ang^3
#
#
#
# Elastic Constant Matrix: (Units=GPa)
#
#
# Indices 1 2 3 4 5 6 
#
# 1 192.5300 53.1396 79.2087 -17.6026 -10.5304 72.3450
# 2 53.1396 95.8932 27.3393 -12.2263 -17.3749 40.9466
# 3 79.2087 27.3393 138.5193 -40.5010 -2.9834 55.1819
# 4 -17.6026 -12.2263 -40.5010 49.6892 3.7744 -9.3211
# 5 -10.5304 -17.3749 -2.9834 3.7744 52.3177 4.3412
# 6 72.3450 40.9466 55.1819 -9.3211 4.3412 66.4223
#
#
#
# Elastic Compliance Matrix: (Units=1/GPa)
#
#
# Indices 1 2 3 4 5 6 
#
# 1 0.009458 -0.000684 -0.001877 -0.000112 0.002282 -0.008486
# 2 -0.000684 0.016648 0.003073 0.003635 0.006298 -0.011973
# 3 -0.001877 0.003073 0.015129 0.010213 0.001690 -0.011096
# 4 -0.000112 0.003635 0.010213 0.028026 0.000300 -0.006689
# 5 0.002282 0.006298 0.001690 0.000300 0.022503 -0.009200
# 6 -0.008486 -0.011973 -0.011096 -0.006689 -0.009200 0.040559
#
#
# Mechanical properties :
#
#
# Convention : Reuss Voigt Hill
#
# Bulk Modulus (GPa) = 23.66312 82.92420 53.29366
# Shear Modulus (GPa) = 34.39191 51.50283 42.94737
#
# Velocity S-wave (km/s) = 3.77486 4.61943 4.21834
# Velocity P-wave (km/s) = 5.36692 7.92529 6.76809
#
# Compressibility (1/GPa) = 0.04225986
#
# Stress axis : x y z
#
# Youngs Moduli (GPa) = 105.73293 60.06798 66.10026
#
# Poissons Ratio (x) = 0.04106 0.12404
# Poissons Ratio (y) = 0.07228 -0.20313
# Poissons Ratio (z) = 0.19842 -0.18459
#
# Static dielectric constant tensor:
#      x y z
#    x 2.203770 -0.324480 -0.175490 
#    y -0.324480 2.365730 0.147370 
#    z -0.175490 0.147370 1.901670 
# 
# From -- ./inp_files/37017.got.cif
#   From: 2010.05.17/outbox.cif.g08.bks.cpg/sg2_19_cif.got.tgz:37017.got - 2010.06.03 11:33:40.
