data_PCOD9101254
_publ_section_title
;
Structure prediction by ZEFSAII (Michael W. Deem and Ramdas Pophale) SiO2 
 PCOD9101254
Probable space group: P -1
;
_chemical_formula_sum "Si O2"
_cell_formula_units_Z 14
_cell_length_a 18.395275
_cell_length_b 15.957854
_cell_length_c 8.138296
_cell_angle_alpha 54.655130
_cell_angle_beta 40.283912
_cell_angle_gamma 24.039002
_cell_volume 562.323400
_symmetry_space_group_name_H-M "P -1"
_symmetry_group_IT_number 2
_symmetry_cell_setting 'triclinic'
loop_
_space_group_symop_operation_xyz
x,y,z
-x,-y,-z
loop_
_atom_site_type_symbol
_atom_site_label
_atom_site_fract_x
_atom_site_fract_y
_atom_site_fract_z
Si Si1 0.527510 0.413482 0.766747
Si Si2 0.885645 0.674088 0.641144
Si Si3 0.958331 0.817657 0.194523
Si Si4 0.245662 0.306495 0.680496
Si Si5 0.269600 0.814991 0.671990
Si Si6 0.401154 0.987593 0.971567
Si Si7 0.646569 0.135675 0.083768
O O1 0.487593 0.569232 0.663356
O O2 0.693498 0.243822 0.515497
O O3 0.615026 0.280477 0.927362
O O4 0.242882 0.608212 0.996027
O O5 0.930156 0.719449 0.370823
O O6 0.648409 0.796336 0.874972
O O7 0.123717 0.415652 0.585897
O O8 0.822021 0.801683 0.758244
O O9 0.754217 0.045845 0.401240
O O10 0.893875 0.909017 0.019380
O O11 0.423071 0.262244 0.428658
O O12 0.396163 0.084635 0.737233
O O13 0.000000 0.500000 0.000000
O O14 0.000000 0.000000 0.000000
O O15 0.360238 0.918750 0.016643
#
# Coordination Sequence:
#
# PCOD9101254 Si02
#       7
#     2   2   2   2   2   2   2
#     4  10  22  44  66  93 119 159 201 249 313 369
#     4  10  20  38  58  81 120 169 207 246 302 347
#     4  11  22  39  62  95 124 158 202 254 305 363
#     4  10  21  37  55  84 123 166 206 248 295 347
#     4   9  21  45  71  88 123 155 196 254 313 374
#     4  10  22  37  56  82 123 167 209 251 290 352
#     4  12  23  38  59  92 126 158 208 252 298 361
#
# _framework density 24.896706999999999
#
# number of rings (size 3 to 8) (size 9 to 14) (size 15 to 20)
#    0.000    1.714    2.857    1.286    0.000    2.286 
#    5.143    6.429    0.000    0.000    0.000    0.000 
#    0.000    0.000    0.000    0.000    0.000    0.000 
#
# Total GULP energy -78186.930554 kJ/mol
# GULP energy per Si atom -5584.780754 kJ/mol
# Density = 2.484004 g / cm^3
# Si number density = 24.896707 Si / 1000 Ang^3
#
#
#
# Elastic Constant Matrix: (Units=GPa)
#
#
# Indices 1 2 3 4 5 6 
#
# 1 64.1718 25.5489 3.0754 10.1820 10.0915 9.1830
# 2 25.5489 173.0491 34.6838 -29.2954 0.2439 -18.6735
# 3 3.0754 34.6838 71.2843 -5.5729 16.1530 20.5143
# 4 10.1820 -29.2954 -5.5729 53.1298 3.2231 4.4275
# 5 10.0915 0.2439 16.1530 3.2231 28.0055 10.3530
# 6 9.1830 -18.6735 20.5143 4.4275 10.3530 40.5926
#
#
#
# Elastic Compliance Matrix: (Units=1/GPa)
#
#
# Indices 1 2 3 4 5 6 
#
# 1 0.020783 -0.005917 0.005359 -0.005613 -0.007026 -0.007728
# 2 -0.005917 0.009790 -0.007056 0.004954 0.002505 0.008229
# 3 0.005359 -0.007056 0.023414 -0.000706 -0.010267 -0.013596
# 4 -0.005613 0.004954 -0.000706 0.022466 -0.000814 0.001663
# 5 -0.007026 0.002505 -0.010267 -0.000814 0.045564 -0.003602
# 6 -0.007728 0.008229 -0.013596 0.001663 -0.003602 0.037777
#
#
# Mechanical properties :
#
#
# Convention : Reuss Voigt Hill
#
# Bulk Modulus (GPa) = 25.79987 48.34683 37.07335
# Shear Modulus (GPa) = 26.60396 40.69207 33.64802
#
# Velocity S-wave (km/s) = 3.27245 4.04720 3.68027
# Velocity P-wave (km/s) = 4.96627 6.42658 5.74303
#
# Compressibility (1/GPa) = 0.03875989
#
# Stress axis : x y z
#
# Youngs Moduli (GPa) = 48.11538 102.14869 42.70879
#
# Poissons Ratio (x) = 0.60440 -0.22889
# Poissons Ratio (y) = 0.28469 0.30137
# Poissons Ratio (z) = -0.25787 0.72079
#
# Static dielectric constant tensor:
#      x y z
#    x 2.047640 0.050010 0.061280 
#    y 0.050010 2.006390 -0.015820 
#    z 0.061280 -0.015820 2.056380 
# 
# From -- ./inp_files/348305.got.cif
#   From: 2010.05.17/outbox.cif.g08.bks.cpg/sg2_175_cif.got.tgz:348305.got - 2010.06.03 11:33:40.
