data_PCOD9101766
_publ_section_title
;
Structure prediction by ZEFSAII (Michael W. Deem and Ramdas Pophale) SiO2 
 PCOD9101766
Probable space group: P -1
;
_chemical_formula_sum "Si O2"
_cell_formula_units_Z 14
_cell_length_a 11.408544
_cell_length_b 7.444536
_cell_length_c 8.769946
_cell_angle_alpha 125.661010
_cell_angle_beta 102.639038
_cell_angle_gamma 85.816696
_cell_volume 589.103005
_symmetry_space_group_name_H-M "P -1"
_symmetry_group_IT_number 2
_symmetry_cell_setting 'triclinic'
loop_
_space_group_symop_operation_xyz
x,y,z
-x,-y,-z
loop_
_atom_site_type_symbol
_atom_site_label
_atom_site_fract_x
_atom_site_fract_y
_atom_site_fract_z
Si Si1 0.119009 0.017741 0.727549
Si Si2 0.191458 0.430445 0.727862
Si Si3 0.138381 0.541421 0.429136
Si Si4 0.399363 0.538148 0.363352
Si Si5 0.972981 0.307838 0.021490
Si Si6 0.548096 0.689911 0.225064
Si Si7 0.618923 0.908026 0.060743
O O1 0.150231 0.215981 0.713427
O O2 0.242952 0.989739 0.845584
O O3 0.089309 0.784731 0.523783
O O4 0.011829 0.088515 0.841467
O O5 0.134584 0.459038 0.560589
O O6 0.331291 0.406024 0.723597
O O7 0.157491 0.643385 0.924436
O O8 0.275129 0.577471 0.427727
O O9 0.065432 0.369619 0.214480
O O10 0.500000 0.500000 0.500000
O O11 0.454226 0.718434 0.346633
O O12 0.373449 0.322254 0.141889
O O13 0.000000 0.500000 0.000000
O O14 0.585348 0.888548 0.220709
O O15 0.500000 0.500000 0.000000
O O16 0.500000 0.000000 0.000000
#
# Coordination Sequence:
#
# PCOD9101766 Si02
#       7
#     2   2   2   2   2   2   2
#     4  10  23  43  64  95 127 169 215 259 323 378
#     4  10  22  42  65  93 130 165 214 268 310 380
#     4  12  23  42  68  93 130 167 213 266 320 379
#     4  11  20  37  62  91 127 165 205 261 321 369
#     4  10  23  44  68  91 129 169 212 268 318 376
#     4   9  20  36  61  89 126 166 206 255 321 374
#     4  10  20  38  60  91 130 165 211 262 312 384
#
# _framework density 23.764945999999998
#
# number of rings (size 3 to 8) (size 9 to 14) (size 15 to 20)
#    0.000    1.714    2.857    1.286    4.000    2.857 
#    2.571    5.000    0.000    0.000    0.000    0.000 
#    0.000    0.000    0.000    0.000    0.000    0.000 
#
# Total GULP energy -78230.516542 kJ/mol
# GULP energy per Si atom -5587.894039 kJ/mol
# Density = 2.371086 g / cm^3
# Si number density = 23.764946 Si / 1000 Ang^3
#
#
#
# Elastic Constant Matrix: (Units=GPa)
#
#
# Indices 1 2 3 4 5 6 
#
# 1 107.2323 34.4030 12.7916 0.6473 -30.5375 -6.1740
# 2 34.4030 72.1160 23.2107 -8.6882 -19.9978 -2.5433
# 3 12.7916 23.2107 83.3540 -1.6767 -30.1633 4.5583
# 4 0.6473 -8.6882 -1.6767 42.1483 -5.8117 -2.3574
# 5 -30.5375 -19.9978 -30.1633 -5.8117 49.7909 -6.0306
# 6 -6.1740 -2.5433 4.5583 -2.3574 -6.0306 36.1482
#
#
#
# Elastic Compliance Matrix: (Units=1/GPa)
#
#
# Indices 1 2 3 4 5 6 
#
# 1 0.012882 -0.004521 0.001872 0.000155 0.007591 0.002922
# 2 -0.004521 0.018618 -0.003248 0.004357 0.003465 0.001810
# 3 0.001872 -0.003248 0.016189 0.001280 0.009772 -0.000236
# 4 0.000155 0.004357 0.001280 0.025653 0.005958 0.002839
# 5 0.007591 0.003465 0.009772 0.005958 0.033508 0.006287
# 6 0.002922 0.001810 -0.000236 0.002839 0.006287 0.029554
#
#
# Mechanical properties :
#
#
# Convention : Reuss Voigt Hill
#
# Bulk Modulus (GPa) = 27.85881 44.83478 36.34680
# Shear Modulus (GPa) = 31.21823 38.43728 34.82775
#
# Velocity S-wave (km/s) = 3.62833 4.02605 3.83235
# Velocity P-wave (km/s) = 5.41305 6.36545 5.90847
#
# Compressibility (1/GPa) = 0.03589528
#
# Stress axis : x y z
#
# Youngs Moduli (GPa) = 77.62883 53.71050 61.77064
#
# Poissons Ratio (x) = 0.24283 -0.11566
# Poissons Ratio (y) = 0.35097 0.20064
# Poissons Ratio (z) = -0.14535 0.17446
#
# Static dielectric constant tensor:
#      x y z
#    x 1.979230 0.041190 0.011520 
#    y 0.041190 2.051390 -0.018470 
#    z 0.011520 -0.018470 1.861530 
# 
# From -- ./inp_files/169194.got.cif
#   From: 2010.05.17/outbox.cif.g08.bks.cpg/sg2_85_cif.got.tgz:169194.got - 2010.06.03 11:33:40.
