data_PCOD9101362
_publ_section_title
;
Structure prediction by ZEFSAII (Michael W. Deem and Ramdas Pophale) SiO2 
 PCOD9101362
Probable space group: P -1
;
_chemical_formula_sum "Si O2"
_cell_formula_units_Z 16
_cell_length_a 5.610437
_cell_length_b 14.997847
_cell_length_c 18.452463
_cell_angle_alpha 38.275491
_cell_angle_beta 51.426938
_cell_angle_gamma 51.569714
_cell_volume 723.437534
_symmetry_space_group_name_H-M "P -1"
_symmetry_group_IT_number 2
_symmetry_cell_setting 'triclinic'
loop_
_space_group_symop_operation_xyz
x,y,z
-x,-y,-z
loop_
_atom_site_type_symbol
_atom_site_label
_atom_site_fract_x
_atom_site_fract_y
_atom_site_fract_z
Si Si1 0.923055 0.498842 0.920992
Si Si2 0.873649 0.232769 0.905639
Si Si3 0.617153 0.542990 0.789968
Si Si4 0.337870 0.760331 0.893611
Si Si5 0.438247 0.077307 0.624559
Si Si6 0.477544 0.977939 0.933931
Si Si7 0.318388 0.878309 0.593397
Si Si8 0.151331 0.945767 0.315068
O O1 0.797988 0.528319 0.842542
O O2 0.675780 0.637393 0.918930
O O3 0.273568 0.509128 0.864441
O O4 0.850861 0.339214 0.052151
O O5 0.846664 0.405763 0.789946
O O6 0.170820 0.116657 0.886806
O O7 0.835994 0.204491 0.017691
O O8 0.579879 0.183327 0.960975
O O9 0.533818 0.714072 0.674346
O O10 0.412447 0.905700 0.751142
O O11 0.698062 0.106326 0.500370
O O12 0.534251 0.132081 0.648513
O O13 0.095478 0.143666 0.608620
O O14 0.741357 0.990383 0.819450
O O15 0.500000 0.000000 0.000000
O O16 0.500000 0.000000 0.500000
O O17 0.025083 0.927490 0.673378
#
# Coordination Sequence:
#
# PCOD9101362 Si02
#       8
#     2   2   2   2   2   2   2   2
#     4  10  23  35  60  92 134 170 201 255 344 399
#     4  10  24  40  61  94 132 169 217 266 332 388
#     4  11  24  41  62  95 135 171 210 268 325 396
#     4  10  20  38  58  94 133 169 205 263 326 400
#     4  11  22  37  64  92 129 167 216 262 316 386
#     4  11  24  41  66  94 129 176 220 273 328 389
#     4  10  23  43  68  99 132 175 219 264 323 393
#     4  11  23  39  64  94 128 166 218 268 321 382
#
# _framework density 22.116629
#
# number of rings (size 3 to 8) (size 9 to 14) (size 15 to 20)
#    0.000    1.500    1.250    3.375    7.000    6.500 
#    0.000    0.000    0.000    3.750    0.000    0.000 
#    0.000    0.000    0.000    0.000    0.000    0.000 
#
# Total GULP energy -89118.734679 kJ/mol
# GULP energy per Si atom -5569.920917 kJ/mol
# Density = 2.206629 g / cm^3
# Si number density = 22.116629 Si / 1000 Ang^3
#
#
#
# Elastic Constant Matrix: (Units=GPa)
#
#
# Indices 1 2 3 4 5 6 
#
# 1 138.1385 3.9604 26.2694 4.5149 5.1413 18.5148
# 2 3.9604 96.0151 43.1457 -4.5041 -3.1257 0.6602
# 3 26.2694 43.1457 91.9428 6.4214 8.5454 6.4965
# 4 4.5149 -4.5041 6.4214 40.4331 5.9993 2.9414
# 5 5.1413 -3.1257 8.5454 5.9993 30.4779 8.4230
# 6 18.5148 0.6602 6.4965 2.9414 8.4230 30.6677
#
#
#
# Elastic Compliance Matrix: (Units=1/GPa)
#
#
# Indices 1 2 3 4 5 6 
#
# 1 0.008293 0.000815 -0.002473 -0.000208 0.000711 -0.004676
# 2 0.000815 0.013768 -0.007095 0.002158 0.002920 -0.000294
# 3 -0.002473 -0.007095 0.015478 -0.002342 -0.004112 -0.000279
# 4 -0.000208 0.002158 -0.002342 0.026018 -0.003980 -0.000827
# 5 0.000711 0.002920 -0.004112 -0.003980 0.037568 -0.009558
# 6 -0.004676 -0.000294 -0.000279 -0.000827 -0.009558 0.038200
#
#
# Mechanical properties :
#
#
# Convention : Reuss Voigt Hill
#
# Bulk Modulus (GPa) = 49.91909 52.53859 51.22884
# Shear Modulus (GPa) = 30.57931 37.16381 33.87156
#
# Velocity S-wave (km/s) = 3.72242 4.10366 3.91768
# Velocity P-wave (km/s) = 6.41054 6.80148 6.60890
#
# Compressibility (1/GPa) = 0.02003242
#
# Stress axis : x y z
#
# Youngs Moduli (GPa) = 120.58286 72.63241 64.60869
#
# Poissons Ratio (x) = -0.05918 0.15978
# Poissons Ratio (y) = -0.09824 0.45840
# Poissons Ratio (z) = 0.29820 0.51532
#
# Static dielectric constant tensor:
#      x y z
#    x 1.980020 -0.106900 0.054800 
#    y -0.106900 1.962970 0.017870 
#    z 0.054800 0.017870 1.903050 
# 
# From -- ./inp_files/550060.got.cif
#   From: 2010.05.17/outbox.cif.g08.bks.cpg/sg2_276_cif.got.tgz:550060.got - 2010.06.03 11:33:40.
