data_PCOD9101643
_publ_section_title
;
Structure prediction by ZEFSAII (Michael W. Deem and Ramdas Pophale) SiO2 
 PCOD9101643
Probable space group: P -1
;
_chemical_formula_sum "Si O2"
_cell_formula_units_Z 13
_cell_length_a 7.474107
_cell_length_b 11.577577
_cell_length_c 10.092486
_cell_angle_alpha 68.099439
_cell_angle_beta 47.974189
_cell_angle_gamma 84.846835
_cell_volume 585.504002
_symmetry_space_group_name_H-M "P -1"
_symmetry_group_IT_number 2
_symmetry_cell_setting 'triclinic'
loop_
_space_group_symop_operation_xyz
x,y,z
-x,-y,-z
loop_
_atom_site_type_symbol
_atom_site_label
_atom_site_fract_x
_atom_site_fract_y
_atom_site_fract_z
Si Si1 0.526372 0.646368 0.688861
Si Si2 0.277979 0.578915 0.352893
Si Si3 0.681246 0.922738 0.375841
Si Si4 0.406141 0.854759 0.269771
Si Si5 0.302180 0.340239 0.102498
Si Si6 0.820139 0.935979 0.810469
Si Si7 0.000000 0.500000 0.000000
O O1 0.582215 0.529996 0.621829
O O2 0.657631 0.784816 0.512769
O O3 0.631832 0.632761 0.788922
O O4 0.231933 0.626617 0.841086
O O5 0.288405 0.702425 0.386975
O O6 0.000000 0.500000 0.500000
O O7 0.436685 0.634214 0.119609
O O8 0.586132 0.893107 0.287622
O O9 0.500000 0.000000 0.500000
O O10 0.953642 0.007541 0.228967
O O11 0.221461 0.949494 0.311320
O O12 0.578318 0.888072 0.041176
O O13 0.161087 0.192215 0.219610
O O14 0.144006 0.428006 0.070891
#
# Coordination Sequence:
#
# PCOD9101643 Si02
#       7
#     2   2   2   2   2   2   1
#     4  11  24  40  62  92 124 161 201 247 303 361
#     4  10  21  39  63  90 120 159 202 249 300 353
#     4  12  25  39  62  94 122 158 205 251 301 359
#     4  10  23  42  63  88 122 163 203 246 303 361
#     4  10  22  41  65  91 121 160 202 248 305 360
#     4  10  22  43  65  88 122 161 201 252 304 355
#     4  10  20  38  60  86 122 158 198 242 294 356
#
# _framework density 22.203091000000001
#
# number of rings (size 3 to 8) (size 9 to 14) (size 15 to 20)
#    0.000    1.538    0.000    5.077    0.000    8.000 
#    0.000   23.077    0.000    0.000    0.000    0.000 
#    0.000    0.000    0.000    0.000    0.000    0.000 
#
# Total GULP energy -72372.870799 kJ/mol
# GULP energy per Si atom -5567.143908 kJ/mol
# Density = 2.215256 g / cm^3
# Si number density = 22.203091 Si / 1000 Ang^3
#
#
#
# Elastic Constant Matrix: (Units=GPa)
#
#
# Indices 1 2 3 4 5 6 
#
# 1 145.8356 44.5438 10.5878 -8.8086 9.1504 15.9665
# 2 44.5438 163.1718 23.7942 -35.0706 5.7771 14.0929
# 3 10.5878 23.7942 41.3044 -14.3313 3.2243 -2.2996
# 4 -8.8086 -35.0706 -14.3313 18.9913 9.4265 -7.7106
# 5 9.1504 5.7771 3.2243 9.4265 24.2960 -13.2206
# 6 15.9665 14.0929 -2.2996 -7.7106 -13.2206 39.1125
#
#
#
# Elastic Compliance Matrix: (Units=1/GPa)
#
#
# Indices 1 2 3 4 5 6 
#
# 1 0.008289 -0.000698 0.000042 0.004230 -0.007171 -0.004720
# 2 -0.000698 0.016863 0.009367 0.049231 -0.026543 -0.004507
# 3 0.000042 0.009367 0.045674 0.069461 -0.034541 0.001311
# 4 0.004230 0.049231 0.069461 0.257770 -0.126517 -0.007330
# 5 -0.007171 -0.026543 -0.034541 -0.126517 0.117590 0.025266
# 6 -0.004720 -0.004507 0.001311 -0.007330 0.025266 0.036290
#
#
# Mechanical properties :
#
#
# Convention : Reuss Voigt Hill
#
# Bulk Modulus (GPa) = 11.33163 56.46262 33.89712
# Shear Modulus (GPa) = 10.11181 34.57236 22.34209
#
# Velocity S-wave (km/s) = 2.13638 3.95029 3.17560
# Velocity P-wave (km/s) = 3.34667 6.80380 5.36152
#
# Compressibility (1/GPa) = 0.08824856
#
# Stress axis : x y z
#
# Youngs Moduli (GPa) = 120.63507 59.29984 21.89447
#
# Poissons Ratio (x) = 0.04141 -0.00092
# Poissons Ratio (y) = 0.08424 -0.20509
# Poissons Ratio (z) = -0.00509 -0.55547
#
# Static dielectric constant tensor:
#      x y z
#    x 1.782610 -0.034730 -0.026610 
#    y -0.034730 1.881940 0.002430 
#    z -0.026610 0.002430 1.876530 
# 
# From -- ./inp_files/23589.got.cif
#   From: 2010.05.17/outbox.cif.g08.bks.cpg/sg2_12_cif.got.tgz:23589.got - 2010.06.03 11:33:40.
