data_PCOD9101911
_publ_section_title
;
Structure prediction by ZEFSAII (Michael W. Deem and Ramdas Pophale) SiO2 
 PCOD9101911
Probable space group: P -1
;
_chemical_formula_sum "Si O2"
_cell_formula_units_Z 12
_cell_length_a 10.169620
_cell_length_b 8.350442
_cell_length_c 7.988088
_cell_angle_alpha 53.453436
_cell_angle_beta 119.083828
_cell_angle_gamma 113.467919
_cell_volume 470.504850
_symmetry_space_group_name_H-M "P -1"
_symmetry_group_IT_number 2
_symmetry_cell_setting 'triclinic'
loop_
_space_group_symop_operation_xyz
x,y,z
-x,-y,-z
loop_
_atom_site_type_symbol
_atom_site_label
_atom_site_fract_x
_atom_site_fract_y
_atom_site_fract_z
Si Si1 0.915750 0.903341 0.345900
Si Si2 0.220360 0.528089 0.542108
Si Si3 0.620081 0.990789 0.272873
Si Si4 0.327568 0.415938 0.008200
Si Si5 0.795823 0.025796 0.715169
Si Si6 0.530319 0.350498 0.791654
O O1 0.897614 0.660346 0.480042
O O2 0.029273 0.986620 0.216341
O O3 0.749807 0.964111 0.231142
O O4 0.000000 0.000000 0.500000
O O5 0.204511 0.753963 0.343326
O O6 0.381542 0.459102 0.637607
O O7 0.220584 0.514094 0.754270
O O8 0.695017 0.019234 0.484160
O O9 0.497348 0.789257 0.302436
O O10 0.547563 0.179632 0.047746
O O11 0.329376 0.482109 0.163973
O O12 0.278231 0.176552 0.111558
O O13 0.500000 0.500000 0.000000
#
# Coordination Sequence:
#
# PCOD9101911 Si02
#       6
#     2   2   2   2   2   2
#     4   9  20  38  63  86 116 156 197 236 295 359
#     4  10  20  38  61  87 118 149 195 252 288 351
#     4   9  18  36  62  83 119 157 192 242 287 351
#     4  10  22  37  57  90 120 153 199 243 295 342
#     4  11  21  36  63  88 116 161 194 238 300 344
#     4   9  18  36  58  84 119 153 189 245 292 333
#
# _framework density 25.504519999999999
#
# number of rings (size 3 to 8) (size 9 to 14) (size 15 to 20)
#    0.000    2.333    1.667    0.500    0.000    4.000 
#    0.000    0.833   25.667    0.000    0.000    0.000 
#    0.000    0.000    0.000    0.000    0.000    0.000 
#
# Total GULP energy -66976.116119 kJ/mol
# GULP energy per Si atom -5581.343010 kJ/mol
# Density = 2.544647 g / cm^3
# Si number density = 25.504520 Si / 1000 Ang^3
#
#
#
# Elastic Constant Matrix: (Units=GPa)
#
#
# Indices 1 2 3 4 5 6 
#
# 1 125.1657 31.1041 35.3324 -34.6013 6.0327 10.6603
# 2 31.1041 207.6558 27.7266 -18.6397 0.8952 6.0975
# 3 35.3324 27.7266 77.1514 -28.9633 3.2613 10.7495
# 4 -34.6013 -18.6397 -28.9633 49.5643 2.4369 0.5576
# 5 6.0327 0.8952 3.2613 2.4369 22.9478 -8.7802
# 6 10.6603 6.0975 10.7495 0.5576 -8.7802 28.6299
#
#
#
# Elastic Compliance Matrix: (Units=1/GPa)
#
#
# Indices 1 2 3 4 5 6 
#
# 1 0.011226 -0.000691 -0.001186 0.007221 -0.005607 -0.005448
# 2 -0.000691 0.005160 -0.001179 0.000780 -0.000106 -0.000447
# 3 -0.001186 -0.001179 0.019412 0.010514 -0.006933 -0.008927
# 4 0.007221 0.000780 0.010514 0.032316 -0.010988 -0.010802
# 5 -0.005607 -0.000106 -0.006933 -0.010988 0.055619 0.021985
# 6 -0.005448 -0.000447 -0.008927 -0.010802 0.021985 0.047357
#
#
# Mechanical properties :
#
#
# Convention : Reuss Voigt Hill
#
# Bulk Modulus (GPa) = 33.68376 66.47767 50.08071
# Shear Modulus (GPa) = 26.72408 41.28240 34.00324
#
# Velocity S-wave (km/s) = 3.24051 4.02759 3.65530
# Velocity P-wave (km/s) = 5.21890 6.91015 6.12320
#
# Compressibility (1/GPa) = 0.02968790
#
# Stress axis : x y z
#
# Youngs Moduli (GPa) = 89.07549 193.79539 51.51450
#
# Poissons Ratio (x) = 0.13389 0.06109
# Poissons Ratio (y) = 0.06154 0.06071
# Poissons Ratio (z) = 0.10564 0.22839
#
# Static dielectric constant tensor:
#      x y z
#    x 2.135530 -0.032960 -0.089820 
#    y -0.032960 2.104970 0.074600 
#    z -0.089820 0.074600 2.029270 
# 
# From -- ./inp_files/242290.got.cif
#   From: 2010.05.17/outbox.cif.g08.bks.cpg/sg2_122_cif.got.tgz:242290.got - 2010.06.03 11:33:40.
