data_PCOD9101133
_publ_section_title
;
Structure prediction by ZEFSAII (Michael W. Deem and Ramdas Pophale) SiO2 
 PCOD9101133
Probable space group: P -1
;
_chemical_formula_sum "Si O2"
_cell_formula_units_Z 12
_cell_length_a 9.180202
_cell_length_b 26.461575
_cell_length_c 12.309698
_cell_angle_alpha 27.701005
_cell_angle_beta 49.592536
_cell_angle_gamma 33.214409
_cell_volume 709.403808
_symmetry_space_group_name_H-M "P -1"
_symmetry_group_IT_number 2
_symmetry_cell_setting 'triclinic'
loop_
_space_group_symop_operation_xyz
x,y,z
-x,-y,-z
loop_
_atom_site_type_symbol
_atom_site_label
_atom_site_fract_x
_atom_site_fract_y
_atom_site_fract_z
Si Si1 0.739457 0.289683 0.394472
Si Si2 0.919874 0.387408 0.955758
Si Si3 0.785646 0.507124 0.367504
Si Si4 0.208073 0.688755 0.414832
Si Si5 0.868688 0.676192 0.249924
Si Si6 0.199116 0.957752 0.082203
O O1 0.409229 0.439369 0.234063
O O2 0.763001 0.313882 0.463994
O O3 0.827660 0.125996 0.656259
O O4 0.919289 0.294265 0.223322
O O5 0.095642 0.421257 0.839007
O O6 0.037046 0.299375 0.949389
O O7 0.475761 0.635935 0.328610
O O8 0.781723 0.438524 0.390739
O O9 0.986211 0.357948 0.640880
O O10 0.925630 0.870546 0.164343
O O11 0.529805 0.818611 0.153741
O O12 0.000000 0.500000 0.500000
O O13 0.000000 0.000000 0.000000
#
# Coordination Sequence:
#
# PCOD9101133 Si02
#       6
#     2   2   2   2   2   2
#     4  10  18  32  52  77 101 129 168 211 247 295
#     4  10  18  31  55  75  98 133 171 205 245 300
#     4  10  19  35  53  75  99 138 170 203 246 304
#     4  10  21  34  52  76 105 130 168 211 252 286
#     4  10  16  32  52  74  98 131 174 197 241 303
#     4  10  18  32  52  77 103 127 168 214 244 291
#
# _framework density 16.915611999999999
#
# number of rings (size 3 to 8) (size 9 to 14) (size 15 to 20)
#    0.000    2.000    5.000    3.000    0.000    1.333 
#    0.000    7.500    0.000    1.000    0.000    0.000 
#    0.000    0.000    0.000    0.000    0.000    0.000 
#
# Total GULP energy -66815.105037 kJ/mol
# GULP energy per Si atom -5567.925420 kJ/mol
# Density = 1.687711 g / cm^3
# Si number density = 16.915612 Si / 1000 Ang^3
#
#
#
# Elastic Constant Matrix: (Units=GPa)
#
#
# Indices 1 2 3 4 5 6 
#
# 1 23.6395 7.5669 -6.4773 1.6735 1.0575 -3.4966
# 2 7.5669 85.4555 41.7859 5.0321 -0.6748 -16.4606
# 3 -6.4773 41.7859 78.9419 7.7789 1.3119 -6.2284
# 4 1.6735 5.0321 7.7789 38.2092 -9.9894 4.1867
# 5 1.0575 -0.6748 1.3119 -9.9894 16.1454 0.9768
# 6 -3.4966 -16.4606 -6.2284 4.1867 0.9768 25.9069
#
#
#
# Elastic Compliance Matrix: (Units=1/GPa)
#
#
# Indices 1 2 3 4 5 6 
#
# 1 0.048707 -0.007461 0.009052 -0.005675 -0.008065 0.005231
# 2 -0.007461 0.018936 -0.009879 -0.000845 0.001031 0.008747
# 3 0.009052 -0.009879 0.019206 -0.004458 -0.005354 0.000484
# 4 -0.005675 -0.000845 -0.004458 0.034262 0.022427 -0.008757
# 5 -0.008065 0.001031 -0.005354 0.022427 0.077319 -0.008260
# 6 0.005231 0.008747 0.000484 -0.008757 -0.008260 0.046707
#
#
# Mechanical properties :
#
#
# Convention : Reuss Voigt Hill
#
# Bulk Modulus (GPa) = 14.23042 30.42089 22.32565
# Shear Modulus (GPa) = 17.53538 25.72971 21.63255
#
# Velocity S-wave (km/s) = 3.22318 3.90431 3.57998
# Velocity P-wave (km/s) = 4.72046 6.19256 5.50593
#
# Compressibility (1/GPa) = 0.07027200
#
# Stress axis : x y z
#
# Youngs Moduli (GPa) = 20.53103 52.80889 52.06665
#
# Poissons Ratio (x) = 0.39400 -0.47129
# Poissons Ratio (y) = 0.15318 0.51438
# Poissons Ratio (z) = -0.18584 0.52172
#
# Static dielectric constant tensor:
#      x y z
#    x 1.604950 0.005640 0.005150 
#    y 0.005640 1.581620 0.004090 
#    z 0.005150 0.004090 1.594200 
# 
# From -- ./inp_files/145905.got.cif
#   From: 2010.05.17/outbox.cif.g08.bks.cpg/sg2_73_cif.got.tgz:145905.got - 2010.06.03 11:33:40.
