data_PCOD9101762
_publ_section_title
;
Structure prediction by ZEFSAII (Michael W. Deem and Ramdas Pophale) SiO2 
 PCOD9101762
Probable space group: P -1
;
_chemical_formula_sum "Si O2"
_cell_formula_units_Z 16
_cell_length_a 14.979214
_cell_length_b 11.577618
_cell_length_c 13.619520
_cell_angle_alpha 148.622951
_cell_angle_beta 46.087478
_cell_angle_gamma 111.731660
_cell_volume 714.324221
_symmetry_space_group_name_H-M "P -1"
_symmetry_group_IT_number 2
_symmetry_cell_setting 'triclinic'
loop_
_space_group_symop_operation_xyz
x,y,z
-x,-y,-z
loop_
_atom_site_type_symbol
_atom_site_label
_atom_site_fract_x
_atom_site_fract_y
_atom_site_fract_z
Si Si1 0.010528 0.749408 0.691529
Si Si2 0.191790 0.099524 0.617249
Si Si3 0.114397 0.699203 0.373811
Si Si4 0.359559 0.293220 0.361703
Si Si5 0.730048 0.932868 0.156443
Si Si6 0.341088 0.553138 0.372593
Si Si7 0.942021 0.630313 0.297853
Si Si8 0.529611 0.959916 0.706168
O O1 0.000000 0.500000 0.500000
O O2 0.997794 0.857427 0.669774
O O3 0.178586 0.632930 0.516272
O O4 0.877657 0.916771 0.993749
O O5 0.120895 0.226525 0.655614
O O6 0.217347 0.809348 0.382637
O O7 0.339444 0.100445 0.512469
O O8 0.069602 0.308034 0.942974
O O9 0.016926 0.752583 0.389648
O O10 0.210972 0.369340 0.073297
O O11 0.351014 0.507867 0.450224
O O12 0.198727 0.329918 0.506423
O O13 0.398010 0.271602 0.431968
O O14 0.500000 0.000000 0.000000
O O15 0.612302 0.005866 0.212260
O O16 0.648118 0.198711 0.482119
O O17 0.468966 0.254825 0.013826
#
# Coordination Sequence:
#
# PCOD9101762 Si02
#       8
#     2   2   2   2   2   2   2   2
#     4  10  20  38  60  91 124 157 199 250 306 362
#     4  10  24  43  64  87 122 164 207 258 290 363
#     4  11  23  38  65  89 121 165 204 252 305 356
#     4   9  20  37  66  90 122 162 190 254 311 359
#     4  11  24  37  61  95 126 160 200 254 305 375
#     4  11  21  39  63  90 127 159 200 253 311 360
#     4  10  22  42  65  92 117 159 214 248 302 362
#     4  10  22  43  58  89 128 156 206 253 305 359
#
# _framework density 22.398793000000001
#
# number of rings (size 3 to 8) (size 9 to 14) (size 15 to 20)
#    0.000    1.750    2.500    2.250    5.250    2.000 
#    0.000    8.750    0.000    0.000    0.000    0.000 
#    0.000    0.000    0.000    0.000    0.000    0.000 
#
# Total GULP energy -89273.642137 kJ/mol
# GULP energy per Si atom -5579.602634 kJ/mol
# Density = 2.234781 g / cm^3
# Si number density = 22.398793 Si / 1000 Ang^3
#
#
#
# Elastic Constant Matrix: (Units=GPa)
#
#
# Indices 1 2 3 4 5 6 
#
# 1 36.9344 6.3320 -0.7494 -4.3260 -7.3273 -5.8670
# 2 6.3320 61.9136 28.6137 3.2425 3.3266 6.6603
# 3 -0.7494 28.6137 80.9201 2.9104 0.8072 4.9073
# 4 -4.3260 3.2425 2.9104 33.7401 6.5016 1.5243
# 5 -7.3273 3.3266 0.8072 6.5016 25.7310 2.9468
# 6 -5.8670 6.6603 4.9073 1.5243 2.9468 16.0187
#
#
#
# Elastic Compliance Matrix: (Units=1/GPa)
#
#
# Indices 1 2 3 4 5 6 
#
# 1 0.031817 -0.005749 0.001437 0.002472 0.007767 0.011939
# 2 -0.005749 0.021030 -0.006926 -0.001237 -0.002901 -0.008076
# 3 0.001437 -0.006926 0.014910 -0.000596 0.001138 -0.001314
# 4 0.002472 -0.001237 -0.000596 0.031491 -0.007064 -0.000095
# 5 0.007767 -0.002901 0.001138 -0.007064 0.043617 -0.003649
# 6 0.011939 -0.008076 -0.001314 -0.000095 -0.003649 0.071241
#
#
# Mechanical properties :
#
#
# Convention : Reuss Voigt Hill
#
# Bulk Modulus (GPa) = 22.08479 27.57340 24.82910
# Shear Modulus (GPa) = 19.86680 24.80275 22.33478
#
# Velocity S-wave (km/s) = 2.98142 3.33126 3.16118
# Velocity P-wave (km/s) = 4.66187 5.20897 4.94299
#
# Compressibility (1/GPa) = 0.04528002
#
# Stress axis : x y z
#
# Youngs Moduli (GPa) = 31.43006 47.55112 67.06843
#
# Poissons Ratio (x) = 0.27338 -0.09639
# Poissons Ratio (y) = 0.18070 0.46454
# Poissons Ratio (z) = -0.04517 0.32935
#
# Static dielectric constant tensor:
#      x y z
#    x 1.815690 -0.063910 0.026670 
#    y -0.063910 1.867560 -0.024280 
#    z 0.026670 -0.024280 1.875620 
# 
# From -- ./inp_files/532769.got.cif
#   From: 2010.05.17/outbox.cif.g08.bks.cpg/sg2_267_cif.got.tgz:532769.got - 2010.06.03 11:33:40.
