data_PCOD9101659
_publ_section_title
;
Structure prediction by ZEFSAII (Michael W. Deem and Ramdas Pophale) SiO2 
 PCOD9101659
Probable space group: P -1
;
_chemical_formula_sum "Si O2"
_cell_formula_units_Z 16
_cell_length_a 18.947761
_cell_length_b 11.994628
_cell_length_c 8.338520
_cell_angle_alpha 117.910368
_cell_angle_beta 81.515446
_cell_angle_gamma 44.142114
_cell_volume 721.711820
_symmetry_space_group_name_H-M "P -1"
_symmetry_group_IT_number 2
_symmetry_cell_setting 'triclinic'
loop_
_space_group_symop_operation_xyz
x,y,z
-x,-y,-z
loop_
_atom_site_type_symbol
_atom_site_label
_atom_site_fract_x
_atom_site_fract_y
_atom_site_fract_z
Si Si1 0.920221 0.304821 0.123234
Si Si2 0.493457 0.588581 0.360545
Si Si3 0.296299 0.971118 0.956245
Si Si4 0.099933 0.181154 0.418664
Si Si5 0.184565 0.805313 0.957874
Si Si6 0.625339 0.088730 0.669665
Si Si7 0.898216 0.537827 0.018119
Si Si8 0.620450 0.911679 0.824533
O O1 0.781519 0.590248 0.475412
O O2 0.850079 0.285199 0.065792
O O3 0.958949 0.332384 0.979352
O O4 0.075700 0.022240 0.989654
O O5 0.323042 0.883985 0.707274
O O6 0.567947 0.333125 0.201353
O O7 0.483882 0.643194 0.216596
O O8 0.624354 0.473750 0.322239
O O9 0.124370 0.202067 0.247210
O O10 0.329543 0.062620 0.044907
O O11 0.938609 0.445757 0.758021
O O12 0.140251 0.970656 0.229775
O O13 0.234866 0.049042 0.382738
O O14 0.548777 0.114653 0.841589
O O15 0.714284 0.858738 0.352365
O O16 0.000000 0.500000 0.000000
O O17 0.500000 0.000000 0.000000
#
# Coordination Sequence:
#
# PCOD9101659 Si02
#       8
#     2   2   2   2   2   2   2   2
#     4  10  22  41  59  80 114 152 195 235 282 342
#     4  10  20  38  60  87 119 149 187 236 291 338
#     4   9  20  35  56  87 116 148 191 232 278 344
#     4   9  19  35  56  86 112 144 191 232 282 333
#     4  10  22  39  59  82 112 153 193 236 284 336
#     4   9  20  38  61  88 117 148 187 237 288 344
#     4   9  19  37  59  84 116 151 187 236 290 334
#     4  10  20  39  62  85 115 152 191 236 287 339
#
# _framework density 22.169512999999998
#
# number of rings (size 3 to 8) (size 9 to 14) (size 15 to 20)
#    0.000    2.500    0.000    1.500    0.000   12.000 
#    0.000   25.625    0.000    0.000    0.000    0.000 
#    0.000    0.000    0.000    0.000    0.000    0.000 
#
# Total GULP energy -89256.444788 kJ/mol
# GULP energy per Si atom -5578.527799 kJ/mol
# Density = 2.211905 g / cm^3
# Si number density = 22.169513 Si / 1000 Ang^3
#
#
#
# Elastic Constant Matrix: (Units=GPa)
#
#
# Indices 1 2 3 4 5 6 
#
# 1 152.4012 37.6581 37.5358 -8.2510 4.3763 33.3495
# 2 37.6581 114.0640 19.7194 -8.4821 -17.6944 29.7841
# 3 37.5358 19.7194 115.6479 -28.0113 9.6739 5.6643
# 4 -8.2510 -8.4821 -28.0113 23.9915 6.1281 -6.6037
# 5 4.3763 -17.6944 9.6739 6.1281 33.7760 0.1562
# 6 33.3495 29.7841 5.6643 -6.6037 0.1562 29.0005
#
#
#
# Elastic Compliance Matrix: (Units=1/GPa)
#
#
# Indices 1 2 3 4 5 6 
#
# 1 0.009728 0.000322 -0.003772 -0.004405 0.000842 -0.011788
# 2 0.000322 0.014737 -0.004330 -0.006826 0.010233 -0.016269
# 3 -0.003772 -0.004330 0.016211 0.021677 -0.010404 0.010611
# 4 -0.004405 -0.006826 0.021677 0.075914 -0.023104 0.025253
# 5 0.000842 0.010233 -0.010404 -0.023104 0.042099 -0.014933
# 6 -0.011788 -0.016269 0.010611 0.025253 -0.014933 0.068505
#
#
# Mechanical properties :
#
#
# Convention : Reuss Voigt Hill
#
# Bulk Modulus (GPa) = 39.81669 63.54887 51.68278
# Shear Modulus (GPa) = 19.91022 36.50024 28.20523
#
# Velocity S-wave (km/s) = 3.00007 4.06201 3.57073
# Velocity P-wave (km/s) = 5.47719 7.12229 6.35322
#
# Compressibility (1/GPa) = 0.02511509
#
# Stress axis : x y z
#
# Youngs Moduli (GPa) = 102.79448 67.85516 61.68809
#
# Poissons Ratio (x) = -0.02182 0.23270
# Poissons Ratio (y) = -0.03305 0.26709
# Poissons Ratio (z) = 0.38777 0.29380
#
# Static dielectric constant tensor:
#      x y z
#    x 1.778380 0.005800 0.003850 
#    y 0.005800 1.878450 -0.001360 
#    z 0.003850 -0.001360 1.932810 
# 
# From -- ./inp_files/332358.got.cif
#   From: 2010.05.17/outbox.cif.g08.bks.cpg/sg2_167_cif.got.tgz:332358.got - 2010.06.03 11:33:40.
