data_PCOD9101909
_publ_section_title
;
Structure prediction by ZEFSAII (Michael W. Deem and Ramdas Pophale) SiO2 
 PCOD9101909
Probable space group: P -1
;
_chemical_formula_sum "Si O2"
_cell_formula_units_Z 16
_cell_length_a 11.470460
_cell_length_b 8.580566
_cell_length_c 16.562109
_cell_angle_alpha 135.809054
_cell_angle_beta 97.651882
_cell_angle_gamma 54.966240
_cell_volume 812.144818
_symmetry_space_group_name_H-M "P -1"
_symmetry_group_IT_number 2
_symmetry_cell_setting 'triclinic'
loop_
_space_group_symop_operation_xyz
x,y,z
-x,-y,-z
loop_
_atom_site_type_symbol
_atom_site_label
_atom_site_fract_x
_atom_site_fract_y
_atom_site_fract_z
Si Si1 0.702634 0.270687 0.308551
Si Si2 0.253948 0.810090 0.327484
Si Si3 0.848305 0.185475 0.993523
Si Si4 0.044672 0.018124 0.245683
Si Si5 0.394735 0.955068 0.521713
Si Si6 0.184529 0.286607 0.778577
Si Si7 0.842519 0.516087 0.834251
Si Si8 0.622718 0.213578 0.099712
O O1 0.531405 0.607234 0.439443
O O2 0.690739 0.202247 0.189305
O O3 0.742536 0.014404 0.276027
O O4 0.850465 0.253301 0.320568
O O5 0.132043 0.048273 0.333870
O O6 0.284243 0.954701 0.450947
O O7 0.184916 0.658190 0.293089
O O8 0.430169 0.511353 0.195779
O O9 0.806971 0.498313 0.090121
O O10 0.703613 0.253640 0.051811
O O11 0.899201 0.004932 0.847639
O O12 0.000000 0.000000 0.000000
O O13 0.109557 0.684022 0.154370
O O14 0.500000 0.000000 0.500000
O O15 0.284763 0.194632 0.671827
O O16 0.997411 0.465289 0.809011
O O17 0.686980 0.878121 0.965960
#
# Coordination Sequence:
#
# PCOD9101909 Si02
#       8
#     2   2   2   2   2   2   2   2
#     4  10  20  38  61  87 116 157 200 242 284 351
#     4   9  22  39  58  84 120 158 193 245 293 348
#     4  12  21  33  62  94 121 152 196 242 292 351
#     4   9  20  37  58  84 123 148 196 238 301 338
#     4  11  24  41  65  84 117 154 203 246 291 351
#     4  11  21  37  62  89 116 158 201 238 291 347
#     4   9  19  36  58  84 119 157 191 238 297 345
#     4  11  19  34  61  89 123 154 196 238 296 345
#
# _framework density 19.70092
#
# number of rings (size 3 to 8) (size 9 to 14) (size 15 to 20)
#    0.750    1.000    2.500    3.000    0.000    3.000 
#    0.000    0.625    2.750    0.000    0.000    0.000 
#    0.000    0.000    0.000    0.000    0.000    0.000 
#
# Total GULP energy -89227.654754 kJ/mol
# GULP energy per Si atom -5576.728422 kJ/mol
# Density = 1.965608 g / cm^3
# Si number density = 19.700920 Si / 1000 Ang^3
#
#
#
# Elastic Constant Matrix: (Units=GPa)
#
#
# Indices 1 2 3 4 5 6 
#
# 1 60.5178 12.1196 0.0562 -15.6809 -4.3606 -7.2373
# 2 12.1196 48.7789 5.3388 -8.0948 0.3669 -16.8721
# 3 0.0562 5.3388 40.2436 -10.3635 -1.0726 -11.4811
# 4 -15.6809 -8.0948 -10.3635 16.4977 4.5636 7.0664
# 5 -4.3606 0.3669 -1.0726 4.5636 30.1766 -7.2936
# 6 -7.2373 -16.8721 -11.4811 7.0664 -7.2936 30.3370
#
#
#
# Elastic Compliance Matrix: (Units=1/GPa)
#
#
# Indices 1 2 3 4 5 6 
#
# 1 0.023670 -0.001971 0.007169 0.025380 0.000199 0.001400
# 2 -0.001971 0.026653 0.002099 0.005847 0.002031 0.014274
# 3 0.007169 0.002099 0.033790 0.024422 0.000987 0.010214
# 4 0.025380 0.005847 0.024422 0.111925 -0.015161 -0.011167
# 5 0.000199 0.002031 0.000987 -0.015161 0.038963 0.014450
# 6 0.001400 0.014274 0.010214 -0.011167 0.014450 0.051176
#
#
# Mechanical properties :
#
#
# Convention : Reuss Voigt Hill
#
# Bulk Modulus (GPa) = 10.13117 20.50771 15.31944
# Shear Modulus (GPa) = 16.42120 24.20398 20.31259
#
# Velocity S-wave (km/s) = 2.89021 3.50890 3.21448
# Velocity P-wave (km/s) = 4.03626 5.18157 4.64435
#
# Compressibility (1/GPa) = 0.09870526
#
# Stress axis : x y z
#
# Youngs Moduli (GPa) = 42.24742 37.51944 29.59494
#
# Poissons Ratio (x) = 0.07396 -0.21216
# Poissons Ratio (y) = 0.08328 -0.06211
# Poissons Ratio (z) = -0.30287 -0.07875
#
# Static dielectric constant tensor:
#      x y z
#    x 1.707790 -0.001690 0.021740 
#    y -0.001690 1.709240 0.019530 
#    z 0.021740 0.019530 1.663570 
# 
# From -- ./inp_files/225297.got.cif
#   From: 2010.05.17/outbox.cif.g08.bks.cpg/sg2_113_cif.got.tgz:225297.got - 2010.06.03 11:33:40.
