data_PCOD9101384
_publ_section_title
;
Structure prediction by ZEFSAII (Michael W. Deem and Ramdas Pophale) SiO2 
 PCOD9101384
Probable space group: P -1
;
_chemical_formula_sum "Si O2"
_cell_formula_units_Z 16
_cell_length_a 5.956820
_cell_length_b 16.075608
_cell_length_c 15.394904
_cell_angle_alpha 145.600582
_cell_angle_beta 102.154696
_cell_angle_gamma 93.881363
_cell_volume 732.288754
_symmetry_space_group_name_H-M "P -1"
_symmetry_group_IT_number 2
_symmetry_cell_setting 'triclinic'
loop_
_space_group_symop_operation_xyz
x,y,z
-x,-y,-z
loop_
_atom_site_type_symbol
_atom_site_label
_atom_site_fract_x
_atom_site_fract_y
_atom_site_fract_z
Si Si1 0.640377 0.072671 0.226681
Si Si2 0.280104 0.592797 0.140088
Si Si3 0.996134 0.035184 0.745392
Si Si4 0.533295 0.247091 0.537036
Si Si5 0.182218 0.753861 0.969565
Si Si6 0.378390 0.469446 0.330697
Si Si7 0.454575 0.306023 0.927004
Si Si8 0.290523 0.638129 0.633380
O O1 0.620640 0.166366 0.394825
O O2 0.689335 0.188559 0.247338
O O3 0.379611 0.905873 0.060043
O O4 0.872765 0.026986 0.222865
O O5 0.285521 0.691711 0.312444
O O6 0.444688 0.700216 0.166141
O O7 0.380322 0.456642 0.052320
O O8 0.000000 0.500000 0.000000
O O9 0.912473 0.165149 0.892063
O O10 0.214504 0.134491 0.780483
O O11 0.741841 0.882506 0.563924
O O12 0.517108 0.406233 0.633083
O O13 0.338221 0.671258 0.961377
O O14 0.924077 0.637953 0.799654
O O15 0.408583 0.584522 0.514716
O O16 0.539454 0.367847 0.276552
O O17 0.000000 0.500000 0.500000
#
# Coordination Sequence:
#
# PCOD9101384 Si02
#       8
#     2   2   2   2   2   2   2   2
#     4   9  21  38  58  85 114 151 194 232 284 345
#     4  11  23  39  60  87 117 148 189 238 285 337
#     4  10  20  38  59  82 115 153 191 233 281 335
#     4  10  21  37  59  83 113 151 189 233 285 340
#     4  10  21  40  61  83 116 153 191 234 283 339
#     4  10  21  37  59  84 113 151 192 235 285 340
#     4  10  22  38  59  87 115 148 191 235 282 342
#     4  10  21  37  57  85 117 148 190 240 285 335
#
# _framework density 21.849305999999999
#
# number of rings (size 3 to 8) (size 9 to 14) (size 15 to 20)
#    0.000    2.000    0.000    3.000    0.000    9.000 
#    0.000   10.000    0.000    0.000    0.000    0.000 
#    0.000    0.000    0.000    0.000    0.000    0.000 
#
# Total GULP energy -89402.491143 kJ/mol
# GULP energy per Si atom -5587.655696 kJ/mol
# Density = 2.179958 g / cm^3
# Si number density = 21.849306 Si / 1000 Ang^3
#
#
#
# Elastic Constant Matrix: (Units=GPa)
#
#
# Indices 1 2 3 4 5 6 
#
# 1 71.8912 30.1033 13.6855 -0.7221 12.6297 -18.3817
# 2 30.1033 106.1688 24.1111 5.0527 5.1971 -9.9104
# 3 13.6855 24.1111 75.2665 -10.3246 15.0297 -4.5284
# 4 -0.7221 5.0527 -10.3246 27.4455 0.1498 -1.0803
# 5 12.6297 5.1971 15.0297 0.1498 32.1714 -6.9388
# 6 -18.3817 -9.9104 -4.5284 -1.0803 -6.9388 32.5591
#
#
#
# Elastic Compliance Matrix: (Units=1/GPa)
#
#
# Indices 1 2 3 4 5 6 
#
# 1 0.018736 -0.004293 -0.000391 0.001487 -0.004704 0.008264
# 2 -0.004293 0.011656 -0.003753 -0.003647 0.001757 0.000856
# 3 -0.000391 -0.003753 0.016964 0.007089 -0.007267 -0.000317
# 4 0.001487 -0.003647 0.007089 0.039884 -0.003200 0.001357
# 5 -0.004704 0.001757 -0.007267 -0.003200 0.037061 0.004661
# 6 0.008264 0.000856 -0.000317 0.001357 0.004661 0.036633
#
#
# Mechanical properties :
#
#
# Convention : Reuss Voigt Hill
#
# Bulk Modulus (GPa) = 32.80602 43.23627 38.02114
# Shear Modulus (GPa) = 26.60014 30.79697 28.69856
#
# Velocity S-wave (km/s) = 3.49296 3.75843 3.62812
# Velocity P-wave (km/s) = 5.59598 6.21818 5.91526
#
# Compressibility (1/GPa) = 0.03048221
#
# Stress axis : x y z
#
# Youngs Moduli (GPa) = 53.37287 85.79368 58.94855
#
# Poissons Ratio (x) = 0.36830 0.02306
# Poissons Ratio (y) = 0.22912 0.22123
# Poissons Ratio (z) = 0.02088 0.32198
#
# Static dielectric constant tensor:
#      x y z
#    x 1.802570 -0.009780 -0.015340 
#    y -0.009780 1.814750 0.000720 
#    z -0.015340 0.000720 1.797210 
# 
# From -- ./inp_files/37458.got.cif
#   From: 2010.05.17/outbox.cif.g08.bks.cpg/sg2_19_cif.got.tgz:37458.got - 2010.06.03 11:33:40.
