data_PCOD9101798
_publ_section_title
;
Structure prediction by ZEFSAII (Michael W. Deem and Ramdas Pophale) SiO2 
 PCOD9101798
Probable space group: P -1
;
_chemical_formula_sum "Si O2"
_cell_formula_units_Z 14
_cell_length_a 5.624365
_cell_length_b 9.205922
_cell_length_c 20.470186
_cell_angle_alpha 45.770946
_cell_angle_beta 107.092789
_cell_angle_gamma 123.954864
_cell_volume 621.751892
_symmetry_space_group_name_H-M "P -1"
_symmetry_group_IT_number 2
_symmetry_cell_setting 'triclinic'
loop_
_space_group_symop_operation_xyz
x,y,z
-x,-y,-z
loop_
_atom_site_type_symbol
_atom_site_label
_atom_site_fract_x
_atom_site_fract_y
_atom_site_fract_z
Si Si1 0.835126 0.642998 0.756506
Si Si2 0.890295 0.497530 0.418630
Si Si3 0.380703 0.217910 0.932472
Si Si4 0.897440 0.969615 0.771926
Si Si5 0.198150 0.281021 0.421636
Si Si6 0.863113 0.181661 0.053363
Si Si7 0.694013 0.393943 0.122212
O O1 0.141800 0.690668 0.790914
O O2 0.610654 0.377469 0.844732
O O3 0.799206 0.831106 0.738195
O O4 0.814084 0.661336 0.672948
O O5 0.537156 0.365193 0.435348
O O6 0.000000 0.500000 0.500000
O O7 0.045615 0.390810 0.419514
O O8 0.993007 0.759465 0.316831
O O9 0.324787 0.407159 0.901351
O O10 0.126023 0.995890 0.943932
O O11 0.558125 0.155131 0.017401
O O12 0.624076 0.829752 0.842571
O O13 0.121326 0.913182 0.844682
O O14 0.000000 0.000000 0.500000
O O15 0.117494 0.450871 0.972814
#
# Coordination Sequence:
#
# PCOD9101798 Si02
#       7
#     2   2   2   2   2   2   2
#     4  10  24  41  66  99 142 188 240 290 367 426
#     4  12  29  51  80 114 147 186 240 305 368 435
#     4   9  20  39  61  91 139 183 248 294 353 428
#     4  11  25  40  67 100 148 179 245 297 369 420
#     4  12  28  50  83 108 147 191 240 298 369 445
#     4  10  20  38  60  95 134 191 240 302 352 417
#     4  10  22  37  63  95 139 190 239 294 354 434
#
# _framework density 22.517021
#
# number of rings (size 3 to 8) (size 9 to 14) (size 15 to 20)
#    0.000    1.429    0.000    3.429   10.000    6.286 
#    0.000    0.000    0.000    0.000    0.000    0.000 
#    0.000    0.000    0.000    0.000    0.000    0.000 
#
# Total GULP energy -78224.353817 kJ/mol
# GULP energy per Si atom -5587.453844 kJ/mol
# Density = 2.246577 g / cm^3
# Si number density = 22.517021 Si / 1000 Ang^3
#
#
#
# Elastic Constant Matrix: (Units=GPa)
#
#
# Indices 1 2 3 4 5 6 
#
# 1 135.0629 73.6289 65.3759 0.7177 -2.3890 -3.8775
# 2 73.6289 126.8680 86.7289 -3.4768 -6.8035 4.4529
# 3 65.3759 86.7289 138.5367 23.9770 17.8882 5.0473
# 4 0.7177 -3.4768 23.9770 53.1672 -2.2489 -8.6743
# 5 -2.3890 -6.8035 17.8882 -2.2489 26.7101 -0.0363
# 6 -3.8775 4.4529 5.0473 -8.6743 -0.0363 39.5033
#
#
#
# Elastic Compliance Matrix: (Units=1/GPa)
#
#
# Indices 1 2 3 4 5 6 
#
# 1 0.011475 -0.004198 -0.003469 0.001630 0.002421 0.002403
# 2 -0.004198 0.022198 -0.015754 0.009513 0.016632 0.001203
# 3 -0.003469 -0.015754 0.023997 -0.013468 -0.021535 -0.004608
# 4 0.001630 0.009513 -0.013468 0.027178 0.013886 0.006789
# 5 0.002421 0.016632 -0.021535 0.013886 0.057489 0.004216
# 6 0.002403 0.001203 -0.004608 0.006789 0.004216 0.027498
#
#
# Mechanical properties :
#
#
# Convention : Reuss Voigt Hill
#
# Bulk Modulus (GPa) = 92.34456 94.65943 93.50200
# Shear Modulus (GPa) = 22.69774 35.52504 29.11139
#
# Velocity S-wave (km/s) = 3.17839 3.97633 3.59954
# Velocity P-wave (km/s) = 7.38712 7.95059 7.67403
#
# Compressibility (1/GPa) = 0.01082901
#
# Stress axis : x y z
#
# Youngs Moduli (GPa) = 87.14835 45.04855 41.67115
#
# Poissons Ratio (x) = 0.18910 0.14457
# Poissons Ratio (y) = 0.36582 0.65648
# Poissons Ratio (z) = 0.30234 0.70969
#
# Static dielectric constant tensor:
#      x y z
#    x 2.034410 -0.018690 -0.027380 
#    y -0.018690 1.879850 0.014320 
#    z -0.027380 0.014320 1.804500 
# 
# From -- ./inp_files/547801.got.cif
#   From: 2010.05.17/outbox.cif.g08.bks.cpg/sg2_274_cif.got.tgz:547801.got - 2010.06.03 11:33:40.
