data_PCOD9101160
_publ_section_title
;
Structure prediction by ZEFSAII (Michael W. Deem and Ramdas Pophale) SiO2 
 PCOD9101160
Probable space group: P -1
;
_chemical_formula_sum "Si O2"
_cell_formula_units_Z 16
_cell_length_a 26.447017
_cell_length_b 24.014862
_cell_length_c 11.213862
_cell_angle_alpha 31.123115
_cell_angle_beta 148.720762
_cell_angle_gamma 169.672028
_cell_volume 653.999987
_symmetry_space_group_name_H-M "P -1"
_symmetry_group_IT_number 2
_symmetry_cell_setting 'triclinic'
loop_
_space_group_symop_operation_xyz
x,y,z
-x,-y,-z
loop_
_atom_site_type_symbol
_atom_site_label
_atom_site_fract_x
_atom_site_fract_y
_atom_site_fract_z
Si Si1 0.233740 0.800251 0.299280
Si Si2 0.442484 0.910150 0.184179
Si Si3 0.240578 0.311041 0.839278
Si Si4 0.859717 0.008457 0.185615
Si Si5 0.317006 0.657915 0.941473
Si Si6 0.358107 0.545509 0.878927
Si Si7 0.913831 0.933213 0.645683
Si Si8 0.989648 0.368056 0.432732
O O1 0.090943 0.578786 0.318473
O O2 0.960702 0.559817 0.262150
O O3 0.500000 0.000000 0.500000
O O4 0.414780 0.081317 0.082137
O O5 0.548260 0.125004 0.080860
O O6 0.657779 0.032237 0.406805
O O7 0.131650 0.542384 0.270025
O O8 0.500000 0.000000 0.000000
O O9 0.346833 0.511079 0.778567
O O10 0.500000 0.500000 0.000000
O O11 0.108704 0.197906 0.650973
O O12 0.000000 0.000000 0.000000
O O13 0.912882 0.963785 0.284171
O O14 0.750701 0.844765 0.390919
O O15 0.151841 0.373394 0.143976
O O16 0.660997 0.877599 0.942227
O O17 0.142570 0.420392 0.693598
O O18 0.259726 0.334248 0.136196
#
# Coordination Sequence:
#
# PCOD9101160 Si02
#       8
#     2   2   2   2   2   2   2   2
#     4  10  20  38  56  87 124 153 194 254 315 378
#     4  10  22  44  64  92 135 169 212 264 321 393
#     4  10  21  42  63  88 123 167 217 274 324 377
#     4  11  23  40  65  92 132 177 221 271 334 389
#     4  10  23  37  59  91 118 164 207 254 313 381
#     4  11  23  40  68  95 132 172 226 272 328 393
#     4  10  24  42  62  93 131 176 221 279 328 387
#     4  10  23  36  67  97 123 167 212 263 325 380
#
# _framework density 24.464831
#
# number of rings (size 3 to 8) (size 9 to 14) (size 15 to 20)
#    0.000    1.750    1.250    1.875    5.250    2.000 
#    0.000    0.000    0.000    0.000    0.000    0.000 
#    0.000    0.000    0.000    0.000    0.000    0.000 
#
# Total GULP energy -89103.763460 kJ/mol
# GULP energy per Si atom -5568.985216 kJ/mol
# Density = 2.440915 g / cm^3
# Si number density = 24.464831 Si / 1000 Ang^3
#
#
#
# Elastic Constant Matrix: (Units=GPa)
#
#
# Indices 1 2 3 4 5 6 
#
# 1 136.8346 46.3891 26.2126 4.4243 -4.8524 -11.4989
# 2 46.3891 77.9503 2.2657 -14.9757 -2.4575 -9.6608
# 3 26.2126 2.2657 65.7648 -5.5558 3.5976 -27.0180
# 4 4.4243 -14.9757 -5.5558 36.3757 1.0524 5.3586
# 5 -4.8524 -2.4575 3.5976 1.0524 33.2238 12.0433
# 6 -11.4989 -9.6608 -27.0180 5.3586 12.0433 40.4136
#
#
#
# Elastic Compliance Matrix: (Units=1/GPa)
#
#
# Indices 1 2 3 4 5 6 
#
# 1 0.011050 -0.007632 -0.005868 -0.005055 0.002854 -0.002784
# 2 -0.007632 0.019599 0.005729 0.009074 -0.002731 0.005954
# 3 -0.005868 0.005729 0.026549 0.004484 -0.010717 0.020048
# 4 -0.005055 0.009074 0.004484 0.032591 -0.001536 -0.000135
# 5 0.002854 -0.002731 -0.010717 -0.001536 0.038105 -0.018157
# 6 -0.002784 0.005954 0.020048 -0.000135 -0.018157 0.044207
#
#
# Mechanical properties :
#
#
# Convention : Reuss Voigt Hill
#
# Bulk Modulus (GPa) = 24.00643 47.80938 35.90791
# Shear Modulus (GPa) = 24.81056 35.71476 30.26266
#
# Velocity S-wave (km/s) = 3.18800 3.82493 3.52090
# Velocity P-wave (km/s) = 4.83581 6.25230 5.58911
#
# Compressibility (1/GPa) = 0.04165550
#
# Stress axis : x y z
#
# Youngs Moduli (GPa) = 90.49612 51.02314 37.66689
#
# Poissons Ratio (x) = 0.38939 0.22104
# Poissons Ratio (y) = 0.69063 -0.21579
# Poissons Ratio (z) = 0.53105 -0.29230
#
# Static dielectric constant tensor:
#      x y z
#    x 1.915310 -0.043980 -0.040300 
#    y -0.043980 1.954850 -0.036430 
#    z -0.040300 -0.036430 2.132270 
# 
# From -- ./inp_files/39888.got.cif
#   From: 2010.05.17/outbox.cif.g08.bks.cpg/sg2_20_cif.got.tgz:39888.got - 2010.06.03 11:33:40.
