data_PCOD9101359
_publ_section_title
;
Structure prediction by ZEFSAII (Michael W. Deem and Ramdas Pophale) SiO2 
 PCOD9101359
Probable space group: P -1
;
_chemical_formula_sum "Si O2"
_cell_formula_units_Z 14
_cell_length_a 12.643339
_cell_length_b 5.416827
_cell_length_c 12.155068
_cell_angle_alpha 100.492210
_cell_angle_beta 59.559661
_cell_angle_gamma 101.493176
_cell_volume 700.069315
_symmetry_space_group_name_H-M "P -1"
_symmetry_group_IT_number 2
_symmetry_cell_setting 'triclinic'
loop_
_space_group_symop_operation_xyz
x,y,z
-x,-y,-z
loop_
_atom_site_type_symbol
_atom_site_label
_atom_site_fract_x
_atom_site_fract_y
_atom_site_fract_z
Si Si1 0.826026 0.042493 0.039198
Si Si2 0.477553 0.094467 0.146009
Si Si3 0.805620 0.012225 0.670119
Si Si4 0.210783 0.627385 0.106206
Si Si5 0.030040 0.721930 0.829483
Si Si6 0.386902 0.350353 0.883129
Si Si7 0.964899 0.256503 0.420814
O O1 0.866269 0.244798 0.129302
O O2 0.735571 0.807002 0.120466
O O3 0.754243 0.151260 0.983837
O O4 0.949173 0.953053 0.913927
O O5 0.544862 0.375358 0.164888
O O6 0.333953 0.109467 0.249865
O O7 0.520686 0.857317 0.170410
O O8 0.500000 0.000000 0.000000
O O9 0.807062 0.273517 0.756279
O O10 0.860132 0.071447 0.525127
O O11 0.907864 0.867014 0.663217
O O12 0.078330 0.508136 0.120923
O O13 0.314593 0.439110 0.036771
O O14 0.075647 0.705257 0.679483
O O15 0.000000 0.500000 0.500000
#
# Coordination Sequence:
#
# PCOD9101359 Si02
#       7
#     2   2   2   2   2   2   2
#     4  10  20  38  58  94 123 160 201 266 306 368
#     4  12  24  37  63  92 126 166 206 254 316 368
#     4  11  24  37  59  88 128 163 205 255 309 374
#     4  11  19  36  59  92 131 153 205 256 319 367
#     4  10  21  34  63  87 123 165 205 250 316 364
#     4  11  23  38  59  94 125 161 202 261 313 365
#     4  11  23  40  58  88 126 167 205 251 305 376
#
# _framework density 19.998017999999998
#
# number of rings (size 3 to 8) (size 9 to 14) (size 15 to 20)
#    0.000    1.143    5.714    0.857    4.000    0.000 
#    0.000    0.000    0.000    1.714    0.000    0.000 
#    0.000    0.000    0.000    0.000    0.000    0.000 
#
# Total GULP energy -77947.211913 kJ/mol
# GULP energy per Si atom -5567.657994 kJ/mol
# Density = 1.995250 g / cm^3
# Si number density = 19.998018 Si / 1000 Ang^3
#
#
#
# Elastic Constant Matrix: (Units=GPa)
#
#
# Indices 1 2 3 4 5 6 
#
# 1 43.9244 9.9420 34.3577 -6.5623 -11.8008 6.5807
# 2 9.9420 79.9664 16.6437 -8.0334 -5.1236 9.3178
# 3 34.3577 16.6437 78.5578 -4.6190 -4.5366 7.7586
# 4 -6.5623 -8.0334 -4.6190 21.1150 2.2929 -1.6635
# 5 -11.8008 -5.1236 -4.5366 2.2929 39.0550 1.3342
# 6 6.5807 9.3178 7.7586 -1.6635 1.3342 32.4567
#
#
#
# Elastic Compliance Matrix: (Units=1/GPa)
#
#
# Indices 1 2 3 4 5 6 
#
# 1 0.039583 0.000285 -0.015935 0.007514 0.009853 -0.004318
# 2 0.000285 0.013894 -0.002395 0.004429 0.001483 -0.003308
# 3 -0.015935 -0.002395 0.020059 -0.001248 -0.002697 -0.000830
# 4 0.007514 0.004429 -0.001248 0.051151 -0.000301 0.000137
# 5 0.009853 0.001483 -0.002697 -0.000301 0.028582 -0.002969
# 6 -0.004318 -0.003308 -0.000830 0.000137 -0.002969 0.032963
#
#
# Mechanical properties :
#
#
# Convention : Reuss Voigt Hill
#
# Bulk Modulus (GPa) = 26.70616 36.03729 31.37173
# Shear Modulus (GPa) = 21.29436 27.95902 24.62669
#
# Velocity S-wave (km/s) = 3.26670 3.74316 3.51302
# Velocity P-wave (km/s) = 5.25470 6.06145 5.67244
#
# Compressibility (1/GPa) = 0.03744455
#
# Stress axis : x y z
#
# Youngs Moduli (GPa) = 25.26347 71.97450 49.85309
#
# Poissons Ratio (x) = -0.02049 0.79440
# Poissons Ratio (y) = -0.00719 0.11942
# Poissons Ratio (z) = 0.40257 0.17241
#
# Static dielectric constant tensor:
#      x y z
#    x 1.768840 0.022690 -0.024680 
#    y 0.022690 1.850730 -0.020420 
#    z -0.024680 -0.020420 1.688970 
# 
# From -- ./inp_files/64657.got.cif
#   From: 2010.05.17/outbox.cif.g08.bks.cpg/sg2_33_cif.got.tgz:64657.got - 2010.06.03 11:33:40.
