data_PCOD9101354
_publ_section_title
;
Structure prediction by ZEFSAII (Michael W. Deem and Ramdas Pophale) SiO2 
 PCOD9101354
Probable space group: P -1
;
_chemical_formula_sum "Si O2"
_cell_formula_units_Z 12
_cell_length_a 13.924922
_cell_length_b 8.677560
_cell_length_c 13.627294
_cell_angle_alpha 102.254480
_cell_angle_beta 158.223608
_cell_angle_gamma 90.040015
_cell_volume 500.272489
_symmetry_space_group_name_H-M "P -1"
_symmetry_group_IT_number 2
_symmetry_cell_setting 'triclinic'
loop_
_space_group_symop_operation_xyz
x,y,z
-x,-y,-z
loop_
_atom_site_type_symbol
_atom_site_label
_atom_site_fract_x
_atom_site_fract_y
_atom_site_fract_z
Si Si1 0.433233 0.877246 0.278336
Si Si2 0.308501 0.654994 0.953558
Si Si3 0.823615 0.548037 0.737527
Si Si4 0.414530 0.558585 0.715582
Si Si5 0.384285 0.186421 0.360111
Si Si6 0.642478 0.874961 0.113473
O O1 0.661454 0.909259 0.588794
O O2 0.334325 0.025416 0.216925
O O3 0.495112 0.846462 0.222646
O O4 0.151373 0.669879 0.013420
O O5 0.941403 0.564939 0.599706
O O6 0.390580 0.515529 0.060282
O O7 0.447079 0.708888 0.984265
O O8 0.597900 0.469696 0.417029
O O9 0.728604 0.361898 0.682366
O O10 0.777780 0.697475 0.772026
O O11 0.574904 0.773110 0.930801
O O12 0.000000 0.000000 0.500000
O O13 0.500000 0.000000 0.000000
#
# Coordination Sequence:
#
# PCOD9101354 Si02
#       6
#     2   2   2   2   2   2
#     4  10  21  37  61  89 128 168 219 260 327 378
#     4  11  23  44  68  94 130 176 216 263 329 396
#     4  10  21  37  61  89 128 168 219 260 327 378
#     4  11  23  44  68  94 130 176 216 263 329 396
#     4  10  20  38  58  92 124 168 218 266 318 378
#     4  12  26  44  68 102 130 164 216 276 332 390
#
# _framework density 23.986926
#
# number of rings (size 3 to 8) (size 9 to 14) (size 15 to 20)
#    0.000    1.333    1.667    4.000    2.333    0.000 
#    0.000    1.667    0.000    0.000    0.000    0.000 
#    0.000    0.000    0.000    0.000    0.000    0.000 
#
# Total GULP energy -67030.347730 kJ/mol
# GULP energy per Si atom -5585.862311 kJ/mol
# Density = 2.393233 g / cm^3
# Si number density = 23.986926 Si / 1000 Ang^3
#
#
#
# Elastic Constant Matrix: (Units=GPa)
#
#
# Indices 1 2 3 4 5 6 
#
# 1 65.5752 22.5020 7.6888 6.4440 -7.3901 -8.2157
# 2 22.5020 125.8351 27.8811 -3.1769 -13.0603 -29.1072
# 3 7.6888 27.8811 51.4293 6.4156 13.3600 -10.4137
# 4 6.4440 -3.1769 6.4156 40.5688 -6.1210 1.2147
# 5 -7.3901 -13.0603 13.3600 -6.1210 38.7942 6.6291
# 6 -8.2157 -29.1072 -10.4137 1.2147 6.6291 43.5085
#
#
#
# Elastic Compliance Matrix: (Units=1/GPa)
#
#
# Indices 1 2 3 4 5 6 
#
# 1 0.016816 -0.002268 -0.001412 -0.002295 0.002390 0.001020
# 2 -0.002268 0.011608 -0.006780 0.003023 0.005468 0.004797
# 3 -0.001412 -0.006780 0.028880 -0.007181 -0.014400 0.004504
# 4 -0.002295 0.003023 -0.007181 0.027621 0.007768 -0.002085
# 5 0.002390 0.005468 -0.014400 0.007768 0.035095 -0.004901
# 6 0.001020 0.004797 0.004504 -0.002085 -0.004901 0.028269
#
#
# Mechanical properties :
#
#
# Convention : Reuss Voigt Hill
#
# Bulk Modulus (GPa) = 27.48562 39.88705 33.68634
# Shear Modulus (GPa) = 27.57271 36.89215 32.23243
#
# Velocity S-wave (km/s) = 3.39409 3.92600 3.66970
# Velocity P-wave (km/s) = 5.18105 6.10050 5.65948
#
# Compressibility (1/GPa) = 0.03638265
#
# Stress axis : x y z
#
# Youngs Moduli (GPa) = 59.46628 86.14516 34.62642
#
# Poissons Ratio (x) = 0.19539 0.04891
# Poissons Ratio (y) = 0.13488 0.23478
# Poissons Ratio (z) = 0.08399 0.58409
#
# Static dielectric constant tensor:
#      x y z
#    x 1.965640 0.001040 -0.075190 
#    y 0.001040 1.869740 -0.005240 
#    z -0.075190 -0.005240 2.073680 
# 
# From -- ./inp_files/3513.got.cif
#   From: 2010.05.17/outbox.cif.g08.bks.cpg/sg2_2_cif.got.tgz:3513.got - 2010.06.03 11:33:40.
