data_PCOD9101262
_publ_section_title
;
Structure prediction by ZEFSAII (Michael W. Deem and Ramdas Pophale) SiO2 
 PCOD9101262
Probable space group: P -1
;
_chemical_formula_sum "Si O2"
_cell_formula_units_Z 16
_cell_length_a 18.456291
_cell_length_b 11.411309
_cell_length_c 5.594852
_cell_angle_alpha 127.880503
_cell_angle_beta 115.922796
_cell_angle_gamma 43.961633
_cell_volume 645.594701
_symmetry_space_group_name_H-M "P -1"
_symmetry_group_IT_number 2
_symmetry_cell_setting 'triclinic'
loop_
_space_group_symop_operation_xyz
x,y,z
-x,-y,-z
loop_
_atom_site_type_symbol
_atom_site_label
_atom_site_fract_x
_atom_site_fract_y
_atom_site_fract_z
Si Si1 0.677340 0.529274 0.553560
Si Si2 0.053490 0.489578 0.315834
Si Si3 0.023540 0.111927 0.444336
Si Si4 0.840552 0.163649 0.116630
Si Si5 0.591765 0.853971 0.135904
Si Si6 0.201453 0.067140 0.943539
Si Si7 0.475781 0.792493 0.285756
Si Si8 0.390278 0.683601 0.674114
O O1 0.753133 0.393223 0.280700
O O2 0.560433 0.665734 0.452362
O O3 0.682400 0.375514 0.528556
O O4 0.685686 0.668040 0.893008
O O5 0.000000 0.500000 0.500000
O O6 0.039079 0.683325 0.532579
O O7 0.166866 0.275506 0.208970
O O8 0.000000 0.500000 0.000000
O O9 0.103741 0.111859 0.717422
O O10 0.925289 0.122582 0.383916
O O11 0.097041 0.928700 0.150756
O O12 0.797839 0.049550 0.978244
O O13 0.541159 0.792090 0.164023
O O14 0.606917 0.986585 0.472259
O O15 0.500000 0.000000 0.000000
O O16 0.312368 0.910308 0.772142
O O17 0.423672 0.704689 0.009347
O O18 0.500000 0.500000 0.500000
#
# Coordination Sequence:
#
# PCOD9101262 Si02
#       8
#     2   2   2   2   2   2   2   2
#     4  10  21  37  61  89 121 155 206 259 311 377
#     4  10  20  41  66  91 128 171 213 272 331 390
#     4  10  21  39  62  89 120 163 204 267 321 389
#     4  10  21  37  62  91 120 155 209 255 325 388
#     4   9  19  38  58  79 118 161 202 253 301 363
#     4  10  22  40  62  86 127 164 209 264 324 383
#     4  10  20  38  58  82 121 162 198 249 309 365
#     4  11  22  38  61  91 124 163 212 255 314 387
#
# _framework density 24.783351
#
# number of rings (size 3 to 8) (size 9 to 14) (size 15 to 20)
#    0.000    2.000    2.500    0.750    1.750    0.000 
#    6.750    2.500    0.000    0.000    0.000    0.000 
#    0.000    0.000    0.000    0.000    0.000    0.000 
#
# Total GULP energy -89112.323498 kJ/mol
# GULP energy per Si atom -5569.520219 kJ/mol
# Density = 2.472694 g / cm^3
# Si number density = 24.783351 Si / 1000 Ang^3
#
#
#
# Elastic Constant Matrix: (Units=GPa)
#
#
# Indices 1 2 3 4 5 6 
#
# 1 58.8468 16.8153 13.9883 13.4742 -9.9924 -10.3369
# 2 16.8153 108.0375 41.4970 45.0449 -14.4074 -25.2777
# 3 13.9883 41.4970 132.8386 53.7440 -8.4858 -8.4550
# 4 13.4742 45.0449 53.7440 63.9796 -10.2162 -13.2681
# 5 -9.9924 -14.4074 -8.4858 -10.2162 21.7790 -3.6403
# 6 -10.3369 -25.2777 -8.4550 -13.2681 -3.6403 26.5758
#
#
#
# Elastic Compliance Matrix: (Units=1/GPa)
#
#
# Indices 1 2 3 4 5 6 
#
# 1 0.020731 0.001300 -0.001015 -0.000453 0.011490 0.010325
# 2 0.001300 0.017107 -0.001213 -0.006544 0.010812 0.014605
# 3 -0.001015 -0.001213 0.011574 -0.009517 -0.001699 -0.002851
# 4 -0.000453 -0.006544 -0.009517 0.030985 0.007471 0.007065
# 5 0.011490 0.010812 -0.001699 0.007471 0.065685 0.026940
# 6 0.010325 0.014605 -0.002851 0.007065 0.026940 0.061846
#
#
# Mechanical properties :
#
#
# Convention : Reuss Voigt Hill
#
# Bulk Modulus (GPa) = 21.02760 49.36935 35.19848
# Shear Modulus (GPa) = 22.15944 37.62835 29.89390
#
# Velocity S-wave (km/s) = 2.99344 3.90075 3.47682
# Velocity P-wave (km/s) = 4.52223 6.34440 5.50917
#
# Compressibility (1/GPa) = 0.04755655
#
# Stress axis : x y z
#
# Youngs Moduli (GPa) = 48.23598 58.45543 86.39848
#
# Poissons Ratio (x) = -0.07598 0.08767
# Poissons Ratio (y) = -0.06270 0.10482
# Poissons Ratio (z) = 0.04895 0.07092
#
# Static dielectric constant tensor:
#      x y z
#    x 1.996880 0.068910 -0.142420 
#    y 0.068910 2.014640 0.104740 
#    z -0.142420 0.104740 1.684890 
# 
# From -- ./inp_files/118912.got.cif
#   From: 2010.05.17/outbox.cif.g08.bks.cpg/sg2_60_cif.got.tgz:118912.got - 2010.06.03 11:33:40.
