data_PCOD9101285
_publ_section_title
;
Structure prediction by ZEFSAII (Michael W. Deem and Ramdas Pophale) SiO2 
 PCOD9101285
Probable space group: P -1
;
_chemical_formula_sum "Si O2"
_cell_formula_units_Z 14
_cell_length_a 11.134653
_cell_length_b 14.672217
_cell_length_c 11.746858
_cell_angle_alpha 151.350777
_cell_angle_beta 103.200224
_cell_angle_gamma 60.938482
_cell_volume 708.910565
_symmetry_space_group_name_H-M "P -1"
_symmetry_group_IT_number 2
_symmetry_cell_setting 'triclinic'
loop_
_space_group_symop_operation_xyz
x,y,z
-x,-y,-z
loop_
_atom_site_type_symbol
_atom_site_label
_atom_site_fract_x
_atom_site_fract_y
_atom_site_fract_z
Si Si1 0.120798 0.182431 0.793137
Si Si2 0.873177 0.769303 0.808047
Si Si3 0.340747 0.933050 0.122093
Si Si4 0.890575 0.105415 0.339680
Si Si5 0.530424 0.427041 0.559090
Si Si6 0.382058 0.062879 0.885088
Si Si7 0.898390 0.743556 0.396777
O O1 0.126145 0.177589 0.653508
O O2 0.093604 0.006563 0.655449
O O3 0.282430 0.103835 0.796739
O O4 0.987786 0.458514 0.104265
O O5 0.782438 0.937783 0.865046
O O6 0.000000 0.500000 0.500000
O O7 0.933875 0.893574 0.029730
O O8 0.748027 0.780931 0.875120
O O9 0.495372 0.892567 0.067484
O O10 0.261287 0.104205 0.400809
O O11 0.400115 0.663878 0.860128
O O12 0.707977 0.318295 0.509790
O O13 0.992647 0.197402 0.457915
O O14 0.500000 0.500000 0.500000
O O15 0.526797 0.208205 0.346778
#
# Coordination Sequence:
#
# PCOD9101285 Si02
#       7
#     2   2   2   2   2   2   2
#     4   9  21  44  63  85 116 157 205 252 301 339
#     4  10  21  37  60  88 118 157 199 242 298 351
#     4  12  22  37  57  92 121 156 197 238 302 361
#     4  10  21  41  61  87 120 157 198 248 298 351
#     4  10  20  38  58  85 115 159 196 232 297 355
#     4  10  22  40  61  83 123 158 194 249 298 349
#     4  11  23  38  64  90 117 157 203 249 297 359
#
# _framework density 19.748612000000001
#
# number of rings (size 3 to 8) (size 9 to 14) (size 15 to 20)
#    0.000    2.000    2.857    3.429    0.000    3.429 
#    0.000    2.857    0.000    0.000    0.000    0.000 
#    0.000    0.000    0.000    0.000    0.000    0.000 
#
# Total GULP energy -78198.930079 kJ/mol
# GULP energy per Si atom -5585.637863 kJ/mol
# Density = 1.970366 g / cm^3
# Si number density = 19.748612 Si / 1000 Ang^3
#
#
#
# Elastic Constant Matrix: (Units=GPa)
#
#
# Indices 1 2 3 4 5 6 
#
# 1 56.2422 14.7067 30.1695 -1.5672 -6.6761 7.5029
# 2 14.7067 86.9875 47.2674 7.4542 -5.4402 1.8867
# 3 30.1695 47.2674 121.2251 0.3520 -20.3602 5.3964
# 4 -1.5672 7.4542 0.3520 33.3749 3.7021 -0.3434
# 5 -6.6761 -5.4402 -20.3602 3.7021 7.7491 -3.2912
# 6 7.5029 1.8867 5.3964 -0.3434 -3.2912 17.3742
#
#
#
# Elastic Compliance Matrix: (Units=1/GPa)
#
#
# Indices 1 2 3 4 5 6 
#
# 1 0.021665 -0.001186 -0.003927 0.000799 0.004065 -0.007221
# 2 -0.001186 0.015173 -0.006803 -0.002579 -0.007197 -0.000437
# 3 -0.003927 -0.006803 0.019675 -0.004114 0.047746 0.005287
# 4 0.000799 -0.002579 -0.004114 0.033876 -0.029708 -0.003745
# 5 0.004065 -0.007197 0.047746 -0.029708 0.282941 0.037206
# 6 -0.007221 -0.000437 0.005287 -0.003745 0.037206 0.066054
#
#
# Mechanical properties :
#
#
# Convention : Reuss Voigt Hill
#
# Bulk Modulus (GPa) = 30.59983 49.86024 40.23003
# Shear Modulus (GPa) = 10.54603 23.18705 16.86654
#
# Velocity S-wave (km/s) = 2.31338 3.43025 2.92560
# Velocity P-wave (km/s) = 4.76067 6.40243 5.64159
#
# Compressibility (1/GPa) = 0.03267992
#
# Stress axis : x y z
#
# Youngs Moduli (GPa) = 46.15666 65.90466 50.82657
#
# Poissons Ratio (x) = 0.07819 0.19962
# Poissons Ratio (y) = 0.05476 0.34577
# Poissons Ratio (z) = 0.18128 0.44835
#
# Static dielectric constant tensor:
#      x y z
#    x 1.700510 -0.000160 0.013530 
#    y -0.000160 1.692370 -0.005000 
#    z 0.013530 -0.005000 1.705860 
# 
# From -- ./inp_files/330623.got.cif
#   From: 2010.05.17/outbox.cif.g08.bks.cpg/sg2_166_cif.got.tgz:330623.got - 2010.06.03 11:33:40.
