data_PCOD9101242
_publ_section_title
;
Structure prediction by ZEFSAII (Michael W. Deem and Ramdas Pophale) SiO2 
 PCOD9101242
Probable space group: P -1
;
_chemical_formula_sum "Si O2"
_cell_formula_units_Z 12
_cell_length_a 9.906867
_cell_length_b 12.142044
_cell_length_c 11.403039
_cell_angle_alpha 135.251299
_cell_angle_beta 55.069650
_cell_angle_gamma 94.086988
_cell_volume 644.319598
_symmetry_space_group_name_H-M "P -1"
_symmetry_group_IT_number 2
_symmetry_cell_setting 'triclinic'
loop_
_space_group_symop_operation_xyz
x,y,z
-x,-y,-z
loop_
_atom_site_type_symbol
_atom_site_label
_atom_site_fract_x
_atom_site_fract_y
_atom_site_fract_z
Si Si1 0.840686 0.125389 0.572622
Si Si2 0.345346 0.715267 0.783410
Si Si3 0.317076 0.066854 0.951444
Si Si4 0.125601 0.042166 0.806922
Si Si5 0.503576 0.287430 0.040466
Si Si6 0.100849 0.706198 0.544260
O O1 0.823707 0.997110 0.386150
O O2 0.913154 0.231646 0.537551
O O3 0.628043 0.269564 0.850696
O O4 0.000000 0.000000 0.500000
O O5 0.500000 0.500000 0.500000
O O6 0.381605 0.862810 0.815230
O O7 0.377904 0.724450 0.912238
O O8 0.112931 0.794331 0.939044
O O9 0.253577 0.079281 0.856769
O O10 0.522408 0.885019 0.076910
O O11 0.113061 0.224249 0.243671
O O12 0.154649 0.844093 0.682317
O O13 0.282003 0.486647 0.303416
#
# Coordination Sequence:
#
# PCOD9101242 Si02
#       6
#     2   2   2   2   2   2
#     4  10  20  38  58  79 115 152 188 219 276 341
#     4  11  21  36  60  83 110 150 195 221 271 340
#     4  11  21  37  57  89 114 141 184 243 280 308
#     4   9  20  37  58  76 116 147 188 221 276 330
#     4  12  21  35  60  88 113 143 186 236 279 325
#     4   9  20  36  59  81 112 150 189 219 278 337
#
# _framework density 18.624298
#
# number of rings (size 3 to 8) (size 9 to 14) (size 15 to 20)
#    1.000    0.667    1.667    5.500    0.000    0.667 
#    0.000    0.000    0.000    2.000    0.000    0.000 
#    0.000    0.000    0.000    0.000    0.000    0.000 
#
# Total GULP energy -66907.548494 kJ/mol
# GULP energy per Si atom -5575.629041 kJ/mol
# Density = 1.858191 g / cm^3
# Si number density = 18.624298 Si / 1000 Ang^3
#
#
#
# Elastic Constant Matrix: (Units=GPa)
#
#
# Indices 1 2 3 4 5 6 
#
# 1 45.6512 14.5089 24.5761 -15.2959 11.6065 -10.0867
# 2 14.5089 58.3483 24.4502 -2.8054 8.2640 -25.1984
# 3 24.5761 24.4502 100.6468 4.0155 21.0532 -6.0226
# 4 -15.2959 -2.8054 4.0155 37.7438 -3.8466 8.7719
# 5 11.6065 8.2640 21.0532 -3.8466 11.4217 -6.2180
# 6 -10.0867 -25.1984 -6.0226 8.7719 -6.2180 22.3319
#
#
#
# Elastic Compliance Matrix: (Units=1/GPa)
#
#
# Indices 1 2 3 4 5 6 
#
# 1 0.034435 -0.003483 -0.003360 0.011808 -0.022386 -0.000153
# 2 -0.003483 0.040052 -0.008725 -0.007220 0.014404 0.048113
# 3 -0.003360 -0.008725 0.019698 -0.004439 -0.035856 -0.014291
# 4 0.011808 -0.007220 -0.004439 0.035550 0.004236 -0.016795
# 5 -0.022386 0.014404 -0.035856 0.004236 0.193972 0.048817
# 6 -0.000153 0.048113 -0.014291 -0.016795 0.048817 0.115334
#
#
# Mechanical properties :
#
#
# Convention : Reuss Voigt Hill
#
# Bulk Modulus (GPa) = 15.86080 36.85743 26.35911
# Shear Modulus (GPa) = 10.17929 23.70689 16.94309
#
# Velocity S-wave (km/s) = 2.34040 3.57164 3.01945
# Velocity P-wave (km/s) = 3.97969 6.06974 5.13224
#
# Compressibility (1/GPa) = 0.06304853
#
# Stress axis : x y z
#
# Youngs Moduli (GPa) = 29.04057 24.96771 50.76637
#
# Poissons Ratio (x) = 0.08695 0.17057
# Poissons Ratio (y) = 0.10114 0.44296
# Poissons Ratio (z) = 0.09758 0.21785
#
# Static dielectric constant tensor:
#      x y z
#    x 1.639760 -0.014310 0.009870 
#    y -0.014310 1.648830 -0.008940 
#    z 0.009870 -0.008940 1.649200 
# 
# From -- ./inp_files/430209.got.cif
#   From: 2010.05.17/outbox.cif.g08.bks.cpg/sg2_216_cif.got.tgz:430209.got - 2010.06.03 11:33:40.
