data_PCOD9101794
_publ_section_title
;
Structure prediction by ZEFSAII (Michael W. Deem and Ramdas Pophale) SiO2 
 PCOD9101794
Probable space group: P -1
;
_chemical_formula_sum "Si O2"
_cell_formula_units_Z 16
_cell_length_a 5.471020
_cell_length_b 19.846792
_cell_length_c 30.342512
_cell_angle_alpha 16.735522
_cell_angle_beta 78.728452
_cell_angle_gamma 87.062215
_cell_volume 815.540533
_symmetry_space_group_name_H-M "P -1"
_symmetry_group_IT_number 2
_symmetry_cell_setting 'triclinic'
loop_
_space_group_symop_operation_xyz
x,y,z
-x,-y,-z
loop_
_atom_site_type_symbol
_atom_site_label
_atom_site_fract_x
_atom_site_fract_y
_atom_site_fract_z
Si Si1 0.988648 0.206539 0.933644
Si Si2 0.092775 0.064246 0.545079
Si Si3 0.233207 0.709471 0.827552
Si Si4 0.714713 0.602149 0.291437
Si Si5 0.958558 0.706957 0.507799
Si Si6 0.553169 0.771186 0.854223
Si Si7 0.459394 0.583837 0.157333
Si Si8 0.421513 0.479056 0.123021
O O1 0.162538 0.341851 0.797977
O O2 0.232693 0.269887 0.921974
O O3 0.763103 0.310380 0.888027
O O4 0.814089 0.891189 0.128263
O O5 0.028408 0.233506 0.477433
O O6 0.317961 0.275810 0.371577
O O7 0.185287 0.898937 0.677848
O O8 0.828970 0.826896 0.677959
O O9 0.454593 0.895407 0.740359
O O10 0.323774 0.541930 0.896874
O O11 0.000000 0.500000 0.000000
O O12 0.371762 0.443763 0.400046
O O13 0.874855 0.461932 0.398620
O O14 0.127733 0.994940 0.297153
O O15 0.500000 0.500000 0.000000
O O16 0.378797 0.667166 0.970584
O O17 0.480806 0.589400 0.100394
#
# Coordination Sequence:
#
# PCOD9101794 Si02
#       8
#     2   2   2   2   2   2   2   2
#     4  11  24  45  65  94 125 167 216 277 325 380
#     4  12  22  38  59  97 134 173 211 254 314 395
#     4  11  21  37  63  86 130 179 217 265 299 360
#     4  11  23  42  69  94 125 158 218 281 331 361
#     4  12  21  37  67 100 124 163 209 271 326 370
#     4  10  20  38  60  94 129 169 212 258 306 366
#     4  12  27  41  66  94 134 176 213 254 326 397
#     4  11  25  41  57  92 139 181 207 249 318 392
#
# _framework density 19.61889
#
# number of rings (size 3 to 8) (size 9 to 14) (size 15 to 20)
#    0.000    0.750    6.250    2.625    3.500    2.500 
#    0.000    0.000    0.000    4.500    0.000    0.000 
#    0.000    0.000    0.000    0.000    0.000    0.000 
#
# Total GULP energy -89165.208749 kJ/mol
# GULP energy per Si atom -5572.825547 kJ/mol
# Density = 1.957424 g / cm^3
# Si number density = 19.618890 Si / 1000 Ang^3
#
#
#
# Elastic Constant Matrix: (Units=GPa)
#
#
# Indices 1 2 3 4 5 6 
#
# 1 132.4410 49.5479 60.8920 -18.9386 -2.2111 12.0413
# 2 49.5479 120.1535 49.7957 6.5976 -0.7255 12.5554
# 3 60.8920 49.7957 121.0822 -5.4541 -11.6217 6.0068
# 4 -18.9386 6.5976 -5.4541 24.5737 6.7618 0.1234
# 5 -2.2111 -0.7255 -11.6217 6.7618 39.6358 -7.5574
# 6 12.0413 12.5554 6.0068 0.1234 -7.5574 21.2897
#
#
#
# Elastic Compliance Matrix: (Units=1/GPa)
#
#
# Indices 1 2 3 4 5 6 
#
# 1 0.012995 -0.003480 -0.004693 0.010923 -0.003591 -0.005311
# 2 -0.003480 0.011923 -0.003291 -0.006406 -0.000675 -0.004337
# 3 -0.004693 -0.003291 0.012172 -0.001125 0.003927 0.002562
# 4 0.010923 -0.006406 -0.001125 0.053387 -0.010084 -0.005971
# 5 -0.003591 -0.000675 0.003927 -0.010084 0.030196 0.012098
# 6 -0.005311 -0.004337 0.002562 -0.005971 0.012098 0.056139
#
#
# Mechanical properties :
#
#
# Convention : Reuss Voigt Hill
#
# Bulk Modulus (GPa) = 70.62007 77.12757 73.87382
# Shear Modulus (GPa) = 24.45456 31.32924 27.89190
#
# Velocity S-wave (km/s) = 3.53438 4.00045 3.77462
# Velocity P-wave (km/s) = 7.26154 7.79335 7.53214
#
# Compressibility (1/GPa) = 0.01416028
#
# Stress axis : x y z
#
# Youngs Moduli (GPa) = 76.95186 83.87342 82.15755
#
# Poissons Ratio (x) = 0.29190 0.38557
# Poissons Ratio (y) = 0.26781 0.27040
# Poissons Ratio (z) = 0.36114 0.27605
#
# Static dielectric constant tensor:
#      x y z
#    x 2.002500 0.034290 0.042840 
#    y 0.034290 1.652120 -0.002200 
#    z 0.042840 -0.002200 1.777790 
# 
# From -- ./inp_files/615823.got.cif
#   From: 2010.05.17/outbox.cif.g08.bks.cpg/sg2_308_cif.got.tgz:615823.got - 2010.06.03 11:33:40.
