data_PCOD9101039
_publ_section_title
;
Structure prediction by ZEFSAII (Michael W. Deem and Ramdas Pophale) SiO2 
 PCOD9101039
Probable space group: P -1
;
_chemical_formula_sum "Si O2"
_cell_formula_units_Z 14
_cell_length_a 7.776125
_cell_length_b 8.991317
_cell_length_c 14.396602
_cell_angle_alpha 67.800007
_cell_angle_beta 39.078151
_cell_angle_gamma 67.097026
_cell_volume 579.510308
_symmetry_space_group_name_H-M "P -1"
_symmetry_group_IT_number 2
_symmetry_cell_setting 'triclinic'
loop_
_space_group_symop_operation_xyz
x,y,z
-x,-y,-z
loop_
_atom_site_type_symbol
_atom_site_label
_atom_site_fract_x
_atom_site_fract_y
_atom_site_fract_z
Si Si1 0.351473 0.183858 0.013098
Si Si2 0.744785 0.561829 0.322906
Si Si3 0.553712 0.556711 0.676789
Si Si4 0.659020 0.463150 0.847419
Si Si5 0.234422 0.114330 0.877787
Si Si6 0.015073 0.232900 0.531189
Si Si7 0.167170 0.096570 0.298080
O O1 0.180323 0.204520 0.175620
O O2 0.597808 0.286838 0.888552
O O3 0.206606 0.203940 0.969185
O O4 0.500000 0.000000 0.000000
O O5 0.723589 0.701075 0.548950
O O6 0.713618 0.462121 0.264678
O O7 0.743498 0.748093 0.242339
O O8 0.023138 0.528524 0.273434
O O9 0.500000 0.500000 0.500000
O O10 0.763258 0.383855 0.614008
O O11 0.516507 0.574518 0.798384
O O12 0.500000 0.500000 0.000000
O O13 0.523787 0.990452 0.784548
O O14 0.000000 0.000000 0.000000
O O15 0.042499 0.192260 0.418882
O O16 0.979577 0.058217 0.627503
#
# Coordination Sequence:
#
# PCOD9101039 Si02
#       7
#     2   2   2   2   2   2   2
#     4  10  20  41  66  94 131 185 225 277 349 417
#     4  12  25  43  72 104 140 186 235 291 355 423
#     4  11  22  43  68  98 139 184 228 283 359 419
#     4  12  26  45  71 100 139 185 232 288 353 421
#     4  11  23  42  67 101 140 182 241 291 348 427
#     4  10  20  37  68  98 138 178 225 289 352 420
#     4  10  20  38  68  97 133 185 231 280 356 415
#
# _framework density 24.158328000000001
#
# number of rings (size 3 to 8) (size 9 to 14) (size 15 to 20)
#    0.000    1.143    2.857    5.143    0.000    1.714 
#    2.571    0.000    3.143    3.429    0.000    0.000 
#    0.000    0.000    0.000    0.000    0.000    0.000 
#
# Total GULP energy -78251.510334 kJ/mol
# GULP energy per Si atom -5589.393595 kJ/mol
# Density = 2.410334 g / cm^3
# Si number density = 24.158328 Si / 1000 Ang^3
#
#
#
# Elastic Constant Matrix: (Units=GPa)
#
#
# Indices 1 2 3 4 5 6 
#
# 1 119.5622 36.3009 58.4745 -22.8850 -3.7930 23.1107
# 2 36.3009 103.9163 48.7049 -32.7108 -15.2871 17.7489
# 3 58.4745 48.7049 158.4619 -29.0776 9.3675 13.5130
# 4 -22.8850 -32.7108 -29.0776 57.3151 23.3603 -2.2170
# 5 -3.7930 -15.2871 9.3675 23.3603 46.8749 -13.5498
# 6 23.1107 17.7489 13.5130 -2.2170 -13.5498 43.8462
#
#
#
# Elastic Compliance Matrix: (Units=1/GPa)
#
#
# Indices 1 2 3 4 5 6 
#
# 1 0.011642 -0.001150 -0.002794 0.003178 -0.001979 -0.005261
# 2 -0.001150 0.013715 -0.002554 0.005469 0.001145 -0.003528
# 3 -0.002794 -0.002554 0.009459 0.004496 -0.005757 -0.001960
# 4 0.003178 0.005469 0.004496 0.030564 -0.016655 -0.008876
# 5 -0.001979 0.001145 -0.005757 -0.016655 0.034517 0.012179
# 6 -0.005261 -0.003528 -0.001960 -0.008876 0.012179 0.030927
#
#
# Mechanical properties :
#
#
# Convention : Reuss Voigt Hill
#
# Bulk Modulus (GPa) = 45.82951 74.32234 60.07592
# Shear Modulus (GPa) = 33.09244 45.50456 39.29850
#
# Velocity S-wave (km/s) = 3.70512 4.34475 4.03762
# Velocity P-wave (km/s) = 6.10864 7.48336 6.83067
#
# Compressibility (1/GPa) = 0.02182000
#
# Stress axis : x y z
#
# Youngs Moduli (GPa) = 85.89879 72.91552 105.71696
#
# Poissons Ratio (x) = 0.08382 0.29536
# Poissons Ratio (y) = 0.09875 0.27003
# Poissons Ratio (z) = 0.23999 0.18625
#
# Static dielectric constant tensor:
#      x y z
#    x 1.951230 0.024250 0.042170 
#    y 0.024250 1.969140 0.026130 
#    z 0.042170 0.026130 2.073290 
# 
# From -- ./inp_files/494574.got.cif
#   From: 2010.05.17/outbox.cif.g08.bks.cpg/sg2_248_cif.got.tgz:494574.got - 2010.06.03 11:33:40.
