data_PCOD9101969
_publ_section_title
;
Structure prediction by ZEFSAII (Michael W. Deem and Ramdas Pophale) SiO2 
 PCOD9101969
Probable space group: P -1
;
_chemical_formula_sum "Si O2"
_cell_formula_units_Z 14
_cell_length_a 21.053109
_cell_length_b 10.783273
_cell_length_c 15.454895
_cell_angle_alpha 32.552968
_cell_angle_beta 20.322420
_cell_angle_gamma 34.757154
_cell_volume 646.500214
_symmetry_space_group_name_H-M "P -1"
_symmetry_group_IT_number 2
_symmetry_cell_setting 'triclinic'
loop_
_space_group_symop_operation_xyz
x,y,z
-x,-y,-z
loop_
_atom_site_type_symbol
_atom_site_label
_atom_site_fract_x
_atom_site_fract_y
_atom_site_fract_z
Si Si1 0.611383 0.118709 0.537361
Si Si2 0.980046 0.181102 0.497624
Si Si3 0.322815 0.937934 0.313496
Si Si4 0.041291 0.646630 0.051126
Si Si5 0.705598 0.963080 0.220597
Si Si6 0.394689 0.750032 0.963517
Si Si7 0.264160 0.435111 0.729826
O O1 0.656176 0.026251 0.631635
O O2 0.782568 0.235022 0.217769
O O3 0.430546 0.318891 0.648119
O O4 0.549762 0.915140 0.679222
O O5 0.774338 0.183943 0.793861
O O6 0.000000 0.000000 0.500000
O O7 0.137059 0.084421 0.424113
O O8 0.004252 0.437597 0.282749
O O9 0.309528 0.662132 0.488258
O O10 0.500000 0.000000 0.000000
O O11 0.096890 0.526159 0.956062
O O12 0.866992 0.855237 0.142624
O O13 0.741538 0.769221 0.211729
O O14 0.500000 0.000000 0.500000
O O15 0.702594 0.207656 0.030833
O O16 0.500000 0.500000 0.000000
#
# Coordination Sequence:
#
# PCOD9101969 Si02
#       7
#     2   2   2   2   2   2   2
#     4  10  22  40  62  89 123 161 203 254 308 366
#     4  12  23  38  64  97 127 161 204 253 304 360
#     4  11  20  34  59  95 125 156 202 258 304 350
#     4  11  21  40  64  91 121 161 205 250 303 366
#     4  11  23  40  61  88 122 165 205 245 304 373
#     4  11  24  44  63  89 124 161 203 257 311 367
#     4  10  20  38  61  89 123 161 201 249 302 366
#
# _framework density 21.655059000000001
#
# number of rings (size 3 to 8) (size 9 to 14) (size 15 to 20)
#    0.000    1.143    0.000    9.857    0.000    1.143 
#    0.000   10.714    0.000    0.000    0.000    0.000 
#    0.000    0.000    0.000    0.000    0.000    0.000 
#
# Total GULP energy -78197.936900 kJ/mol
# GULP energy per Si atom -5585.566921 kJ/mol
# Density = 2.160577 g / cm^3
# Si number density = 21.655059 Si / 1000 Ang^3
#
#
#
# Elastic Constant Matrix: (Units=GPa)
#
#
# Indices 1 2 3 4 5 6 
#
# 1 67.4037 37.5239 23.6045 4.4016 -6.1144 -33.9505
# 2 37.5239 147.2293 41.6978 7.7975 -2.0825 -49.8319
# 3 23.6045 41.6978 107.0031 2.6902 5.8554 -15.2764
# 4 4.4016 7.7975 2.6902 55.6683 -6.5309 1.0853
# 5 -6.1144 -2.0825 5.8554 -6.5309 30.3697 -1.4134
# 6 -33.9505 -49.8319 -15.2764 1.0853 -1.4134 40.6675
#
#
#
# Elastic Compliance Matrix: (Units=1/GPa)
#
#
# Indices 1 2 3 4 5 6 
#
# 1 0.028755 0.003013 -0.004098 -0.002127 0.007561 0.026478
# 2 0.003013 0.012954 -0.003336 -0.001932 0.002527 0.017275
# 3 -0.004098 -0.003336 0.011253 -0.000085 -0.003400 -0.003398
# 4 -0.002127 -0.001932 -0.000085 0.018883 0.003304 -0.004564
# 5 0.007561 0.002527 -0.003400 0.003304 0.036422 0.009309
# 6 0.026478 0.017275 -0.003398 -0.004564 0.009309 0.067031
#
#
# Mechanical properties :
#
#
# Convention : Reuss Voigt Hill
#
# Bulk Modulus (GPa) = 22.66510 58.58759 40.62635
# Shear Modulus (GPa) = 25.14512 39.92843 32.53677
#
# Velocity S-wave (km/s) = 3.41129 4.29865 3.88042
# Velocity P-wave (km/s) = 5.09951 7.19385 6.23524
#
# Compressibility (1/GPa) = 0.04412070
#
# Stress axis : x y z
#
# Youngs Moduli (GPa) = 34.77667 77.19624 88.86833
#
# Poissons Ratio (x) = -0.23262 0.36414
# Poissons Ratio (y) = -0.10479 0.29648
# Poissons Ratio (z) = 0.14250 0.25754
#
# Static dielectric constant tensor:
#      x y z
#    x 1.859080 -0.020190 -0.001610 
#    y -0.020190 1.782290 -0.026000 
#    z -0.001610 -0.026000 1.775230 
# 
# From -- ./inp_files/154187.got.cif
#   From: 2010.05.17/outbox.cif.g08.bks.cpg/sg2_78_cif.got.tgz:154187.got - 2010.06.03 11:33:40.
