data_PCOD9101320
_publ_section_title
;
Structure prediction by ZEFSAII (Michael W. Deem and Ramdas Pophale) SiO2 
 PCOD9101320
Probable space group: P -1
;
_chemical_formula_sum "Si O2"
_cell_formula_units_Z 16
_cell_length_a 9.410398
_cell_length_b 18.631666
_cell_length_c 18.781233
_cell_angle_alpha 158.960380
_cell_angle_beta 37.348157
_cell_angle_gamma 139.089818
_cell_volume 715.760305
_symmetry_space_group_name_H-M "P -1"
_symmetry_group_IT_number 2
_symmetry_cell_setting 'triclinic'
loop_
_space_group_symop_operation_xyz
x,y,z
-x,-y,-z
loop_
_atom_site_type_symbol
_atom_site_label
_atom_site_fract_x
_atom_site_fract_y
_atom_site_fract_z
Si Si1 0.841893 0.631444 0.825737
Si Si2 0.113189 0.953221 0.834871
Si Si3 0.847041 0.290217 0.094165
Si Si4 0.855053 0.981744 0.368843
Si Si5 0.459990 0.664060 0.232118
Si Si6 0.732410 0.726501 0.526775
Si Si7 0.746273 0.384183 0.452616
Si Si8 0.677880 0.785244 0.771418
O O1 0.666632 0.464349 0.773811
O O2 0.061737 0.651620 0.810611
O O3 0.982979 0.604270 0.671779
O O4 0.734474 0.847652 0.063986
O O5 0.248091 0.753331 0.606510
O O6 0.895500 0.924703 0.841345
O O7 0.000000 0.000000 0.000000
O O8 0.821410 0.507062 0.268285
O O9 0.595075 0.170088 0.079198
O O10 0.039243 0.152906 0.859521
O O11 0.677536 0.806061 0.308591
O O12 0.707582 0.168010 0.575522
O O13 0.091128 0.098373 0.413326
O O14 0.500000 0.500000 0.000000
O O15 0.464064 0.739238 0.621316
O O16 0.731447 0.729980 0.616991
O O17 0.679414 0.606218 0.663792
#
# Coordination Sequence:
#
# PCOD9101320 Si02
#       8
#     2   2   2   2   2   2   2   2
#     4  11  19  37  54  82 129 150 193 249 293 350
#     4  10  24  35  53  87 124 167 199 238 289 367
#     4  11  20  34  58  95 119 151 193 254 299 355
#     4  11  22  33  58  86 119 155 193 247 315 348
#     4  11  22  38  55  84 123 154 199 253 300 352
#     4  11  20  36  61  93 124 151 198 253 299 355
#     4  10  20  38  58  87 126 159 196 241 297 361
#     4  11  20  35  61  86 128 161 193 246 304 354
#
# _framework density 22.353852
#
# number of rings (size 3 to 8) (size 9 to 14) (size 15 to 20)
#    0.000    1.250    5.000    1.875    3.500    1.000 
#    0.000    0.000    0.000    0.750    0.000    2.625 
#    0.000    0.000    0.000    0.000    0.000    0.000 
#
# Total GULP energy -89075.676895 kJ/mol
# GULP energy per Si atom -5567.229806 kJ/mol
# Density = 2.230297 g / cm^3
# Si number density = 22.353852 Si / 1000 Ang^3
#
#
#
# Elastic Constant Matrix: (Units=GPa)
#
#
# Indices 1 2 3 4 5 6 
#
# 1 63.6580 35.6122 20.6241 8.1724 -3.1348 3.9250
# 2 35.6122 164.0837 44.9578 48.7419 -7.0774 6.9141
# 3 20.6241 44.9578 108.8259 15.0368 -10.2388 -7.3164
# 4 8.1724 48.7419 15.0368 47.7301 -1.8009 0.2514
# 5 -3.1348 -7.0774 -10.2388 -1.8009 24.2271 8.9923
# 6 3.9250 6.9141 -7.3164 0.2514 8.9923 24.2262
#
#
#
# Elastic Compliance Matrix: (Units=1/GPa)
#
#
# Indices 1 2 3 4 5 6 
#
# 1 0.018572 -0.003565 -0.002283 0.001263 0.001729 -0.003336
# 2 -0.003565 0.010573 -0.002450 -0.009304 0.002371 -0.003963
# 3 -0.002283 -0.002450 0.011172 -0.000557 0.002340 0.003580
# 4 0.001263 -0.009304 -0.000557 0.030343 -0.001467 0.002512
# 5 0.001729 0.002371 0.002340 -0.001467 0.050056 -0.018815
# 6 -0.003336 -0.003963 0.003580 0.002512 -0.018815 0.050988
#
#
# Mechanical properties :
#
#
# Convention : Reuss Voigt Hill
#
# Bulk Modulus (GPa) = 42.15865 59.88396 51.02131
# Shear Modulus (GPa) = 25.48352 34.92826 30.20589
#
# Velocity S-wave (km/s) = 3.38006 3.95716 3.67994
# Velocity P-wave (km/s) = 5.84241 6.90840 6.39765
#
# Compressibility (1/GPa) = 0.02371993
#
# Stress axis : x y z
#
# Youngs Moduli (GPa) = 53.84524 94.58408 89.51316
#
# Poissons Ratio (x) = 0.33722 0.20434
# Poissons Ratio (y) = 0.19198 0.21929
# Poissons Ratio (z) = 0.12292 0.23171
#
# Static dielectric constant tensor:
#      x y z
#    x 1.852860 0.005280 0.038290 
#    y 0.005280 1.896190 0.045400 
#    z 0.038290 0.045400 1.982620 
# 
# From -- ./inp_files/591793.got.cif
#   From: 2010.05.17/outbox.cif.g08.bks.cpg/sg2_296_cif.got.tgz:591793.got - 2010.06.03 11:33:40.
