data_PCOD9101295
_publ_section_title
;
Structure prediction by ZEFSAII (Michael W. Deem and Ramdas Pophale) SiO2 
 PCOD9101295
Probable space group: P -1
;
_chemical_formula_sum "Si O2"
_cell_formula_units_Z 16
_cell_length_a 14.486340
_cell_length_b 8.022987
_cell_length_c 26.088855
_cell_angle_alpha 138.113208
_cell_angle_beta 160.132025
_cell_angle_gamma 52.054484
_cell_volume 637.621160
_symmetry_space_group_name_H-M "P -1"
_symmetry_group_IT_number 2
_symmetry_cell_setting 'triclinic'
loop_
_space_group_symop_operation_xyz
x,y,z
-x,-y,-z
loop_
_atom_site_type_symbol
_atom_site_label
_atom_site_fract_x
_atom_site_fract_y
_atom_site_fract_z
Si Si1 0.066410 0.278439 0.229012
Si Si2 0.996948 0.161959 0.279588
Si Si3 0.520668 0.633427 0.921794
Si Si4 0.823554 0.149997 0.554078
Si Si5 0.963926 0.820767 0.001237
Si Si6 0.365159 0.718163 0.626049
Si Si7 0.602897 0.435813 0.816043
Si Si8 0.595201 0.860667 0.177989
O O1 0.205237 0.601591 0.373119
O O2 0.119162 0.182254 0.290549
O O3 0.713391 0.188802 0.020463
O O4 0.142389 0.110603 0.185957
O O5 0.720144 0.257393 0.157791
O O6 0.240732 0.396156 0.491527
O O7 0.847572 0.856504 0.149571
O O8 0.467981 0.569070 0.818983
O O9 0.475084 0.363192 0.865907
O O10 0.762634 0.205914 0.475251
O O11 0.158602 0.171405 0.736686
O O12 0.617205 0.843680 0.386383
O O13 0.717585 0.831663 0.836402
O O14 0.772548 0.645348 0.909152
O O15 0.163954 0.658627 0.053244
O O16 0.281269 0.856198 0.662709
#
# Coordination Sequence:
#
# PCOD9101295 Si02
#       8
#     2   2   2   2   2   2   2   2
#     4  10  21  39  59  88 120 152 184 239 288 337
#     4  10  21  36  62  86 122 146 187 236 295 343
#     4  11  20  36  61  88 116 153 182 236 293 342
#     4  11  21  36  62  87 118 147 189 239 289 342
#     4  10  24  43  59  78 117 157 199 237 278 337
#     4  10  20  38  58  86 115 152 191 237 282 341
#     4  11  23  41  61  81 114 158 198 235 283 337
#     4  11  20  36  60  90 122 146 187 233 293 347
#
# _framework density 25.09327
#
# number of rings (size 3 to 8) (size 9 to 14) (size 15 to 20)
#    0.000    1.500    5.000    1.500    0.000    2.000 
#    2.250    2.500    0.000    0.000    0.000    0.000 
#    0.000    0.000    0.000    0.000    0.000    0.000 
#
# Total GULP energy -89615.216128 kJ/mol
# GULP energy per Si atom -5600.951008 kJ/mol
# Density = 2.503616 g / cm^3
# Si number density = 25.093270 Si / 1000 Ang^3
#
#
#
# Elastic Constant Matrix: (Units=GPa)
#
#
# Indices 1 2 3 4 5 6 
#
# 1 90.0281 22.5968 5.1587 18.6463 -10.4293 -9.6463
# 2 22.5968 54.1963 22.8178 13.3664 -11.0940 -6.9620
# 3 5.1587 22.8178 100.6738 39.5940 -5.3796 0.2517
# 4 18.6463 13.3664 39.5940 57.9770 -6.7409 -7.0106
# 5 -10.4293 -11.0940 -5.3796 -6.7409 31.5437 1.9282
# 6 -9.6463 -6.9620 0.2517 -7.0106 1.9282 27.5020
#
#
#
# Elastic Compliance Matrix: (Units=1/GPa)
#
#
# Indices 1 2 3 4 5 6 
#
# 1 0.013548 -0.004788 0.002149 -0.004195 0.002125 0.002302
# 2 -0.004788 0.024234 -0.005228 0.000731 0.005944 0.004273
# 3 0.002149 -0.005228 0.014991 -0.010182 -0.000548 -0.003264
# 4 -0.004195 0.000731 -0.010182 0.026311 0.002429 0.005343
# 5 0.002125 0.005944 -0.000548 0.002429 0.034894 0.000428
# 6 0.002302 0.004273 -0.003264 0.005343 0.000428 0.039612
#
#
# Mechanical properties :
#
#
# Convention : Reuss Voigt Hill
#
# Bulk Modulus (GPa) = 26.99846 38.44943 32.72395
# Shear Modulus (GPa) = 27.52218 36.35955 31.94087
#
# Velocity S-wave (km/s) = 3.31538 3.81067 3.57162
# Velocity P-wave (km/s) = 5.04364 5.89216 5.48433
#
# Compressibility (1/GPa) = 0.03703914
#
# Stress axis : x y z
#
# Youngs Moduli (GPa) = 73.81146 41.26415 66.70563
#
# Poissons Ratio (x) = 0.19758 -0.14334
# Poissons Ratio (y) = 0.35342 0.34872
# Poissons Ratio (z) = -0.15861 0.21572
#
# Static dielectric constant tensor:
#      x y z
#    x 1.937790 0.028720 0.006440 
#    y 0.028720 1.959560 0.013560 
#    z 0.006440 0.013560 2.012580 
# 
# From -- ./inp_files/282278.got.cif
#   From: 2010.05.17/outbox.cif.g08.bks.cpg/sg2_142_cif.got.tgz:282278.got - 2010.06.03 11:33:40.
