data_PCOD9101032
_publ_section_title
;
Structure prediction by ZEFSAII (Michael W. Deem and Ramdas Pophale) SiO2 
 PCOD9101032
Probable space group: P -1
;
_chemical_formula_sum "Si O2"
_cell_formula_units_Z 16
_cell_length_a 11.567402
_cell_length_b 9.011322
_cell_length_c 7.801579
_cell_angle_alpha 103.745140
_cell_angle_beta 108.760940
_cell_angle_gamma 76.615844
_cell_volume 737.253028
_symmetry_space_group_name_H-M "P -1"
_symmetry_group_IT_number 2
_symmetry_cell_setting 'triclinic'
loop_
_space_group_symop_operation_xyz
x,y,z
-x,-y,-z
loop_
_atom_site_type_symbol
_atom_site_label
_atom_site_fract_x
_atom_site_fract_y
_atom_site_fract_z
Si Si1 0.196362 0.075508 0.685355
Si Si2 0.430763 0.673034 0.557647
Si Si3 0.485115 0.987522 0.788379
Si Si4 0.302230 0.854479 0.222906
Si Si5 0.828983 0.259281 0.438482
Si Si6 0.888794 0.903334 0.951518
Si Si7 0.893355 0.324657 0.103653
Si Si8 0.963352 0.605669 0.344887
O O1 0.121775 0.231123 0.616020
O O2 0.340953 0.052289 0.702925
O O3 0.153257 0.920434 0.554038
O O4 0.171502 0.079133 0.882202
O O5 0.500000 0.500000 0.500000
O O6 0.508670 0.805329 0.693416
O O7 0.352956 0.756309 0.384280
O O8 0.315844 0.669570 0.631458
O O9 0.573932 0.096338 0.782245
O O10 0.500000 0.000000 0.000000
O O11 0.212212 0.022412 0.215616
O O12 0.217739 0.744706 0.057333
O O13 0.886745 0.265318 0.279490
O O14 0.904380 0.349110 0.631455
O O15 0.968074 0.734570 0.917388
O O16 0.000000 0.000000 0.000000
O O17 0.887087 0.508755 0.160404
O O18 0.000000 0.500000 0.500000
#
# Coordination Sequence:
#
# PCOD9101032 Si02
#       8
#     2   2   2   2   2   2   2   2
#     4  11  21  40  68  96 125 174 222 263 322 392
#     4  11  27  43  65 101 135 170 217 278 334 381
#     4  11  23  46  72  96 127 176 233 262 319 404
#     4  11  22  43  67  93 131 176 216 276 317 390
#     4  10  21  43  65  91 133 174 218 262 326 400
#     4  10  20  37  68  96 125 164 221 266 319 380
#     4  10  22  42  65  97 135 167 219 269 331 386
#     4  10  24  38  60  97 134 166 211 268 327 386
#
# _framework density 21.702179999999998
#
# number of rings (size 3 to 8) (size 9 to 14) (size 15 to 20)
#    0.000    1.500    3.750    1.500    3.500    8.500 
#    0.000    1.875    0.000    0.000    0.000    0.000 
#    0.000    0.000    0.000    0.000    0.000    0.000 
#
# Total GULP energy -89158.718239 kJ/mol
# GULP energy per Si atom -5572.419890 kJ/mol
# Density = 2.165278 g / cm^3
# Si number density = 21.702180 Si / 1000 Ang^3
#
#
#
# Elastic Constant Matrix: (Units=GPa)
#
#
# Indices 1 2 3 4 5 6 
#
# 1 118.0515 41.9349 23.6165 12.1002 7.6551 4.7095
# 2 41.9349 143.3193 51.5133 15.1675 5.4416 -5.8126
# 3 23.6165 51.5133 84.3547 9.9694 18.3601 8.8810
# 4 12.1002 15.1675 9.9694 41.9493 6.6316 7.0476
# 5 7.6551 5.4416 18.3601 6.6316 34.8791 10.8992
# 6 4.7095 -5.8126 8.8810 7.0476 10.8992 27.6435
#
#
#
# Elastic Compliance Matrix: (Units=1/GPa)
#
#
# Indices 1 2 3 4 5 6 
#
# 1 0.009736 -0.002445 -0.000784 -0.001415 -0.000669 -0.001297
# 2 -0.002445 0.010280 -0.006033 -0.002548 0.001116 0.004726
# 3 -0.000784 -0.006033 0.017697 -0.000018 -0.006922 -0.004087
# 4 -0.001415 -0.002548 -0.000018 0.026582 -0.002428 -0.006109
# 5 -0.000669 0.001116 -0.006922 -0.002428 0.036213 -0.011087
# 6 -0.001297 0.004726 -0.004087 -0.006109 -0.011087 0.044631
#
#
# Mechanical properties :
#
#
# Convention : Reuss Voigt Hill
#
# Bulk Modulus (GPa) = 52.10655 64.42832 58.26744
# Shear Modulus (GPa) = 29.40177 36.13844 32.77011
#
# Velocity S-wave (km/s) = 3.68473 4.08511 3.89008
# Velocity P-wave (km/s) = 6.49345 7.21130 6.86177
#
# Compressibility (1/GPa) = 0.01919144
#
# Stress axis : x y z
#
# Youngs Moduli (GPa) = 102.71017 97.27638 56.50670
#
# Poissons Ratio (x) = 0.23780 0.04428
# Poissons Ratio (y) = 0.25108 0.34088
# Poissons Ratio (z) = 0.08049 0.58683
#
# Static dielectric constant tensor:
#      x y z
#    x 0.934560 -0.196870 -0.038180 
#    y -0.196870 1.776000 0.037910 
#    z -0.038180 0.037910 1.894040 
# 
# From -- ./inp_files/240613.got.cif
#   From: 2010.05.17/outbox.cif.g08.bks.cpg/sg2_121_cif.got.tgz:240613.got - 2010.06.03 11:33:40.
