data_PCOD9101616
_publ_section_title
;
Structure prediction by ZEFSAII (Michael W. Deem and Ramdas Pophale) SiO2 
 PCOD9101616
Probable space group: P -1
;
_chemical_formula_sum "Si O2"
_cell_formula_units_Z 14
_cell_length_a 17.990676
_cell_length_b 9.264902
_cell_length_c 13.764077
_cell_angle_alpha 47.168936
_cell_angle_beta 159.068373
_cell_angle_gamma 141.585763
_cell_volume 495.097771
_symmetry_space_group_name_H-M "P -1"
_symmetry_group_IT_number 2
_symmetry_cell_setting 'triclinic'
loop_
_space_group_symop_operation_xyz
x,y,z
-x,-y,-z
loop_
_atom_site_type_symbol
_atom_site_label
_atom_site_fract_x
_atom_site_fract_y
_atom_site_fract_z
Si Si1 0.850328 0.649537 0.543518
Si Si2 0.149677 0.350466 0.956488
Si Si3 0.000000 0.500000 0.500000
Si Si4 0.234213 0.963788 0.695537
Si Si5 0.000000 0.500000 0.000000
Si Si6 0.765787 0.036213 0.804462
Si Si7 0.322879 0.717765 0.159453
Si Si8 0.322872 0.717765 0.659442
O O1 0.671420 0.419223 0.363522
O O2 0.081472 0.834897 0.668350
O O3 0.751914 0.793819 0.403767
O O4 0.009728 0.599618 0.837918
O O5 0.918529 0.165105 0.831649
O O6 0.990281 0.400389 0.662090
O O7 0.328586 0.580776 0.136488
O O8 0.248087 0.206180 0.096236
O O9 0.919922 0.225257 0.489937
O O10 0.685608 0.383036 0.200533
O O11 0.500000 0.000000 0.000000
O O12 0.080077 0.774741 0.010063
O O13 0.314392 0.616963 0.299470
O O14 0.500000 0.000000 0.500000
O O15 0.500005 1.000000 0.250008
#
# Coordination Sequence:
#
# PCOD9101616 Si02
#       8
#     2   2   1   2   1   2   2   2
#     4   9  21  38  58  86 119 153 195 237 291 355
#     4   9  21  38  58  86 119 153 195 237 291 355
#     4  10  22  36  58  90 114 148 204 234 280 360
#     4  10  20  38  60  85 118 155 193 242 291 342
#     4  10  22  36  58  90 114 148 204 234 280 360
#     4  10  20  38  60  85 118 155 193 242 291 342
#     4  10  20  39  61  85 119 155 190 243 295 340
#     4  10  20  39  61  85 119 155 190 243 295 340
#
# _framework density 28.277242999999999
#
# number of rings (size 3 to 8) (size 9 to 14) (size 15 to 20)
#    0.000    2.286    0.000    1.714    0.000    3.429 
#    0.000   28.571    0.000    0.000    0.000    0.000 
#    0.000    0.000    0.000    0.000    0.000    0.000 
#
# Total GULP energy -78057.179756 kJ/mol
# GULP energy per Si atom -5575.512840 kJ/mol
# Density = 2.821288 g / cm^3
# Si number density = 28.277243 Si / 1000 Ang^3
#
#
#
# Elastic Constant Matrix: (Units=GPa)
#
#
# Indices 1 2 3 4 5 6 
#
# 1 181.4283 85.7273 47.3265 8.4141 13.9690 -24.7590
# 2 85.7273 304.7737 92.7473 12.5106 0.2905 -70.7459
# 3 47.3265 92.7473 89.2105 -0.3234 11.3779 -30.1698
# 4 8.4141 12.5106 -0.3234 66.4851 1.0247 8.5422
# 5 13.9690 0.2905 11.3779 1.0247 53.7684 12.8319
# 6 -24.7590 -70.7459 -30.1698 8.5422 12.8319 73.9716
#
#
#
# Elastic Compliance Matrix: (Units=1/GPa)
#
#
# Indices 1 2 3 4 5 6 
#
# 1 0.006810 -0.001089 -0.002038 -0.000740 -0.001498 0.000752
# 2 -0.001089 0.005760 -0.004275 -0.001422 0.000347 0.003505
# 3 -0.002038 -0.004275 0.018408 0.000783 -0.004162 0.003369
# 4 -0.000740 -0.001422 0.000783 0.015810 0.000497 -0.003201
# 5 -0.001498 0.000347 -0.004162 0.000497 0.021193 -0.005600
# 6 0.000752 0.003505 0.003369 -0.003201 -0.005600 0.019837
#
#
# Mechanical properties :
#
#
# Convention : Reuss Voigt Hill
#
# Bulk Modulus (GPa) = 61.82636 114.11275 87.96956
# Shear Modulus (GPa) = 46.29062 62.15243 54.22152
#
# Velocity S-wave (km/s) = 4.05041 4.69333 4.38367
# Velocity P-wave (km/s) = 6.61712 8.35538 7.53653
#
# Compressibility (1/GPa) = 0.01617433
#
# Stress axis : x y z
#
# Youngs Moduli (GPa) = 146.83647 173.61337 54.32526
#
# Poissons Ratio (x) = 0.18907 0.11072
# Poissons Ratio (y) = 0.15991 0.23222
# Poissons Ratio (z) = 0.29926 0.74214
#
# Static dielectric constant tensor:
#      x y z
#    x 2.454300 0.202050 0.016850 
#    y 0.202050 2.182330 -0.037060 
#    z 0.016850 -0.037060 2.377460 
# 
# From -- ./inp_files/60928.got.cif
#   From: 2010.05.17/outbox.cif.g08.bks.cpg/sg2_31_cif.got.tgz:60928.got - 2010.06.03 11:33:40.
