data_PCOD9101811
_publ_section_title
;
Structure prediction by ZEFSAII (Michael W. Deem and Ramdas Pophale) SiO2 
 PCOD9101811
Probable space group: P -1
;
_chemical_formula_sum "Si O2"
_cell_formula_units_Z 13
_cell_length_a 11.740854
_cell_length_b 7.817657
_cell_length_c 8.343348
_cell_angle_alpha 122.158083
_cell_angle_beta 70.987877
_cell_angle_gamma 130.863778
_cell_volume 489.997427
_symmetry_space_group_name_H-M "P -1"
_symmetry_group_IT_number 2
_symmetry_cell_setting 'triclinic'
loop_
_space_group_symop_operation_xyz
x,y,z
-x,-y,-z
loop_
_atom_site_type_symbol
_atom_site_label
_atom_site_fract_x
_atom_site_fract_y
_atom_site_fract_z
Si Si1 0.397923 0.063865 0.795448
Si Si2 0.957371 0.265331 0.705977
Si Si3 0.950098 0.886474 0.726042
Si Si4 0.707213 0.383093 0.176964
Si Si5 0.500000 0.500000 0.500000
Si Si6 0.753093 0.673143 0.996834
Si Si7 0.673704 0.092988 0.588011
O O1 0.373753 0.903806 0.881858
O O2 0.557330 0.159449 0.696315
O O3 0.358735 0.253181 0.943816
O O4 0.289533 0.889104 0.608979
O O5 0.004944 0.206307 0.488842
O O6 0.116224 0.492570 0.819122
O O7 0.895054 0.039519 0.747857
O O8 0.821028 0.267277 0.716913
O O9 0.822863 0.677968 0.798096
O O10 0.100516 0.089905 0.857642
O O11 0.640888 0.491826 0.377391
O O12 0.682942 0.453240 0.049591
O O13 0.592657 0.799245 0.533340
#
# Coordination Sequence:
#
# PCOD9101811 Si02
#       7
#     2   2   2   2   1   2   2
#     4  10  20  35  57  87 109 152 185 232 270 344
#     4  10  18  37  57  88 110 149 185 239 276 334
#     4   9  18  31  60  79 112 149 184 231 285 319
#     4  10  21  33  62  83 114 146 192 226 284 324
#     4  10  16  32  54  86 102 150 184 226 262 340
#     4  10  18  37  54  83 112 151 184 231 273 344
#     4  10  19  33  58  83 115 142 193 231 275 325
#
# _framework density 26.530750000000001
#
# number of rings (size 3 to 8) (size 9 to 14) (size 15 to 20)
#    0.000    2.154    3.077    1.846    0.000    0.615 
#    0.000    7.692    0.000    8.308    0.000    2.154 
#    0.000    0.000    0.000    0.000    0.000    0.000 
#
# Total GULP energy -72566.074995 kJ/mol
# GULP energy per Si atom -5582.005769 kJ/mol
# Density = 2.647036 g / cm^3
# Si number density = 26.530750 Si / 1000 Ang^3
#
#
#
# Elastic Constant Matrix: (Units=GPa)
#
#
# Indices 1 2 3 4 5 6 
#
# 1 187.8146 47.5854 30.4144 -18.7331 1.1418 -16.9129
# 2 47.5854 140.0291 52.8587 -43.1095 14.8173 -24.9952
# 3 30.4144 52.8587 52.5002 -24.4336 8.9181 -11.0970
# 4 -18.7331 -43.1095 -24.4336 38.5193 0.8371 12.7783
# 5 1.1418 14.8173 8.9181 0.8371 31.4124 0.5981
# 6 -16.9129 -24.9952 -11.0970 12.7783 0.5981 28.3347
#
#
#
# Elastic Compliance Matrix: (Units=1/GPa)
#
#
# Indices 1 2 3 4 5 6 
#
# 1 0.006109 -0.001029 -0.002430 -0.000386 0.000927 0.001942
# 2 -0.001029 0.014909 -0.008050 0.009455 -0.005062 0.005228
# 3 -0.002430 -0.008050 0.035441 0.012487 -0.006506 -0.000165
# 4 -0.000386 0.009455 0.012487 0.047151 -0.009094 -0.008071
# 5 0.000927 -0.005062 -0.006506 -0.009094 0.036337 -0.003126
# 6 0.001942 0.005228 -0.000165 -0.008071 -0.003126 0.044705
#
#
# Mechanical properties :
#
#
# Convention : Reuss Voigt Hill
#
# Bulk Modulus (GPa) = 29.90166 71.34010 50.62088
# Shear Modulus (GPa) = 22.85002 36.28565 29.56784
#
# Velocity S-wave (km/s) = 2.93792 3.70223 3.34200
# Velocity P-wave (km/s) = 4.77530 6.72483 5.83210
#
# Compressibility (1/GPa) = 0.03344295
#
# Stress axis : x y z
#
# Youngs Moduli (GPa) = 163.68376 67.07164 28.21554
#
# Poissons Ratio (x) = 0.06904 0.06855
# Poissons Ratio (y) = 0.16848 0.22713
# Poissons Ratio (z) = 0.39770 0.53990
#
# Static dielectric constant tensor:
#      x y z
#    x 2.139460 0.060930 -0.010490 
#    y 0.060930 2.153640 0.077900 
#    z -0.010490 0.077900 2.099290 
# 
# From -- ./inp_files/239708.got.cif
#   From: 2010.05.17/outbox.cif.g08.bks.cpg/sg2_120_cif.got.tgz:239708.got - 2010.06.03 11:33:40.
