data_PCOD9101668
_publ_section_title
;
Structure prediction by ZEFSAII (Michael W. Deem and Ramdas Pophale) SiO2 
 PCOD9101668
Probable space group: P -1
;
_chemical_formula_sum "Si O2"
_cell_formula_units_Z 16
_cell_length_a 17.834403
_cell_length_b 9.439394
_cell_length_c 8.592193
_cell_angle_alpha 149.389937
_cell_angle_beta 88.923189
_cell_angle_gamma 88.338554
_cell_volume 733.493196
_symmetry_space_group_name_H-M "P -1"
_symmetry_group_IT_number 2
_symmetry_cell_setting 'triclinic'
loop_
_space_group_symop_operation_xyz
x,y,z
-x,-y,-z
loop_
_atom_site_type_symbol
_atom_site_label
_atom_site_fract_x
_atom_site_fract_y
_atom_site_fract_z
Si Si1 0.842722 0.693213 0.067332
Si Si2 0.696290 0.400733 0.864665
Si Si3 0.591466 0.174708 0.867238
Si Si4 0.919837 0.174210 0.677302
Si Si5 0.612028 0.975203 0.339004
Si Si6 0.514191 0.690258 0.528790
Si Si7 0.068303 0.732493 0.885045
Si Si8 0.898888 0.774445 0.829750
O O1 0.862674 0.950927 0.415485
O O2 0.773802 0.536706 0.985975
O O3 0.910583 0.442774 0.821317
O O4 0.836212 0.777452 0.967175
O O5 0.672232 0.290058 0.931125
O O6 0.687690 0.139554 0.503830
O O7 0.635237 0.646968 0.036987
O O8 0.574629 0.062153 0.589493
O O9 0.577844 0.916774 0.738969
O O10 0.539232 0.448585 0.175344
O O11 0.911511 0.309028 0.975852
O O12 0.000000 0.000000 0.500000
O O13 0.558835 0.109747 0.333636
O O14 0.500000 0.500000 0.500000
O O15 0.087181 0.492993 0.532428
O O16 0.978439 0.819483 0.955585
O O17 0.114858 0.979019 0.057849
#
# Coordination Sequence:
#
# PCOD9101668 Si02
#       8
#     2   2   2   2   2   2   2   2
#     4  12  24  40  64  90 117 162 218 256 304 381
#     4  10  22  38  65  83 116 166 215 243 291 366
#     4  10  20  38  60  87 122 160 202 240 301 353
#     4  12  24  38  62  94 122 152 205 278 321 357
#     4  10  20  38  63  85 119 158 206 247 293 360
#     4  12  22  34  62  99 125 152 195 255 308 349
#     4  10  21  37  56  89 118 154 182 258 329 363
#     4  10  21  36  61  82 121 152 199 241 312 383
#
# _framework density 21.813428999999999
#
# number of rings (size 3 to 8) (size 9 to 14) (size 15 to 20)
#    0.750    0.500    2.500    4.500    3.500    0.000 
#    0.000    0.000   11.000    0.000    0.000    0.000 
#    0.000    0.000    0.000    0.000    0.000    0.000 
#
# Total GULP energy -89171.272063 kJ/mol
# GULP energy per Si atom -5573.204504 kJ/mol
# Density = 2.176378 g / cm^3
# Si number density = 21.813429 Si / 1000 Ang^3
#
#
#
# Elastic Constant Matrix: (Units=GPa)
#
#
# Indices 1 2 3 4 5 6 
#
# 1 49.6025 29.1580 8.1821 -2.7213 10.3968 24.5539
# 2 29.1580 124.7690 24.1556 22.4451 9.7172 22.6788
# 3 8.1821 24.1556 87.5860 19.1859 8.1246 8.4860
# 4 -2.7213 22.4451 19.1859 42.4057 0.4273 4.5873
# 5 10.3968 9.7172 8.1246 0.4273 29.0204 14.8031
# 6 24.5539 22.6788 8.4860 4.5873 14.8031 22.3755
#
#
#
# Elastic Compliance Matrix: (Units=1/GPa)
#
#
# Indices 1 2 3 4 5 6 
#
# 1 0.053796 -0.003400 -0.001953 0.013443 0.017504 -0.069183
# 2 -0.003400 0.011060 -0.001135 -0.004811 0.001503 -0.007056
# 3 -0.001953 -0.001135 0.013315 -0.005696 -0.003417 0.001672
# 4 0.013443 -0.004811 -0.005696 0.031582 0.007793 -0.019346
# 5 0.017504 0.001503 -0.003417 0.007793 0.059250 -0.060232
# 6 -0.069183 -0.007056 0.001672 -0.019346 -0.060232 0.170942
#
#
# Mechanical properties :
#
#
# Convention : Reuss Voigt Hill
#
# Bulk Modulus (GPa) = 15.33843 42.77208 29.05526
# Shear Modulus (GPa) = 13.34564 32.12444 22.73504
#
# Velocity S-wave (km/s) = 2.47616 3.84173 3.23189
# Velocity P-wave (km/s) = 3.90155 6.27130 5.22261
#
# Compressibility (1/GPa) = 0.06519570
#
# Stress axis : x y z
#
# Youngs Moduli (GPa) = 18.58857 90.41525 75.10130
#
# Poissons Ratio (x) = 0.30744 0.14669
# Poissons Ratio (y) = 0.06321 0.08521
# Poissons Ratio (z) = 0.03631 0.10258
#
# Static dielectric constant tensor:
#      x y z
#    x 1.903570 0.040920 0.008270 
#    y 0.040920 1.777170 0.037100 
#    z 0.008270 0.037100 1.769070 
# 
# From -- ./inp_files/343980.got.cif
#   From: 2010.05.17/outbox.cif.g08.bks.cpg/sg2_172_cif.got.tgz:343980.got - 2010.06.03 11:33:40.
