data_PCOD9101247
_publ_section_title
;
Structure prediction by ZEFSAII (Michael W. Deem and Ramdas Pophale) SiO2 
 PCOD9101247
Probable space group: P -1
;
_chemical_formula_sum "Si O2"
_cell_formula_units_Z 15
_cell_length_a 5.509738
_cell_length_b 6.507742
_cell_length_c 19.016413
_cell_angle_alpha 118.270931
_cell_angle_beta 73.995031
_cell_angle_gamma 110.225399
_cell_volume 558.294138
_symmetry_space_group_name_H-M "P -1"
_symmetry_group_IT_number 2
_symmetry_cell_setting 'triclinic'
loop_
_space_group_symop_operation_xyz
x,y,z
-x,-y,-z
loop_
_atom_site_type_symbol
_atom_site_label
_atom_site_fract_x
_atom_site_fract_y
_atom_site_fract_z
Si Si1 0.500000 0.500000 0.500000
Si Si2 0.803948 0.285955 0.524981
Si Si3 0.563218 0.093586 0.931284
Si Si4 0.298163 0.946851 0.361435
Si Si5 0.464451 0.558541 0.792719
Si Si6 0.850230 0.029936 0.343534
Si Si7 0.840350 0.781701 0.115677
Si Si8 0.938940 0.328883 0.257971
O O1 0.543724 0.373135 0.549831
O O2 0.386313 0.223878 0.428181
O O3 0.801447 0.072001 0.436141
O O4 0.000000 0.500000 0.500000
O O5 0.841938 0.210681 0.587565
O O6 0.527443 0.846323 0.850832
O O7 0.352477 0.222923 0.936004
O O8 0.866768 0.240525 0.926749
O O9 0.500000 0.000000 0.000000
O O10 0.572004 0.883534 0.313920
O O11 0.112954 0.944176 0.309415
O O12 0.305011 0.414857 0.847925
O O13 0.268441 0.545200 0.739599
O O14 0.761774 0.534726 0.758073
O O15 0.905631 0.278686 0.335838
O O16 0.887231 0.054093 0.188060
#
# Coordination Sequence:
#
# PCOD9101247 Si02
#       8
#     1   2   2   2   2   2   2   2
#     4  10  20  38  58  80 112 144 182 222 300 364
#     4  11  23  39  59  83 117 147 185 240 313 361
#     4  10  21  36  61  94 125 156 199 245 287 344
#     4  11  24  39  62  84 116 149 186 244 311 363
#     4  10  21  40  62  84 124 163 194 247 290 343
#     4  11  22  42  59  85 114 149 196 245 288 363
#     4  10  21  39  60  85 123 165 196 241 297 338
#     4  10  22  41  58  85 119 153 207 246 290 344
#
# _framework density 26.867554999999999
#
# number of rings (size 3 to 8) (size 9 to 14) (size 15 to 20)
#    0.000    1.600    1.333    4.000    1.867    1.067 
#    4.800    0.000    0.000    0.000    0.000    0.000 
#    0.000    0.000    0.000    0.000    0.000    0.000 
#
# Total GULP energy -83669.999080 kJ/mol
# GULP energy per Si atom -5577.999939 kJ/mol
# Density = 2.680640 g / cm^3
# Si number density = 26.867555 Si / 1000 Ang^3
#
#
#
# Elastic Constant Matrix: (Units=GPa)
#
#
# Indices 1 2 3 4 5 6 
#
# 1 269.7969 96.7949 69.4548 -52.1088 10.5952 -11.1887
# 2 96.7949 127.1406 15.0804 -41.6210 9.2754 10.7641
# 3 69.4548 15.0804 81.6644 -40.9038 9.0142 0.3950
# 4 -52.1088 -41.6210 -40.9038 60.7920 0.9445 7.8646
# 5 10.5952 9.2754 9.0142 0.9445 35.3298 -13.8036
# 6 -11.1887 10.7641 0.3950 7.8646 -13.8036 65.0556
#
#
#
# Elastic Compliance Matrix: (Units=1/GPa)
#
#
# Indices 1 2 3 4 5 6 
#
# 1 0.007018 -0.005978 -0.006652 -0.002995 0.002461 0.003121
# 2 -0.005978 0.017311 0.010285 0.014766 -0.008738 -0.007594
# 3 -0.006652 0.010285 0.028064 0.021446 -0.011591 -0.008068
# 4 -0.002995 0.014766 0.021446 0.040039 -0.013759 -0.010848
# 5 0.002461 -0.008738 -0.011591 -0.013759 0.037720 0.011606
# 6 0.003121 -0.007594 -0.008068 -0.010848 0.011606 0.020988
#
#
# Mechanical properties :
#
#
# Convention : Reuss Voigt Hill
#
# Bulk Modulus (GPa) = 20.96337 93.47356 57.21846
# Shear Modulus (GPa) = 29.11543 52.05361 40.58452
#
# Velocity S-wave (km/s) = 3.29548 4.40638 3.89078
# Velocity P-wave (km/s) = 4.72225 7.79451 6.44414
#
# Compressibility (1/GPa) = 0.04770226
#
# Stress axis : x y z
#
# Youngs Moduli (GPa) = 142.49194 57.76730 35.63346
#
# Poissons Ratio (x) = 0.34534 0.23702
# Poissons Ratio (y) = 0.85184 -0.36648
# Poissons Ratio (z) = 0.94780 -0.59412
#
# Static dielectric constant tensor:
#      x y z
#    x 1.224600 -0.172450 -0.197050 
#    y -0.172450 2.107070 0.114700 
#    z -0.197050 0.114700 2.071780 
# 
# From -- ./inp_files/580745.got.cif
#   From: 2010.05.17/outbox.cif.g08.bks.cpg/sg2_291_cif.got.tgz:580745.got - 2010.06.03 11:33:40.
