data_PCOD9101936
_publ_section_title
;
Structure prediction by ZEFSAII (Michael W. Deem and Ramdas Pophale) SiO2 
 PCOD9101936
Probable space group: P -1
;
_chemical_formula_sum "Si O2"
_cell_formula_units_Z 16
_cell_length_a 17.800165
_cell_length_b 8.695479
_cell_length_c 7.338228
_cell_angle_alpha 55.225640
_cell_angle_beta 76.761390
_cell_angle_gamma 49.787615
_cell_volume 694.695606
_symmetry_space_group_name_H-M "P -1"
_symmetry_group_IT_number 2
_symmetry_cell_setting 'triclinic'
loop_
_space_group_symop_operation_xyz
x,y,z
-x,-y,-z
loop_
_atom_site_type_symbol
_atom_site_label
_atom_site_fract_x
_atom_site_fract_y
_atom_site_fract_z
Si Si1 0.432470 0.404134 0.249974
Si Si2 0.642324 0.864875 0.423196
Si Si3 0.964388 0.986671 0.832957
Si Si4 0.709940 0.963792 0.633375
Si Si5 0.858690 0.368695 0.318660
Si Si6 0.112418 0.275345 0.025180
Si Si7 0.358555 0.234442 0.910886
Si Si8 0.560261 0.513459 0.226458
O O1 0.357598 0.358740 0.387117
O O2 0.457655 0.549541 0.255477
O O3 0.539379 0.126282 0.371008
O O4 0.409459 0.507530 0.988915
O O5 0.725663 0.843475 0.508141
O O6 0.636807 0.888691 0.194232
O O7 0.061431 0.798848 0.773809
O O8 0.895420 0.225351 0.583447
O O9 0.899172 0.900531 0.951419
O O10 0.000000 0.000000 0.000000
O O11 0.642304 0.253016 0.451457
O O12 0.811392 0.854050 0.759564
O O13 0.653118 0.887546 0.830940
O O14 0.853424 0.599972 0.191379
O O15 0.748011 0.486961 0.232424
O O16 0.000000 0.500000 0.000000
O O17 0.440750 0.272492 0.844945
#
# Coordination Sequence:
#
# PCOD9101936 Si02
#       8
#     2   2   2   2   2   2   2   2
#     4   9  20  41  59  87 117 158 199 247 301 355
#     4  10  21  40  63  83 120 157 202 245 296 359
#     4  10  20  38  61  88 115 156 194 243 291 350
#     4  10  21  41  58  86 122 154 195 249 295 352
#     4   9  21  38  57  86 122 149 198 240 291 351
#     4   9  19  37  61  84 119 157 191 237 293 345
#     4  11  22  38  60  89 117 161 195 245 298 348
#     4  10  20  39  61  84 123 153 195 253 301 345
#
# _framework density 23.031670999999999
#
# number of rings (size 3 to 8) (size 9 to 14) (size 15 to 20)
#    0.000    2.250    1.250    0.750    0.000    4.500 
#    6.750   11.250    0.000    0.000    0.000    0.000 
#    0.000    0.000    0.000    0.000    0.000    0.000 
#
# Total GULP energy -89381.023688 kJ/mol
# GULP energy per Si atom -5586.313980 kJ/mol
# Density = 2.297925 g / cm^3
# Si number density = 23.031671 Si / 1000 Ang^3
#
#
#
# Elastic Constant Matrix: (Units=GPa)
#
#
# Indices 1 2 3 4 5 6 
#
# 1 114.1259 47.7619 42.1569 -4.9692 12.2985 37.2788
# 2 47.7619 48.9152 50.3395 4.8887 9.7799 24.0162
# 3 42.1569 50.3395 149.4842 -15.6985 16.4322 24.2470
# 4 -4.9692 4.8887 -15.6985 30.1082 2.2547 0.6138
# 5 12.2985 9.7799 16.4322 2.2547 31.4102 -3.9771
# 6 37.2788 24.0162 24.2470 0.6138 -3.9771 44.2096
#
#
#
# Elastic Compliance Matrix: (Units=1/GPa)
#
#
# Indices 1 2 3 4 5 6 
#
# 1 0.018352 -0.016761 0.003338 0.008075 -0.005407 -0.008800
# 2 -0.016761 0.061106 -0.015863 -0.020445 -0.004019 -0.010440
# 3 0.003338 -0.015863 0.012897 0.010192 -0.004072 -0.001779
# 4 0.008075 -0.020445 0.010192 0.043646 -0.005565 -0.002399
# 5 -0.005407 -0.004019 -0.004072 -0.005565 0.039329 0.012592
# 6 -0.008800 -0.010440 -0.001779 -0.002399 0.012592 0.037852
#
#
# Mechanical properties :
#
#
# Convention : Reuss Voigt Hill
#
# Bulk Modulus (GPa) = 29.59919 65.89355 47.74637
# Shear Modulus (GPa) = 17.66690 32.63006 25.14848
#
# Velocity S-wave (km/s) = 2.77261 3.76805 3.30799
# Velocity P-wave (km/s) = 4.80928 6.89950 5.94694
#
# Compressibility (1/GPa) = 0.03378471
#
# Stress axis : x y z
#
# Youngs Moduli (GPa) = 54.48962 16.36488 77.53969
#
# Poissons Ratio (x) = 0.27428 -0.25886
# Poissons Ratio (y) = 0.91328 1.23002
# Poissons Ratio (z) = -0.18191 0.25960
#
# Static dielectric constant tensor:
#      x y z
#    x 1.984170 -0.028650 0.000270 
#    y -0.028650 1.907850 -0.010820 
#    z 0.000270 -0.010820 1.854080 
# 
# From -- ./inp_files/43859.got.cif
#   From: 2010.05.17/outbox.cif.g08.bks.cpg/sg2_22_cif.got.tgz:43859.got - 2010.06.03 11:33:40.
