data_PCOD9101913
_publ_section_title
;
Structure prediction by ZEFSAII (Michael W. Deem and Ramdas Pophale) SiO2 
 PCOD9101913
Probable space group: P -1
;
_chemical_formula_sum "Si O2"
_cell_formula_units_Z 16
_cell_length_a 6.440739
_cell_length_b 11.951635
_cell_length_c 16.706329
_cell_angle_alpha 128.721194
_cell_angle_beta 73.605824
_cell_angle_gamma 124.415628
_cell_volume 822.622711
_symmetry_space_group_name_H-M "P -1"
_symmetry_group_IT_number 2
_symmetry_cell_setting 'triclinic'
loop_
_space_group_symop_operation_xyz
x,y,z
-x,-y,-z
loop_
_atom_site_type_symbol
_atom_site_label
_atom_site_fract_x
_atom_site_fract_y
_atom_site_fract_z
Si Si1 0.745467 0.747915 0.777386
Si Si2 0.652285 0.113915 0.961404
Si Si3 0.390021 0.075332 0.260727
Si Si4 0.900163 0.291707 0.815798
Si Si5 0.653507 0.413402 0.013968
Si Si6 0.114734 0.268586 0.072387
Si Si7 0.139170 0.521225 0.746435
Si Si8 0.087062 0.601754 0.617642
O O1 0.756164 0.864914 0.755315
O O2 0.845940 0.809136 0.884915
O O3 0.894504 0.661504 0.690029
O O4 0.443345 0.620307 0.765217
O O5 0.505795 0.000740 0.850639
O O6 0.677455 0.289642 0.019250
O O7 0.930533 0.152256 0.970153
O O8 0.500000 0.000000 0.000000
O O9 0.627345 0.235268 0.346497
O O10 0.214565 0.907129 0.254985
O O11 0.005238 0.363008 0.748827
O O12 0.130742 0.398924 0.901423
O O13 0.705761 0.347787 0.895509
O O14 0.380994 0.382638 0.049943
O O15 0.978150 0.366051 0.162816
O O16 0.087208 0.493771 0.645065
O O17 0.000000 0.500000 0.500000
#
# Coordination Sequence:
#
# PCOD9101913 Si02
#       8
#     2   2   2   2   2   2   2   2
#     4  10  20  39  61  86 114 151 193 245 294 343
#     4  11  20  33  52  83 123 158 201 242 277 329
#     4  10  23  37  56  87 123 149 193 248 290 345
#     4  10  20  40  53  84 127 166 196 233 282 335
#     4  10  21  35  53  79 126 175 200 226 270 335
#     4  11  19  33  57  84 116 165 208 226 275 335
#     4  10  20  38  61  87 118 152 199 240 285 346
#     4  10  23  44  69  89 105 144 198 249 311 364
#
# _framework density 19.449985000000002
#
# number of rings (size 3 to 8) (size 9 to 14) (size 15 to 20)
#    0.000    1.750    2.500    3.000    0.000    6.500 
#    2.250    0.625    0.000    1.500    0.000    0.000 
#    0.000    0.000    0.000    0.000    0.000    0.000 
#
# Total GULP energy -89131.637790 kJ/mol
# GULP energy per Si atom -5570.727362 kJ/mol
# Density = 1.940572 g / cm^3
# Si number density = 19.449985 Si / 1000 Ang^3
#
#
#
# Elastic Constant Matrix: (Units=GPa)
#
#
# Indices 1 2 3 4 5 6 
#
# 1 90.7299 40.8610 20.6626 8.2705 8.0360 2.0517
# 2 40.8610 161.1233 35.3726 4.9693 12.9708 -19.7351
# 3 20.6626 35.3726 93.8017 0.7464 29.1295 -0.0775
# 4 8.2705 4.9693 0.7464 20.5520 1.8830 2.3988
# 5 8.0360 12.9708 29.1295 1.8830 24.8712 -4.9023
# 6 2.0517 -19.7351 -0.0775 2.3988 -4.9023 27.6910
#
#
#
# Elastic Compliance Matrix: (Units=1/GPa)
#
#
# Indices 1 2 3 4 5 6 
#
# 1 0.013343 -0.003271 -0.001199 -0.004015 -0.001537 -0.003247
# 2 -0.003271 0.008410 -0.002893 -0.001520 0.001479 0.006621
# 3 -0.001199 -0.002893 0.018602 0.003155 -0.021306 -0.005966
# 4 -0.004015 -0.001520 0.003155 0.051906 -0.006812 -0.006480
# 5 -0.001537 0.001479 -0.021306 -0.006812 0.068114 0.013757
# 6 -0.003247 0.006621 -0.005966 -0.006480 0.013757 0.044053
#
#
# Mechanical properties :
#
#
# Convention : Reuss Voigt Hill
#
# Bulk Modulus (GPa) = 39.01673 59.93858 49.47766
# Shear Modulus (GPa) = 21.95905 31.20674 26.58290
#
# Velocity S-wave (km/s) = 3.36371 4.00992 3.70094
# Velocity P-wave (km/s) = 5.93208 7.23346 6.61485
#
# Compressibility (1/GPa) = 0.02563003
#
# Stress axis : x y z
#
# Youngs Moduli (GPa) = 74.94299 118.90922 53.75732
#
# Poissons Ratio (x) = 0.38893 0.06447
# Poissons Ratio (y) = 0.24512 0.15550
# Poissons Ratio (z) = 0.08988 0.34395
#
# Static dielectric constant tensor:
#      x y z
#    x 1.744770 -0.015090 -0.001230 
#    y -0.015090 1.752240 0.014860 
#    z -0.001230 0.014860 1.710190 
# 
# From -- ./inp_files/549549.got.cif
#   From: 2010.05.17/outbox.cif.g08.bks.cpg/sg2_275_cif.got.tgz:549549.got - 2010.06.03 11:33:40.
