data_PCOD9101837
_publ_section_title
;
Structure prediction by ZEFSAII (Michael W. Deem and Ramdas Pophale) SiO2 
 PCOD9101837
Probable space group: P -1
;
_chemical_formula_sum "Si O2"
_cell_formula_units_Z 16
_cell_length_a 25.568964
_cell_length_b 4.996953
_cell_length_c 12.719992
_cell_angle_alpha 84.567578
_cell_angle_beta 149.874653
_cell_angle_gamma 93.395769
_cell_volume 811.175750
_symmetry_space_group_name_H-M "P -1"
_symmetry_group_IT_number 2
_symmetry_cell_setting 'triclinic'
loop_
_space_group_symop_operation_xyz
x,y,z
-x,-y,-z
loop_
_atom_site_type_symbol
_atom_site_label
_atom_site_fract_x
_atom_site_fract_y
_atom_site_fract_z
Si Si1 0.818714 0.012001 0.708826
Si Si2 0.756563 0.285861 0.198081
Si Si3 0.857996 0.780439 0.278575
Si Si4 0.094561 0.525687 0.021620
Si Si5 0.908295 0.197569 0.649000
Si Si6 0.454873 0.744068 0.058877
Si Si7 0.589514 0.244352 0.263686
Si Si8 0.945375 0.143290 0.245742
O O1 0.888427 0.222158 0.883590
O O2 0.857430 0.016625 0.655786
O O3 0.700147 0.127013 0.499877
O O4 0.835551 0.724379 0.803493
O O5 0.799828 0.504409 0.185337
O O6 0.819662 0.328268 0.414749
O O7 0.790822 0.990362 0.226824
O O8 0.635228 0.310788 0.013154
O O9 0.971807 0.736960 0.533270
O O10 0.877766 0.936377 0.199485
O O11 0.116029 0.629113 0.936943
O O12 0.977932 0.418944 0.816349
O O13 0.984940 0.025521 0.711742
O O14 0.551533 0.527704 0.236106
O O15 0.499894 0.036616 0.138731
O O16 0.407817 0.726567 0.859577
#
# Coordination Sequence:
#
# PCOD9101837 Si02
#       8
#     2   2   2   2   2   2   2   2
#     4  12  25  37  57  86 120 163 198 223 279 346
#     4  11  21  37  61  90 113 155 185 241 296 352
#     4  10  23  36  60  84 118 149 201 237 293 336
#     4  12  24  38  55  83 121 166 196 228 270 343
#     4  11  23  38  56  84 127 157 195 225 276 348
#     4  10  20  38  61  83 117 144 191 238 303 335
#     4  10  21  38  57  86 114 153 187 241 282 348
#     4  10  23  39  56  83 119 161 192 244 278 330
#
# _framework density 19.724454000000001
#
# number of rings (size 3 to 8) (size 9 to 14) (size 15 to 20)
#    0.000    1.250    3.750    2.250    3.500    1.500 
#    0.000    0.000    0.000    0.000    0.000   17.500 
#    0.000    0.000    0.000    0.000    0.000    0.000 
#
# Total GULP energy -89461.296376 kJ/mol
# GULP energy per Si atom -5591.331024 kJ/mol
# Density = 1.967956 g / cm^3
# Si number density = 19.724454 Si / 1000 Ang^3
#
#
#
# Elastic Constant Matrix: (Units=GPa)
#
#
# Indices 1 2 3 4 5 6 
#
# 1 77.0110 21.0774 33.0551 -15.0457 1.4413 24.2298
# 2 21.0774 74.7091 -3.2704 -14.5383 -7.3724 14.7746
# 3 33.0551 -3.2704 36.5286 -13.3964 1.8825 15.1493
# 4 -15.0457 -14.5383 -13.3964 25.9447 7.3956 -12.5840
# 5 1.4413 -7.3724 1.8825 7.3956 22.5241 -3.3101
# 6 24.2298 14.7746 15.1493 -12.5840 -3.3101 31.5711
#
#
#
# Elastic Compliance Matrix: (Units=1/GPa)
#
#
# Indices 1 2 3 4 5 6 
#
# 1 0.026760 -0.008084 -0.023196 -0.003965 -0.002211 -0.007436
# 2 -0.008084 0.019841 0.015655 0.011298 0.001116 -0.005972
# 3 -0.023196 0.015655 0.064193 0.025619 -0.008791 -0.011037
# 4 -0.003965 0.011298 0.025619 0.065764 -0.018349 0.009751
# 5 -0.002211 0.001116 -0.008791 -0.018349 0.052185 0.003550
# 6 -0.007436 -0.005972 -0.011037 0.009751 0.003550 0.049732
#
#
# Mechanical properties :
#
#
# Convention : Reuss Voigt Hill
#
# Bulk Modulus (GPa) = 12.57153 32.21920 22.39536
# Shear Modulus (GPa) = 14.87032 25.16711 20.01871
#
# Velocity S-wave (km/s) = 2.74871 3.57590 3.18923
# Velocity P-wave (km/s) = 4.05725 5.78096 4.99403
#
# Compressibility (1/GPa) = 0.07954482
#
# Stress axis : x y z
#
# Youngs Moduli (GPa) = 37.36873 50.40010 15.57791
#
# Poissons Ratio (x) = 0.40745 0.36134
# Poissons Ratio (y) = 0.30210 -0.24387
# Poissons Ratio (z) = 0.86679 -0.78901
#
# Static dielectric constant tensor:
#      x y z
#    x 1.702580 -0.004430 -0.022810 
#    y -0.004430 1.713940 -0.008080 
#    z -0.022810 -0.008080 1.684200 
# 
# From -- ./inp_files/473418.got.cif
#   From: 2010.05.17/outbox.cif.g08.bks.cpg/sg2_237_cif.got.tgz:473418.got - 2010.06.03 11:33:40.
