data_PCOD9101492
_publ_section_title
;
Structure prediction by ZEFSAII (Michael W. Deem and Ramdas Pophale) SiO2 
 PCOD9101492
Probable space group: P -1
;
_chemical_formula_sum "Si O2"
_cell_formula_units_Z 14
_cell_length_a 12.056313
_cell_length_b 8.085711
_cell_length_c 8.369485
_cell_angle_alpha 71.245058
_cell_angle_beta 97.105469
_cell_angle_gamma 132.174357
_cell_volume 567.594141
_symmetry_space_group_name_H-M "P -1"
_symmetry_group_IT_number 2
_symmetry_cell_setting 'triclinic'
loop_
_space_group_symop_operation_xyz
x,y,z
-x,-y,-z
loop_
_atom_site_type_symbol
_atom_site_label
_atom_site_fract_x
_atom_site_fract_y
_atom_site_fract_z
Si Si1 0.509228 0.870569 0.179619
Si Si2 0.798122 0.287117 0.295426
Si Si3 0.638078 0.490018 0.203580
Si Si4 0.046864 0.311085 0.284412
Si Si5 0.378426 0.961075 0.372796
Si Si6 0.794837 0.768561 0.452429
Si Si7 0.304467 0.382163 0.172948
O O1 0.461298 0.636209 0.174115
O O2 0.669676 0.052802 0.238708
O O3 0.376680 0.809245 0.287431
O O4 0.500000 0.000000 0.000000
O O5 0.748106 0.435186 0.233536
O O6 0.966479 0.412676 0.236515
O O7 0.769886 0.185765 0.502200
O O8 0.467550 0.227893 0.246692
O O9 0.668893 0.599540 0.350701
O O10 0.680089 0.643949 0.004007
O O11 0.113152 0.312238 0.465121
O O12 0.176192 0.401256 0.152723
O O13 0.910211 0.029870 0.322059
O O14 0.500000 0.000000 0.500000
O O15 0.741783 0.766396 0.623955
#
# Coordination Sequence:
#
# PCOD9101492 Si02
#       7
#     2   2   2   2   2   2   2
#     4  10  16  32  53  80 116 138 172 222 287 323
#     4  10  19  34  56  86 109 139 184 234 270 324
#     4  10  18  33  61  83 104 143 191 224 275 321
#     4   9  22  38  54  78 114 147 186 222 275 325
#     4   8  16  29  49  79 108 137 173 217 272 329
#     4   9  20  40  55  75 112 158 180 214 282 331
#     4  10  18  35  59  80 107 149 185 220 270 340
#
# _framework density 24.665510999999999
#
# number of rings (size 3 to 8) (size 9 to 14) (size 15 to 20)
#    0.857    2.000    2.857    2.571    0.000    1.714 
#    0.000    2.857    0.000    1.714    0.000    0.000 
#    0.000    0.000    0.000    0.000    0.000    0.000 
#
# Total GULP energy -77982.819544 kJ/mol
# GULP energy per Si atom -5570.201396 kJ/mol
# Density = 2.460937 g / cm^3
# Si number density = 24.665511 Si / 1000 Ang^3
#
#
#
# Elastic Constant Matrix: (Units=GPa)
#
#
# Indices 1 2 3 4 5 6 
#
# 1 129.3469 -13.2988 28.0905 1.8854 -6.5010 9.6782
# 2 -13.2988 49.9888 14.3532 3.1933 12.5922 4.9692
# 3 28.0905 14.3532 132.9129 17.1931 -7.7385 1.7240
# 4 1.8854 3.1933 17.1931 22.9702 -5.8481 0.0097
# 5 -6.5010 12.5922 -7.7385 -5.8481 29.8024 -6.0425
# 6 9.6782 4.9692 1.7240 0.0097 -6.0425 10.6741
#
#
#
# Elastic Compliance Matrix: (Units=1/GPa)
#
#
# Indices 1 2 3 4 5 6 
#
# 1 0.009672 0.005581 -0.002622 -0.000537 -0.003675 -0.013024
# 2 0.005581 0.031536 -0.004526 -0.006750 -0.020854 -0.030809
# 3 -0.002622 -0.004526 0.009397 -0.005226 0.003793 0.005119
# 4 -0.000537 -0.006750 -0.005226 0.052013 0.014100 0.012408
# 5 -0.003675 -0.020854 0.003793 0.014100 0.054035 0.043004
# 6 -0.013024 -0.030809 0.005119 0.012408 0.043004 0.143343
#
#
# Mechanical properties :
#
#
# Convention : Reuss Voigt Hill
#
# Bulk Modulus (GPa) = 21.06623 41.17094 31.11859
# Shear Modulus (GPa) = 15.67619 31.56292 23.61955
#
# Velocity S-wave (km/s) = 2.52375 3.58108 3.09786
# Velocity P-wave (km/s) = 4.12937 5.81608 5.04374
#
# Compressibility (1/GPa) = 0.04746934
#
# Stress axis : x y z
#
# Youngs Moduli (GPa) = 103.39019 31.71001 106.41495
#
# Poissons Ratio (x) = -0.17697 0.27906
# Poissons Ratio (y) = -0.57701 0.48167
# Poissons Ratio (z) = 0.27113 0.14353
#
# Static dielectric constant tensor:
#      x y z
#    x 2.069510 -0.073300 -0.043940 
#    y -0.073300 1.962950 -0.042900 
#    z -0.043940 -0.042900 1.921760 
# 
# From -- ./inp_files/295220.got.cif
#   From: 2010.05.17/outbox.cif.g08.bks.cpg/sg2_148_cif.got.tgz:295220.got - 2010.06.03 11:33:40.
