data_PCOD9101595
_publ_section_title
;
Structure prediction by ZEFSAII (Michael W. Deem and Ramdas Pophale) SiO2 
 PCOD9101595
Probable space group: P -1
;
_chemical_formula_sum "Si O2"
_cell_formula_units_Z 10
_cell_length_a 12.298087
_cell_length_b 4.996437
_cell_length_c 5.853862
_cell_angle_alpha 94.530984
_cell_angle_beta 94.673270
_cell_angle_gamma 82.549702
_cell_volume 354.624300
_symmetry_space_group_name_H-M "P -1"
_symmetry_group_IT_number 2
_symmetry_cell_setting 'triclinic'
loop_
_space_group_symop_operation_xyz
x,y,z
-x,-y,-z
loop_
_atom_site_type_symbol
_atom_site_label
_atom_site_fract_x
_atom_site_fract_y
_atom_site_fract_z
Si Si1 0.330393 0.974857 0.543391
Si Si2 0.123466 0.764500 0.607546
Si Si3 0.726058 0.580355 0.052862
Si Si4 0.925400 0.670364 0.804166
Si Si5 0.530177 0.773186 0.797857
O O1 0.206690 0.912908 0.478926
O O2 0.417029 0.733105 0.648773
O O3 0.312475 0.210526 0.742162
O O4 0.394402 0.087740 0.356308
O O5 0.202123 0.667910 0.829396
O O6 0.100563 0.517166 0.426167
O O7 0.007131 0.870555 0.718353
O O8 0.810026 0.725332 0.918865
O O9 0.615374 0.529092 0.896979
O O10 0.000000 0.500000 0.000000
O O11 0.500000 0.000000 0.000000
#
# Coordination Sequence:
#
# PCOD9101595 Si02
#       5
#     2   2   2   2   2
#     4  10  21  38  60  85 114 150 191 232 278 336
#     4  10  21  38  60  85 114 150 191 232 278 336
#     4  10  20  38  60  84 118 150 184 232 282 334
#     4   9  20  38  57  84 118 147 186 236 280 334
#     4   9  20  38  57  84 118 147 186 236 280 334
#
# _framework density 28.198858000000001
#
# number of rings (size 3 to 8) (size 9 to 14) (size 15 to 20)
#    0.000    2.400    0.000    1.200    0.000    8.000 
#    0.000   28.000    0.000    0.000    0.000    0.000 
#    0.000    0.000    0.000    0.000    0.000    0.000 
#
# Total GULP energy -55958.162056 kJ/mol
# GULP energy per Si atom -5595.816206 kJ/mol
# Density = 2.813468 g / cm^3
# Si number density = 28.198858 Si / 1000 Ang^3
#
#
#
# Elastic Constant Matrix: (Units=GPa)
#
#
# Indices 1 2 3 4 5 6 
#
# 1 242.6364 30.6123 63.4641 3.1392 -18.4422 0.7122
# 2 30.6123 53.5817 16.4583 2.1319 -7.6306 12.6029
# 3 63.4641 16.4583 122.5337 -7.0730 -42.8561 -1.5076
# 4 3.1392 2.1319 -7.0730 28.4266 -0.2455 -3.9637
# 5 -18.4422 -7.6306 -42.8561 -0.2455 92.0947 -17.9323
# 6 0.7122 12.6029 -1.5076 -3.9637 -17.9323 41.7717
#
#
#
# Elastic Compliance Matrix: (Units=1/GPa)
#
#
# Indices 1 2 3 4 5 6 
#
# 1 0.005031 -0.002185 -0.002458 -0.000967 -0.000265 0.000279
# 2 -0.002185 0.022467 -0.002620 -0.003180 -0.001302 -0.007697
# 3 -0.002458 -0.002620 0.012074 0.004095 0.005721 0.004113
# 4 -0.000967 -0.003180 0.004095 0.037377 0.002682 0.005822
# 5 -0.000265 -0.001302 0.005721 0.002682 0.014768 0.007198
# 6 0.000279 -0.007697 0.004113 0.005822 0.007198 0.030048
#
#
# Mechanical properties :
#
#
# Convention : Reuss Voigt Hill
#
# Bulk Modulus (GPa) = 39.92345 71.09123 55.50734
# Shear Modulus (GPa) = 34.56858 53.00642 43.78750
#
# Velocity S-wave (km/s) = 3.50506 4.34030 3.94485
# Velocity P-wave (km/s) = 5.52894 7.09810 6.36208
#
# Compressibility (1/GPa) = 0.02504794
#
# Stress axis : x y z
#
# Youngs Moduli (GPa) = 198.75374 44.50902 82.82458
#
# Poissons Ratio (x) = 0.09723 0.20355
# Poissons Ratio (y) = 0.43419 0.21700
# Poissons Ratio (z) = 0.48847 0.11661
#
# Static dielectric constant tensor:
#      x y z
#    x 2.229690 -0.029980 0.048840 
#    y -0.029980 2.242670 -0.148540 
#    z 0.048840 -0.148540 2.214020 
# 
# From -- ./inp_files/1631.got.cif
#   From: 2010.05.17/outbox.cif.g08.bks.cpg/sg2_1_cif.got.tgz:1631.got - 2010.06.03 11:33:40.
