data_PCOD9101642
_publ_section_title
;
Structure prediction by ZEFSAII (Michael W. Deem and Ramdas Pophale) SiO2 
 PCOD9101642
Probable space group: P -1
;
_chemical_formula_sum "Si O2"
_cell_formula_units_Z 16
_cell_length_a 14.729587
_cell_length_b 7.681181
_cell_length_c 11.312780
_cell_angle_alpha 70.842140
_cell_angle_beta 50.813104
_cell_angle_gamma 44.533289
_cell_volume 677.937524
_symmetry_space_group_name_H-M "P -1"
_symmetry_group_IT_number 2
_symmetry_cell_setting 'triclinic'
loop_
_space_group_symop_operation_xyz
x,y,z
-x,-y,-z
loop_
_atom_site_type_symbol
_atom_site_label
_atom_site_fract_x
_atom_site_fract_y
_atom_site_fract_z
Si Si1 0.846195 0.534577 0.608502
Si Si2 0.433188 0.152560 0.700535
Si Si3 0.942239 0.353214 0.908326
Si Si4 0.243077 0.267193 0.608425
Si Si5 0.922958 0.013155 0.440114
Si Si6 0.620728 0.093507 0.751310
Si Si7 0.045462 0.056306 0.122055
Si Si8 0.692884 0.964170 0.982923
O O1 0.812492 0.540033 0.496105
O O2 0.701309 0.804786 0.724517
O O3 0.000000 0.500000 0.500000
O O4 0.920587 0.278508 0.666049
O O5 0.293797 0.296809 0.685016
O O6 0.594814 0.994459 0.523919
O O7 0.464094 0.265978 0.756127
O O8 0.410664 0.985486 0.829264
O O9 0.807383 0.658880 0.934736
O O10 0.104716 0.264602 0.738029
O O11 0.984492 0.270466 0.028843
O O12 0.906957 0.184798 0.929656
O O13 0.758822 0.084547 0.593763
O O14 0.907217 0.160886 0.308531
O O15 0.000000 0.000000 0.500000
O O16 0.600659 0.118738 0.903392
O O17 0.191426 0.994189 0.085762
#
# Coordination Sequence:
#
# PCOD9101642 Si02
#       8
#     2   2   2   2   2   2   2   2
#     4   9  18  33  59  87 113 153 203 254 299 356
#     4  10  22  36  62  92 123 167 205 247 313 382
#     4  11  23  40  66  93 122 160 209 264 307 362
#     4  10  20  39  64  90 123 165 207 252 314 369
#     4  11  20  34  58  91 123 153 202 262 311 352
#     4  10  20  38  60  86 121 165 206 249 311 372
#     4  11  23  37  60  96 127 154 200 266 316 354
#     4  12  22  40  67  94 122 161 212 258 309 364
#
# _framework density 23.600995999999999
#
# number of rings (size 3 to 8) (size 9 to 14) (size 15 to 20)
#    0.000    1.500    2.500    5.250    0.000    0.000 
#    0.000    0.000    5.500   12.000    0.000    0.000 
#    0.000    0.000    0.000    0.000    0.000    0.000 
#
# Total GULP energy -89235.907499 kJ/mol
# GULP energy per Si atom -5577.244219 kJ/mol
# Density = 2.354728 g / cm^3
# Si number density = 23.600996 Si / 1000 Ang^3
#
#
#
# Elastic Constant Matrix: (Units=GPa)
#
#
# Indices 1 2 3 4 5 6 
#
# 1 166.6272 17.2975 26.5653 -15.8085 12.7254 -19.5823
# 2 17.2975 34.5479 7.5948 -6.9414 -0.8811 4.1213
# 3 26.5653 7.5948 131.1508 -21.0916 1.4763 -5.0962
# 4 -15.8085 -6.9414 -21.0916 33.6108 -10.3920 16.8667
# 5 12.7254 -0.8811 1.4763 -10.3920 49.7459 -17.2396
# 6 -19.5823 4.1213 -5.0962 16.8667 -17.2396 21.8227
#
#
#
# Elastic Compliance Matrix: (Units=1/GPa)
#
#
# Indices 1 2 3 4 5 6 
#
# 1 0.007726 -0.005697 -0.001425 -0.003907 0.001178 0.011625
# 2 -0.005697 0.039440 0.001012 0.020731 -0.004637 -0.032009
# 3 -0.001425 0.001012 0.008909 0.007905 -0.000188 -0.005648
# 4 -0.003907 0.020731 0.007905 0.066193 -0.006474 -0.061849
# 5 0.001178 -0.004637 -0.000188 -0.006474 0.028587 0.029476
# 6 0.011625 -0.032009 -0.005648 -0.061849 0.029476 0.132071
#
#
# Mechanical properties :
#
#
# Convention : Reuss Voigt Hill
#
# Bulk Modulus (GPa) = 22.80160 48.36012 35.58086
# Shear Modulus (GPa) = 16.14142 39.76046 27.95094
#
# Velocity S-wave (km/s) = 2.61804 4.10896 3.44512
# Velocity P-wave (km/s) = 4.33833 6.56099 5.56182
#
# Compressibility (1/GPa) = 0.04385656
#
# Stress axis : x y z
#
# Youngs Moduli (GPa) = 129.44010 25.35466 112.24864
#
# Poissons Ratio (x) = 0.14443 0.15993
# Poissons Ratio (y) = 0.73737 -0.11362
# Poissons Ratio (z) = 0.18442 -0.02566
#
# Static dielectric constant tensor:
#      x y z
#    x 1.984900 0.006250 0.007150 
#    y 0.006250 2.100960 0.089800 
#    z 0.007150 0.089800 1.942790 
# 
# From -- ./inp_files/259021.got.cif
#   From: 2010.05.17/outbox.cif.g08.bks.cpg/sg2_130_cif.got.tgz:259021.got - 2010.06.03 11:33:40.
