data_PCOD9101555
_publ_section_title
;
Structure prediction by ZEFSAII (Michael W. Deem and Ramdas Pophale) SiO2 
 PCOD9101555
Probable space group: P -1
;
_chemical_formula_sum "Si O2"
_cell_formula_units_Z 16
_cell_length_a 11.720229
_cell_length_b 9.116841
_cell_length_c 14.023545
_cell_angle_alpha 79.865553
_cell_angle_beta 131.698034
_cell_angle_gamma 127.289541
_cell_volume 822.532808
_symmetry_space_group_name_H-M "P -1"
_symmetry_group_IT_number 2
_symmetry_cell_setting 'triclinic'
loop_
_space_group_symop_operation_xyz
x,y,z
-x,-y,-z
loop_
_atom_site_type_symbol
_atom_site_label
_atom_site_fract_x
_atom_site_fract_y
_atom_site_fract_z
Si Si1 0.230631 0.109832 0.400632
Si Si2 0.868679 0.285906 0.900086
Si Si3 0.804926 0.251399 0.529247
Si Si4 0.681072 0.352564 0.629707
Si Si5 0.969255 0.886331 0.092380
Si Si6 0.223331 0.680410 0.704674
Si Si7 0.672550 0.928808 0.985208
Si Si8 0.960392 0.199278 0.282662
O O1 0.469534 0.303890 0.513504
O O2 0.090240 0.134364 0.376557
O O3 0.221384 0.940524 0.459248
O O4 0.136921 0.035626 0.249773
O O5 0.705081 0.264893 0.745649
O O6 0.004225 0.267941 0.907029
O O7 0.762954 0.105483 0.937448
O O8 0.000000 0.500000 0.000000
O O9 0.691538 0.254351 0.554046
O O10 0.731436 0.275057 0.386977
O O11 0.046017 0.444942 0.649078
O O12 0.879032 0.587246 0.706200
O O13 0.758111 0.818436 0.022516
O O14 0.000000 0.000000 0.000000
O O15 0.429802 0.779555 0.863543
O O16 0.122013 0.768093 0.675279
O O17 0.771594 0.041116 0.127016
#
# Coordination Sequence:
#
# PCOD9101555 Si02
#       8
#     2   2   2   2   2   2   2   2
#     4  11  21  37  61  87 116 153 186 242 299 331
#     4  11  20  36  58  89 120 143 187 242 293 344
#     4  10  22  38  59  83 114 149 202 245 268 347
#     4  11  21  36  60  87 117 150 188 240 298 346
#     4   9  21  35  55  87 118 146 187 234 286 351
#     4  10  22  40  59  82 110 163 199 229 286 335
#     4  10  20  38  60  81 117 157 188 233 295 342
#     4  10  22  39  55  85 123 148 193 244 277 346
#
# _framework density 19.452110999999999
#
# number of rings (size 3 to 8) (size 9 to 14) (size 15 to 20)
#    0.000    1.750    2.500    1.875    3.500    0.500 
#    0.000    3.750    0.000    0.000    0.000    0.000 
#    0.000    0.000    0.000    0.000    0.000    0.000 
#
# Total GULP energy -89302.952661 kJ/mol
# GULP energy per Si atom -5581.434541 kJ/mol
# Density = 1.940784 g / cm^3
# Si number density = 19.452111 Si / 1000 Ang^3
#
#
#
# Elastic Constant Matrix: (Units=GPa)
#
#
# Indices 1 2 3 4 5 6 
#
# 1 43.8219 5.3996 31.2001 5.4179 0.7038 -18.4170
# 2 5.3996 44.0886 13.8661 7.7128 8.8666 -17.9059
# 3 31.2001 13.8661 101.9635 9.3743 22.4078 -2.7289
# 4 5.4179 7.7128 9.3743 15.6346 -1.1887 -2.2127
# 5 0.7038 8.8666 22.4078 -1.1887 25.7526 -6.0513
# 6 -18.4170 -17.9059 -2.7289 -2.2127 -6.0513 28.0798
#
#
#
# Elastic Compliance Matrix: (Units=1/GPa)
#
#
# Indices 1 2 3 4 5 6 
#
# 1 0.062272 0.018494 -0.025488 -0.005517 0.026900 0.055522
# 2 0.018494 0.040403 -0.008992 -0.015763 0.001145 0.036025
# 3 -0.025488 -0.008992 0.023852 -0.006435 -0.023288 -0.025659
# 4 -0.005517 -0.015763 -0.006435 0.077794 0.013535 -0.005249
# 5 0.026900 0.001145 -0.023288 0.013535 0.065966 0.031393
# 6 0.055522 0.036025 -0.025659 -0.005249 0.031393 0.098859
#
#
# Mechanical properties :
#
#
# Convention : Reuss Voigt Hill
#
# Bulk Modulus (GPa) = 10.57585 32.31175 21.44380
# Shear Modulus (GPa) = 11.55706 23.18729 17.37218
#
# Velocity S-wave (km/s) = 2.44012 3.45631 2.99168
# Velocity P-wave (km/s) = 3.65890 5.70746 4.79388
#
# Compressibility (1/GPa) = 0.09455504
#
# Stress axis : x y z
#
# Youngs Moduli (GPa) = 16.05860 24.75085 41.92470
#
# Poissons Ratio (x) = -0.45775 1.06859
# Poissons Ratio (y) = -0.29699 0.37698
# Poissons Ratio (z) = 0.40931 0.22255
#
# Static dielectric constant tensor:
#      x y z
#    x 1.680910 -0.008220 0.003090 
#    y -0.008220 1.676620 0.008350 
#    z 0.003090 0.008350 1.668360 
# 
# From -- ./inp_files/185401.got.cif
#   From: 2010.05.17/outbox.cif.g08.bks.cpg/sg2_93_cif.got.tgz:185401.got - 2010.06.03 11:33:40.
