data_PCOD9101291
_publ_section_title
;
Structure prediction by ZEFSAII (Michael W. Deem and Ramdas Pophale) SiO2 
 PCOD9101291
Probable space group: P -1
;
_chemical_formula_sum "Si O2"
_cell_formula_units_Z 16
_cell_length_a 13.291698
_cell_length_b 7.018384
_cell_length_c 12.092363
_cell_angle_alpha 68.439704
_cell_angle_beta 116.012367
_cell_angle_gamma 61.165784
_cell_volume 601.766994
_symmetry_space_group_name_H-M "P -1"
_symmetry_group_IT_number 2
_symmetry_cell_setting 'triclinic'
loop_
_space_group_symop_operation_xyz
x,y,z
-x,-y,-z
loop_
_atom_site_type_symbol
_atom_site_label
_atom_site_fract_x
_atom_site_fract_y
_atom_site_fract_z
Si Si1 0.991878 0.230150 0.509307
Si Si2 0.786037 0.181599 0.903333
Si Si3 0.359994 0.604733 0.798721
Si Si4 0.074939 0.187782 0.158904
Si Si5 0.400623 0.584692 0.564204
Si Si6 0.976040 0.528429 0.239306
Si Si7 0.714539 0.680419 0.470367
Si Si8 0.613564 0.600134 0.928074
O O1 0.872368 0.401236 0.522012
O O2 0.931235 0.492890 0.341948
O O3 0.000000 0.000000 0.500000
O O4 0.198127 0.971989 0.683332
O O5 0.591846 0.405705 0.714664
O O6 0.753028 0.400553 0.936186
O O7 0.905908 0.011347 0.884958
O O8 0.856000 0.881168 0.064544
O O9 0.338998 0.615612 0.653783
O O10 0.543035 0.465302 0.923316
O O11 0.352248 0.424119 0.918450
O O12 0.968659 0.348128 0.188487
O O13 0.270755 0.914732 0.364091
O O14 0.000000 0.500000 0.000000
O O15 0.379246 0.400226 0.528642
O O16 0.173072 0.348582 0.380974
O O17 0.554069 0.033072 0.266981
#
# Coordination Sequence:
#
# PCOD9101291 Si02
#       8
#     2   2   2   2   2   2   2   2
#     4  12  22  37  59  89 124 170 203 254 309 371
#     4  10  23  42  68  88 124 168 212 259 313 374
#     4  10  20  38  58  85 130 162 206 256 306 373
#     4  10  21  44  72  91 118 167 217 263 310 376
#     4  11  22  41  61  98 127 162 207 264 315 376
#     4  11  22  41  64  94 122 167 218 253 313 375
#     4  12  24  37  64  94 135 165 206 257 316 382
#     4  10  22  37  59  91 125 166 207 251 313 370
#
# _framework density 26.588362
#
# number of rings (size 3 to 8) (size 9 to 14) (size 15 to 20)
#    0.000    1.250    3.750    2.250    5.250    1.500 
#    0.000    7.500    0.000    0.000    0.000    0.000 
#    0.000    0.000    0.000    0.000    0.000    0.000 
#
# Total GULP energy -89261.992408 kJ/mol
# GULP energy per Si atom -5578.874525 kJ/mol
# Density = 2.652785 g / cm^3
# Si number density = 26.588362 Si / 1000 Ang^3
#
#
#
# Elastic Constant Matrix: (Units=GPa)
#
#
# Indices 1 2 3 4 5 6 
#
# 1 40.2589 18.9192 14.5388 12.1454 0.0785 -15.9012
# 2 18.9192 153.7687 35.9670 11.9848 8.3604 -8.8841
# 3 14.5388 35.9670 190.9148 -4.4417 -13.4265 1.9478
# 4 12.1454 11.9848 -4.4417 41.4243 3.8462 9.6547
# 5 0.0785 8.3604 -13.4265 3.8462 18.1488 -0.6312
# 6 -15.9012 -8.8841 1.9478 9.6547 -0.6312 41.1265
#
#
#
# Elastic Compliance Matrix: (Units=1/GPa)
#
#
# Indices 1 2 3 4 5 6 
#
# 1 0.038835 -0.001930 -0.002972 -0.015680 0.002487 0.018458
# 2 -0.001930 0.007563 -0.001631 -0.001703 -0.004276 0.001299
# 3 -0.002972 -0.001631 0.006181 0.002073 0.004821 -0.002207
# 4 -0.015680 -0.001703 0.002073 0.033295 -0.005172 -0.014424
# 5 0.002487 -0.004276 0.004821 -0.005172 0.061791 0.001972
# 6 0.018458 0.001299 -0.002207 -0.014424 0.001972 0.035253
#
#
# Mechanical properties :
#
#
# Convention : Reuss Voigt Hill
#
# Bulk Modulus (GPa) = 25.30809 58.19913 41.75361
# Shear Modulus (GPa) = 23.90565 41.17443 32.54004
#
# Velocity S-wave (km/s) = 3.00176 3.93948 3.50215
# Velocity P-wave (km/s) = 4.64254 6.52910 5.66491
#
# Compressibility (1/GPa) = 0.03951306
#
# Stress axis : x y z
#
# Youngs Moduli (GPa) = 25.74967 132.23053 161.77484
#
# Poissons Ratio (x) = 0.25516 0.48081
# Poissons Ratio (y) = 0.04969 0.26392
# Poissons Ratio (z) = 0.07653 0.21572
#
# Static dielectric constant tensor:
#      x y z
#    x 2.191530 0.023100 0.062870 
#    y 0.023100 2.188050 0.125910 
#    z 0.062870 0.125910 2.139350 
# 
# From -- ./inp_files/402045.got.cif
#   From: 2010.05.17/outbox.cif.g08.bks.cpg/sg2_202_cif.got.tgz:402045.got - 2010.06.03 11:33:40.
