data_PCOD9101504
_publ_section_title
;
Structure prediction by ZEFSAII (Michael W. Deem and Ramdas Pophale) SiO2 
 PCOD9101504
Probable space group: P -1
;
_chemical_formula_sum "Si O2"
_cell_formula_units_Z 14
_cell_length_a 13.778778
_cell_length_b 23.998355
_cell_length_c 23.538403
_cell_angle_alpha 11.894360
_cell_angle_beta 157.803234
_cell_angle_gamma 159.267094
_cell_volume 561.736994
_symmetry_space_group_name_H-M "P -1"
_symmetry_group_IT_number 2
_symmetry_cell_setting 'triclinic'
loop_
_space_group_symop_operation_xyz
x,y,z
-x,-y,-z
loop_
_atom_site_type_symbol
_atom_site_label
_atom_site_fract_x
_atom_site_fract_y
_atom_site_fract_z
Si Si1 0.514863 0.068196 0.045723
Si Si2 0.055837 0.168722 0.988233
Si Si3 0.043259 0.181419 0.155685
Si Si4 0.716038 0.816749 0.600135
Si Si5 0.110307 0.703442 0.411267
Si Si6 0.635917 0.215632 0.307164
Si Si7 0.278274 0.339788 0.363254
O O1 0.715795 0.081178 0.088878
O O2 0.551731 0.842068 0.336733
O O3 0.637862 0.375738 0.837417
O O4 0.185859 0.971009 0.956925
O O5 0.361592 0.198779 0.141711
O O6 0.981563 0.938631 0.124740
O O7 0.071092 0.482824 0.662878
O O8 0.179063 0.310295 0.162164
O O9 0.148336 0.917344 0.468596
O O10 0.183181 0.442172 0.927145
O O11 0.436192 0.857577 0.423123
O O12 0.666629 0.616680 0.717178
O O13 0.959483 0.124148 0.411627
O O14 0.000000 0.500000 0.500000
O O15 0.500000 0.000000 0.500000
#
# Coordination Sequence:
#
# PCOD9101504 Si02
#       7
#     2   2   2   2   2   2   2
#     4  11  23  41  62  93 133 169 213 254 329 372
#     4  12  24  43  63  96 132 170 210 272 326 372
#     4  11  23  42  67  92 124 170 216 268 321 390
#     4  10  20  38  59  91 127 169 221 248 313 367
#     4  12  24  37  63  94 135 172 216 256 318 386
#     4  12  25  46  69  96 123 167 222 279 329 380
#     4  10  23  35  60  91 133 173 212 259 298 388
#
# _framework density 24.922695999999998
#
# number of rings (size 3 to 8) (size 9 to 14) (size 15 to 20)
#    0.000    0.857    2.857    5.143    0.000    7.429 
#    0.000    1.429    0.000    0.000    0.000    0.000 
#    0.000    0.000    0.000    0.000    0.000    0.000 
#
# Total GULP energy -78391.374971 kJ/mol
# GULP energy per Si atom -5599.383926 kJ/mol
# Density = 2.486597 g / cm^3
# Si number density = 24.922696 Si / 1000 Ang^3
#
#
#
# Elastic Constant Matrix: (Units=GPa)
#
#
# Indices 1 2 3 4 5 6 
#
# 1 64.2811 29.2979 8.6408 11.4595 11.6769 26.6664
# 2 29.2979 141.0290 20.6838 -1.1216 18.6083 43.6567
# 3 8.6408 20.6838 121.8296 -1.1491 21.4362 -0.1482
# 4 11.4595 -1.1216 -1.1491 30.2327 16.1072 3.6657
# 5 11.6769 18.6083 21.4362 16.1072 47.6161 4.2042
# 6 26.6664 43.6567 -0.1482 3.6657 4.2042 52.8417
#
#
#
# Elastic Compliance Matrix: (Units=1/GPa)
#
#
# Indices 1 2 3 4 5 6 
#
# 1 0.021522 -0.001340 -0.001155 -0.006480 -0.001229 -0.009210
# 2 -0.001340 0.010543 -0.000965 0.003957 -0.003990 -0.007994
# 3 -0.001155 -0.000965 0.009314 0.003076 -0.004712 0.001568
# 4 -0.006480 0.003957 0.003076 0.044701 -0.016305 -0.001795
# 5 -0.001229 -0.003990 -0.004712 -0.016305 0.030267 0.002626
# 6 -0.009210 -0.007994 0.001568 -0.001795 0.002626 0.030097
#
#
# Mechanical properties :
#
#
# Convention : Reuss Voigt Hill
#
# Bulk Modulus (GPa) = 29.02065 49.37605 39.19835
# Shear Modulus (GPa) = 30.33056 44.03924 37.18490
#
# Velocity S-wave (km/s) = 3.49232 4.20817 3.86684
# Velocity P-wave (km/s) = 5.28500 6.59290 5.97484
#
# Compressibility (1/GPa) = 0.03445823
#
# Stress axis : x y z
#
# Youngs Moduli (GPa) = 46.46483 94.84683 107.36625
#
# Poissons Ratio (x) = 0.12710 0.12401
# Poissons Ratio (y) = 0.06226 0.10364
# Poissons Ratio (z) = 0.05367 0.09156
#
# Static dielectric constant tensor:
#      x y z
#    x 2.053620 -0.005600 -0.008430 
#    y -0.005600 1.964900 0.036190 
#    z -0.008430 0.036190 1.891870 
# 
# From -- ./inp_files/84917.got.cif
#   From: 2010.05.17/outbox.cif.g08.bks.cpg/sg2_43_cif.got.tgz:84917.got - 2010.06.03 11:33:40.
