data_PCOD9101172
_publ_section_title
;
Structure prediction by ZEFSAII (Michael W. Deem and Ramdas Pophale) SiO2 
 PCOD9101172
Probable space group: P -1
;
_chemical_formula_sum "Si O2"
_cell_formula_units_Z 16
_cell_length_a 17.534943
_cell_length_b 15.104472
_cell_length_c 12.238224
_cell_angle_alpha 27.081322
_cell_angle_beta 50.099719
_cell_angle_gamma 30.778537
_cell_volume 640.276533
_symmetry_space_group_name_H-M "P -1"
_symmetry_group_IT_number 2
_symmetry_cell_setting 'triclinic'
loop_
_space_group_symop_operation_xyz
x,y,z
-x,-y,-z
loop_
_atom_site_type_symbol
_atom_site_label
_atom_site_fract_x
_atom_site_fract_y
_atom_site_fract_z
Si Si1 0.014650 0.203521 0.790830
Si Si2 0.047747 0.705353 0.824228
Si Si3 0.478925 0.297655 0.137377
Si Si4 0.310651 0.753710 0.338470
Si Si5 0.292026 0.323840 0.823280
Si Si6 0.226305 0.394554 0.236786
Si Si7 0.687911 0.763989 0.339810
Si Si8 0.375853 0.598386 0.199766
O O1 0.945414 0.364983 0.797576
O O2 0.872552 0.517813 0.495563
O O3 0.216581 0.928264 0.907015
O O4 0.000000 0.000000 0.000000
O O5 0.174916 0.426616 0.915430
O O6 0.168158 0.500684 0.048080
O O7 0.000000 0.000000 0.500000
O O8 0.861812 0.904131 0.809090
O O9 0.292505 0.498564 0.105377
O O10 0.615236 0.999442 0.431949
O O11 0.544731 0.090123 0.191671
O O12 0.465883 0.544336 0.847242
O O13 0.500000 0.500000 0.500000
O O14 0.255793 0.612639 0.533856
O O15 0.345518 0.733243 0.200351
O O16 0.280947 0.234704 0.815711
O O17 0.500000 0.000000 0.000000
O O18 0.637246 0.613807 0.551354
#
# Coordination Sequence:
#
# PCOD9101172 Si02
#       8
#     2   2   2   2   2   2   2   2
#     4   9  18  36  60  82 120 154 199 256 303 364
#     4  10  21  37  63  89 126 169 211 256 318 380
#     4  10  22  37  66  91 125 161 206 263 325 367
#     4  10  22  38  59  92 123 160 216 264 305 385
#     4  10  21  38  63  89 122 169 209 250 323 378
#     4  10  20  38  56  94 121 160 212 257 311 388
#     4   9  20  37  59  92 122 157 209 252 306 386
#     4  10  20  38  62  90 118 161 208 255 320 370
#
# _framework density 24.989201999999999
#
# number of rings (size 3 to 8) (size 9 to 14) (size 15 to 20)
#    0.000    2.250    1.250    0.750    7.000    2.000 
#    0.000   10.625    0.000    4.500    0.000    0.000 
#    0.000    0.000    0.000    0.000    0.000    0.000 
#
# Total GULP energy -89214.991350 kJ/mol
# GULP energy per Si atom -5575.936959 kJ/mol
# Density = 2.493233 g / cm^3
# Si number density = 24.989202 Si / 1000 Ang^3
#
#
#
# Elastic Constant Matrix: (Units=GPa)
#
#
# Indices 1 2 3 4 5 6 
#
# 1 114.7667 57.9619 46.6220 12.5730 5.3437 20.7818
# 2 57.9619 154.9174 39.9079 17.6136 9.2557 16.2178
# 3 46.6220 39.9079 50.1853 26.0538 3.6889 5.4861
# 4 12.5730 17.6136 26.0538 38.2864 0.9113 -3.2462
# 5 5.3437 9.2557 3.6889 0.9113 41.7227 7.3693
# 6 20.7818 16.2178 5.4861 -3.2462 7.3693 55.9352
#
#
#
# Elastic Compliance Matrix: (Units=1/GPa)
#
#
# Indices 1 2 3 4 5 6 
#
# 1 0.016507 -0.002313 -0.016573 0.006617 0.000337 -0.003497
# 2 -0.002313 0.008662 -0.004379 -0.000314 -0.001036 -0.001104
# 3 -0.016573 -0.004379 0.053985 -0.029203 -0.001145 0.000588
# 4 0.006617 -0.000314 -0.029203 0.044212 0.000305 0.003023
# 5 0.000337 -0.001036 -0.001145 0.000305 0.024772 -0.002959
# 6 -0.003497 -0.001104 0.000588 0.003023 -0.002959 0.020005
#
#
# Mechanical properties :
#
#
# Convention : Reuss Voigt Hill
#
# Bulk Modulus (GPa) = 30.65278 67.65030 49.15154
# Shear Modulus (GPa) = 22.16839 38.88068 30.52454
#
# Velocity S-wave (km/s) = 2.98169 3.94877 3.49880
# Velocity P-wave (km/s) = 4.91396 6.92250 6.00283
#
# Compressibility (1/GPa) = 0.03262347
#
# Stress axis : x y z
#
# Youngs Moduli (GPa) = 60.58203 115.44951 18.52361
#
# Poissons Ratio (x) = 0.26703 0.30699
# Poissons Ratio (y) = 0.14012 0.08112
# Poissons Ratio (z) = 1.00401 0.50558
#
# Static dielectric constant tensor:
#      x y z
#    x 1.996490 -0.006130 0.072990 
#    y -0.006130 2.029900 -0.019750 
#    z 0.072990 -0.019750 2.246360 
# 
# From -- ./inp_files/466018.got.cif
#   From: 2010.05.17/outbox.cif.g08.bks.cpg/sg2_234_cif.got.tgz:466018.got - 2010.06.03 11:33:40.
