data_PCOD9101438
_publ_section_title
;
Structure prediction by ZEFSAII (Michael W. Deem and Ramdas Pophale) SiO2 
 PCOD9101438
Probable space group: P -1
;
_chemical_formula_sum "Si O2"
_cell_formula_units_Z 16
_cell_length_a 16.674287
_cell_length_b 13.966423
_cell_length_c 5.202761
_cell_angle_alpha 96.089722
_cell_angle_beta 98.602648
_cell_angle_gamma 138.505911
_cell_volume 748.426670
_symmetry_space_group_name_H-M "P -1"
_symmetry_group_IT_number 2
_symmetry_cell_setting 'triclinic'
loop_
_space_group_symop_operation_xyz
x,y,z
-x,-y,-z
loop_
_atom_site_type_symbol
_atom_site_label
_atom_site_fract_x
_atom_site_fract_y
_atom_site_fract_z
Si Si1 0.598724 0.040320 0.257094
Si Si2 0.768443 0.538350 0.037130
Si Si3 0.640120 0.463558 0.462044
Si Si4 0.370305 0.748941 0.390858
Si Si5 0.725235 0.964194 0.134775
Si Si6 0.883132 0.896119 0.714198
Si Si7 0.009341 0.838571 0.471899
Si Si8 0.636756 0.768329 0.545322
O O1 0.676772 0.197531 0.480859
O O2 0.683786 0.035752 0.173465
O O3 0.507248 0.902798 0.379943
O O4 0.500000 0.000000 0.000000
O O5 0.680827 0.512204 0.200378
O O6 0.912776 0.674068 0.252228
O O7 0.753739 0.577141 0.764181
O O8 0.716634 0.383430 0.905232
O O9 0.613370 0.322747 0.421724
O O10 0.511776 0.390193 0.500349
O O11 0.880769 0.098372 0.269058
O O12 0.657293 0.834530 0.289896
O O13 0.680087 0.883732 0.817106
O O14 0.918188 0.839926 0.533424
O O15 0.729427 0.761405 0.638647
O O16 0.906307 0.023958 0.649650
O O17 0.000000 0.000000 0.000000
#
# Coordination Sequence:
#
# PCOD9101438 Si02
#       8
#     2   2   2   2   2   2   2   2
#     4  11  20  34  60  92 123 148 201 254 294 343
#     4  10  22  38  61  82 124 165 195 233 303 364
#     4  10  20  38  59  86 115 165 195 239 297 354
#     4   9  20  34  56  86 117 156 192 239 298 344
#     4  11  22  35  61  89 120 155 198 249 297 347
#     4  10  21  39  64  89 116 155 200 260 293 343
#     4  10  23  41  60  90 118 161 203 241 299 362
#     4  11  20  38  60  90 120 148 205 249 299 348
#
# _framework density 21.37818
#
# number of rings (size 3 to 8) (size 9 to 14) (size 15 to 20)
#    0.750    1.000    2.500    3.000    3.500    0.000 
#    0.000    1.875    0.000    1.500    0.000    0.000 
#    0.000    0.000    0.000    0.000    0.000    0.000 
#
# Total GULP energy -89138.716699 kJ/mol
# GULP energy per Si atom -5571.169794 kJ/mol
# Density = 2.132952 g / cm^3
# Si number density = 21.378180 Si / 1000 Ang^3
#
#
#
# Elastic Constant Matrix: (Units=GPa)
#
#
# Indices 1 2 3 4 5 6 
#
# 1 71.7497 1.2012 -0.4458 -2.1860 -1.7577 9.6052
# 2 1.2012 52.3633 14.2164 8.3222 -4.4293 3.9800
# 3 -0.4458 14.2164 73.5819 9.4907 -13.1410 4.5428
# 4 -2.1860 8.3222 9.4907 40.2020 5.6218 3.6673
# 5 -1.7577 -4.4293 -13.1410 5.6218 33.9136 -0.4625
# 6 9.6052 3.9800 4.5428 3.6673 -0.4625 21.6357
#
#
#
# Elastic Compliance Matrix: (Units=1/GPa)
#
#
# Indices 1 2 3 4 5 6 
#
# 1 0.014921 -0.000095 0.000489 0.001255 0.000648 -0.006908
# 2 -0.000095 0.020875 -0.003025 -0.003682 0.002126 -0.002493
# 3 0.000489 -0.003025 0.015951 -0.003806 0.006412 -0.002228
# 4 0.001255 -0.003682 -0.003806 0.027882 -0.006566 -0.003947
# 5 0.000648 0.002126 0.006412 -0.006566 0.033368 -0.000199
# 6 -0.006908 -0.002493 -0.002228 -0.003947 -0.000199 0.050878
#
#
# Mechanical properties :
#
#
# Convention : Reuss Voigt Hill
#
# Bulk Modulus (GPa) = 21.51193 25.29318 23.40256
# Shear Modulus (GPa) = 27.08082 31.33181 29.20632
#
# Velocity S-wave (km/s) = 3.56301 3.83247 3.70019
# Velocity P-wave (km/s) = 5.19722 5.60720 5.40610
#
# Compressibility (1/GPa) = 0.04648583
#
# Stress axis : x y z
#
# Youngs Moduli (GPa) = 67.02008 47.90330 62.69082
#
# Poissons Ratio (x) = 0.00453 -0.03066
# Poissons Ratio (y) = 0.00634 0.18966
# Poissons Ratio (z) = -0.03278 0.14492
#
# Static dielectric constant tensor:
#      x y z
#    x 1.857670 0.054750 0.030660 
#    y 0.054750 1.894030 0.029510 
#    z 0.030660 0.029510 1.872120 
# 
# From -- ./inp_files/110868.got.cif
#   From: 2010.05.17/outbox.cif.g08.bks.cpg/sg2_56_cif.got.tgz:110868.got - 2010.06.03 11:33:40.
