data_PCOD9101137
_publ_section_title
;
Structure prediction by ZEFSAII (Michael W. Deem and Ramdas Pophale) SiO2 
 PCOD9101137
Probable space group: P -1
;
_chemical_formula_sum "Si O2"
_cell_formula_units_Z 14
_cell_length_a 14.193023
_cell_length_b 8.504648
_cell_length_c 14.743821
_cell_angle_alpha 53.240317
_cell_angle_beta 30.994094
_cell_angle_gamma 75.510103
_cell_volume 565.968035
_symmetry_space_group_name_H-M "P -1"
_symmetry_group_IT_number 2
_symmetry_cell_setting 'triclinic'
loop_
_space_group_symop_operation_xyz
x,y,z
-x,-y,-z
loop_
_atom_site_type_symbol
_atom_site_label
_atom_site_fract_x
_atom_site_fract_y
_atom_site_fract_z
Si Si1 0.791058 0.270108 0.865532
Si Si2 0.652516 0.804333 0.780455
Si Si3 0.010595 0.313870 0.125453
Si Si4 0.509245 0.544149 0.369936
Si Si5 0.293076 0.015652 0.647297
Si Si6 0.959865 0.594968 0.206230
Si Si7 0.101654 0.873149 0.356111
O O1 0.899708 0.253067 0.872056
O O2 0.804569 0.134581 0.815496
O O3 0.958784 0.579065 0.607792
O O4 0.522206 0.158780 0.133123
O O5 0.909283 0.916482 0.492539
O O6 0.708503 0.922341 0.796171
O O7 0.500000 0.500000 0.000000
O O8 0.026718 0.425916 0.170820
O O9 0.776063 0.045176 0.379124
O O10 0.222642 0.309092 0.932569
O O11 0.000000 0.500000 0.000000
O O12 0.500000 0.500000 0.500000
O O13 0.324560 0.592551 0.487393
O O14 0.382539 0.284623 0.509628
O O15 0.500000 0.000000 0.500000
O O16 0.065498 0.813099 0.967811
#
# Coordination Sequence:
#
# PCOD9101137 Si02
#       7
#     2   2   2   2   2   2   2
#     4  10  21  38  58  91 122 147 200 242 291 349
#     4   9  18  37  66  85 115 159 192 227 295 364
#     4  10  20  38  56  80 110 150 195 242 293 345
#     4  12  21  38  62  79 114 158 201 242 296 356
#     4  11  20  39  61  78 113 159 198 241 300 348
#     4  11  23  38  57  91 117 152 202 249 288 346
#     4   9  19  39  64  86 117 162 186 234 300 354
#
# _framework density 24.736377000000001
#
# number of rings (size 3 to 8) (size 9 to 14) (size 15 to 20)
#    0.000    1.714    5.714    0.857    0.000    1.143 
#    5.143    2.857    0.000    0.000    0.000    0.000 
#    0.000    0.000    0.000    0.000    0.000    0.000 
#
# Total GULP energy -78221.735507 kJ/mol
# GULP energy per Si atom -5587.266822 kJ/mol
# Density = 2.468008 g / cm^3
# Si number density = 24.736377 Si / 1000 Ang^3
#
#
#
# Elastic Constant Matrix: (Units=GPa)
#
#
# Indices 1 2 3 4 5 6 
#
# 1 81.8596 39.1629 51.8208 7.4230 -23.6924 22.7037
# 2 39.1629 154.9617 48.4830 1.0641 -2.3300 31.2582
# 3 51.8208 48.4830 124.4505 20.2497 -34.3494 14.5718
# 4 7.4230 1.0641 20.2497 53.2400 -2.6747 -2.4532
# 5 -23.6924 -2.3300 -34.3494 -2.6747 42.1029 -7.7258
# 6 22.7037 31.2582 14.5718 -2.4532 -7.7258 50.1072
#
#
#
# Elastic Compliance Matrix: (Units=1/GPa)
#
#
# Indices 1 2 3 4 5 6 
#
# 1 0.019642 -0.002286 -0.004929 -0.000759 0.005909 -0.005167
# 2 -0.002286 0.008831 -0.003333 0.001010 -0.004206 -0.004103
# 3 -0.004929 -0.003333 0.014318 -0.004196 0.008692 0.001284
# 4 -0.000759 0.001010 -0.004196 0.020427 -0.002204 0.001595
# 5 0.005909 -0.004206 0.008692 -0.002204 0.034271 0.002595
# 6 -0.005167 -0.004103 0.001284 0.001595 0.002595 0.024963
#
#
# Mechanical properties :
#
#
# Convention : Reuss Voigt Hill
#
# Bulk Modulus (GPa) = 46.09366 71.13393 58.61380
# Shear Modulus (GPa) = 33.16102 43.87705 38.51903
#
# Velocity S-wave (km/s) = 3.66536 4.21620 3.95040
# Velocity P-wave (km/s) = 6.04877 7.24714 6.67490
#
# Compressibility (1/GPa) = 0.02169496
#
# Stress axis : x y z
#
# Youngs Moduli (GPa) = 50.91198 113.23389 69.84292
#
# Poissons Ratio (x) = 0.25881 0.34425
# Poissons Ratio (y) = 0.11637 0.23282
# Poissons Ratio (z) = 0.25094 0.37745
#
# Static dielectric constant tensor:
#      x y z
#    x 1.989870 -0.043570 0.064630 
#    y -0.043570 1.988000 0.014990 
#    z 0.064630 0.014990 2.069860 
# 
# From -- ./inp_files/337595.got.cif
#   From: 2010.05.17/outbox.cif.g08.bks.cpg/sg2_169_cif.got.tgz:337595.got - 2010.06.03 11:33:40.
