data_PCOD9101463
_publ_section_title
;
Structure prediction by ZEFSAII (Michael W. Deem and Ramdas Pophale) SiO2 
 PCOD9101463
Probable space group: P -1
;
_chemical_formula_sum "Si O2"
_cell_formula_units_Z 16
_cell_length_a 20.089896
_cell_length_b 11.601712
_cell_length_c 9.122054
_cell_angle_alpha 78.232641
_cell_angle_beta 45.444905
_cell_angle_gamma 41.907915
_cell_volume 752.547765
_symmetry_space_group_name_H-M "P -1"
_symmetry_group_IT_number 2
_symmetry_cell_setting 'triclinic'
loop_
_space_group_symop_operation_xyz
x,y,z
-x,-y,-z
loop_
_atom_site_type_symbol
_atom_site_label
_atom_site_fract_x
_atom_site_fract_y
_atom_site_fract_z
Si Si1 0.445268 0.026911 0.916139
Si Si2 0.116726 0.115863 0.232849
Si Si3 0.352105 0.299004 0.745338
Si Si4 0.108383 0.251705 0.490993
Si Si5 0.070203 0.837233 0.722006
Si Si6 0.026150 0.146474 0.817582
Si Si7 0.532160 0.700784 0.709446
Si Si8 0.903133 0.620399 0.963263
O O1 0.441742 0.146321 0.790355
O O2 0.556404 0.796406 0.737627
O O3 0.245163 0.185630 0.205264
O O4 0.500000 0.000000 0.000000
O O5 0.019761 0.271637 0.489339
O O6 0.016173 0.119036 0.305128
O O7 0.117968 0.221841 0.087388
O O8 0.332473 0.860594 0.006040
O O9 0.466644 0.256973 0.472018
O O10 0.166677 0.576420 0.988353
O O11 0.282258 0.255919 0.781876
O O12 0.177700 0.072144 0.539138
O O13 0.015180 0.439492 0.703193
O O14 0.287779 0.571921 0.466859
O O15 0.038205 0.009722 0.752534
O O16 0.975886 0.875929 0.999552
O O17 0.000000 0.500000 0.000000
#
# Coordination Sequence:
#
# PCOD9101463 Si02
#       8
#     2   2   2   2   2   2   2   2
#     4  11  24  35  56  90 131 167 194 254 317 368
#     4  11  22  37  61  89 123 164 203 255 313 358
#     4  10  20  38  59  87 124 164 200 252 307 368
#     4  10  22  38  56  89 124 159 201 255 308 367
#     4  10  22  43  65  90 116 166 220 251 306 368
#     4   9  21  41  64  86 121 159 213 267 295 364
#     4  10  22  40  59  90 127 160 205 257 300 368
#     4  11  21  33  60  89 117 162 202 250 306 373
#
# _framework density 21.261109000000001
#
# number of rings (size 3 to 8) (size 9 to 14) (size 15 to 20)
#    0.000    1.750    2.500    3.000    5.250    1.500 
#    0.000    9.375    0.000    0.000    0.000    0.000 
#    0.000    0.000    0.000    0.000    0.000    0.000 
#
# Total GULP energy -89222.167476 kJ/mol
# GULP energy per Si atom -5576.385467 kJ/mol
# Density = 2.121272 g / cm^3
# Si number density = 21.261109 Si / 1000 Ang^3
#
#
#
# Elastic Constant Matrix: (Units=GPa)
#
#
# Indices 1 2 3 4 5 6 
#
# 1 110.0539 28.2706 12.6131 13.3785 25.7582 -6.9255
# 2 28.2706 82.3639 7.4894 11.7549 10.4083 9.7721
# 3 12.6131 7.4894 60.6008 0.6500 18.2003 5.0989
# 4 13.3785 11.7549 0.6500 23.4685 4.5626 7.4706
# 5 25.7582 10.4083 18.2003 4.5626 24.9368 -1.1832
# 6 -6.9255 9.7721 5.0989 7.4706 -1.1832 31.8839
#
#
#
# Elastic Compliance Matrix: (Units=1/GPa)
#
#
# Indices 1 2 3 4 5 6 
#
# 1 0.013530 -0.002957 0.000895 -0.005313 -0.012209 0.004494
# 2 -0.002957 0.014519 -0.000022 -0.003726 -0.002512 -0.004309
# 3 0.000895 -0.000022 0.022096 0.003957 -0.018000 -0.004928
# 4 -0.005313 -0.003726 0.003957 0.052805 -0.006134 -0.013245
# 5 -0.012209 -0.002512 -0.018000 -0.006134 0.068257 0.004967
# 6 0.004494 -0.004309 -0.004928 -0.013245 0.004967 0.037736
#
#
# Mechanical properties :
#
#
# Convention : Reuss Voigt Hill
#
# Bulk Modulus (GPa) = 21.75033 38.86275 30.30654
# Shear Modulus (GPa) = 21.88798 29.70086 25.79442
#
# Velocity S-wave (km/s) = 3.21204 3.74164 3.48691
# Velocity P-wave (km/s) = 4.89985 6.08153 5.52239
#
# Compressibility (1/GPa) = 0.04597632
#
# Stress axis : x y z
#
# Youngs Moduli (GPa) = 73.91091 68.87658 45.25704
#
# Poissons Ratio (x) = 0.20369 -0.04051
# Poissons Ratio (y) = 0.21858 0.00099
# Poissons Ratio (z) = -0.06616 0.00150
#
# Static dielectric constant tensor:
#      x y z
#    x 1.527970 0.054460 0.160070 
#    y 0.054460 1.755080 -0.049830 
#    z 0.160070 -0.049830 1.758660 
# 
# From -- ./inp_files/216678.got.cif
#   From: 2010.05.17/outbox.cif.g08.bks.cpg/sg2_109_cif.got.tgz:216678.got - 2010.06.03 11:33:40.
