data_PCOD9101065
_publ_section_title
;
Structure prediction by ZEFSAII (Michael W. Deem and Ramdas Pophale) SiO2 
 PCOD9101065
Probable space group: P -1
;
_chemical_formula_sum "Si O2"
_cell_formula_units_Z 14
_cell_length_a 9.980745
_cell_length_b 12.244697
_cell_length_c 10.861587
_cell_angle_alpha 70.045626
_cell_angle_beta 43.759948
_cell_angle_gamma 102.101400
_cell_volume 614.922854
_symmetry_space_group_name_H-M "P -1"
_symmetry_group_IT_number 2
_symmetry_cell_setting 'triclinic'
loop_
_space_group_symop_operation_xyz
x,y,z
-x,-y,-z
loop_
_atom_site_type_symbol
_atom_site_label
_atom_site_fract_x
_atom_site_fract_y
_atom_site_fract_z
Si Si1 0.176609 0.794635 0.889492
Si Si2 0.736874 0.808087 0.104377
Si Si3 0.424991 0.842915 0.451299
Si Si4 0.704039 0.548253 0.455166
Si Si5 0.917140 0.680298 0.730351
Si Si6 0.946806 0.011239 0.390728
Si Si7 0.370867 0.332785 0.310841
O O1 0.275829 0.770598 0.710093
O O2 0.428026 0.969786 0.714736
O O3 0.973384 0.815211 0.977091
O O4 0.993494 0.644838 0.163483
O O5 0.647505 0.840113 0.272755
O O6 0.469091 0.628295 0.302697
O O7 0.847702 0.938922 0.873637
O O8 0.204128 0.737681 0.529744
O O9 0.500000 0.500000 0.500000
O O10 0.723516 0.657678 0.499742
O O11 0.811495 0.680650 0.668686
O O12 0.677272 0.503606 0.016683
O O13 0.991923 0.825892 0.705222
O O14 0.676183 0.825067 0.609121
O O15 0.000000 0.000000 0.500000
#
# Coordination Sequence:
#
# PCOD9101065 Si02
#       7
#     2   2   2   2   2   2   2
#     4  10  22  40  62  89 133 169 210 261 322 371
#     4  11  21  40  65  89 131 165 213 264 315 377
#     4  11  22  39  63  94 127 166 214 266 312 377
#     4  10  20  39  62  93 127 167 217 256 314 387
#     4  10  20  41  61  96 131 162 217 268 305 384
#     4  10  20  38  67  95 123 171 212 255 325 378
#     4  10  20  37  70  88 126 178 205 260 332 360
#
# _framework density 22.767085000000002
#
# number of rings (size 3 to 8) (size 9 to 14) (size 15 to 20)
#    0.000    1.714    2.857    2.143    0.000    1.714 
#    2.571    7.143    0.000    0.000    0.000    0.000 
#    0.000    0.000    0.000    0.000    0.000    0.000 
#
# Total GULP energy -78098.762908 kJ/mol
# GULP energy per Si atom -5578.483065 kJ/mol
# Density = 2.271527 g / cm^3
# Si number density = 22.767085 Si / 1000 Ang^3
#
#
#
# Elastic Constant Matrix: (Units=GPa)
#
#
# Indices 1 2 3 4 5 6 
#
# 1 66.4123 21.1868 42.1847 3.0518 -7.4074 14.2209
# 2 21.1868 130.4773 44.8607 -4.6412 0.0471 7.0565
# 3 42.1847 44.8607 155.5443 -16.2923 7.9968 10.1026
# 4 3.0518 -4.6412 -16.2923 56.7284 0.8112 -2.3807
# 5 -7.4074 0.0471 7.9968 0.8112 29.2128 -6.8415
# 6 14.2209 7.0565 10.1026 -2.3807 -6.8415 24.4519
#
#
#
# Elastic Compliance Matrix: (Units=1/GPa)
#
#
# Indices 1 2 3 4 5 6 
#
# 1 0.021556 -0.001246 -0.005516 -0.003287 0.005004 -0.008818
# 2 -0.001246 0.008635 -0.002082 0.000138 0.000029 -0.000886
# 3 -0.005516 -0.002082 0.009082 0.002759 -0.004154 -0.000838
# 4 -0.003287 0.000138 0.002759 0.018720 -0.001617 0.002102
# 5 0.005004 0.000029 -0.004154 -0.001617 0.038914 0.009528
# 6 -0.008818 -0.000886 -0.000838 0.002102 0.009528 0.049497
#
#
# Mechanical properties :
#
#
# Convention : Reuss Voigt Hill
#
# Bulk Modulus (GPa) = 46.32548 63.21093 54.76821
# Shear Modulus (GPa) = 29.19081 38.35872 33.77476
#
# Velocity S-wave (km/s) = 3.58460 4.10912 3.85579
# Velocity P-wave (km/s) = 6.12570 7.09490 6.62804
#
# Compressibility (1/GPa) = 0.02158639
#
# Stress axis : x y z
#
# Youngs Moduli (GPa) = 46.39132 115.80615 110.10298
#
# Poissons Ratio (x) = 0.14425 0.60729
# Poissons Ratio (y) = 0.05779 0.22925
# Poissons Ratio (z) = 0.25588 0.24113
#
# Static dielectric constant tensor:
#      x y z
#    x 1.875640 -0.070760 -0.001710 
#    y -0.070760 1.913420 -0.015840 
#    z -0.001710 -0.015840 1.923710 
# 
# From -- ./inp_files/269822.got.cif
#   From: 2010.05.17/outbox.cif.g08.bks.cpg/sg2_135_cif.got.tgz:269822.got - 2010.06.03 11:33:40.
