data_PCOD9101090
_publ_section_title
;
Structure prediction by ZEFSAII (Michael W. Deem and Ramdas Pophale) SiO2 
 PCOD9101090
Probable space group: P -1
;
_chemical_formula_sum "Si O2"
_cell_formula_units_Z 16
_cell_length_a 22.588727
_cell_length_b 12.465571
_cell_length_c 9.332549
_cell_angle_alpha 131.825651
_cell_angle_beta 27.416081
_cell_angle_gamma 141.112558
_cell_volume 756.986635
_symmetry_space_group_name_H-M "P -1"
_symmetry_group_IT_number 2
_symmetry_cell_setting 'triclinic'
loop_
_space_group_symop_operation_xyz
x,y,z
-x,-y,-z
loop_
_atom_site_type_symbol
_atom_site_label
_atom_site_fract_x
_atom_site_fract_y
_atom_site_fract_z
Si Si1 0.934772 0.339238 0.891020
Si Si2 0.742082 0.492183 0.787695
Si Si3 0.779439 0.718004 0.376312
Si Si4 0.500229 0.659994 0.076215
Si Si5 0.274624 0.226712 0.766601
Si Si6 0.944072 0.071141 0.810810
Si Si7 0.345954 0.684091 0.683154
Si Si8 0.556100 0.186107 0.102189
O O1 0.883565 0.175163 0.952806
O O2 0.079770 0.382386 0.520196
O O3 0.798382 0.320792 0.075374
O O4 0.000000 0.500000 0.000000
O O5 0.645360 0.415183 0.781685
O O6 0.683848 0.599183 0.089101
O O7 0.702264 0.332629 0.830506
O O8 0.814774 0.787134 0.199742
O O9 0.706239 0.512842 0.345390
O O10 0.916275 0.800256 0.269625
O O11 0.655200 0.756208 0.738858
O O12 0.476596 0.751729 0.341153
O O13 0.500000 0.500000 0.000000
O O14 0.422543 0.223560 0.405289
O O15 0.177437 0.078841 0.959022
O O16 0.000000 0.000000 0.500000
O O17 0.404248 0.793244 0.797965
O O18 0.500000 0.000000 0.000000
#
# Coordination Sequence:
#
# PCOD9101090 Si02
#       8
#     2   2   2   2   2   2   2   2
#     4  12  24  46  73 102 146 187 235 290 350 421
#     4  12  23  47  72 101 140 192 230 285 357 425
#     4  11  22  44  71 106 139 186 240 283 353 430
#     4  10  20  37  72 102 133 175 240 282 336 425
#     4  12  25  47  74 100 147 186 235 293 352 426
#     4  12  27  44  70 109 141 186 239 292 349 415
#     4  11  24  44  74 103 139 193 233 286 362 416
#     4  12  29  47  70 109 142 183 238 300 356 415
#
# _framework density 21.136437000000001
#
# number of rings (size 3 to 8) (size 9 to 14) (size 15 to 20)
#    0.000    0.500    6.250    3.000    3.500    1.500 
#    2.250    1.250    0.000    0.000    0.000    0.000 
#    0.000    0.000    0.000    0.000    0.000    0.000 
#
# Total GULP energy -89527.856910 kJ/mol
# GULP energy per Si atom -5595.491057 kJ/mol
# Density = 2.108833 g / cm^3
# Si number density = 21.136437 Si / 1000 Ang^3
#
#
#
# Elastic Constant Matrix: (Units=GPa)
#
#
# Indices 1 2 3 4 5 6 
#
# 1 155.6477 39.9672 45.3707 14.6667 15.7644 5.2830
# 2 39.9672 105.3249 31.3372 11.8353 19.0294 -2.1286
# 3 45.3707 31.3372 73.8136 0.7378 7.2948 -12.1551
# 4 14.6667 11.8353 0.7378 32.5128 -4.0642 9.7231
# 5 15.7644 19.0294 7.2948 -4.0642 39.5978 -0.9939
# 6 5.2830 -2.1286 -12.1551 9.7231 -0.9939 39.2460
#
#
#
# Elastic Compliance Matrix: (Units=1/GPa)
#
#
# Indices 1 2 3 4 5 6 
#
# 1 0.008773 -0.001095 -0.004999 -0.003127 -0.002418 -0.002075
# 2 -0.001095 0.012636 -0.004000 -0.004888 -0.005384 0.000668
# 3 -0.004999 -0.004000 0.019231 0.001552 0.000681 0.006045
# 4 -0.003127 -0.004888 0.001552 0.037298 0.006925 -0.008429
# 5 -0.002418 -0.005384 0.000681 0.006925 0.029371 -0.000727
# 6 -0.002075 0.000668 0.006045 -0.008429 -0.000727 0.029738
#
#
# Mechanical properties :
#
#
# Convention : Reuss Voigt Hill
#
# Bulk Modulus (GPa) = 48.89690 63.12629 56.01159
# Shear Modulus (GPa) = 30.47784 36.81206 33.64495
#
# Velocity S-wave (km/s) = 3.80143 4.17782 3.99406
# Velocity P-wave (km/s) = 6.51552 7.29405 6.91575
#
# Compressibility (1/GPa) = 0.02045119
#
# Stress axis : x y z
#
# Youngs Moduli (GPa) = 113.98217 79.14049 51.99870
#
# Poissons Ratio (x) = 0.08669 0.25994
# Poissons Ratio (y) = 0.12486 0.20800
# Poissons Ratio (z) = 0.56980 0.31657
#
# Static dielectric constant tensor:
#      x y z
#    x 1.730850 0.000490 0.024720 
#    y 0.000490 1.740340 -0.023080 
#    z 0.024720 -0.023080 1.776400 
# 
# From -- ./inp_files/208321.got.cif
#   From: 2010.05.17/outbox.cif.g08.bks.cpg/sg2_105_cif.got.tgz:208321.got - 2010.06.03 11:33:40.
