data_PCOD9101808
_publ_section_title
;
Structure prediction by ZEFSAII (Michael W. Deem and Ramdas Pophale) SiO2 
 PCOD9101808
Probable space group: P -1
;
_chemical_formula_sum "Si O2"
_cell_formula_units_Z 16
_cell_length_a 11.706224
_cell_length_b 11.938080
_cell_length_c 12.052155
_cell_angle_alpha 141.426363
_cell_angle_beta 72.216271
_cell_angle_gamma 80.775303
_cell_volume 740.391721
_symmetry_space_group_name_H-M "P -1"
_symmetry_group_IT_number 2
_symmetry_cell_setting 'triclinic'
loop_
_space_group_symop_operation_xyz
x,y,z
-x,-y,-z
loop_
_atom_site_type_symbol
_atom_site_label
_atom_site_fract_x
_atom_site_fract_y
_atom_site_fract_z
Si Si1 0.426285 0.273979 0.254990
Si Si2 0.240951 0.061185 0.843817
Si Si3 0.048622 0.967685 0.333843
Si Si4 0.055250 0.560120 0.924802
Si Si5 0.861117 0.245542 0.401713
Si Si6 0.415157 0.161878 0.412909
Si Si7 0.340395 0.894323 0.112251
Si Si8 0.125674 0.214728 0.237435
O O1 0.263601 0.484164 0.400202
O O2 0.401241 0.303140 0.416603
O O3 0.551087 0.281955 0.159910
O O4 0.500000 0.000000 0.000000
O O5 0.210316 0.879590 0.695330
O O6 0.419519 0.940315 0.655694
O O7 0.233517 0.110908 0.015638
O O8 0.086502 0.313625 0.027925
O O9 0.227544 0.871460 0.192859
O O10 0.053332 0.768552 0.123192
O O11 0.000000 0.000000 0.500000
O O12 0.914310 0.208355 0.486134
O O13 0.239584 0.336092 0.658594
O O14 0.000000 0.500000 0.000000
O O15 0.030378 0.120384 0.193206
O O16 0.439727 0.929520 0.187077
O O17 0.213376 0.141491 0.272343
O O18 0.000000 0.500000 0.500000
#
# Coordination Sequence:
#
# PCOD9101808 Si02
#       8
#     2   2   2   2   2   2   2   2
#     4  10  20  38  60  98 134 162 208 259 321 393
#     4  11  24  41  64  96 133 173 221 266 333 398
#     4  10  23  45  66  91 122 169 227 272 329 386
#     4  11  25  46  67  91 127 174 224 277 331 389
#     4  10  23  38  64  91 133 168 214 268 331 385
#     4  11  23  41  66  97 134 172 214 265 333 395
#     4  10  21  37  61  94 133 161 208 270 314 384
#     4  11  20  36  62  94 131 173 213 263 325 393
#
# _framework density 21.610182999999999
#
# number of rings (size 3 to 8) (size 9 to 14) (size 15 to 20)
#    0.000    1.500    1.250    4.125    3.500    4.000 
#    0.000    0.625    0.000    0.000    0.000    0.000 
#    0.000    0.000    0.000    0.000    0.000    0.000 
#
# Total GULP energy -89219.821117 kJ/mol
# GULP energy per Si atom -5576.238820 kJ/mol
# Density = 2.156100 g / cm^3
# Si number density = 21.610183 Si / 1000 Ang^3
#
#
#
# Elastic Constant Matrix: (Units=GPa)
#
#
# Indices 1 2 3 4 5 6 
#
# 1 135.8788 22.0059 20.9147 -7.6740 -23.6407 16.9577
# 2 22.0059 75.4547 24.9151 -17.8546 -18.2404 11.0851
# 3 20.9147 24.9151 63.1047 -17.7645 -27.5042 5.7456
# 4 -7.6740 -17.8546 -17.7645 39.3341 7.5774 -9.2844
# 5 -23.6407 -18.2404 -27.5042 7.5774 40.4014 -8.6453
# 6 16.9577 11.0851 5.7456 -9.2844 -8.6453 28.8893
#
#
#
# Elastic Compliance Matrix: (Units=1/GPa)
#
#
# Indices 1 2 3 4 5 6 
#
# 1 0.008671 -0.001054 -0.000856 -0.000700 0.003347 -0.003739
# 2 -0.001054 0.016978 -0.003336 0.004713 0.003310 -0.002727
# 3 -0.000856 -0.003336 0.025846 0.007990 0.014873 0.003661
# 4 -0.000700 0.004713 0.007990 0.032443 0.002847 0.008292
# 5 0.003347 0.003310 0.014873 0.002847 0.039175 0.006446
# 6 -0.003739 -0.002727 0.003661 0.008292 0.006446 0.041722
#
#
# Mechanical properties :
#
#
# Convention : Reuss Voigt Hill
#
# Bulk Modulus (GPa) = 24.38834 45.56771 34.97803
# Shear Modulus (GPa) = 26.45574 35.49848 30.97711
#
# Velocity S-wave (km/s) = 3.50269 4.05739 3.79020
# Velocity P-wave (km/s) = 5.26009 6.56368 5.94770
#
# Compressibility (1/GPa) = 0.04100320
#
# Stress axis : x y z
#
# Youngs Moduli (GPa) = 115.32366 58.89991 38.69067
#
# Poissons Ratio (x) = 0.06206 0.03311
# Poissons Ratio (y) = 0.12151 0.12909
# Poissons Ratio (z) = 0.09870 0.19652
#
# Static dielectric constant tensor:
#      x y z
#    x 1.917910 0.027730 -0.049890 
#    y 0.027730 1.864000 -0.014510 
#    z -0.049890 -0.014510 1.831560 
# 
# From -- ./inp_files/388860.got.cif
#   From: 2010.05.17/outbox.cif.g08.bks.cpg/sg2_195_cif.got.tgz:388860.got - 2010.06.03 11:33:40.
