data_PCOD9101371
_publ_section_title
;
Structure prediction by ZEFSAII (Michael W. Deem and Ramdas Pophale) SiO2 
 PCOD9101371
Probable space group: P -1
;
_chemical_formula_sum "Si O2"
_cell_formula_units_Z 12
_cell_length_a 17.200805
_cell_length_b 15.923861
_cell_length_c 20.334945
_cell_angle_alpha 154.166922
_cell_angle_beta 168.677570
_cell_angle_gamma 26.096060
_cell_volume 468.608444
_symmetry_space_group_name_H-M "P -1"
_symmetry_group_IT_number 2
_symmetry_cell_setting 'triclinic'
loop_
_space_group_symop_operation_xyz
x,y,z
-x,-y,-z
loop_
_atom_site_type_symbol
_atom_site_label
_atom_site_fract_x
_atom_site_fract_y
_atom_site_fract_z
Si Si1 0.943092 0.733253 0.627807
Si Si2 0.108591 0.947206 0.674771
Si Si3 0.878108 0.366073 0.749524
Si Si4 0.619530 0.695417 0.007510
Si Si5 0.551221 0.009541 0.713755
Si Si6 0.342172 0.752070 0.252040
O O1 0.742962 0.787854 0.571864
O O2 0.000000 0.500000 0.500000
O O3 0.621371 0.836959 0.380234
O O4 0.353471 0.825831 0.035588
O O5 0.925716 0.798858 0.374093
O O6 0.214514 0.855443 0.769973
O O7 0.815771 0.157527 0.579923
O O8 0.500000 0.000000 0.000000
O O9 0.500000 0.500000 0.500000
O O10 0.205332 0.337166 0.943280
O O11 0.000000 0.500000 0.000000
O O12 0.605604 0.482639 0.871919
O O13 0.324161 0.838345 0.371926
O O14 0.961150 0.855925 0.966709
#
# Coordination Sequence:
#
# PCOD9101371 Si02
#       6
#     2   2   2   2   2   2
#     4  11  21  37  60  85 113 149 190 230 274 331
#     4  10  20  38  59  79 111 153 188 221 277 350
#     4  11  21  37  59  83 109 145 187 230 275 331
#     4  11  22  38  59  84 112 148 189 232 278 332
#     4  10  21  38  60  81 113 156 190 218 275 349
#     4  11  21  38  59  84 112 149 190 231 275 331
#
# _framework density 25.607733
#
# number of rings (size 3 to 8) (size 9 to 14) (size 15 to 20)
#    0.000    1.333    0.000   10.500    0.000    0.000 
#    0.000   10.000    0.000    0.000    0.000    0.000 
#    0.000    0.000    0.000    0.000    0.000    0.000 
#
# Total GULP energy -66861.752125 kJ/mol
# GULP energy per Si atom -5571.812677 kJ/mol
# Density = 2.554945 g / cm^3
# Si number density = 25.607733 Si / 1000 Ang^3
#
#
#
# Elastic Constant Matrix: (Units=GPa)
#
#
# Indices 1 2 3 4 5 6 
#
# 1 98.8454 17.1790 43.1442 5.4653 -11.8669 -8.2188
# 2 17.1790 235.9828 70.8478 23.1281 -23.5837 38.4433
# 3 43.1442 70.8478 166.5162 13.8226 -59.1946 20.9917
# 4 5.4653 23.1281 13.8226 50.2370 2.5355 -17.7348
# 5 -11.8669 -23.5837 -59.1946 2.5355 46.6510 1.2212
# 6 -8.2188 38.4433 20.9917 -17.7348 1.2212 37.8716
#
#
#
# Elastic Compliance Matrix: (Units=1/GPa)
#
#
# Indices 1 2 3 4 5 6 
#
# 1 0.013506 -0.002202 -0.007461 0.006427 -0.007822 0.012563
# 2 -0.002202 0.007608 0.002515 -0.009342 0.007357 -0.014206
# 3 -0.007461 0.002515 0.021115 -0.016141 0.027680 -0.024327
# 4 0.006427 -0.009342 -0.016141 0.043872 -0.027033 0.041241
# 5 -0.007822 0.007357 0.027680 -0.027033 0.060782 -0.039128
# 6 0.012563 -0.014206 -0.024327 0.041241 -0.039128 0.077611
#
#
# Mechanical properties :
#
#
# Convention : Reuss Voigt Hill
#
# Bulk Modulus (GPa) = 35.79720 84.85403 60.32561
# Shear Modulus (GPa) = 20.15326 51.63017 35.89172
#
# Velocity S-wave (km/s) = 2.80839 4.49508 3.74785
# Velocity P-wave (km/s) = 4.95232 7.75558 6.50671
#
# Compressibility (1/GPa) = 0.02793515
#
# Stress axis : x y z
#
# Youngs Moduli (GPa) = 74.04121 131.44277 47.35965
#
# Poissons Ratio (x) = 0.28938 0.35333
# Poissons Ratio (y) = 0.16301 -0.11912
# Poissons Ratio (z) = 0.55239 -0.33062
#
# Static dielectric constant tensor:
#      x y z
#    x 2.075700 0.013310 0.086340 
#    y 0.013310 1.974410 0.012880 
#    z 0.086340 0.012880 2.013420 
# 
# From -- ./inp_files/355443.got.cif
#   From: 2010.05.17/outbox.cif.g08.bks.cpg/sg2_178_cif.got.tgz:355443.got - 2010.06.03 11:33:40.
