data_PCOD9101058
_publ_section_title
;
Structure prediction by ZEFSAII (Michael W. Deem and Ramdas Pophale) SiO2 
 PCOD9101058
Probable space group: P -1
;
_chemical_formula_sum "Si O2"
_cell_formula_units_Z 16
_cell_length_a 5.494586
_cell_length_b 21.489493
_cell_length_c 17.926593
_cell_angle_alpha 19.271047
_cell_angle_beta 102.814206
_cell_angle_gamma 103.706273
_cell_volume 678.684317
_symmetry_space_group_name_H-M "P -1"
_symmetry_group_IT_number 2
_symmetry_cell_setting 'triclinic'
loop_
_space_group_symop_operation_xyz
x,y,z
-x,-y,-z
loop_
_atom_site_type_symbol
_atom_site_label
_atom_site_fract_x
_atom_site_fract_y
_atom_site_fract_z
Si Si1 0.018472 0.256473 0.992587
Si Si2 0.730971 0.139526 0.890131
Si Si3 0.257162 0.642236 0.495716
Si Si4 0.256007 0.063803 0.487540
Si Si5 0.844604 0.002114 0.828897
Si Si6 0.554238 0.341138 0.788276
Si Si7 0.441932 0.254348 0.134416
Si Si8 0.725940 0.553291 0.894675
O O1 0.114780 0.452201 0.734460
O O2 0.725319 0.262635 0.953995
O O3 0.098179 0.064558 0.175669
O O4 0.171303 0.271513 0.062506
O O5 0.858981 0.247005 0.706094
O O6 0.681081 0.308106 0.754517
O O7 0.897030 0.004690 0.101073
O O8 0.500000 0.000000 0.000000
O O9 0.488429 0.547545 0.577496
O O10 0.279388 0.805037 0.377157
O O11 0.412516 0.169079 0.311990
O O12 0.230306 0.223866 0.364936
O O13 0.398114 0.898853 0.718785
O O14 0.000000 0.000000 0.500000
O O15 0.679645 0.815481 0.057380
O O16 0.619286 0.445894 0.936011
O O17 0.500000 0.500000 0.000000
O O18 0.000000 0.500000 0.000000
#
# Coordination Sequence:
#
# PCOD9101058 Si02
#       8
#     2   2   2   2   2   2   2   2
#     4  10  25  42  60  87 130 167 209 253 315 386
#     4  11  22  38  66  90 121 161 210 270 318 369
#     4  11  23  39  64  89 121 162 212 260 320 372
#     4  10  20  37  69  96 123 160 210 262 315 377
#     4  10  23  42  61  91 123 160 212 264 309 380
#     4  10  23  40  60  92 124 162 208 267 313 377
#     4  10  22  41  62  92 127 166 205 259 320 384
#     4  10  20  38  65 100 132 159 211 272 321 384
#
# _framework density 23.575023999999999
#
# number of rings (size 3 to 8) (size 9 to 14) (size 15 to 20)
#    0.000    1.750    2.500    0.750    1.750    7.500 
#    0.000    0.000    0.000    0.000    0.000    0.000 
#    0.000    0.000    0.000    0.000    0.000    0.000 
#
# Total GULP energy -89112.348245 kJ/mol
# GULP energy per Si atom -5569.521765 kJ/mol
# Density = 2.352137 g / cm^3
# Si number density = 23.575024 Si / 1000 Ang^3
#
#
#
# Elastic Constant Matrix: (Units=GPa)
#
#
# Indices 1 2 3 4 5 6 
#
# 1 46.2719 16.2682 10.4337 -12.0943 16.3446 13.5703
# 2 16.2682 101.8215 54.3070 -23.9284 16.6809 20.0528
# 3 10.4337 54.3070 87.0638 -42.5497 12.3442 -11.4908
# 4 -12.0943 -23.9284 -42.5497 54.9471 -15.7325 5.2261
# 5 16.3446 16.6809 12.3442 -15.7325 30.2046 -1.4357
# 6 13.5703 20.0528 -11.4908 5.2261 -1.4357 40.1492
#
#
#
# Elastic Compliance Matrix: (Units=1/GPa)
#
#
# Indices 1 2 3 4 5 6 
#
# 1 0.032381 0.003624 -0.005044 0.001200 -0.017550 -0.014982
# 2 0.003624 0.022683 -0.017427 -0.004128 -0.010342 -0.017374
# 3 -0.005044 -0.017427 0.032520 0.017354 0.008948 0.017777
# 4 0.001200 -0.004128 0.017354 0.033282 0.012003 0.002720
# 5 -0.017550 -0.010342 0.008948 0.012003 0.051573 0.013940
# 6 -0.014982 -0.017374 0.017777 0.002720 0.013940 0.043881
#
#
# Mechanical properties :
#
#
# Convention : Reuss Voigt Hill
#
# Bulk Modulus (GPa) = 20.04427 44.13056 32.08741
# Shear Modulus (GPa) = 18.47443 35.33674 26.90558
#
# Velocity S-wave (km/s) = 2.80240 3.87577 3.38194
# Velocity P-wave (km/s) = 4.35799 6.22805 5.37497
#
# Compressibility (1/GPa) = 0.04988957
#
# Stress axis : x y z
#
# Youngs Moduli (GPa) = 30.88221 44.08617 30.75056
#
# Poissons Ratio (x) = -0.15978 0.15511
# Poissons Ratio (y) = -0.11193 0.53590
# Poissons Ratio (z) = 0.15577 0.76831
#
# Static dielectric constant tensor:
#      x y z
#    x 1.896500 -0.019000 -0.029460 
#    y -0.019000 1.922720 -0.013900 
#    z -0.029460 -0.013900 1.890220 
# 
# From -- ./inp_files/112239.got.cif
#   From: 2010.05.17/outbox.cif.g08.bks.cpg/sg2_57_cif.got.tgz:112239.got - 2010.06.03 11:33:40.
