data_PCOD9101563
_publ_section_title
;
Structure prediction by ZEFSAII (Michael W. Deem and Ramdas Pophale) SiO2 
 PCOD9101563
Probable space group: P -1
;
_chemical_formula_sum "Si O2"
_cell_formula_units_Z 12
_cell_length_a 14.239477
_cell_length_b 14.377971
_cell_length_c 9.208033
_cell_angle_alpha 92.988277
_cell_angle_beta 84.684410
_cell_angle_gamma 19.869660
_cell_volume 581.472593
_symmetry_space_group_name_H-M "P -1"
_symmetry_group_IT_number 2
_symmetry_cell_setting 'triclinic'
loop_
_space_group_symop_operation_xyz
x,y,z
-x,-y,-z
loop_
_atom_site_type_symbol
_atom_site_label
_atom_site_fract_x
_atom_site_fract_y
_atom_site_fract_z
Si Si1 0.256706 0.678523 0.449590
Si Si2 0.550733 0.947779 0.317156
Si Si3 0.339388 0.654877 0.882835
Si Si4 0.729581 0.707768 0.872705
Si Si5 0.523541 0.784258 0.165773
Si Si6 0.117240 0.689698 0.730718
O O1 0.500000 0.500000 0.500000
O O2 0.437963 0.491019 0.259953
O O3 0.159989 0.678714 0.554966
O O4 0.000000 0.000000 0.500000
O O5 0.404473 0.990749 0.275830
O O6 0.913612 0.602498 0.205668
O O7 0.500000 0.000000 0.500000
O O8 0.396490 0.176097 0.264830
O O9 0.281687 0.614985 0.796339
O O10 0.500000 0.500000 0.000000
O O11 0.000000 0.000000 0.000000
O O12 0.692236 0.655806 0.982788
O O13 0.500000 0.000000 0.000000
O O14 0.734963 0.540319 0.238766
O O15 0.244382 0.980766 0.176571
#
# Coordination Sequence:
#
# PCOD9101563 Si02
#       6
#     2   2   2   2   2   2
#     4  10  20  38  60  82 113 158 195 224 285 367
#     4  11  22  39  62  88 118 156 197 240 288 346
#     4  11  22  39  61  86 115 152 194 239 288 346
#     4  10  20  38  61  84 116 162 198 226 285 367
#     4  11  21  38  60  87 116 153 197 241 286 344
#     4  11  22  38  60  87 116 153 195 242 289 344
#
# _framework density 20.637257000000002
#
# number of rings (size 3 to 8) (size 9 to 14) (size 15 to 20)
#    0.000    1.333    0.000   10.500    0.000    0.000 
#    0.000   10.000    0.000    0.000    0.000    0.000 
#    0.000    0.000    0.000    0.000    0.000    0.000 
#
# Total GULP energy -66845.104723 kJ/mol
# GULP energy per Si atom -5570.425394 kJ/mol
# Density = 2.059029 g / cm^3
# Si number density = 20.637257 Si / 1000 Ang^3
#
#
#
# Elastic Constant Matrix: (Units=GPa)
#
#
# Indices 1 2 3 4 5 6 
#
# 1 42.7621 17.4195 37.0365 -7.9942 -22.3793 -3.1950
# 2 17.4195 163.2007 51.4863 -15.2322 -25.2222 -5.3280
# 3 37.0365 51.4863 156.7353 -31.0786 -33.3749 5.6103
# 4 -7.9942 -15.2322 -31.0786 44.6366 -1.0488 -7.0959
# 5 -22.3793 -25.2222 -33.3749 -1.0488 35.1830 -7.2757
# 6 -3.1950 -5.3280 5.6103 -7.0959 -7.2757 39.1124
#
#
#
# Elastic Compliance Matrix: (Units=1/GPa)
#
#
# Indices 1 2 3 4 5 6 
#
# 1 0.042386 0.001962 -0.003594 0.008123 0.027438 0.010823
# 2 0.001962 0.007623 -0.001190 0.002755 0.006295 0.003040
# 3 -0.003594 -0.001190 0.010361 0.006411 0.006988 0.000521
# 4 0.008123 0.002755 0.006411 0.031022 0.015951 0.008715
# 5 0.027438 0.006295 0.006988 0.015951 0.060866 0.016313
# 6 0.010823 0.003040 0.000521 0.008715 0.016313 0.031406
#
#
# Mechanical properties :
#
#
# Convention : Reuss Voigt Hill
#
# Bulk Modulus (GPa) = 18.27315 63.84252 41.05784
# Shear Modulus (GPa) = 24.09057 40.90346 32.49701
#
# Velocity S-wave (km/s) = 3.42033 4.45682 3.97253
# Velocity P-wave (km/s) = 4.94691 7.58202 6.40152
#
# Compressibility (1/GPa) = 0.05472510
#
# Stress axis : x y z
#
# Youngs Moduli (GPa) = 23.59289 131.18921 96.51571
#
# Poissons Ratio (x) = -0.25736 0.34690
# Poissons Ratio (y) = -0.04628 0.11481
# Poissons Ratio (z) = 0.08480 0.15606
#
# Static dielectric constant tensor:
#      x y z
#    x 1.834870 0.068580 -0.053610 
#    y 0.068580 1.758080 -0.055080 
#    z -0.053610 -0.055080 1.708520 
# 
# From -- ./inp_files/193231.got.cif
#   From: 2010.05.17/outbox.cif.g08.bks.cpg/sg2_97_cif.got.tgz:193231.got - 2010.06.03 11:33:40.
