data_PCOD9101630
_publ_section_title
;
Structure prediction by ZEFSAII (Michael W. Deem and Ramdas Pophale) SiO2 
 PCOD9101630
Probable space group: P -1
;
_chemical_formula_sum "Si O2"
_cell_formula_units_Z 16
_cell_length_a 6.164686
_cell_length_b 27.862411
_cell_length_c 11.341578
_cell_angle_alpha 155.598758
_cell_angle_beta 92.252928
_cell_angle_gamma 81.075281
_cell_volume 769.833909
_symmetry_space_group_name_H-M "P -1"
_symmetry_group_IT_number 2
_symmetry_cell_setting 'triclinic'
loop_
_space_group_symop_operation_xyz
x,y,z
-x,-y,-z
loop_
_atom_site_type_symbol
_atom_site_label
_atom_site_fract_x
_atom_site_fract_y
_atom_site_fract_z
Si Si1 0.184086 0.205736 0.741744
Si Si2 0.910328 0.565719 0.389849
Si Si3 0.479010 0.369429 0.668322
Si Si4 0.048858 0.975404 0.584338
Si Si5 0.156877 0.761221 0.798369
Si Si6 0.347439 0.339620 0.850513
Si Si7 0.438946 0.752794 0.014057
Si Si8 0.704211 0.409235 0.181258
O O1 0.317064 0.229326 0.682084
O O2 0.313873 0.238850 0.931145
O O3 0.137367 0.078435 0.478985
O O4 0.940347 0.303329 0.943362
O O5 0.727392 0.607724 0.376593
O O6 0.783338 0.526403 0.410461
O O7 0.029474 0.670097 0.646057
O O8 0.110590 0.447028 0.088351
O O9 0.707668 0.296142 0.443358
O O10 0.425668 0.307780 0.648161
O O11 0.500000 0.500000 0.000000
O O12 0.281806 0.866907 0.342814
O O13 0.000000 0.000000 0.500000
O O14 0.021421 0.107557 0.932060
O O15 0.345366 0.771467 0.921707
O O16 0.530498 0.392713 0.040086
O O17 0.400708 0.628211 0.784982
#
# Coordination Sequence:
#
# PCOD9101630 Si02
#       8
#     2   2   2   2   2   2   2   2
#     4   9  19  36  66  83 113 158 189 236 292 331
#     4  11  21  36  59  86 116 155 188 235 295 337
#     4  12  23  38  59  85 119 151 196 238 280 344
#     4   9  20  39  59  85 117 150 192 239 281 343
#     4  11  24  35  56  90 119 150 193 235 284 346
#     4  10  20  38  60  86 112 156 196 235 283 341
#     4   9  20  39  59  87 117 150 192 235 287 344
#     4   9  18  36  60  86 113 152 193 234 286 348
#
# _framework density 20.783702999999999
#
# number of rings (size 3 to 8) (size 9 to 14) (size 15 to 20)
#    0.000    2.000    2.500    0.375    0.000    6.500 
#    0.000    9.375    0.000    7.500    0.000    0.000 
#    0.000    0.000    0.000    0.000    0.000    0.000 
#
# Total GULP energy -89320.308778 kJ/mol
# GULP energy per Si atom -5582.519299 kJ/mol
# Density = 2.073640 g / cm^3
# Si number density = 20.783703 Si / 1000 Ang^3
#
#
#
# Elastic Constant Matrix: (Units=GPa)
#
#
# Indices 1 2 3 4 5 6 
#
# 1 87.1322 31.0596 22.5420 -1.9502 -8.8545 13.0730
# 2 31.0596 83.5942 29.9855 12.0578 -4.7774 22.1137
# 3 22.5420 29.9855 84.8038 10.6658 -16.3348 19.0937
# 4 -1.9502 12.0578 10.6658 29.6070 9.8431 4.5053
# 5 -8.8545 -4.7774 -16.3348 9.8431 23.4195 -2.2973
# 6 13.0730 22.1137 19.0937 4.5053 -2.2973 43.2706
#
#
#
# Elastic Compliance Matrix: (Units=1/GPa)
#
#
# Indices 1 2 3 4 5 6 
#
# 1 0.014018 -0.004534 -0.001913 0.003128 0.001597 -0.001315
# 2 -0.004534 0.016973 -0.002346 -0.006262 0.002204 -0.005500
# 3 -0.001913 -0.002346 0.018420 -0.010293 0.015535 -0.004455
# 4 0.003128 -0.006262 -0.010293 0.049556 -0.028088 0.000146
# 5 0.001597 0.002204 0.015535 -0.028088 0.066195 -0.002025
# 6 -0.001315 -0.005500 -0.004455 0.000146 -0.002025 0.028161
#
#
# Mechanical properties :
#
#
# Convention : Reuss Voigt Hill
#
# Bulk Modulus (GPa) = 31.42175 46.96717 39.19446
# Shear Modulus (GPa) = 22.57175 30.72229 26.64702
#
# Velocity S-wave (km/s) = 3.29907 3.84890 3.58454
# Velocity P-wave (km/s) = 5.44639 6.51146 6.00259
#
# Compressibility (1/GPa) = 0.03182509
#
# Stress axis : x y z
#
# Youngs Moduli (GPa) = 71.33929 58.91758 54.29004
#
# Poissons Ratio (x) = 0.26715 0.10383
# Poissons Ratio (y) = 0.32348 0.12734
# Poissons Ratio (z) = 0.13644 0.13819
#
# Static dielectric constant tensor:
#      x y z
#    x 1.778760 0.028070 -0.022150 
#    y 0.028070 1.743990 0.017500 
#    z -0.022150 0.017500 1.762000 
# 
# From -- ./inp_files/67164.got.cif
#   From: 2010.05.17/outbox.cif.g08.bks.cpg/sg2_34_cif.got.tgz:67164.got - 2010.06.03 11:33:40.
