data_PCOD9101997
_publ_section_title
;
Structure prediction by ZEFSAII (Michael W. Deem and Ramdas Pophale) SiO2 
 PCOD9101997
Probable space group: P -1
;
_chemical_formula_sum "Si O2"
_cell_formula_units_Z 12
_cell_length_a 11.909499
_cell_length_b 9.226699
_cell_length_c 11.805730
_cell_angle_alpha 42.987602
_cell_angle_beta 132.797667
_cell_angle_gamma 143.321356
_cell_volume 514.473753
_symmetry_space_group_name_H-M "P -1"
_symmetry_group_IT_number 2
_symmetry_cell_setting 'triclinic'
loop_
_space_group_symop_operation_xyz
x,y,z
-x,-y,-z
loop_
_atom_site_type_symbol
_atom_site_label
_atom_site_fract_x
_atom_site_fract_y
_atom_site_fract_z
Si Si1 0.610755 0.976899 0.460722
Si Si2 0.901586 0.805937 0.436354
Si Si3 0.183435 0.725448 0.369647
Si Si4 0.201546 0.602092 0.026418
Si Si5 0.414590 0.173016 0.726494
Si Si6 0.134998 0.105775 0.197694
O O1 0.768337 0.264157 0.467305
O O2 0.636217 0.916961 0.386439
O O3 0.400986 0.902648 0.367432
O O4 0.658358 0.813610 0.665138
O O5 0.916717 0.564668 0.584701
O O6 0.681748 0.694952 0.367271
O O7 0.000000 0.000000 0.500000
O O8 0.992287 0.962985 0.290262
O O9 0.087315 0.876668 0.207455
O O10 0.161931 0.376296 0.041124
O O11 0.356488 0.645274 0.199493
O O12 0.306881 0.892782 0.879297
O O13 0.000000 0.500000 0.000000
#
# Coordination Sequence:
#
# PCOD9101997 Si02
#       6
#     2   2   2   2   2   2
#     4   9  20  40  63  91 121 164 206 262 311 372
#     4  12  21  35  67 100 122 157 210 266 313 372
#     4   9  21  37  60  96 126 159 203 261 322 364
#     4  11  24  42  61  91 131 168 213 256 312 368
#     4  11  24  39  65  95 123 167 214 259 306 378
#     4  10  20  38  61  90 125 164 201 262 310 368
#
# _framework density 23.324805000000001
#
# number of rings (size 3 to 8) (size 9 to 14) (size 15 to 20)
#    1.000    0.667    3.333    1.500    2.333    1.333 
#    0.000    0.833    0.000    3.000    0.000    0.000 
#    0.000    0.000    0.000    0.000    0.000    0.000 
#
# Total GULP energy -66905.736009 kJ/mol
# GULP energy per Si atom -5575.478001 kJ/mol
# Density = 2.327172 g / cm^3
# Si number density = 23.324805 Si / 1000 Ang^3
#
#
#
# Elastic Constant Matrix: (Units=GPa)
#
#
# Indices 1 2 3 4 5 6 
#
# 1 141.0918 39.0596 20.0094 -6.4415 44.3351 -3.0568
# 2 39.0596 137.7581 23.0314 -14.5534 20.2101 -14.3845
# 3 20.0094 23.0314 46.9404 -19.6304 32.7877 -9.4184
# 4 -6.4415 -14.5534 -19.6304 33.3390 -10.7902 14.7776
# 5 44.3351 20.2101 32.7877 -10.7902 34.7897 -5.2309
# 6 -3.0568 -14.3845 -9.4184 14.7776 -5.2309 41.8161
#
#
#
# Elastic Compliance Matrix: (Units=1/GPa)
#
#
# Indices 1 2 3 4 5 6 
#
# 1 0.019490 -0.002773 0.029342 0.003980 -0.049727 -0.000548
# 2 -0.002773 0.008597 -0.004990 0.000659 0.003727 0.001864
# 3 0.029342 -0.004990 0.120874 0.029718 -0.139235 -0.000266
# 4 0.003980 0.000659 0.029718 0.047216 -0.020631 -0.012056
# 5 -0.049727 0.003727 -0.139235 -0.020631 0.214842 0.000453
# 6 -0.000548 0.001864 -0.000266 -0.012056 0.000453 0.028773
#
#
# Mechanical properties :
#
#
# Convention : Reuss Voigt Hill
#
# Bulk Modulus (GPa) = 5.20510 54.44343 29.82427
# Shear Modulus (GPa) = 10.85370 38.23496 24.54433
#
# Velocity S-wave (km/s) = 2.15949 4.05315 3.24741
# Velocity P-wave (km/s) = 2.90762 6.73024 5.18413
#
# Compressibility (1/GPa) = 0.19211926
#
# Stress axis : x y z
#
# Youngs Moduli (GPa) = 51.30922 116.31879 8.27309
#
# Poissons Ratio (x) = 0.32254 -0.24275
# Poissons Ratio (y) = 0.14228 0.04128
# Poissons Ratio (z) = -1.50550 0.58037
#
# Static dielectric constant tensor:
#      x y z
#    x 1.916290 0.009300 0.009240 
#    y 0.009300 2.002900 -0.003060 
#    z 0.009240 -0.003060 1.905470 
# 
# From -- ./inp_files/512677.got.cif
#   From: 2010.05.17/outbox.cif.g08.bks.cpg/sg2_257_cif.got.tgz:512677.got - 2010.06.03 11:33:40.
