data_PCOD9101210
_publ_section_title
;
Structure prediction by ZEFSAII (Michael W. Deem and Ramdas Pophale) SiO2 
 PCOD9101210
Probable space group: P -1
;
_chemical_formula_sum "Si O2"
_cell_formula_units_Z 12
_cell_length_a 11.178843
_cell_length_b 11.561561
_cell_length_c 8.594317
_cell_angle_alpha 117.800844
_cell_angle_beta 107.574971
_cell_angle_gamma 120.524869
_cell_volume 598.437782
_symmetry_space_group_name_H-M "P -1"
_symmetry_group_IT_number 2
_symmetry_cell_setting 'triclinic'
loop_
_space_group_symop_operation_xyz
x,y,z
-x,-y,-z
loop_
_atom_site_type_symbol
_atom_site_label
_atom_site_fract_x
_atom_site_fract_y
_atom_site_fract_z
Si Si1 0.006315 0.526177 0.761591
Si Si2 0.299912 0.471569 0.040095
Si Si3 0.562709 0.701158 0.974853
Si Si4 0.967454 0.117954 0.490688
Si Si5 0.303563 0.764476 0.311618
Si Si6 0.827365 0.552901 0.462843
O O1 0.811736 0.301557 0.615097
O O2 0.933407 0.598092 0.691149
O O3 0.113765 0.517738 0.676200
O O4 0.154078 0.670462 0.051262
O O5 0.352083 0.374779 0.077581
O O6 0.339644 0.636893 0.248087
O O7 0.433239 0.584425 0.007716
O O8 0.075053 0.288632 0.774526
O O9 0.407786 0.625001 0.738192
O O10 0.741009 0.939369 0.240022
O O11 0.087312 0.249575 0.463763
O O12 0.000000 0.000000 0.500000
O O13 0.500000 0.000000 0.500000
#
# Coordination Sequence:
#
# PCOD9101210 Si02
#       6
#     2   2   2   2   2   2
#     4  10  23  39  55  81 124 153 187 239 278 344
#     4   9  18  34  53  85 113 141 193 240 275 331
#     4   9  17  31  59  85 108 143 189 237 287 329
#     4   9  17  31  58  86 112 144 184 238 284 328
#     4  11  23  39  59  81 113 163 194 225 288 346
#     4  10  20  38  57  87 118 146 191 241 285 331
#
# _framework density 20.052209999999999
#
# number of rings (size 3 to 8) (size 9 to 14) (size 15 to 20)
#    0.000    2.333    3.333    1.000    2.333    1.333 
#    0.000    4.167    0.000    5.000    0.000    0.000 
#    0.000    0.000    0.000    0.000    0.000    0.000 
#
# Total GULP energy -66839.687843 kJ/mol
# GULP energy per Si atom -5569.973987 kJ/mol
# Density = 2.000657 g / cm^3
# Si number density = 20.052210 Si / 1000 Ang^3
#
#
#
# Elastic Constant Matrix: (Units=GPa)
#
#
# Indices 1 2 3 4 5 6 
#
# 1 84.7289 15.1601 33.6256 4.1461 11.8358 -20.0774
# 2 15.1601 74.3517 38.4592 6.0939 14.8903 -8.8486
# 3 33.6256 38.4592 97.3772 27.0901 26.4176 -4.5243
# 4 4.1461 6.0939 27.0901 39.5863 -2.5797 5.0145
# 5 11.8358 14.8903 26.4176 -2.5797 33.3821 2.0498
# 6 -20.0774 -8.8486 -4.5243 5.0145 2.0498 18.9208
#
#
#
# Elastic Compliance Matrix: (Units=1/GPa)
#
#
# Indices 1 2 3 4 5 6 
#
# 1 0.019174 0.002243 -0.004073 -0.002728 -0.006125 0.021808
# 2 0.002243 0.018368 -0.006124 -0.000471 -0.004802 0.010151
# 3 -0.004073 -0.006124 0.022855 -0.015797 -0.015386 0.004133
# 4 -0.002728 -0.000471 -0.015797 0.040066 0.017970 -0.019457
# 5 -0.006125 -0.004802 -0.015386 0.017970 0.049217 -0.022519
# 6 0.021808 0.010151 0.004133 -0.019457 -0.022519 0.089324
#
#
# Mechanical properties :
#
#
# Convention : Reuss Voigt Hill
#
# Bulk Modulus (GPa) = 22.47709 47.88306 35.18007
# Shear Modulus (GPa) = 18.53617 29.65869 24.09743
#
# Velocity S-wave (km/s) = 3.04369 3.85004 3.47036
# Velocity P-wave (km/s) = 4.85651 6.61021 5.80002
#
# Compressibility (1/GPa) = 0.04448974
#
# Stress axis : x y z
#
# Youngs Moduli (GPa) = 52.15344 54.44215 43.75356
#
# Poissons Ratio (x) = -0.12211 0.17821
# Poissons Ratio (y) = -0.11698 0.26793
# Poissons Ratio (z) = 0.21243 0.33339
#
# Static dielectric constant tensor:
#      x y z
#    x 1.783300 -0.024360 -0.001810 
#    y -0.024360 1.736180 -0.001160 
#    z -0.001810 -0.001160 1.736100 
# 
# From -- ./inp_files/249726.got.cif
#   From: 2010.05.17/outbox.cif.g08.bks.cpg/sg2_125_cif.got.tgz:249726.got - 2010.06.03 11:33:40.
