data_PCOD9101014
_publ_section_title
;
Structure prediction by ZEFSAII (Michael W. Deem and Ramdas Pophale) SiO2 
 PCOD9101014
Probable space group: P -1
;
_chemical_formula_sum "Si O2"
_cell_formula_units_Z 16
_cell_length_a 26.585940
_cell_length_b 8.490011
_cell_length_c 14.859563
_cell_angle_alpha 53.844423
_cell_angle_beta 160.344495
_cell_angle_gamma 132.409126
_cell_volume 819.107957
_symmetry_space_group_name_H-M "P -1"
_symmetry_group_IT_number 2
_symmetry_cell_setting 'triclinic'
loop_
_space_group_symop_operation_xyz
x,y,z
-x,-y,-z
loop_
_atom_site_type_symbol
_atom_site_label
_atom_site_fract_x
_atom_site_fract_y
_atom_site_fract_z
Si Si1 0.684828 0.653334 0.290384
Si Si2 0.804110 0.375114 0.691948
Si Si3 0.819003 0.060194 0.686956
Si Si4 0.689704 0.181843 0.755455
Si Si5 0.830433 0.657004 0.911019
Si Si6 0.990332 0.062625 0.358501
Si Si7 0.677570 0.017576 0.272983
Si Si8 0.006081 0.687807 0.382524
O O1 0.736863 0.548634 0.497087
O O2 0.671644 0.861159 0.236229
O O3 0.500000 0.500000 0.000000
O O4 0.836915 0.730244 0.449303
O O5 0.728210 0.232653 0.698628
O O6 0.759051 0.219787 0.581594
O O7 0.000000 0.500000 0.000000
O O8 0.776205 0.852509 0.748531
O O9 0.741612 0.968279 0.491363
O O10 0.010074 0.226118 0.927462
O O11 0.719447 0.414102 0.770985
O O12 0.500000 0.000000 0.500000
O O13 0.830201 0.112304 0.055348
O O14 0.879920 0.635112 0.104052
O O15 0.986094 0.871877 0.348287
O O16 0.000000 0.000000 0.500000
O O17 0.819957 0.240614 0.402134
O O18 0.500000 0.000000 0.000000
O O19 0.000000 0.500000 0.500000
#
# Coordination Sequence:
#
# PCOD9101014 Si02
#       8
#     2   2   2   2   2   2   2   2
#     4  11  24  41  69  97 128 171 221 269 322 388
#     4  12  22  41  68  95 127 168 221 270 323 385
#     4  10  20  37  68  93 121 163 212 270 319 372
#     4  12  26  43  64  96 136 174 217 269 328 388
#     4  10  20  39  65  93 123 163 215 262 321 380
#     4  11  24  44  66  94 132 176 218 265 326 389
#     4  10  22  40  62  95 128 159 211 268 321 378
#     4  10  22  41  65  88 124 172 213 256 320 388
#
# _framework density 19.533443999999999
#
# number of rings (size 3 to 8) (size 9 to 14) (size 15 to 20)
#    0.000    1.250    2.500    3.000    5.250    3.000 
#    4.500    1.250    0.000    0.000    0.000    0.000 
#    0.000    0.000    0.000    0.000    0.000    0.000 
#
# Total GULP energy -89162.152336 kJ/mol
# GULP energy per Si atom -5572.634521 kJ/mol
# Density = 1.948899 g / cm^3
# Si number density = 19.533444 Si / 1000 Ang^3
#
#
#
# Elastic Constant Matrix: (Units=GPa)
#
#
# Indices 1 2 3 4 5 6 
#
# 1 83.0239 19.2327 26.7009 11.4566 -3.5315 18.9736
# 2 19.2327 92.1292 43.0556 5.8120 0.0835 19.3204
# 3 26.7009 43.0556 124.2772 13.6936 9.0264 22.9564
# 4 11.4566 5.8120 13.6936 31.5406 -3.1605 -9.2600
# 5 -3.5315 0.0835 9.0264 -3.1605 30.0080 -4.1542
# 6 18.9736 19.3204 22.9564 -9.2600 -4.1542 43.0063
#
#
#
# Elastic Compliance Matrix: (Units=1/GPa)
#
#
# Indices 1 2 3 4 5 6 
#
# 1 0.015191 -0.000763 -0.000861 -0.007153 0.000269 -0.007414
# 2 -0.000763 0.013718 -0.003588 -0.001945 0.000149 -0.004315
# 3 -0.000861 -0.003588 0.011684 -0.006409 -0.005128 -0.006120
# 4 -0.007153 -0.001945 -0.006409 0.043418 0.008098 0.017582
# 5 0.000269 0.000149 -0.005128 0.008098 0.036838 0.007854
# 6 -0.007414 -0.004315 -0.006120 0.017582 0.007854 0.036273
#
#
# Mechanical properties :
#
#
# Convention : Reuss Voigt Hill
#
# Bulk Modulus (GPa) = 33.14762 53.04541 43.09652
# Shear Modulus (GPa) = 28.15264 34.94038 31.54651
#
# Velocity S-wave (km/s) = 3.80050 4.23395 4.02307
# Velocity P-wave (km/s) = 6.02204 7.14961 6.60991
#
# Compressibility (1/GPa) = 0.03016808
#
# Stress axis : x y z
#
# Youngs Moduli (GPa) = 65.82729 72.89723 85.58797
#
# Poissons Ratio (x) = 0.05562 0.07373
# Poissons Ratio (y) = 0.05023 0.30709
# Poissons Ratio (z) = 0.05671 0.26156
#
# Static dielectric constant tensor:
#      x y z
#    x 1.733990 0.026930 -0.025380 
#    y 0.026930 1.788070 -0.015770 
#    z -0.025380 -0.015770 1.734520 
# 
# From -- ./inp_files/279451.got.cif
#   From: 2010.05.17/outbox.cif.g08.bks.cpg/sg2_140_cif.got.tgz:279451.got - 2010.06.03 11:33:40.
