data_PCOD9101016
_publ_section_title
;
Structure prediction by ZEFSAII (Michael W. Deem and Ramdas Pophale) SiO2 
 PCOD9101016
Probable space group: P -1
;
_chemical_formula_sum "Si O2"
_cell_formula_units_Z 16
_cell_length_a 9.860287
_cell_length_b 10.514077
_cell_length_c 14.368149
_cell_angle_alpha 64.659294
_cell_angle_beta 71.290026
_cell_angle_gamma 123.326177
_cell_volume 761.305864
_symmetry_space_group_name_H-M "P -1"
_symmetry_group_IT_number 2
_symmetry_cell_setting 'triclinic'
loop_
_space_group_symop_operation_xyz
x,y,z
-x,-y,-z
loop_
_atom_site_type_symbol
_atom_site_label
_atom_site_fract_x
_atom_site_fract_y
_atom_site_fract_z
Si Si1 0.221813 0.201451 0.456577
Si Si2 0.810311 0.487080 0.401744
Si Si3 0.713697 0.416702 0.237767
Si Si4 0.897147 0.053652 0.057427
Si Si5 0.541914 0.025285 0.674155
Si Si6 0.228110 0.228097 0.655453
Si Si7 0.086157 0.403732 0.438968
Si Si8 0.471381 0.898661 0.134739
O O1 0.468070 0.313327 0.344912
O O2 0.148878 0.115642 0.606488
O O3 0.242617 0.387529 0.394123
O O4 0.000000 0.000000 0.500000
O O5 0.830105 0.463536 0.295961
O O6 0.566346 0.200441 0.568111
O O7 0.881715 0.710381 0.306019
O O8 0.900137 0.546420 0.470926
O O9 0.645331 0.225529 0.253989
O O10 0.900148 0.666976 0.067586
O O11 0.808048 0.921551 0.215955
O O12 0.675170 0.942330 0.085190
O O13 0.000000 0.000000 0.000000
O O14 0.507374 0.005229 0.799904
O O15 0.807513 0.169828 0.550461
O O16 0.500000 0.500000 0.500000
O O17 0.208579 0.621034 0.282921
O O18 0.500000 0.000000 0.000000
#
# Coordination Sequence:
#
# PCOD9101016 Si02
#       8
#     2   2   2   2   2   2   2   2
#     4  11  22  42  65 102 128 172 225 281 332 396
#     4  10  20  37  68  93 122 172 227 267 318 398
#     4  12  24  41  67  98 144 169 218 283 349 394
#     4  12  25  44  71 102 136 180 228 284 338 402
#     4  11  24  43  65 100 135 174 222 274 345 401
#     4  11  20  40  71  94 125 171 231 275 317 394
#     4  10  22  41  72  93 128 174 234 275 326 399
#     4  11  26  44  68  98 138 180 231 273 338 409
#
# _framework density 21.01652
#
# number of rings (size 3 to 8) (size 9 to 14) (size 15 to 20)
#    0.000    1.000    3.750    4.875    3.500    0.500 
#    2.250    0.625    0.000    0.000    0.000    0.000 
#    0.000    0.000    0.000    0.000    0.000    0.000 
#
# Total GULP energy -89112.218964 kJ/mol
# GULP energy per Si atom -5569.513685 kJ/mol
# Density = 2.096869 g / cm^3
# Si number density = 21.016520 Si / 1000 Ang^3
#
#
#
# Elastic Constant Matrix: (Units=GPa)
#
#
# Indices 1 2 3 4 5 6 
#
# 1 83.8083 43.9194 44.4818 6.7404 24.8885 5.4539
# 2 43.9194 113.2870 58.6247 -1.0107 16.5349 18.2862
# 3 44.4818 58.6247 128.8493 -0.5537 45.9730 5.3830
# 4 6.7404 -1.0107 -0.5537 34.6046 4.8381 2.8570
# 5 24.8885 16.5349 45.9730 4.8381 48.9312 9.4516
# 6 5.4539 18.2862 5.3830 2.8570 9.4516 34.1469
#
#
#
# Elastic Compliance Matrix: (Units=1/GPa)
#
#
# Indices 1 2 3 4 5 6 
#
# 1 0.017431 -0.005481 -0.001623 -0.002978 -0.005622 0.002212
# 2 -0.005481 0.014682 -0.006264 0.001312 0.005031 -0.007502
# 3 -0.001623 -0.006264 0.015517 0.001781 -0.012687 0.004530
# 4 -0.002978 0.001312 0.001781 0.030166 -0.003169 -0.002155
# 5 -0.005622 0.005031 -0.012687 -0.003169 0.035645 -0.009397
# 6 0.002212 -0.007502 0.004530 -0.002155 -0.009397 0.035016
#
#
# Mechanical properties :
#
#
# Convention : Reuss Voigt Hill
#
# Bulk Modulus (GPa) = 47.86228 68.88850 58.37539
# Shear Modulus (GPa) = 27.44895 35.46445 31.45670
#
# Velocity S-wave (km/s) = 3.61787 4.11232 3.87300
# Velocity P-wave (km/s) = 6.34627 7.44296 6.91639
#
# Compressibility (1/GPa) = 0.02089328
#
# Stress axis : x y z
#
# Youngs Moduli (GPa) = 57.37012 68.11201 64.44702
#
# Poissons Ratio (x) = 0.37330 0.10462
# Poissons Ratio (y) = 0.31443 0.40369
# Poissons Ratio (z) = 0.09313 0.42665
#
# Static dielectric constant tensor:
#      x y z
#    x 2.099470 -0.041300 -0.125790 
#    y -0.041300 1.736470 -0.004610 
#    z -0.125790 -0.004610 1.798690 
# 
# From -- ./inp_files/517835.got.cif
#   From: 2010.05.17/outbox.cif.g08.bks.cpg/sg2_259_cif.got.tgz:517835.got - 2010.06.03 11:33:40.
