data_PCOD9101802
_publ_section_title
;
Structure prediction by ZEFSAII (Michael W. Deem and Ramdas Pophale) SiO2 
 PCOD9101802
Probable space group: P -1
;
_chemical_formula_sum "Si O2"
_cell_formula_units_Z 16
_cell_length_a 14.385971
_cell_length_b 8.386772
_cell_length_c 6.920262
_cell_angle_alpha 128.313157
_cell_angle_beta 67.392325
_cell_angle_gamma 91.771527
_cell_volume 579.459731
_symmetry_space_group_name_H-M "P -1"
_symmetry_group_IT_number 2
_symmetry_cell_setting 'triclinic'
loop_
_space_group_symop_operation_xyz
x,y,z
-x,-y,-z
loop_
_atom_site_type_symbol
_atom_site_label
_atom_site_fract_x
_atom_site_fract_y
_atom_site_fract_z
Si Si1 0.388350 0.257451 0.154948
Si Si2 0.606712 0.749109 0.347408
Si Si3 0.034127 0.807419 0.572512
Si Si4 0.628453 0.056902 0.315370
Si Si5 0.858111 0.907374 0.530401
Si Si6 0.202516 0.699569 0.675852
Si Si7 0.174316 0.515477 0.945772
Si Si8 0.375131 0.944702 0.183092
O O1 0.290228 0.471831 0.394830
O O2 0.372599 0.003904 0.978944
O O3 0.513856 0.239297 0.043122
O O4 0.383669 0.197615 0.867613
O O5 0.484042 0.761041 0.457513
O O6 0.707679 0.547639 0.115889
O O7 0.625018 0.997820 0.523013
O O8 0.614887 0.797714 0.632360
O O9 0.094352 0.754989 0.684764
O O10 0.911498 0.852646 0.657474
O O11 0.069192 0.001190 0.597270
O O12 0.090163 0.605769 0.243863
O O13 0.732664 0.133343 0.290028
O O14 0.844951 0.692888 0.288690
O O15 0.742929 0.069572 0.735759
O O16 0.166963 0.681722 0.908049
#
# Coordination Sequence:
#
# PCOD9101802 Si02
#       8
#     2   2   2   2   2   2   2   2
#     4  10  20  38  60  96 129 161 205 259 325 381
#     4   9  18  40  58  87 131 173 205 260 325 383
#     4  11  26  43  68  94 126 174 223 261 322 380
#     4  10  22  36  61  90 132 171 211 260 318 386
#     4  10  22  47  66  89 130 174 213 270 322 381
#     4  12  24  39  65 105 127 163 224 265 311 395
#     4  11  23  42  66  94 129 166 214 271 328 372
#     4   9  18  37  65  85 124 171 200 253 326 380
#
# _framework density 27.611926
#
# number of rings (size 3 to 8) (size 9 to 14) (size 15 to 20)
#    0.000    1.750    2.500    2.625    1.750    2.000 
#    0.000    9.375    0.000    0.000    0.000    0.000 
#    0.000    0.000    0.000    0.000    0.000    0.000 
#
# Total GULP energy -89432.888028 kJ/mol
# GULP energy per Si atom -5589.555502 kJ/mol
# Density = 2.754908 g / cm^3
# Si number density = 27.611926 Si / 1000 Ang^3
#
#
#
# Elastic Constant Matrix: (Units=GPa)
#
#
# Indices 1 2 3 4 5 6 
#
# 1 178.1066 44.5967 50.0908 8.0056 -10.3804 -63.3330
# 2 44.5967 128.1451 32.9345 -24.7188 17.4367 -49.9499
# 3 50.0908 32.9345 91.0228 5.9067 -0.7918 -17.6082
# 4 8.0056 -24.7188 5.9067 45.3420 -15.2179 6.7490
# 5 -10.3804 17.4367 -0.7918 -15.2179 44.7202 -1.0335
# 6 -63.3330 -49.9499 -17.6082 6.7490 -1.0335 65.0712
#
#
#
# Elastic Compliance Matrix: (Units=1/GPa)
#
#
# Indices 1 2 3 4 5 6 
#
# 1 0.010067 0.000568 -0.003790 -0.001825 0.001645 0.009424
# 2 0.000568 0.013770 -0.003842 0.005408 -0.003246 0.009471
# 3 -0.003790 -0.003842 0.014169 -0.002966 -0.000198 -0.002499
# 4 -0.001825 0.005408 -0.002966 0.028245 0.006998 -0.001246
# 5 0.001645 -0.003246 -0.000198 0.006998 0.026358 -0.001251
# 6 0.009424 0.009471 -0.002499 -0.001246 -0.001251 0.031244
#
#
# Mechanical properties :
#
#
# Convention : Reuss Voigt Hill
#
# Bulk Modulus (GPa) = 41.87779 72.50204 57.18992
# Shear Modulus (GPa) = 34.26057 49.00354 41.63205
#
# Velocity S-wave (km/s) = 3.52630 4.21732 3.88720
# Velocity P-wave (km/s) = 5.63731 7.07311 6.39563
#
# Compressibility (1/GPa) = 0.02387900
#
# Stress axis : x y z
#
# Youngs Moduli (GPa) = 99.33103 72.62229 70.57527
#
# Poissons Ratio (x) = -0.04126 0.26747
# Poissons Ratio (y) = -0.05644 0.27115
# Poissons Ratio (z) = 0.37645 0.27902
#
# Static dielectric constant tensor:
#      x y z
#    x 2.018230 -0.102820 0.185590 
#    y -0.102820 2.302790 -0.193960 
#    z 0.185590 -0.193960 2.227300 
# 
# From -- ./inp_files/299693.got.cif
#   From: 2010.05.17/outbox.cif.g08.bks.cpg/sg2_150_cif.got.tgz:299693.got - 2010.06.03 11:33:40.
