data_PCOD9101682
_publ_section_title
;
Structure prediction by ZEFSAII (Michael W. Deem and Ramdas Pophale) SiO2 
 PCOD9101682
Probable space group: P -1
;
_chemical_formula_sum "Si O2"
_cell_formula_units_Z 16
_cell_length_a 9.572436
_cell_length_b 10.922108
_cell_length_c 14.688493
_cell_angle_alpha 69.520251
_cell_angle_beta 30.173371
_cell_angle_gamma 66.351823
_cell_volume 707.037116
_symmetry_space_group_name_H-M "P -1"
_symmetry_group_IT_number 2
_symmetry_cell_setting 'triclinic'
loop_
_space_group_symop_operation_xyz
x,y,z
-x,-y,-z
loop_
_atom_site_type_symbol
_atom_site_label
_atom_site_fract_x
_atom_site_fract_y
_atom_site_fract_z
Si Si1 0.869640 0.302341 0.935410
Si Si2 0.057432 0.895232 0.220239
Si Si3 0.780231 0.678568 0.497174
Si Si4 0.274721 0.434443 0.242775
Si Si5 0.981462 0.208652 0.401268
Si Si6 0.345541 0.914517 0.235026
Si Si7 0.018980 0.098455 0.049540
Si Si8 0.516004 0.649877 0.476103
O O1 0.828005 0.197871 0.906774
O O2 0.185005 0.325395 0.737166
O O3 0.607428 0.426734 0.041431
O O4 0.865887 0.236684 0.054433
O O5 0.831938 0.827202 0.417715
O O6 0.301112 0.898019 0.156468
O O7 0.915989 0.034124 0.214994
O O8 0.068472 0.578502 0.324275
O O9 0.740631 0.629623 0.632053
O O10 0.536032 0.661387 0.569928
O O11 0.143014 0.330868 0.283468
O O12 0.814909 0.186195 0.593991
O O13 0.741600 0.246153 0.449933
O O14 0.189261 0.066949 0.304332
O O15 0.661050 0.894599 0.102849
O O16 0.000000 0.000000 0.000000
O O17 0.500000 0.500000 0.500000
#
# Coordination Sequence:
#
# PCOD9101682 Si02
#       8
#     2   2   2   2   2   2   2   2
#     4  10  23  41  66  94 127 170 211 260 327 376
#     4  10  21  39  62  95 124 165 210 265 312 373
#     4  10  23  41  68  90 129 167 213 265 317 379
#     4  11  22  44  66  94 125 170 215 260 319 384
#     4  11  22  39  67  92 127 169 213 258 324 374
#     4  11  22  39  63  95 126 170 214 259 314 384
#     4  10  20  38  60  87 133 164 201 265 316 366
#     4  11  22  43  66  93 130 168 210 267 317 374
#
# _framework density 22.629646000000001
#
# number of rings (size 3 to 8) (size 9 to 14) (size 15 to 20)
#    0.000    1.500    3.750    1.875    0.000    3.000 
#    2.250    3.750    0.000    0.000    0.000    0.000 
#    0.000    0.000    0.000    0.000    0.000    0.000 
#
# Total GULP energy -89400.834324 kJ/mol
# GULP energy per Si atom -5587.552145 kJ/mol
# Density = 2.257814 g / cm^3
# Si number density = 22.629646 Si / 1000 Ang^3
#
#
#
# Elastic Constant Matrix: (Units=GPa)
#
#
# Indices 1 2 3 4 5 6 
#
# 1 171.5671 26.6003 20.8560 -1.5875 -14.9940 -18.9178
# 2 26.6003 60.5455 16.0813 -9.4211 -12.8121 -17.0395
# 3 20.8560 16.0813 46.4420 10.6575 -16.6124 1.9358
# 4 -1.5875 -9.4211 10.6575 31.8453 -9.5310 -7.8183
# 5 -14.9940 -12.8121 -16.6124 -9.5310 35.3626 -6.2453
# 6 -18.9178 -17.0395 1.9358 -7.8183 -6.2453 47.4188
#
#
#
# Elastic Compliance Matrix: (Units=1/GPa)
#
#
# Indices 1 2 3 4 5 6 
#
# 1 0.006897 -0.000092 -0.002841 0.003102 0.003055 0.003749
# 2 -0.000092 0.030556 -0.010877 0.021167 0.014594 0.016800
# 3 -0.002841 -0.010877 0.031872 -0.014714 0.004415 -0.008188
# 4 0.003102 0.021167 -0.014714 0.053992 0.020337 0.021025
# 5 0.003055 0.014594 0.004415 0.020337 0.045169 0.015585
# 6 0.003749 0.016800 -0.008188 0.021025 0.015585 0.034474
#
#
# Mechanical properties :
#
#
# Convention : Reuss Voigt Hill
#
# Bulk Modulus (GPa) = 23.97746 45.06995 34.52370
# Shear Modulus (GPa) = 20.45160 37.25979 28.85569
#
# Velocity S-wave (km/s) = 3.00951 4.06212 3.57477
# Velocity P-wave (km/s) = 4.76390 6.47770 5.68575
#
# Compressibility (1/GPa) = 0.04170584
#
# Stress axis : x y z
#
# Youngs Moduli (GPa) = 144.98668 32.72722 31.37592
#
# Poissons Ratio (x) = 0.00300 0.08914
# Poissons Ratio (y) = 0.01328 0.34126
# Poissons Ratio (z) = 0.41192 0.35596
#
# Static dielectric constant tensor:
#      x y z
#    x 1.828160 0.001260 0.030250 
#    y 0.001260 1.834610 -0.026360 
#    z 0.030250 -0.026360 1.897050 
# 
# From -- ./inp_files/297581.got.cif
#   From: 2010.05.17/outbox.cif.g08.bks.cpg/sg2_149_cif.got.tgz:297581.got - 2010.06.03 11:33:40.
