data_PCOD9101108
_publ_section_title
;
Structure prediction by ZEFSAII (Michael W. Deem and Ramdas Pophale) SiO2 
 PCOD9101108
Probable space group: P -1
;
_chemical_formula_sum "Si O2"
_cell_formula_units_Z 16
_cell_length_a 5.647777
_cell_length_b 25.081851
_cell_length_c 11.554723
_cell_angle_alpha 146.402327
_cell_angle_beta 57.485886
_cell_angle_gamma 123.206388
_cell_volume 746.047346
_symmetry_space_group_name_H-M "P -1"
_symmetry_group_IT_number 2
_symmetry_cell_setting 'triclinic'
loop_
_space_group_symop_operation_xyz
x,y,z
-x,-y,-z
loop_
_atom_site_type_symbol
_atom_site_label
_atom_site_fract_x
_atom_site_fract_y
_atom_site_fract_z
Si Si1 0.361569 0.155435 0.815226
Si Si2 0.349092 0.513743 0.440224
Si Si3 0.743290 0.677460 0.021575
Si Si4 0.618379 0.270754 0.158441
Si Si5 0.782351 0.071938 0.246874
Si Si6 0.434228 0.124098 0.134378
Si Si7 0.126068 0.952868 0.557960
Si Si8 0.572503 0.791197 0.454876
O O1 0.366273 0.236970 0.864937
O O2 0.635411 0.103584 0.654372
O O3 0.116681 0.056829 0.690421
O O4 0.368218 0.215672 0.040376
O O5 0.500000 0.500000 0.500000
O O6 0.453143 0.629048 0.592343
O O7 0.000000 0.500000 0.500000
O O8 0.400010 0.428572 0.186230
O O9 0.652789 0.692747 0.205441
O O10 0.085609 0.699344 0.940160
O O11 0.631305 0.193581 0.116869
O O12 0.802274 0.029271 0.292451
O O13 0.700711 0.177643 0.473550
O O14 0.090580 0.100993 0.156667
O O15 0.546186 0.990863 0.092776
O O16 0.460260 0.183484 0.355719
O O17 0.833287 0.874938 0.491249
#
# Coordination Sequence:
#
# PCOD9101108 Si02
#       8
#     2   2   2   2   2   2   2   2
#     4  11  20  33  56  87 124 148 201 251 314 361
#     4  10  22  42  66  98 126 159 211 269 328 378
#     4  11  23  37  64  91 115 160 201 264 318 368
#     4  11  22  40  62  89 118 156 207 262 310 369
#     4  10  20  38  54  78 121 164 204 236 297 375
#     4  10  23  38  56  82 121 165 201 244 302 370
#     4  10  21  32  53  89 120 158 194 255 296 376
#     4  11  22  37  57  84 122 162 202 243 310 369
#
# _framework density 21.446361
#
# number of rings (size 3 to 8) (size 9 to 14) (size 15 to 20)
#    0.000    1.500    5.000    0.375    1.750    1.500 
#    0.000    0.625    0.000    0.750    0.000    0.000 
#    0.000    0.000    0.000    0.000    0.000    0.000 
#
# Total GULP energy -89118.529994 kJ/mol
# GULP energy per Si atom -5569.908125 kJ/mol
# Density = 2.139755 g / cm^3
# Si number density = 21.446361 Si / 1000 Ang^3
#
#
#
# Elastic Constant Matrix: (Units=GPa)
#
#
# Indices 1 2 3 4 5 6 
#
# 1 38.1271 0.4353 22.0788 3.6107 3.1828 -4.3453
# 2 0.4353 24.0558 16.2575 -1.3564 7.0860 -7.2577
# 3 22.0788 16.2575 160.1020 3.1026 31.9768 -15.7397
# 4 3.6107 -1.3564 3.1026 31.9090 -0.5659 -0.2243
# 5 3.1828 7.0860 31.9768 -0.5659 32.2383 0.6358
# 6 -4.3453 -7.2577 -15.7397 -0.2243 0.6358 11.0170
#
#
#
# Elastic Compliance Matrix: (Units=1/GPa)
#
#
# Indices 1 2 3 4 5 6 
#
# 1 0.029602 0.004896 -0.003346 -0.002762 -0.000928 0.010118
# 2 0.004896 0.058147 0.000349 0.001921 -0.014397 0.041605
# 3 -0.003346 0.000349 0.010037 -0.000663 -0.009986 0.013813
# 4 -0.002762 0.001921 -0.000663 0.031815 0.001070 -0.000184
# 5 -0.000928 -0.014397 -0.009986 0.001070 0.044725 -0.026677
# 6 0.010118 0.041605 0.013813 -0.000184 -0.026677 0.143439
#
#
# Mechanical properties :
#
#
# Convention : Reuss Voigt Hill
#
# Bulk Modulus (GPa) = 9.84408 33.31424 21.57916
# Shear Modulus (GPa) = 14.37485 27.26708 20.82097
#
# Velocity S-wave (km/s) = 2.59177 3.56955 3.11921
# Velocity P-wave (km/s) = 3.68190 5.70582 4.80171
#
# Compressibility (1/GPa) = 0.10158393
#
# Stress axis : x y z
#
# Youngs Moduli (GPa) = 33.78171 17.19772 99.62783
#
# Poissons Ratio (x) = -0.08420 0.33333
# Poissons Ratio (y) = -0.16539 -0.03475
# Poissons Ratio (z) = 0.11303 -0.00600
#
# Static dielectric constant tensor:
#      x y z
#    x 1.891050 0.020490 -0.005740 
#    y 0.020490 1.786000 -0.054230 
#    z -0.005740 -0.054230 1.900120 
# 
# From -- ./inp_files/75447.got.cif
#   From: 2010.05.17/outbox.cif.g08.bks.cpg/sg2_38_cif.got.tgz:75447.got - 2010.06.03 11:33:40.
