data_PCOD9101875
_publ_section_title
;
Structure prediction by ZEFSAII (Michael W. Deem and Ramdas Pophale) SiO2 
 PCOD9101875
Probable space group: P -1
;
_chemical_formula_sum "Si O2"
_cell_formula_units_Z 16
_cell_length_a 10.474341
_cell_length_b 7.608302
_cell_length_c 10.608328
_cell_angle_alpha 61.217300
_cell_angle_beta 66.433865
_cell_angle_gamma 88.863666
_cell_volume 663.281844
_symmetry_space_group_name_H-M "P -1"
_symmetry_group_IT_number 2
_symmetry_cell_setting 'triclinic'
loop_
_space_group_symop_operation_xyz
x,y,z
-x,-y,-z
loop_
_atom_site_type_symbol
_atom_site_label
_atom_site_fract_x
_atom_site_fract_y
_atom_site_fract_z
Si Si1 0.785505 0.535458 0.048251
Si Si2 0.563142 0.771994 0.011437
Si Si3 0.312796 0.073811 0.814513
Si Si4 0.989186 0.710253 0.365538
Si Si5 0.559082 0.200337 0.324264
Si Si6 0.308556 0.799080 0.249906
Si Si7 0.028379 0.744857 0.049514
Si Si8 0.316104 0.362966 0.480825
O O1 0.654872 0.603536 0.003869
O O2 0.703725 0.368737 0.240297
O O3 0.899562 0.712522 0.011696
O O4 0.881169 0.425740 0.960979
O O5 0.393832 0.734569 0.116655
O O6 0.626706 0.843725 0.102473
O O7 0.611307 0.968892 0.835859
O O8 0.388499 0.901078 0.785073
O O9 0.342959 0.262652 0.638189
O O10 0.145581 0.958122 0.923172
O O11 0.149644 0.832008 0.279794
O O12 0.970647 0.693720 0.229345
O O13 0.000000 0.500000 0.500000
O O14 0.842388 0.758866 0.456555
O O15 0.433447 0.323690 0.348353
O O16 0.500000 0.000000 0.500000
O O17 0.313176 0.605388 0.405028
#
# Coordination Sequence:
#
# PCOD9101875 Si02
#       8
#     2   2   2   2   2   2   2   2
#     4  10  21  37  66  92 123 153 203 267 307 356
#     4  11  21  38  62  91 120 161 202 257 300 361
#     4  10  21  36  67  92 116 157 207 261 305 352
#     4  10  21  39  59  85 124 167 201 243 299 370
#     4   9  19  40  57  92 122 152 196 256 315 360
#     4  10  22  38  55  86 126 158 201 245 298 365
#     4  10  21  40  61  98 120 154 208 259 308 360
#     4  10  20  38  61  85 118 165 198 250 306 361
#
# _framework density 24.122475000000001
#
# number of rings (size 3 to 8) (size 9 to 14) (size 15 to 20)
#    0.000    2.000    2.500    0.750    1.750    1.500 
#    9.000    6.250    0.000    3.750    0.000    0.000 
#    0.000    0.000    0.000    0.000    0.000    0.000 
#
# Total GULP energy -89203.231009 kJ/mol
# GULP energy per Si atom -5575.201938 kJ/mol
# Density = 2.406757 g / cm^3
# Si number density = 24.122475 Si / 1000 Ang^3
#
#
#
# Elastic Constant Matrix: (Units=GPa)
#
#
# Indices 1 2 3 4 5 6 
#
# 1 97.4110 7.8553 30.4036 14.1694 -25.8266 -12.9902
# 2 7.8553 69.3127 26.9105 0.2816 4.7396 -17.4455
# 3 30.4036 26.9105 98.3375 -11.2639 -13.5325 -1.0537
# 4 14.1694 0.2816 -11.2639 33.4648 -17.6744 -6.9370
# 5 -25.8266 4.7396 -13.5325 -17.6744 46.3096 0.6513
# 6 -12.9902 -17.4455 -1.0537 -6.9370 0.6513 38.3768
#
#
#
# Elastic Compliance Matrix: (Units=1/GPa)
#
#
# Indices 1 2 3 4 5 6 
#
# 1 0.013957 0.000806 -0.004260 -0.003887 0.004914 0.004188
# 2 0.000806 0.019315 -0.006532 -0.003577 -0.004918 0.008310
# 3 -0.004260 -0.006532 0.015312 0.010040 0.006631 -0.002289
# 4 -0.003887 -0.003577 0.010040 0.045835 0.018551 0.005304
# 5 0.004914 -0.004918 0.006631 0.018551 0.033822 0.002389
# 6 0.004188 0.008310 -0.002289 0.005304 0.002389 0.032108
#
#
# Mechanical properties :
#
#
# Convention : Reuss Voigt Hill
#
# Bulk Modulus (GPa) = 34.95135 43.93333 39.44234
# Shear Modulus (GPa) = 26.33549 36.95636 31.64593
#
# Velocity S-wave (km/s) = 3.30773 3.91836 3.62593
# Velocity P-wave (km/s) = 5.39525 6.22283 5.82376
#
# Compressibility (1/GPa) = 0.02861120
#
# Stress axis : x y z
#
# Youngs Moduli (GPa) = 71.64830 51.77394 65.30926
#
# Poissons Ratio (x) = -0.04172 0.27820
# Poissons Ratio (y) = -0.05774 0.42662
# Poissons Ratio (z) = 0.30520 0.33820
#
# Static dielectric constant tensor:
#      x y z
#    x 2.064860 -0.004570 -0.040630 
#    y -0.004570 2.015870 -0.059730 
#    z -0.040630 -0.059730 1.953760 
# 
# From -- ./inp_files/416269.got.cif
#   From: 2010.05.17/outbox.cif.g08.bks.cpg/sg2_209_cif.got.tgz:416269.got - 2010.06.03 11:33:40.
