data_PCOD9101179
_publ_section_title
;
Structure prediction by ZEFSAII (Michael W. Deem and Ramdas Pophale) SiO2 
 PCOD9101179
Probable space group: P -1
;
_chemical_formula_sum "Si O2"
_cell_formula_units_Z 16
_cell_length_a 5.389486
_cell_length_b 20.195510
_cell_length_c 9.275745
_cell_angle_alpha 129.710851
_cell_angle_beta 81.630797
_cell_angle_gamma 74.919650
_cell_volume 680.659186
_symmetry_space_group_name_H-M "P -1"
_symmetry_group_IT_number 2
_symmetry_cell_setting 'triclinic'
loop_
_space_group_symop_operation_xyz
x,y,z
-x,-y,-z
loop_
_atom_site_type_symbol
_atom_site_label
_atom_site_fract_x
_atom_site_fract_y
_atom_site_fract_z
Si Si1 0.361269 0.632045 0.016636
Si Si2 0.044180 0.508554 0.783026
Si Si3 0.263952 0.030831 0.838623
Si Si4 0.542537 0.200363 0.247565
Si Si5 0.817545 0.974251 0.837647
Si Si6 0.010858 0.643605 0.588806
Si Si7 0.447669 0.650311 0.355771
Si Si8 0.910937 0.232974 0.021219
O O1 0.206523 0.571974 0.884035
O O2 0.223532 0.730888 0.072825
O O3 0.705124 0.575149 0.902417
O O4 0.312153 0.648156 0.213338
O O5 0.214533 0.422337 0.767051
O O6 0.086287 0.438868 0.542747
O O7 0.152981 0.071149 0.068825
O O8 0.599060 0.964463 0.734744
O O9 0.096816 0.969182 0.735833
O O10 0.164590 0.123702 0.871827
O O11 0.645601 0.088486 0.057228
O O12 0.611806 0.242278 0.443802
O O13 0.670926 0.233348 0.148390
O O14 0.208208 0.261553 0.346561
O O15 0.306288 0.614082 0.442168
O O16 0.011965 0.686232 0.804467
#
# Coordination Sequence:
#
# PCOD9101179 Si02
#       8
#     2   2   2   2   2   2   2   2
#     4  12  26  37  59  78 108 147 183 225 279 320
#     4  11  24  40  57  78 104 142 194 231 263 317
#     4   9  17  30  53  80 113 134 173 217 262 317
#     4   9  19  35  58  81 115 138 181 221 270 316
#     4   9  16  30  54  83 104 142 174 212 261 315
#     4  10  20  38  57  80 108 143 177 236 268 311
#     4  10  22  40  58  79 105 144 189 231 261 318
#     4  10  22  37  53  85 116 140 174 225 280 325
#
# _framework density 23.506626000000001
#
# number of rings (size 3 to 8) (size 9 to 14) (size 15 to 20)
#    0.000    2.000    2.500    0.750    5.250    1.000 
#    0.000    0.000    0.000    0.750    0.000    0.875 
#    0.000    0.000    0.000    0.000    0.000    0.000 
#
# Total GULP energy -89155.175258 kJ/mol
# GULP energy per Si atom -5572.198454 kJ/mol
# Density = 2.345312 g / cm^3
# Si number density = 23.506626 Si / 1000 Ang^3
#
#
#
# Elastic Constant Matrix: (Units=GPa)
#
#
# Indices 1 2 3 4 5 6 
#
# 1 132.2212 1.1801 10.0891 -6.3454 23.8254 -16.4006
# 2 1.1801 94.5579 30.4655 -21.5823 15.3211 -7.3591
# 3 10.0891 30.4655 -2.8931 7.9697 14.3155 3.2195
# 4 -6.3454 -21.5823 7.9697 15.7457 -6.8500 8.4309
# 5 23.8254 15.3211 14.3155 -6.8500 24.8268 5.6968
# 6 -16.4006 -7.3591 3.2195 8.4309 5.6968 25.8761
#
#
#
# Elastic Compliance Matrix: (Units=1/GPa)
#
#
# Indices 1 2 3 4 5 6 
#
# 1 0.012370 0.003444 -0.002138 -0.004384 -0.017258 0.014314
# 2 0.003444 0.009468 0.011767 -0.005072 -0.019478 0.009352
# 3 -0.002138 0.011767 -0.020529 0.042611 0.021620 -0.014098
# 4 -0.004384 -0.005072 0.042611 0.047574 0.001722 -0.025402
# 5 -0.017258 -0.019478 0.021620 0.001722 0.064664 -0.033965
# 6 0.014314 0.009352 -0.014098 -0.025402 -0.033965 0.067886
#
#
# Mechanical properties :
#
#
# Convention : Reuss Voigt Hill
#
# Bulk Modulus (GPa) = 36.42409 34.15060 35.28735
# Shear Modulus (GPa) = 30.40632 25.43315 27.91974
#
# Velocity S-wave (km/s) = 3.60046 3.29288 3.45010
# Velocity P-wave (km/s) = 5.72829 5.38674 5.56014
#
# Compressibility (1/GPa) = 0.02745436
#
# Stress axis : x y z
#
# Youngs Moduli (GPa) = 80.83809 105.62138 -48.71121
#
# Poissons Ratio (x) = -0.36377 -0.10414
# Poissons Ratio (y) = -0.27842 0.57316
# Poissons Ratio (z) = 0.17283 -1.24280
#
# Static dielectric constant tensor:
#      x y z
#    x 2.050380 -0.030970 0.015270 
#    y -0.030970 1.956450 0.020310 
#    z 0.015270 0.020310 1.863310 
# 
# From -- ./inp_files/50401.got.cif
#   From: 2010.05.17/outbox.cif.g08.bks.cpg/sg2_26_cif.got.tgz:50401.got - 2010.06.03 11:33:40.
