data_PCOD9101826
_publ_section_title
;
Structure prediction by ZEFSAII (Michael W. Deem and Ramdas Pophale) SiO2 
 PCOD9101826
Probable space group: P -1
;
_chemical_formula_sum "Si O2"
_cell_formula_units_Z 16
_cell_length_a 18.742879
_cell_length_b 5.998911
_cell_length_c 7.830085
_cell_angle_alpha 116.009123
_cell_angle_beta 122.941162
_cell_angle_gamma 58.310305
_cell_volume 614.119001
_symmetry_space_group_name_H-M "P -1"
_symmetry_group_IT_number 2
_symmetry_cell_setting 'triclinic'
loop_
_space_group_symop_operation_xyz
x,y,z
-x,-y,-z
loop_
_atom_site_type_symbol
_atom_site_label
_atom_site_fract_x
_atom_site_fract_y
_atom_site_fract_z
Si Si1 0.207912 0.270506 0.240755
Si Si2 0.267704 0.411559 0.026095
Si Si3 0.630786 0.209719 0.562354
Si Si4 0.811344 0.188949 0.423671
Si Si5 0.090691 0.227283 0.341035
Si Si6 0.081174 0.748618 0.700703
Si Si7 0.629321 0.587594 0.147882
Si Si8 0.514634 0.602491 0.288076
O O1 0.242782 0.240310 0.082016
O O2 0.181732 0.577158 0.366239
O O3 0.122495 0.203619 0.178014
O O4 0.293272 0.081147 0.400683
O O5 0.319147 0.589671 0.240172
O O6 0.170453 0.601339 0.883919
O O7 0.334021 0.272277 0.906062
O O8 0.591811 0.327469 0.367133
O O9 0.540742 0.244395 0.568814
O O10 0.889891 0.078585 0.342634
O O11 0.718545 0.348006 0.255436
O O12 0.824117 0.951082 0.489054
O O13 0.067874 0.525087 0.482873
O O14 0.007141 0.142521 0.256783
O O15 0.564987 0.735565 0.271673
O O16 0.564267 0.457836 0.932087
#
# Coordination Sequence:
#
# PCOD9101826 Si02
#       8
#     2   2   2   2   2   2   2   2
#     4  11  22  36  56  82 113 156 190 220 279 338
#     4  10  21  37  56  83 117 148 184 229 278 336
#     4  10  21  39  58  80 116 151 184 231 282 333
#     4  10  20  38  61  82 113 150 187 230 279 332
#     4  10  20  38  61  84 113 146 185 234 278 329
#     4   9  21  37  59  89 111 142 189 231 280 331
#     4   9  18  35  57  83 110 143 188 233 279 327
#     4   9  18  36  61  82 108 147 187 235 286 327
#
# _framework density 26.053583
#
# number of rings (size 3 to 8) (size 9 to 14) (size 15 to 20)
#    0.000    2.250    0.000    2.625    0.000    3.500 
#    0.000   18.750    0.000    0.000    0.000    0.000 
#    0.000    0.000    0.000    0.000    0.000    0.000 
#
# Total GULP energy -89422.744372 kJ/mol
# GULP energy per Si atom -5588.921523 kJ/mol
# Density = 2.599428 g / cm^3
# Si number density = 26.053583 Si / 1000 Ang^3
#
#
#
# Elastic Constant Matrix: (Units=GPa)
#
#
# Indices 1 2 3 4 5 6 
#
# 1 272.2211 26.0551 55.6403 -14.1829 -46.6673 13.6290
# 2 26.0551 68.3031 4.7120 4.7581 -9.4667 -5.9615
# 3 55.6403 4.7120 59.4756 -8.7424 -0.3876 12.9083
# 4 -14.1829 4.7581 -8.7424 27.1413 5.6342 -0.8307
# 5 -46.6673 -9.4667 -0.3876 5.6342 46.1699 -13.0054
# 6 13.6290 -5.9615 12.9083 -0.8307 -13.0054 21.1212
#
#
#
# Elastic Compliance Matrix: (Units=1/GPa)
#
#
# Indices 1 2 3 4 5 6 
#
# 1 0.006080 -0.000445 -0.006613 -0.000251 0.007289 0.004470
# 2 -0.000445 0.017606 -0.004451 -0.005891 0.007287 0.012232
# 3 -0.006613 -0.004451 0.029922 0.009405 -0.015355 -0.024362
# 4 -0.000251 -0.005891 0.009405 0.042462 -0.009843 -0.011640
# 5 0.007289 0.007287 -0.015355 -0.009843 0.040387 0.031219
# 6 0.004470 0.012232 -0.024362 -0.011640 0.031219 0.081568
#
#
# Mechanical properties :
#
#
# Convention : Reuss Voigt Hill
#
# Bulk Modulus (GPa) = 32.69118 63.64606 48.16862
# Shear Modulus (GPa) = 19.90123 39.79263 29.84693
#
# Velocity S-wave (km/s) = 2.76680 3.91236 3.38834
# Velocity P-wave (km/s) = 4.77303 6.70005 5.81689
#
# Compressibility (1/GPa) = 0.03058929
#
# Stress axis : x y z
#
# Youngs Moduli (GPa) = 164.46477 56.80003 33.42008
#
# Poissons Ratio (x) = 0.02530 0.22099
# Poissons Ratio (y) = 0.07325 0.14877
# Poissons Ratio (z) = 1.08753 0.25284
#
# Static dielectric constant tensor:
#      x y z
#    x 2.111870 0.006620 -0.020760 
#    y 0.006620 2.039450 0.059930 
#    z -0.020760 0.059930 2.056410 
# 
# From -- ./inp_files/317635.got.cif
#   From: 2010.05.17/outbox.cif.g08.bks.cpg/sg2_159_cif.got.tgz:317635.got - 2010.06.03 11:33:40.
