data_PCOD9101008
_publ_section_title
;
Structure prediction by ZEFSAII (Michael W. Deem and Ramdas Pophale) SiO2 
 PCOD9101008
Probable space group: P -1
;
_chemical_formula_sum "Si O2"
_cell_formula_units_Z 16
_cell_length_a 10.295679
_cell_length_b 7.848035
_cell_length_c 20.813747
_cell_angle_alpha 50.610452
_cell_angle_beta 35.754587
_cell_angle_gamma 56.368380
_cell_volume 756.647301
_symmetry_space_group_name_H-M "P -1"
_symmetry_group_IT_number 2
_symmetry_cell_setting 'triclinic'
loop_
_space_group_symop_operation_xyz
x,y,z
-x,-y,-z
loop_
_atom_site_type_symbol
_atom_site_label
_atom_site_fract_x
_atom_site_fract_y
_atom_site_fract_z
Si Si1 0.193177 0.441903 0.687042
Si Si2 0.020920 0.236797 0.538612
Si Si3 0.704387 0.841165 0.977798
Si Si4 0.928422 0.110306 0.290066
Si Si5 0.306837 0.589987 0.470794
Si Si6 0.505222 0.754987 0.627218
Si Si7 0.249636 0.583282 0.881701
Si Si8 0.988315 0.986788 0.084053
O O1 0.129598 0.665465 0.699578
O O2 0.171655 0.507189 0.605466
O O3 0.452421 0.349216 0.615445
O O4 0.048549 0.252172 0.816157
O O5 0.284288 0.166544 0.437076
O O6 0.000000 0.500000 0.500000
O O7 0.845870 0.230355 0.552224
O O8 0.976036 0.084366 0.654333
O O9 0.901239 0.848431 0.845029
O O10 0.796931 0.927982 0.987282
O O11 0.632752 0.594011 0.075113
O O12 0.500000 0.000000 0.000000
O O13 0.690704 0.070420 0.361631
O O14 0.382516 0.384100 0.443253
O O15 0.376471 0.586239 0.762930
O O16 0.215352 0.835628 0.856701
O O17 0.000000 0.500000 0.000000
O O18 0.000000 0.000000 0.000000
#
# Coordination Sequence:
#
# PCOD9101008 Si02
#       8
#     2   2   2   2   2   2   2   2
#     4  10  23  42  66  93 134 175 211 257 336 394
#     4  10  23  36  63  95 130 164 222 266 321 370
#     4  11  26  42  69  95 131 170 223 274 330 371
#     4  11  22  42  65  93 131 176 213 268 322 400
#     4   9  22  40  62  93 136 168 208 268 327 381
#     4  10  20  37  68  92 126 165 224 263 313 392
#     4  10  21  41  65  95 120 172 220 263 320 389
#     4  11  24  41  70  94 126 169 221 268 315 399
#
# _framework density 21.145916
#
# number of rings (size 3 to 8) (size 9 to 14) (size 15 to 20)
#    0.000    1.750    2.500    1.125   12.250    3.500 
#    0.000    5.000    0.000    0.000    0.000    0.000 
#    0.000    0.000    0.000    0.000    0.000    0.000 
#
# Total GULP energy -89278.329937 kJ/mol
# GULP energy per Si atom -5579.895621 kJ/mol
# Density = 2.109779 g / cm^3
# Si number density = 21.145916 Si / 1000 Ang^3
#
#
#
# Elastic Constant Matrix: (Units=GPa)
#
#
# Indices 1 2 3 4 5 6 
#
# 1 106.6960 33.5890 32.2091 4.8007 23.4695 -32.8715
# 2 33.5890 94.5389 18.6210 -6.6508 15.0479 -18.1559
# 3 32.2091 18.6210 94.9271 3.2384 32.2830 6.1513
# 4 4.8007 -6.6508 3.2384 37.8703 -3.6442 3.3374
# 5 23.4695 15.0479 32.2830 -3.6442 31.2125 -3.5342
# 6 -32.8715 -18.1559 6.1513 3.3374 -3.5342 34.4564
#
#
#
# Elastic Compliance Matrix: (Units=1/GPa)
#
#
# Indices 1 2 3 4 5 6 
#
# 1 0.018159 -0.001507 -0.004489 -0.004346 -0.006862 0.017048
# 2 -0.001507 0.012979 -0.001493 0.001873 -0.002773 0.005202
# 3 -0.004489 -0.001493 0.018714 -0.002019 -0.016620 -0.009919
# 4 -0.004346 0.001873 -0.002019 0.028580 0.007243 -0.004824
# 5 -0.006862 -0.002773 -0.016620 0.007243 0.056578 0.000061
# 6 0.017048 0.005202 -0.009919 -0.004824 0.000061 0.050271
#
#
# Mechanical properties :
#
#
# Convention : Reuss Voigt Hill
#
# Bulk Modulus (GPa) = 28.67345 51.66668 40.17006
# Shear Modulus (GPa) = 23.59786 34.82402 29.21094
#
# Velocity S-wave (km/s) = 3.34421 4.06253 3.72075
# Velocity P-wave (km/s) = 5.33863 6.81851 6.12344
#
# Compressibility (1/GPa) = 0.03487547
#
# Stress axis : x y z
#
# Youngs Moduli (GPa) = 55.06868 77.04606 53.43619
#
# Poissons Ratio (x) = 0.11612 0.23985
# Poissons Ratio (y) = 0.08299 0.07976
# Poissons Ratio (z) = 0.24718 0.11501
#
# Static dielectric constant tensor:
#      x y z
#    x 1.836470 -0.002210 -0.012800 
#    y -0.002210 1.808460 -0.017940 
#    z -0.012800 -0.017940 1.780900 
# 
# From -- ./inp_files/594027.got.cif
#   From: 2010.05.17/outbox.cif.g08.bks.cpg/sg2_298_cif.got.tgz:594027.got - 2010.06.03 11:33:40.
