data_PCOD9101860
_publ_section_title
;
Structure prediction by ZEFSAII (Michael W. Deem and Ramdas Pophale) SiO2 
 PCOD9101860
Probable space group: P -1
;
_chemical_formula_sum "Si O2"
_cell_formula_units_Z 16
_cell_length_a 22.204563
_cell_length_b 6.165952
_cell_length_c 6.957898
_cell_angle_alpha 128.851314
_cell_angle_beta 122.915156
_cell_angle_gamma 80.602829
_cell_volume 599.370336
_symmetry_space_group_name_H-M "P -1"
_symmetry_group_IT_number 2
_symmetry_cell_setting 'triclinic'
loop_
_space_group_symop_operation_xyz
x,y,z
-x,-y,-z
loop_
_atom_site_type_symbol
_atom_site_label
_atom_site_fract_x
_atom_site_fract_y
_atom_site_fract_z
Si Si1 0.912268 0.868206 0.225998
Si Si2 0.259548 0.287722 0.594810
Si Si3 0.483908 0.142909 0.838456
Si Si4 0.964847 0.383905 0.077651
Si Si5 0.674994 0.208002 0.526356
Si Si6 0.753054 0.828243 0.947593
Si Si7 0.897774 0.738457 0.672135
Si Si8 0.367517 0.823919 0.999150
O O1 0.903991 0.546822 0.117629
O O2 0.840729 0.971200 0.225258
O O3 0.905440 0.830679 0.962781
O O4 0.000000 0.000000 0.500000
O O5 0.248128 0.240011 0.319212
O O6 0.188189 0.390207 0.591587
O O7 0.336997 0.526048 0.893313
O O8 0.268081 0.986063 0.517340
O O9 0.395394 0.979952 0.575049
O O10 0.500000 0.500000 0.000000
O O11 0.544921 0.041451 0.760812
O O12 0.500000 0.000000 0.000000
O O13 0.040498 0.429017 0.357716
O O14 0.000000 0.500000 0.000000
O O15 0.926630 0.048725 0.797800
O O16 0.721232 0.528965 0.841874
O O17 0.642749 0.252855 0.287311
O O18 0.691799 0.999868 0.965064
#
# Coordination Sequence:
#
# PCOD9101860 Si02
#       8
#     2   2   2   2   2   2   2   2
#     4  10  21  36  55  80 121 155 196 260 317 369
#     4  10  20  38  61  84 124 164 199 267 317 379
#     4  10  20  40  69  99 135 173 219 269 327 395
#     4   9  18  35  55  76 105 147 197 247 301 375
#     4  10  21  40  65  88 128 170 204 260 329 376
#     4  10  23  40  58  92 125 162 215 264 317 391
#     4   9  19  35  56  82 108 150 206 246 314 376
#     4  10  22  39  63  93 125 163 215 253 320 387
#
# _framework density 26.694683000000001
#
# number of rings (size 3 to 8) (size 9 to 14) (size 15 to 20)
#    0.000    2.250    1.250    0.750    1.750    3.000 
#    6.750    0.625    0.000    0.000    0.000    0.000 
#    0.000    0.000    0.000    0.000    0.000    0.000 
#
# Total GULP energy -89203.006843 kJ/mol
# GULP energy per Si atom -5575.187928 kJ/mol
# Density = 2.663392 g / cm^3
# Si number density = 26.694683 Si / 1000 Ang^3
#
#
#
# Elastic Constant Matrix: (Units=GPa)
#
#
# Indices 1 2 3 4 5 6 
#
# 1 146.1678 20.5664 28.2086 -7.6415 34.4033 -24.2157
# 2 20.5664 118.8840 16.5939 1.7893 8.7377 -1.5534
# 3 28.2086 16.5939 94.0111 -21.2604 28.6766 7.9407
# 4 -7.6415 1.7893 -21.2604 40.4949 4.1881 -9.2349
# 5 34.4033 8.7377 28.6766 4.1881 37.8385 -15.6240
# 6 -24.2157 -1.5534 7.9407 -9.2349 -15.6240 51.2072
#
#
#
# Elastic Compliance Matrix: (Units=1/GPa)
#
#
# Indices 1 2 3 4 5 6 
#
# 1 0.009382 -0.001109 0.000313 0.003380 -0.007821 0.002578
# 2 -0.001109 0.008832 -0.001659 -0.001545 0.000323 -0.000179
# 3 0.000313 -0.001659 0.019531 0.010793 -0.018655 -0.006676
# 4 0.003380 -0.001545 0.010793 0.032861 -0.013887 0.001567
# 5 -0.007821 0.000323 -0.018655 -0.013887 0.054664 0.013378
# 6 0.002578 -0.000179 -0.006676 0.001567 0.013378 0.026142
#
#
# Mechanical properties :
#
#
# Convention : Reuss Voigt Hill
#
# Bulk Modulus (GPa) = 30.45507 54.42229 42.43868
# Shear Modulus (GPa) = 29.89249 45.48773 37.69011
#
# Velocity S-wave (km/s) = 3.34996 4.13243 3.76160
# Velocity P-wave (km/s) = 5.13774 6.57271 5.89902
#
# Compressibility (1/GPa) = 0.03283525
#
# Stress axis : x y z
#
# Youngs Moduli (GPa) = 106.59094 113.22278 51.20029
#
# Poissons Ratio (x) = 0.12557 -0.01603
# Poissons Ratio (y) = 0.11822 0.08494
# Poissons Ratio (z) = -0.03338 0.18783
#
# Static dielectric constant tensor:
#      x y z
#    x 2.142820 0.021790 -0.089950 
#    y 0.021790 2.195240 -0.016980 
#    z -0.089950 -0.016980 2.222310 
# 
# From -- ./inp_files/351095.got.cif
#   From: 2010.05.17/outbox.cif.g08.bks.cpg/sg2_176_cif.got.tgz:351095.got - 2010.06.03 11:33:40.
