data_PCOD9101441
_publ_section_title
;
Structure prediction by ZEFSAII (Michael W. Deem and Ramdas Pophale) SiO2 
 PCOD9101441
Probable space group: P -1
;
_chemical_formula_sum "Si O2"
_cell_formula_units_Z 16
_cell_length_a 14.698063
_cell_length_b 14.897794
_cell_length_c 9.727895
_cell_angle_alpha 152.753243
_cell_angle_beta 129.393522
_cell_angle_gamma 53.960784
_cell_volume 751.896751
_symmetry_space_group_name_H-M "P -1"
_symmetry_group_IT_number 2
_symmetry_cell_setting 'triclinic'
loop_
_space_group_symop_operation_xyz
x,y,z
-x,-y,-z
loop_
_atom_site_type_symbol
_atom_site_label
_atom_site_fract_x
_atom_site_fract_y
_atom_site_fract_z
Si Si1 0.696612 0.905560 0.804215
Si Si2 0.069482 0.340947 0.251868
Si Si3 0.369387 0.921167 0.751444
Si Si4 0.754566 0.781291 0.181039
Si Si5 0.897603 0.462014 0.742740
Si Si6 0.365764 0.004804 0.423711
Si Si7 0.450055 0.701265 0.291010
Si Si8 0.992627 0.945168 0.756937
O O1 0.794941 0.726637 0.673385
O O2 0.567458 0.821837 0.573621
O O3 0.709976 0.988362 0.776966
O O4 0.693146 0.062340 0.138485
O O5 0.072664 0.428030 0.220594
O O6 0.000000 0.500000 0.500000
O O7 0.009935 0.135825 0.940290
O O8 0.390922 0.720226 0.410936
O O9 0.292912 0.071873 0.784836
O O10 0.500000 0.000000 0.000000
O O11 0.870460 0.858998 0.472886
O O12 0.660903 0.806144 0.247899
O O13 0.783195 0.571717 0.852483
O O14 0.907696 0.230447 0.412202
O O15 0.000000 0.500000 0.000000
O O16 0.357692 0.813972 0.251402
O O17 0.500000 0.000000 0.500000
O O18 0.500000 0.500000 0.000000
O O19 0.000000 0.000000 0.000000
#
# Coordination Sequence:
#
# PCOD9101441 Si02
#       8
#     2   2   2   2   2   2   2   2
#     4  10  20  38  59  86 119 159 206 255 321 367
#     4  12  24  40  63  93 130 170 216 265 318 382
#     4   9  18  36  60  85 117 158 200 246 314 379
#     4  10  20  39  64  88 125 166 205 261 326 374
#     4  10  23  42  63  91 128 165 217 268 322 378
#     4   9  19  36  62  86 116 158 200 251 317 377
#     4   9  19  37  61  89 118 156 207 256 309 384
#     4  11  23  41  65  95 128 167 220 264 316 391
#
# _framework density 21.279517999999999
#
# number of rings (size 3 to 8) (size 9 to 14) (size 15 to 20)
#    0.000    2.000    2.500    1.500    1.750    4.000 
#    2.250    3.125    0.000    0.000    0.000    0.000 
#    0.000    0.000    0.000    0.000    0.000    0.000 
#
# Total GULP energy -89184.244353 kJ/mol
# GULP energy per Si atom -5574.015272 kJ/mol
# Density = 2.123108 g / cm^3
# Si number density = 21.279518 Si / 1000 Ang^3
#
#
#
# Elastic Constant Matrix: (Units=GPa)
#
#
# Indices 1 2 3 4 5 6 
#
# 1 102.4681 41.8910 51.9837 7.5699 -48.9138 -2.8549
# 2 41.8910 125.3378 55.1622 -5.3918 -33.9559 -1.3445
# 3 51.9837 55.1622 120.2986 19.1045 -56.0218 2.5311
# 4 7.5699 -5.3918 19.1045 45.4607 -9.9771 -10.9291
# 5 -48.9138 -33.9559 -56.0218 -9.9771 59.5016 0.0749
# 6 -2.8549 -1.3445 2.5311 -10.9291 0.0749 30.0198
#
#
#
# Elastic Compliance Matrix: (Units=1/GPa)
#
#
# Indices 1 2 3 4 5 6 
#
# 1 0.016664 -0.001938 -0.000916 0.000372 0.011791 0.001681
# 2 -0.001938 0.011126 -0.004357 0.004316 0.001375 0.002249
# 3 -0.000916 -0.004357 0.017387 -0.005956 0.012138 -0.003947
# 4 0.000372 0.004316 -0.005956 0.027977 0.001838 0.010911
# 5 0.011791 0.001375 0.012138 0.001838 0.039019 0.000731
# 6 0.001681 0.002249 -0.003947 0.010911 0.000731 0.037875
#
#
# Mechanical properties :
#
#
# Convention : Reuss Voigt Hill
#
# Bulk Modulus (GPa) = 32.51367 71.79758 52.15562
# Shear Modulus (GPa) = 28.61711 40.26759 34.44235
#
# Velocity S-wave (km/s) = 3.67116 4.35480 4.02751
# Velocity P-wave (km/s) = 5.76909 7.68760 6.79638
#
# Compressibility (1/GPa) = 0.03075629
#
# Stress axis : x y z
#
# Youngs Moduli (GPa) = 60.01049 89.88102 57.51276
#
# Poissons Ratio (x) = 0.17420 0.05267
# Poissons Ratio (y) = 0.11631 0.25056
# Poissons Ratio (z) = 0.05495 0.39157
#
# Static dielectric constant tensor:
#      x y z
#    x 1.833850 -0.006420 -0.026970 
#    y -0.006420 1.796680 -0.005810 
#    z -0.026970 -0.005810 1.799530 
# 
# From -- ./inp_files/316214.got.cif
#   From: 2010.05.17/outbox.cif.g08.bks.cpg/sg2_159_cif.got.tgz:316214.got - 2010.06.03 11:33:40.
