data_PCOD9101688
_publ_section_title
;
Structure prediction by ZEFSAII (Michael W. Deem and Ramdas Pophale) SiO2 
 PCOD9101688
Probable space group: P -1
;
_chemical_formula_sum "Si O2"
_cell_formula_units_Z 12
_cell_length_a 16.648020
_cell_length_b 12.837403
_cell_length_c 8.279382
_cell_angle_alpha 147.255682
_cell_angle_beta 146.497776
_cell_angle_gamma 34.794895
_cell_volume 483.849126
_symmetry_space_group_name_H-M "P -1"
_symmetry_group_IT_number 2
_symmetry_cell_setting 'triclinic'
loop_
_space_group_symop_operation_xyz
x,y,z
-x,-y,-z
loop_
_atom_site_type_symbol
_atom_site_label
_atom_site_fract_x
_atom_site_fract_y
_atom_site_fract_z
Si Si1 0.992675 0.408640 0.192650
Si Si2 0.357015 0.349400 0.202911
Si Si3 0.354858 0.998684 0.946243
Si Si4 0.618633 0.276513 0.095286
Si Si5 0.889298 0.119534 0.819143
Si Si6 0.730138 0.475653 0.264115
O O1 0.000000 0.500000 0.500000
O O2 0.135859 0.433387 0.370383
O O3 0.825198 0.557718 0.032404
O O4 0.985414 0.185461 0.928739
O O5 0.477748 0.188065 0.069968
O O6 0.394156 0.549566 0.564493
O O7 0.373607 0.211202 0.211045
O O8 0.325867 0.943125 0.006524
O O9 0.216242 0.987690 0.582812
O O10 0.727570 0.317441 0.195185
O O11 0.444659 0.346035 0.819437
O O12 0.769383 0.335585 0.983648
O O13 0.000000 0.000000 0.000000
#
# Coordination Sequence:
#
# PCOD9101688 Si02
#       6
#     2   2   2   2   2   2
#     4  10  20  38  60  88 121 160 200 252 298 353
#     4  11  22  38  66  91 120 161 210 250 296 364
#     4  11  21  38  66  92 117 162 212 246 300 364
#     4  11  22  43  63  90 128 163 195 255 308 363
#     4  11  21  39  63  92 121 160 208 254 298 360
#     4  10  23  41  62  89 128 162 199 249 316 355
#
# _framework density 24.801120000000001
#
# number of rings (size 3 to 8) (size 9 to 14) (size 15 to 20)
#    0.000    1.333    3.333    4.500    0.000    2.000 
#    3.000    3.333    0.000    0.000    0.000    0.000 
#    0.000    0.000    0.000    0.000    0.000    0.000 
#
# Total GULP energy -67184.181432 kJ/mol
# GULP energy per Si atom -5598.681786 kJ/mol
# Density = 2.474467 g / cm^3
# Si number density = 24.801120 Si / 1000 Ang^3
#
#
#
# Elastic Constant Matrix: (Units=GPa)
#
#
# Indices 1 2 3 4 5 6 
#
# 1 123.7034 42.3720 13.1187 -9.0583 35.4942 23.6958
# 2 42.3720 118.8787 42.6748 -6.7411 25.4544 31.9532
# 3 13.1187 42.6748 94.0522 -22.3471 27.9249 -3.8138
# 4 -9.0583 -6.7411 -22.3471 38.6945 0.7567 7.8054
# 5 35.4942 25.4544 27.9249 0.7567 45.8689 7.1619
# 6 23.6958 31.9532 -3.8138 7.8054 7.1619 43.6609
#
#
#
# Elastic Compliance Matrix: (Units=1/GPa)
#
#
# Indices 1 2 3 4 5 6 
#
# 1 0.012540 -0.002004 0.003266 0.005557 -0.009983 -0.004410
# 2 -0.002004 0.014205 -0.006132 0.000452 -0.001085 -0.009747
# 3 0.003266 -0.006132 0.018920 0.009945 -0.011506 0.004477
# 4 0.005557 0.000452 0.009945 0.034577 -0.010082 -0.007006
# 5 -0.009983 -0.001085 -0.011506 -0.010082 0.037157 0.000914
# 6 -0.004410 -0.009747 0.004477 -0.007006 0.000914 0.033924
#
#
# Mechanical properties :
#
#
# Convention : Reuss Voigt Hill
#
# Bulk Modulus (GPa) = 27.83563 59.21837 43.52700
# Shear Modulus (GPa) = 28.89562 41.54278 35.21920
#
# Velocity S-wave (km/s) = 3.41705 4.09716 3.77246
# Velocity P-wave (km/s) = 5.17844 6.80525 6.04680
#
# Compressibility (1/GPa) = 0.03592518
#
# Stress axis : x y z
#
# Youngs Moduli (GPa) = 79.74477 70.39750 52.85511
#
# Poissons Ratio (x) = 0.14108 -0.17262
# Poissons Ratio (y) = 0.15981 0.32409
# Poissons Ratio (z) = -0.26043 0.43165
#
# Static dielectric constant tensor:
#      x y z
#    x 2.062990 0.021050 -0.007010 
#    y 0.021050 1.964200 -0.010520 
#    z -0.007010 -0.010520 1.972880 
# 
# From -- ./inp_files/145561.got.cif
#   From: 2010.05.17/outbox.cif.g08.bks.cpg/sg2_73_cif.got.tgz:145561.got - 2010.06.03 11:33:40.
