data_PCOD9101850
_publ_section_title
;
Structure prediction by ZEFSAII (Michael W. Deem and Ramdas Pophale) SiO2 
 PCOD9101850
Probable space group: P -1
;
_chemical_formula_sum "Si O2"
_cell_formula_units_Z 14
_cell_length_a 9.116804
_cell_length_b 7.151356
_cell_length_c 14.413784
_cell_angle_alpha 60.477875
_cell_angle_beta 133.211233
_cell_angle_gamma 128.824636
_cell_volume 530.249845
_symmetry_space_group_name_H-M "P -1"
_symmetry_group_IT_number 2
_symmetry_cell_setting 'triclinic'
loop_
_space_group_symop_operation_xyz
x,y,z
-x,-y,-z
loop_
_atom_site_type_symbol
_atom_site_label
_atom_site_fract_x
_atom_site_fract_y
_atom_site_fract_z
Si Si1 0.212573 0.490090 0.182923
Si Si2 0.364092 0.240501 0.788301
Si Si3 0.086971 0.511221 0.318624
Si Si4 0.022727 0.752082 0.493932
Si Si5 0.575776 0.810708 0.534580
Si Si6 0.270642 0.276935 0.097001
Si Si7 0.071031 0.122194 0.851682
O O1 0.414476 0.745589 0.172311
O O2 0.062075 0.492950 0.201845
O O3 0.330166 0.329139 0.320602
O O4 0.108761 0.352547 0.074189
O O5 0.205620 0.248075 0.637754
O O6 0.490145 0.502415 0.831301
O O7 0.206630 0.059358 0.844740
O O8 0.964069 0.273297 0.384012
O O9 0.352107 0.622878 0.430519
O O10 0.981370 0.679469 0.268703
O O11 0.000000 0.500000 0.500000
O O12 0.222429 0.003334 0.486346
O O13 0.500000 0.000000 0.500000
O O14 0.229904 0.227522 0.983964
O O15 0.177334 0.022734 0.170115
#
# Coordination Sequence:
#
# PCOD9101850 Si02
#       7
#     2   2   2   2   2   2   2
#     4  10  23  40  58  85 131 149 188 245 301 335
#     4  10  20  38  61  84 115 151 194 242 281 350
#     4  12  24  38  57  93 122 155 189 244 295 351
#     4  12  22  35  63  89 114 157 198 230 294 354
#     4  12  22  39  61  87 122 157 193 244 279 352
#     4   9  22  40  62  86 112 153 202 249 280 343
#     4  11  21  38  68  83 109 157 208 234 291 342
#
# _framework density 26.402647000000002
#
# number of rings (size 3 to 8) (size 9 to 14) (size 15 to 20)
#    0.857    0.286    4.286    2.571    2.000    1.143 
#    2.571    0.000    0.000    1.714    0.000    0.000 
#    0.000    0.000    0.000    0.000    0.000    0.000 
#
# Total GULP energy -78018.374978 kJ/mol
# GULP energy per Si atom -5572.741070 kJ/mol
# Density = 2.634255 g / cm^3
# Si number density = 26.402647 Si / 1000 Ang^3
#
#
#
# Elastic Constant Matrix: (Units=GPa)
#
#
# Indices 1 2 3 4 5 6 
#
# 1 93.4206 4.4241 2.8837 -17.0234 -27.8756 18.8378
# 2 4.4241 80.6065 8.7792 -5.5259 -0.7122 29.1236
# 3 2.8837 8.7792 68.0912 -10.2701 -41.4303 13.4272
# 4 -17.0234 -5.5259 -10.2701 28.3013 5.4961 -4.7000
# 5 -27.8756 -0.7122 -41.4303 5.4961 45.1904 -5.2455
# 6 18.8378 29.1236 13.4272 -4.7000 -5.2455 58.9173
#
#
#
# Elastic Compliance Matrix: (Units=1/GPa)
#
#
# Indices 1 2 3 4 5 6 
#
# 1 0.024979 0.000844 0.024038 0.015634 0.034447 -0.009568
# 2 0.000844 0.015336 -0.000964 0.002139 -0.001261 -0.007573
# 3 0.024038 -0.000964 0.058988 0.020894 0.064817 -0.013215
# 4 0.015634 0.002139 0.020894 0.047540 0.022468 -0.005025
# 5 0.034447 -0.001261 0.064817 0.022468 0.098352 -0.014614
# 6 -0.009568 -0.007573 -0.013215 -0.005025 -0.014614 0.025085
#
#
# Mechanical properties :
#
#
# Convention : Reuss Voigt Hill
#
# Bulk Modulus (GPa) = 6.79634 30.47692 18.63663
# Shear Modulus (GPa) = 18.41671 41.55054 29.98363
#
# Velocity S-wave (km/s) = 2.64395 3.97133 3.37357
# Velocity P-wave (km/s) = 3.44969 5.70936 4.71684
#
# Compressibility (1/GPa) = 0.14713810
#
# Stress axis : x y z
#
# Youngs Moduli (GPa) = 40.03339 65.20521 16.95258
#
# Poissons Ratio (x) = -0.05504 -0.40750
# Poissons Ratio (y) = -0.03379 0.01635
# Poissons Ratio (z) = -0.96231 0.06288
#
# Static dielectric constant tensor:
#      x y z
#    x 2.170890 -0.292020 0.085960 
#    y -0.292020 4.052030 -0.750640 
#    z 0.085960 -0.750640 2.361060 
# 
# From -- ./inp_files/492356.got.cif
#   From: 2010.05.17/outbox.cif.g08.bks.cpg/sg2_247_cif.got.tgz:492356.got - 2010.06.03 11:33:40.
