data_PCOD9101250
_publ_section_title
;
Structure prediction by ZEFSAII (Michael W. Deem and Ramdas Pophale) SiO2 
 PCOD9101250
Probable space group: P -1
;
_chemical_formula_sum "Si O2"
_cell_formula_units_Z 15
_cell_length_a 9.072519
_cell_length_b 14.606595
_cell_length_c 6.363648
_cell_angle_alpha 66.789928
_cell_angle_beta 83.847637
_cell_angle_gamma 84.811267
_cell_volume 769.513336
_symmetry_space_group_name_H-M "P -1"
_symmetry_group_IT_number 2
_symmetry_cell_setting 'triclinic'
loop_
_space_group_symop_operation_xyz
x,y,z
-x,-y,-z
loop_
_atom_site_type_symbol
_atom_site_label
_atom_site_fract_x
_atom_site_fract_y
_atom_site_fract_z
Si Si1 0.252878 0.327214 0.214498
Si Si2 0.500000 0.500000 0.500000
Si Si3 0.089273 0.135087 0.293529
Si Si4 0.768914 0.474671 0.197647
Si Si5 0.576009 0.356818 0.011094
Si Si6 0.011033 0.390293 0.496044
Si Si7 0.156542 0.776007 0.073463
Si Si8 0.091858 0.946837 0.221876
O O1 0.198309 0.222579 0.238021
O O2 0.174912 0.354577 0.424664
O O3 0.199186 0.414758 0.981474
O O4 0.431316 0.328147 0.190457
O O5 0.671871 0.473265 0.423911
O O6 0.516174 0.417781 0.763618
O O7 0.019783 0.101739 0.554051
O O8 0.162169 0.036381 0.258199
O O9 0.951909 0.175471 0.132175
O O10 0.913464 0.404312 0.285888
O O11 0.670911 0.429419 0.070943
O O12 0.689687 0.267485 0.006460
O O13 0.935112 0.311160 0.726591
O O14 0.000000 0.500000 0.500000
O O15 0.185603 0.857678 0.175288
O O16 0.000000 0.000000 0.000000
#
# Coordination Sequence:
#
# PCOD9101250 Si02
#       8
#     2   1   2   2   2   2   2   2
#     4  11  22  38  58  90 123 159 204 262 303 347
#     4  10  20  38  58  80 120 172 216 236 284 364
#     4  10  20  40  66  93 120 150 204 268 307 365
#     4  11  23  39  57  84 128 172 206 245 305 362
#     4  11  24  39  60  86 130 172 208 244 306 367
#     4  12  23  36  60  91 124 161 212 258 295 361
#     4  11  21  39  62  91 118 167 205 242 312 377
#     4   9  20  39  67  92 117 153 201 253 322 376
#
# _framework density 19.492837000000002
#
# number of rings (size 3 to 8) (size 9 to 14) (size 15 to 20)
#    0.000    1.333    2.667    4.400    1.867    0.000 
#    0.000    0.667    0.000    7.200    0.000    0.000 
#    0.000    0.000    0.000    0.000    0.000    0.000 
#
# Total GULP energy -83533.287007 kJ/mol
# GULP energy per Si atom -5568.885800 kJ/mol
# Density = 1.944847 g / cm^3
# Si number density = 19.492837 Si / 1000 Ang^3
#
#
#
# Elastic Constant Matrix: (Units=GPa)
#
#
# Indices 1 2 3 4 5 6 
#
# 1 81.2431 47.4703 33.0891 3.0779 -23.9580 -13.2964
# 2 47.4703 140.7210 27.4565 4.3846 -19.1013 2.5723
# 3 33.0891 27.4565 82.2647 -14.7281 -15.7902 -1.4603
# 4 3.0779 4.3846 -14.7281 24.5569 -9.7711 -4.8813
# 5 -23.9580 -19.1013 -15.7902 -9.7711 33.2786 8.9455
# 6 -13.2964 2.5723 -1.4603 -4.8813 8.9455 26.5163
#
#
#
# Elastic Compliance Matrix: (Units=1/GPa)
#
#
# Indices 1 2 3 4 5 6 
#
# 1 0.020997 -0.005211 -0.005186 -0.000240 0.007387 0.008213
# 2 -0.005211 0.009475 -0.001142 -0.001909 0.001810 -0.004557
# 3 -0.005186 -0.001142 0.019406 0.016125 0.010049 -0.001843
# 4 -0.000240 -0.001909 0.016125 0.060808 0.023063 0.004366
# 5 0.007387 0.001810 0.010049 0.023063 0.050265 -0.008630
# 6 0.008213 -0.004557 -0.001843 0.004366 -0.008630 0.045887
#
#
# Mechanical properties :
#
#
# Convention : Reuss Voigt Hill
#
# Bulk Modulus (GPa) = 37.31210 57.80673 47.55942
# Shear Modulus (GPa) = 20.93369 29.95123 25.44246
#
# Velocity S-wave (km/s) = 3.28062 3.92411 3.61670
# Velocity P-wave (km/s) = 5.79077 7.08881 6.47241
#
# Compressibility (1/GPa) = 0.02680096
#
# Stress axis : x y z
#
# Youngs Moduli (GPa) = 47.62542 105.53606 51.53126
#
# Poissons Ratio (x) = 0.54998 0.26722
# Poissons Ratio (y) = 0.24819 0.05883
# Poissons Ratio (z) = 0.24697 0.12049
#
# Static dielectric constant tensor:
#      x y z
#    x 1.950920 -0.068430 0.043450 
#    y -0.068430 1.801500 0.041580 
#    z 0.043450 0.041580 1.690690 
# 
# From -- ./inp_files/37313.got.cif
#   From: 2010.05.17/outbox.cif.g08.bks.cpg/sg2_19_cif.got.tgz:37313.got - 2010.06.03 11:33:40.
