data_PCOD9101515
_publ_section_title
;
Structure prediction by ZEFSAII (Michael W. Deem and Ramdas Pophale) SiO2 
 PCOD9101515
Probable space group: P -1
;
_chemical_formula_sum "Si O2"
_cell_formula_units_Z 16
_cell_length_a 7.306782
_cell_length_b 20.419449
_cell_length_c 8.855800
_cell_angle_alpha 56.001685
_cell_angle_beta 129.493820
_cell_angle_gamma 87.011294
_cell_volume 651.381174
_symmetry_space_group_name_H-M "P -1"
_symmetry_group_IT_number 2
_symmetry_cell_setting 'triclinic'
loop_
_space_group_symop_operation_xyz
x,y,z
-x,-y,-z
loop_
_atom_site_type_symbol
_atom_site_label
_atom_site_fract_x
_atom_site_fract_y
_atom_site_fract_z
Si Si1 0.689717 0.917549 0.075695
Si Si2 0.851772 0.731669 0.771622
Si Si3 0.415744 0.948252 0.406354
Si Si4 0.314904 0.588908 0.409690
Si Si5 0.207576 0.386197 0.332663
Si Si6 0.172893 0.632694 0.595554
Si Si7 0.708995 0.286191 0.196698
Si Si8 0.453185 0.181991 0.086485
O O1 0.985964 0.818167 0.437642
O O2 0.478263 0.892953 0.919592
O O3 0.500000 0.000000 0.000000
O O4 0.780809 0.962974 0.936201
O O5 0.156817 0.685022 0.896848
O O6 0.675818 0.848754 0.570686
O O7 0.690156 0.702993 0.617251
O O8 0.966153 0.665476 0.068510
O O9 0.365998 0.890941 0.579022
O O10 0.500000 0.000000 0.500000
O O11 0.500000 0.500000 0.500000
O O12 0.477862 0.639072 0.423094
O O13 0.334022 0.557887 0.633598
O O14 0.017731 0.384277 0.370502
O O15 0.000000 0.500000 0.000000
O O16 0.393335 0.640035 0.806717
O O17 0.918692 0.740603 0.234089
O O18 0.524840 0.259085 0.043927
#
# Coordination Sequence:
#
# PCOD9101515 Si02
#       8
#     2   2   2   2   2   2   2   2
#     4  10  20  38  59  92 133 166 219 272 316 395
#     4  11  22  45  65  93 137 169 219 281 322 397
#     4  10  21  39  64  91 134 172 212 273 323 386
#     4  12  25  44  69 100 130 174 223 272 339 401
#     4  11  25  46  67  99 133 175 223 277 341 395
#     4  10  24  43  68  95 133 171 222 278 326 405
#     4  10  22  40  65  94 127 178 220 267 336 392
#     4  10  21  40  62  92 127 174 216 264 333 386
#
# _framework density 24.563189000000001
#
# number of rings (size 3 to 8) (size 9 to 14) (size 15 to 20)
#    0.000    1.500    3.750    0.750    1.750    2.000 
#    0.000    0.000    0.000    0.000    0.000    0.000 
#    0.000    0.000    0.000    0.000    0.000    0.000 
#
# Total GULP energy -89144.824275 kJ/mol
# GULP energy per Si atom -5571.551517 kJ/mol
# Density = 2.450728 g / cm^3
# Si number density = 24.563189 Si / 1000 Ang^3
#
#
#
# Elastic Constant Matrix: (Units=GPa)
#
#
# Indices 1 2 3 4 5 6 
#
# 1 68.7884 56.2756 0.5900 16.8740 -22.5587 -4.5011
# 2 56.2756 197.8706 26.8813 39.8529 -7.0267 -19.3867
# 3 0.5900 26.8813 115.3478 0.9008 -20.0232 -10.0324
# 4 16.8740 39.8529 0.9008 43.6859 2.7798 3.8835
# 5 -22.5587 -7.0267 -20.0232 2.7798 30.1865 6.4299
# 6 -4.5011 -19.3867 -10.0324 3.8835 6.4299 46.5611
#
#
#
# Elastic Compliance Matrix: (Units=1/GPa)
#
#
# Indices 1 2 3 4 5 6 
#
# 1 0.030700 -0.007460 0.006019 -0.006676 0.026219 -0.001905
# 2 -0.007460 0.008668 -0.002607 -0.004929 -0.005580 0.003508
# 3 0.006019 -0.002607 0.011263 -0.000940 0.011356 0.000433
# 4 -0.006676 -0.004929 -0.000940 0.030919 -0.008696 -0.004278
# 5 0.026219 -0.005580 0.011356 -0.008696 0.060825 -0.005016
# 6 -0.001905 0.003508 0.000433 -0.004278 -0.005016 0.023896
#
#
# Mechanical properties :
#
#
# Convention : Reuss Voigt Hill
#
# Bulk Modulus (GPa) = 23.50981 61.05562 42.28272
# Shear Modulus (GPa) = 26.51895 43.97069 35.24482
#
# Velocity S-wave (km/s) = 3.28932 4.23555 3.79207
# Velocity P-wave (km/s) = 4.90083 6.98787 6.03525
#
# Compressibility (1/GPa) = 0.04253543
#
# Stress axis : x y z
#
# Youngs Moduli (GPa) = 32.57307 115.36779 88.78974
#
# Poissons Ratio (x) = 0.86066 -0.53446
# Poissons Ratio (y) = 0.24300 0.23146
# Poissons Ratio (z) = -0.19607 0.30075
#
# Static dielectric constant tensor:
#      x y z
#    x 2.071570 -0.242980 0.037580 
#    y -0.242980 4.106470 -0.828050 
#    z 0.037580 -0.828050 2.283890 
# 
# From -- ./inp_files/216599.got.cif
#   From: 2010.05.17/outbox.cif.g08.bks.cpg/sg2_109_cif.got.tgz:216599.got - 2010.06.03 11:33:40.
