data_PCOD9101557
_publ_section_title
;
Structure prediction by ZEFSAII (Michael W. Deem and Ramdas Pophale) SiO2 
 PCOD9101557
Probable space group: P -1
;
_chemical_formula_sum "Si O2"
_cell_formula_units_Z 16
_cell_length_a 19.912074
_cell_length_b 11.620488
_cell_length_c 9.376028
_cell_angle_alpha 129.367595
_cell_angle_beta 46.425451
_cell_angle_gamma 149.903782
_cell_volume 783.856517
_symmetry_space_group_name_H-M "P -1"
_symmetry_group_IT_number 2
_symmetry_cell_setting 'triclinic'
loop_
_space_group_symop_operation_xyz
x,y,z
-x,-y,-z
loop_
_atom_site_type_symbol
_atom_site_label
_atom_site_fract_x
_atom_site_fract_y
_atom_site_fract_z
Si Si1 0.882940 0.900645 0.713520
Si Si2 0.536963 0.795119 0.234373
Si Si3 0.013763 0.682549 0.179404
Si Si4 0.030902 0.169237 0.195433
Si Si5 0.840760 0.375778 0.646512
Si Si6 0.219935 0.977075 0.384188
Si Si7 0.722445 0.289218 0.437391
Si Si8 0.414000 0.379025 0.218371
O O1 0.890564 0.802159 0.758388
O O2 0.726933 0.724372 0.734204
O O3 0.000000 0.000000 0.500000
O O4 0.931811 0.128209 0.863058
O O5 0.404682 0.747176 0.399689
O O6 0.525943 0.652662 0.260077
O O7 0.671011 0.071119 0.269909
O O8 0.537763 0.700157 0.013372
O O9 0.854824 0.522495 0.342689
O O10 0.123173 0.829076 0.267740
O O11 0.000000 0.500000 0.000000
O O12 0.127972 0.419555 0.183734
O O13 0.882545 0.057808 0.385394
O O14 0.000000 0.000000 0.000000
O O15 0.749943 0.148018 0.692607
O O16 0.775081 0.313165 0.537101
O O17 0.000000 0.500000 0.500000
O O18 0.356049 0.240448 0.341621
#
# Coordination Sequence:
#
# PCOD9101557 Si02
#       8
#     2   2   2   2   2   2   2   2
#     4  11  19  36  61  88 120 151 193 266 306 342
#     4  10  23  36  60  85 116 166 198 250 280 357
#     4  11  21  32  61  91 117 147 194 254 311 349
#     4  11  22  34  54  93 124 155 185 239 325 362
#     4  10  20  38  60  81 123 154 185 247 310 363
#     4  10  21  38  58  88 121 154 193 256 304 357
#     4  11  20  39  57  86 121 154 202 240 301 355
#     4  10  20  39  58  85 118 152 212 243 297 344
#
# _framework density 20.411898000000001
#
# number of rings (size 3 to 8) (size 9 to 14) (size 15 to 20)
#    0.000    1.500    5.000    3.000    1.750    2.000 
#    0.000    1.250    0.000    0.000    0.000    0.000 
#    0.000    0.000    0.000    0.000    0.000    0.000 
#
# Total GULP energy -89322.065533 kJ/mol
# GULP energy per Si atom -5582.629096 kJ/mol
# Density = 2.036544 g / cm^3
# Si number density = 20.411898 Si / 1000 Ang^3
#
#
#
# Elastic Constant Matrix: (Units=GPa)
#
#
# Indices 1 2 3 4 5 6 
#
# 1 50.9058 16.9324 7.4744 8.0352 -8.0866 -32.0647
# 2 16.9324 90.8695 2.9514 11.8619 -3.1964 -41.6200
# 3 7.4744 2.9514 75.6143 17.3633 -15.2123 -10.4724
# 4 8.0352 11.8619 17.3633 36.8690 -6.1377 -4.4225
# 5 -8.0866 -3.1964 -15.2123 -6.1377 20.1051 3.5093
# 6 -32.0647 -41.6200 -10.4724 -4.4225 3.5093 40.8565
#
#
#
# Elastic Compliance Matrix: (Units=1/GPa)
#
#
# Indices 1 2 3 4 5 6 
#
# 1 0.059152 0.022606 0.009606 -0.013337 0.018561 0.068876
# 2 0.022606 0.030796 0.007481 -0.011187 0.007652 0.049163
# 3 0.009606 0.007481 0.019341 -0.009166 0.013757 0.017943
# 4 -0.013337 -0.011187 -0.009166 0.035555 0.000335 -0.020393
# 5 0.018561 0.007652 0.013757 0.000335 0.065387 0.020308
# 6 0.068876 0.049163 0.017943 -0.020393 0.020308 0.129259
#
#
# Mechanical properties :
#
#
# Convention : Reuss Voigt Hill
#
# Bulk Modulus (GPa) = 5.30010 30.23400 17.76705
# Shear Modulus (GPa) = 15.48002 32.23489 23.85745
#
# Velocity S-wave (km/s) = 2.75686 3.97825 3.42248
# Velocity P-wave (km/s) = 3.56874 5.99551 4.93366
#
# Compressibility (1/GPa) = 0.18867573
#
# Stress axis : x y z
#
# Youngs Moduli (GPa) = 16.90566 32.47138 51.70325
#
# Poissons Ratio (x) = -0.73405 -0.49668
# Poissons Ratio (y) = -0.38217 -0.38677
# Poissons Ratio (z) = -0.16240 -0.24291
#
# Static dielectric constant tensor:
#      x y z
#    x 1.728890 -0.030640 -0.026630 
#    y -0.030640 1.781090 0.004150 
#    z -0.026630 0.004150 1.752130 
# 
# From -- ./inp_files/274660.got.cif
#   From: 2010.05.17/outbox.cif.g08.bks.cpg/sg2_138_cif.got.tgz:274660.got - 2010.06.03 11:33:40.
