data_PCOD9101126
_publ_section_title
;
Structure prediction by ZEFSAII (Michael W. Deem and Ramdas Pophale) SiO2 
 PCOD9101126
Probable space group: P -1
;
_chemical_formula_sum "Si O2"
_cell_formula_units_Z 12
_cell_length_a 11.021219
_cell_length_b 18.299264
_cell_length_c 10.055152
_cell_angle_alpha 37.438988
_cell_angle_beta 82.819234
_cell_angle_gamma 53.132819
_cell_volume 681.924213
_symmetry_space_group_name_H-M "P -1"
_symmetry_group_IT_number 2
_symmetry_cell_setting 'triclinic'
loop_
_space_group_symop_operation_xyz
x,y,z
-x,-y,-z
loop_
_atom_site_type_symbol
_atom_site_label
_atom_site_fract_x
_atom_site_fract_y
_atom_site_fract_z
Si Si1 0.180693 0.075199 0.212294
Si Si2 0.545232 0.529536 0.312863
Si Si3 0.685498 0.825072 0.120899
Si Si4 0.310562 0.705471 0.633141
Si Si5 0.851564 0.453434 0.522935
Si Si6 0.895008 0.988514 0.428905
O O1 0.274670 0.875375 0.425426
O O2 0.156617 0.079389 0.367149
O O3 0.322841 0.072207 0.147209
O O4 0.944386 0.292843 0.860889
O O5 0.500000 0.500000 0.500000
O O6 0.619906 0.378317 0.405431
O O7 0.736274 0.469321 0.404566
O O8 0.326986 0.776611 0.938950
O O9 0.691363 0.685067 0.268964
O O10 0.927265 0.656883 0.392112
O O11 0.500000 0.000000 0.000000
O O12 0.083449 0.822977 0.532051
O O13 0.500000 0.500000 0.000000
O O14 0.000000 0.000000 0.500000
#
# Coordination Sequence:
#
# PCOD9101126 Si02
#       6
#     2   2   2   2   2   2
#     4   9  19  38  62  85 116 162 204 237 300 357
#     4  12  24  36  61  94 128 152 196 259 302 349
#     4   9  20  39  64  85 116 163 206 242 302 352
#     4  11  22  36  59  88 124 160 199 234 307 369
#     4   9  22  39  57  91 122 147 206 254 291 346
#     4  10  20  38  55  85 122 162 195 238 299 365
#
# _framework density 17.597263000000002
#
# number of rings (size 3 to 8) (size 9 to 14) (size 15 to 20)
#    1.000    1.000    3.333    2.000    2.333    4.000 
#    0.000    0.833    0.000    2.000    0.000    0.000 
#    0.000    0.000    0.000    0.000    0.000    0.000 
#
# Total GULP energy -66824.460484 kJ/mol
# GULP energy per Si atom -5568.705040 kJ/mol
# Density = 1.755721 g / cm^3
# Si number density = 17.597263 Si / 1000 Ang^3
#
#
#
# Elastic Constant Matrix: (Units=GPa)
#
#
# Indices 1 2 3 4 5 6 
#
# 1 28.7187 6.7217 16.0558 -0.2940 -5.4400 9.0809
# 2 6.7217 116.4506 40.4906 -4.8817 -9.4915 -7.1403
# 3 16.0558 40.4906 112.0883 2.3152 -16.0937 0.6989
# 4 -0.2940 -4.8817 2.3152 30.5347 3.5156 -3.3293
# 5 -5.4400 -9.4915 -16.0937 3.5156 29.9031 -2.1241
# 6 9.0809 -7.1403 0.6989 -3.3293 -2.1241 27.5380
#
#
#
# Elastic Compliance Matrix: (Units=1/GPa)
#
#
# Indices 1 2 3 4 5 6 
#
# 1 0.043203 -0.001374 -0.005017 -0.001434 0.003873 -0.014350
# 2 -0.001374 0.010253 -0.003405 0.002136 0.001173 0.003547
# 3 -0.005017 -0.003405 0.011551 -0.001921 0.004491 0.000593
# 4 -0.001434 0.002136 -0.001921 0.034250 -0.004297 0.004885
# 5 0.003873 0.001173 0.004491 -0.004297 0.037532 0.001289
# 6 -0.014350 0.003547 0.000593 0.004885 0.001289 0.042640
#
#
# Mechanical properties :
#
#
# Convention : Reuss Voigt Hill
#
# Bulk Modulus (GPa) = 22.01860 42.64374 32.33117
# Shear Modulus (GPa) = 23.34703 30.52781 26.93742
#
# Velocity S-wave (km/s) = 3.64640 4.16962 3.91675
# Velocity P-wave (km/s) = 5.50163 6.88961 6.23437
#
# Compressibility (1/GPa) = 0.04541615
#
# Stress axis : x y z
#
# Youngs Moduli (GPa) = 23.14628 97.53136 86.57240
#
# Poissons Ratio (x) = 0.13397 0.43435
# Poissons Ratio (y) = 0.03179 0.29477
# Poissons Ratio (z) = 0.11613 0.33208
#
# Static dielectric constant tensor:
#      x y z
#    x 1.637300 -0.028980 -0.016850 
#    y -0.028980 1.609440 0.001290 
#    z -0.016850 0.001290 1.605840 
# 
# From -- ./inp_files/268036.got.cif
#   From: 2010.05.17/outbox.cif.g08.bks.cpg/sg2_135_cif.got.tgz:268036.got - 2010.06.03 11:33:40.
