data_PCOD9101221
_publ_section_title
;
Structure prediction by ZEFSAII (Michael W. Deem and Ramdas Pophale) SiO2 
 PCOD9101221
Probable space group: P -1
;
_chemical_formula_sum "Si O2"
_cell_formula_units_Z 14
_cell_length_a 8.498687
_cell_length_b 8.337246
_cell_length_c 19.751399
_cell_angle_alpha 130.648726
_cell_angle_beta 30.443644
_cell_angle_gamma 117.334409
_cell_volume 518.569595
_symmetry_space_group_name_H-M "P -1"
_symmetry_group_IT_number 2
_symmetry_cell_setting 'triclinic'
loop_
_space_group_symop_operation_xyz
x,y,z
-x,-y,-z
loop_
_atom_site_type_symbol
_atom_site_label
_atom_site_fract_x
_atom_site_fract_y
_atom_site_fract_z
Si Si1 0.277617 0.280566 0.638585
Si Si2 0.319834 0.312145 0.347483
Si Si3 0.371275 0.288254 0.130311
Si Si4 0.281184 0.327281 0.027357
Si Si5 0.096535 0.678525 0.964948
Si Si6 0.915808 0.773593 0.450756
Si Si7 0.995574 0.077373 0.313297
O O1 0.644918 0.229933 0.507454
O O2 0.072679 0.527392 0.779245
O O3 0.262541 0.187532 0.543820
O O4 0.089276 0.154002 0.722815
O O5 0.603425 0.358069 0.209563
O O6 0.000000 0.500000 0.500000
O O7 0.316639 0.282092 0.420740
O O8 0.243006 0.090526 0.285184
O O9 0.393656 0.201717 0.021301
O O10 0.722680 0.216188 0.015134
O O11 0.221431 0.555852 0.268053
O O12 0.112914 0.193281 0.239253
O O13 0.200868 0.247852 0.959952
O O14 0.500000 0.500000 0.000000
O O15 0.000000 0.500000 0.000000
O O16 0.000000 0.000000 0.500000
#
# Coordination Sequence:
#
# PCOD9101221 Si02
#       7
#     2   2   2   2   2   2   2
#     4  10  23  35  60  91 124 154 196 258 310 360
#     4  11  20  36  61  90 115 158 203 250 307 368
#     4  10  23  39  62  90 121 159 205 251 303 368
#     4  11  23  39  60  87 119 161 206 244 300 368
#     4  11  22  39  65  85 119 164 207 248 303 363
#     4  11  21  35  58  92 125 154 193 257 308 360
#     4  10  20  38  57  88 123 150 201 247 315 358
#
# _framework density 26.997339
#
# number of rings (size 3 to 8) (size 9 to 14) (size 15 to 20)
#    0.000    1.429    5.714    0.857    2.000    1.143 
#    0.000    0.714    0.000    4.286    0.000    0.000 
#    0.000    0.000    0.000    0.000    0.000    0.000 
#
# Total GULP energy -78065.861537 kJ/mol
# GULP energy per Si atom -5576.132967 kJ/mol
# Density = 2.693589 g / cm^3
# Si number density = 26.997339 Si / 1000 Ang^3
#
#
#
# Elastic Constant Matrix: (Units=GPa)
#
#
# Indices 1 2 3 4 5 6 
#
# 1 218.6477 49.3764 56.7965 -13.3454 2.5490 -0.2907
# 2 49.3764 124.3726 54.2781 -30.8910 1.1607 0.3143
# 3 56.7965 54.2781 112.2739 -37.1840 5.6310 -0.0172
# 4 -13.3454 -30.8910 -37.1840 67.1898 -2.7750 9.2485
# 5 2.5490 1.1607 5.6310 -2.7750 45.4890 -10.5865
# 6 -0.2907 0.3143 -0.0172 9.2485 -10.5865 36.2420
#
#
#
# Elastic Compliance Matrix: (Units=1/GPa)
#
#
# Indices 1 2 3 4 5 6 
#
# 1 0.005446 -0.001336 -0.002411 -0.000906 0.000041 0.000297
# 2 -0.001336 0.010867 -0.003655 0.002822 0.000247 -0.000755
# 3 -0.002411 -0.003655 0.013864 0.005709 -0.001582 -0.001900
# 4 -0.000906 0.002822 0.005709 0.019861 -0.000754 -0.005317
# 5 0.000041 0.000247 -0.001582 -0.000754 0.023786 0.007138
# 6 0.000297 -0.000755 -0.001900 -0.005317 0.007138 0.031042
#
#
# Mechanical properties :
#
#
# Convention : Reuss Voigt Hill
#
# Bulk Modulus (GPa) = 65.05905 86.24401 75.65153
# Shear Modulus (GPa) = 40.06590 49.44037 44.75313
#
# Velocity S-wave (km/s) = 3.85654 4.28402 4.07589
# Velocity P-wave (km/s) = 6.63183 7.51566 7.08754
#
# Compressibility (1/GPa) = 0.01537065
#
# Stress axis : x y z
#
# Youngs Moduli (GPa) = 183.61178 92.02594 72.13106
#
# Poissons Ratio (x) = 0.12295 0.17394
# Poissons Ratio (y) = 0.24531 0.26367
# Poissons Ratio (z) = 0.44276 0.33640
#
# Static dielectric constant tensor:
#      x y z
#    x 2.208070 0.041490 -0.025570 
#    y 0.041490 2.241390 0.089280 
#    z -0.025570 0.089280 2.152830 
# 
# From -- ./inp_files/192518.got.cif
#   From: 2010.05.17/outbox.cif.g08.bks.cpg/sg2_97_cif.got.tgz:192518.got - 2010.06.03 11:33:40.
