data_PCOD9101162
_publ_section_title
;
Structure prediction by ZEFSAII (Michael W. Deem and Ramdas Pophale) SiO2 
 PCOD9101162
Probable space group: P -1
;
_chemical_formula_sum "Si O2"
_cell_formula_units_Z 16
_cell_length_a 14.867180
_cell_length_b 8.170598
_cell_length_c 9.861627
_cell_angle_alpha 36.011372
_cell_angle_beta 65.655365
_cell_angle_gamma 77.027111
_cell_volume 628.276057
_symmetry_space_group_name_H-M "P -1"
_symmetry_group_IT_number 2
_symmetry_cell_setting 'triclinic'
loop_
_space_group_symop_operation_xyz
x,y,z
-x,-y,-z
loop_
_atom_site_type_symbol
_atom_site_label
_atom_site_fract_x
_atom_site_fract_y
_atom_site_fract_z
Si Si1 0.107579 0.125477 0.289833
Si Si2 0.556286 0.466509 0.126515
Si Si3 0.131016 0.562219 0.190998
Si Si4 0.289456 0.925472 0.359059
Si Si5 0.297779 0.950747 0.654807
Si Si6 0.453551 0.667534 0.297428
Si Si7 0.150340 0.269329 0.613729
Si Si8 0.043521 0.229890 0.975710
O O1 0.159519 0.299099 0.270171
O O2 0.090567 0.293632 0.051620
O O3 0.183231 0.916749 0.358450
O O4 0.000000 0.000000 0.500000
O O5 0.641429 0.753166 0.908008
O O6 0.500000 0.500000 0.000000
O O7 0.605273 0.186361 0.282149
O O8 0.473244 0.476434 0.286547
O O9 0.133486 0.551068 0.357205
O O10 0.213403 0.806069 0.911386
O O11 0.022509 0.572345 0.189219
O O12 0.278226 0.863340 0.568304
O O13 0.346726 0.706722 0.395970
O O14 0.261363 0.249653 0.498593
O O15 0.500000 0.500000 0.500000
O O16 0.500000 0.000000 0.000000
O O17 0.130486 0.225092 0.815125
O O18 0.047446 0.050611 0.767060
#
# Coordination Sequence:
#
# PCOD9101162 Si02
#       8
#     2   2   2   2   2   2   2   2
#     4  12  21  39  63  94 127 175 224 263 321 402
#     4  11  24  43  71 101 129 175 224 287 358 416
#     4  11  20  38  62  85 126 171 218 264 325 392
#     4  11  23  43  69  98 138 173 226 285 335 419
#     4  11  20  39  68  87 126 169 211 272 343 398
#     4  10  22  44  72 103 137 181 229 291 359 417
#     4  10  20  38  56  88 126 165 217 265 329 389
#     4  10  22  34  57  87 124 171 214 274 315 383
#
# _framework density 25.466512999999999
#
# number of rings (size 3 to 8) (size 9 to 14) (size 15 to 20)
#    0.000    1.250    5.000    1.500    0.000    1.500 
#    0.000    0.000   13.750    0.000    0.000    0.000 
#    0.000    0.000    0.000    0.000    0.000    0.000 
#
# Total GULP energy -89173.367130 kJ/mol
# GULP energy per Si atom -5573.335446 kJ/mol
# Density = 2.540855 g / cm^3
# Si number density = 25.466513 Si / 1000 Ang^3
#
#
#
# Elastic Constant Matrix: (Units=GPa)
#
#
# Indices 1 2 3 4 5 6 
#
# 1 141.0566 60.3545 51.9409 8.8269 21.4406 -48.2423
# 2 60.3545 135.7321 48.1661 35.8019 16.4161 -51.8732
# 3 51.9409 48.1661 108.7785 30.5725 35.1160 -7.3561
# 4 8.8269 35.8019 30.5725 55.1244 5.0944 1.9392
# 5 21.4406 16.4161 35.1160 5.0944 49.9047 -6.9544
# 6 -48.2423 -51.8732 -7.3561 1.9392 -6.9544 54.8995
#
#
#
# Elastic Compliance Matrix: (Units=1/GPa)
#
#
# Indices 1 2 3 4 5 6 
#
# 1 0.012609 0.000272 -0.005498 0.000502 -0.000218 0.010555
# 2 0.000272 0.017706 -0.004177 -0.009849 0.000344 0.016801
# 3 -0.005498 -0.004177 0.017519 -0.005021 -0.009111 -0.007407
# 4 0.000502 -0.009849 -0.005021 0.027385 0.002339 -0.010209
# 5 -0.000218 0.000344 -0.009111 0.002339 0.026496 0.002187
# 6 0.010555 0.016801 -0.007407 -0.010209 0.002187 0.043010
#
#
# Mechanical properties :
#
#
# Convention : Reuss Voigt Hill
#
# Bulk Modulus (GPa) = 34.44905 78.49891 56.47398
# Shear Modulus (GPa) = 28.86733 46.99278 37.93005
#
# Velocity S-wave (km/s) = 3.37046 4.30033 3.86347
# Velocity P-wave (km/s) = 5.35754 7.45308 6.49044
#
# Compressibility (1/GPa) = 0.02902838
#
# Stress axis : x y z
#
# Youngs Moduli (GPa) = 79.30710 56.47908 57.08033
#
# Poissons Ratio (x) = -0.01537 0.31384
# Poissons Ratio (y) = -0.02158 0.23841
# Poissons Ratio (z) = 0.43605 0.23590
#
# Static dielectric constant tensor:
#      x y z
#    x 2.198220 -0.444690 0.265780 
#    y -0.444690 3.180200 -0.890880 
#    z 0.265780 -0.890880 2.609560 
# 
# From -- ./inp_files/297236.got.cif
#   From: 2010.05.17/outbox.cif.g08.bks.cpg/sg2_149_cif.got.tgz:297236.got - 2010.06.03 11:33:40.
