data_PCOD9101984
_publ_section_title
;
Structure prediction by ZEFSAII (Michael W. Deem and Ramdas Pophale) SiO2 
 PCOD9101984
Probable space group: P -1
;
_chemical_formula_sum "Si O2"
_cell_formula_units_Z 12
_cell_length_a 9.738473
_cell_length_b 8.254662
_cell_length_c 10.112288
_cell_angle_alpha 101.024313
_cell_angle_beta 94.925308
_cell_angle_gamma 43.639899
_cell_volume 548.993708
_symmetry_space_group_name_H-M "P -1"
_symmetry_group_IT_number 2
_symmetry_cell_setting 'triclinic'
loop_
_space_group_symop_operation_xyz
x,y,z
-x,-y,-z
loop_
_atom_site_type_symbol
_atom_site_label
_atom_site_fract_x
_atom_site_fract_y
_atom_site_fract_z
Si Si1 0.010151 0.456446 0.339074
Si Si2 0.392808 0.058819 0.640013
Si Si3 0.638586 0.280108 0.377574
Si Si4 0.718646 0.386025 0.975497
Si Si5 0.346009 0.332379 0.199173
Si Si6 0.990808 0.116687 0.216682
O O1 0.781770 0.662583 0.306972
O O2 0.088609 0.206210 0.276065
O O3 0.000000 0.500000 0.500000
O O4 0.138348 0.485014 0.281147
O O5 0.500000 0.000000 0.500000
O O6 0.306056 0.948488 0.598087
O O7 0.527921 0.924589 0.761816
O O8 0.500000 0.500000 0.500000
O O9 0.485739 0.364336 0.260076
O O10 0.835757 0.198377 0.330776
O O11 0.696685 0.588865 0.943361
O O12 0.846012 0.163379 0.847696
O O13 0.500000 0.500000 0.000000
O O14 0.853325 0.262188 0.098305
#
# Coordination Sequence:
#
# PCOD9101984 Si02
#       6
#     2   2   2   2   2   2
#     4  12  23  42  65 100 140 173 215 276 345 405
#     4  10  20  38  61  89 136 170 212 269 328 401
#     4  10  20  40  65  97 131 172 221 274 330 394
#     4  11  23  48  70  94 134 177 238 279 318 395
#     4  10  23  39  65  93 129 176 217 271 336 388
#     4  11  25  42  72  99 131 181 227 275 333 399
#
# _framework density 21.858174000000002
#
# number of rings (size 3 to 8) (size 9 to 14) (size 15 to 20)
#    1.000    0.333    3.333    3.000    0.000    3.333 
#    0.000    5.000    0.000    0.000    0.000    0.000 
#    0.000    0.000    0.000    0.000    0.000    0.000 
#
# Total GULP energy -66877.095726 kJ/mol
# GULP energy per Si atom -5573.091310 kJ/mol
# Density = 2.180842 g / cm^3
# Si number density = 21.858174 Si / 1000 Ang^3
#
#
#
# Elastic Constant Matrix: (Units=GPa)
#
#
# Indices 1 2 3 4 5 6 
#
# 1 74.5551 14.6483 24.2413 2.9727 -25.8423 -3.7827
# 2 14.6483 88.1301 35.9713 -2.8487 -5.4401 -10.1147
# 3 24.2413 35.9713 87.2545 -14.0671 -31.4074 -1.0204
# 4 2.9727 -2.8487 -14.0671 46.8371 2.8072 0.3040
# 5 -25.8423 -5.4401 -31.4074 2.8072 40.1976 3.2953
# 6 -3.7827 -10.1147 -1.0204 0.3040 3.2953 35.7384
#
#
#
# Elastic Compliance Matrix: (Units=1/GPa)
#
#
# Indices 1 2 3 4 5 6 
#
# 1 0.017881 -0.002138 -0.000472 -0.002065 0.010959 0.000281
# 2 -0.002138 0.014969 -0.007722 -0.000961 -0.005669 0.004321
# 3 -0.000472 -0.007722 0.020897 0.004964 0.014883 -0.003053
# 4 -0.002065 -0.000961 0.004964 0.022866 0.000875 -0.000624
# 5 0.010959 -0.005669 0.014883 0.000875 0.043050 -0.003997
# 6 0.000281 0.004321 -0.003053 -0.000624 -0.003997 0.029520
#
#
# Mechanical properties :
#
#
# Convention : Reuss Voigt Hill
#
# Bulk Modulus (GPa) = 30.22558 44.40684 37.31621
# Shear Modulus (GPa) = 27.64345 36.22654 31.93499
#
# Velocity S-wave (km/s) = 3.56008 4.07547 3.82646
# Velocity P-wave (km/s) = 5.54590 6.51966 6.05239
#
# Compressibility (1/GPa) = 0.03308456
#
# Stress axis : x y z
#
# Youngs Moduli (GPa) = 55.92374 66.80490 47.85386
#
# Poissons Ratio (x) = 0.14281 0.02256
# Poissons Ratio (y) = 0.11955 0.36954
# Poissons Ratio (z) = 0.02637 0.51588
#
# Static dielectric constant tensor:
#      x y z
#    x 1.795380 -0.007400 0.049230 
#    y -0.007400 1.910190 -0.017510 
#    z 0.049230 -0.017510 1.842100 
# 
# From -- ./inp_files/376061.got.cif
#   From: 2010.05.17/outbox.cif.g08.bks.cpg/sg2_189_cif.got.tgz:376061.got - 2010.06.03 11:33:40.
