data_PCOD9101476
_publ_section_title
;
Structure prediction by ZEFSAII (Michael W. Deem and Ramdas Pophale) SiO2 
 PCOD9101476
Probable space group: P -1
;
_chemical_formula_sum "Si O2"
_cell_formula_units_Z 16
_cell_length_a 5.391813
_cell_length_b 12.174820
_cell_length_c 11.764399
_cell_angle_alpha 112.670472
_cell_angle_beta 59.047754
_cell_angle_gamma 83.388357
_cell_volume 561.160997
_symmetry_space_group_name_H-M "P -1"
_symmetry_group_IT_number 2
_symmetry_cell_setting 'triclinic'
loop_
_space_group_symop_operation_xyz
x,y,z
-x,-y,-z
loop_
_atom_site_type_symbol
_atom_site_label
_atom_site_fract_x
_atom_site_fract_y
_atom_site_fract_z
Si Si1 0.774828 0.122698 0.994543
Si Si2 0.278162 0.391052 0.148717
Si Si3 0.569108 0.205490 0.309148
Si Si4 0.755444 0.736531 0.114984
Si Si5 0.898559 0.026179 0.698754
Si Si6 0.149504 0.166366 0.552251
Si Si7 0.900872 0.365807 0.408752
Si Si8 0.539087 0.403312 0.734396
O O1 0.447293 0.240254 0.084410
O O2 0.726500 0.102548 0.130511
O O3 0.847685 0.012014 0.838303
O O4 0.008957 0.194118 0.940364
O O5 0.001581 0.452449 0.331239
O O6 0.515482 0.462038 0.136819
O O7 0.184912 0.377191 0.037767
O O8 0.484416 0.160594 0.431416
O O9 0.223077 0.293286 0.375301
O O10 0.780863 0.283322 0.318613
O O11 0.420955 0.856389 0.220668
O O12 0.701004 0.666670 0.214392
O O13 0.150166 0.087184 0.632959
O O14 0.941294 0.906851 0.560949
O O15 0.866194 0.305760 0.677253
O O16 0.627914 0.417282 0.588411
#
# Coordination Sequence:
#
# PCOD9101476 Si02
#       8
#     2   2   2   2   2   2   2   2
#     4  10  21  37  60  87 118 162 199 252 304 367
#     4  10  20  39  59  85 124 158 201 249 307 365
#     4  10  21  40  64  88 127 160 207 256 302 368
#     4  10  20  38  59  88 118 157 207 248 307 364
#     4   9  20  40  63  83 120 158 203 255 310 354
#     4   9  20  41  60  89 118 158 207 253 303 366
#     4  10  21  40  61  91 124 164 205 252 307 366
#     4  10  21  37  61  88 120 161 201 254 303 366
#
# _framework density 28.512316999999999
#
# number of rings (size 3 to 8) (size 9 to 14) (size 15 to 20)
#    0.000    2.250    1.250    0.750    1.750    1.000 
#    9.000    6.250    0.000    0.000    0.000    0.000 
#    0.000    0.000    0.000    0.000    0.000    0.000 
#
# Total GULP energy -89563.756279 kJ/mol
# GULP energy per Si atom -5597.734767 kJ/mol
# Density = 2.844742 g / cm^3
# Si number density = 28.512317 Si / 1000 Ang^3
#
#
#
# Elastic Constant Matrix: (Units=GPa)
#
#
# Indices 1 2 3 4 5 6 
#
# 1 102.7764 22.0649 12.3958 -14.3230 -10.3312 2.6240
# 2 22.0649 72.0764 11.0119 -7.4734 -13.6357 7.0674
# 3 12.3958 11.0119 108.7152 -26.5286 11.6310 -7.8500
# 4 -14.3230 -7.4734 -26.5286 44.2051 11.6404 -12.1589
# 5 -10.3312 -13.6357 11.6310 11.6404 40.0729 -7.2967
# 6 2.6240 7.0674 -7.8500 -12.1589 -7.2967 48.3839
#
#
#
# Elastic Compliance Matrix: (Units=1/GPa)
#
#
# Indices 1 2 3 4 5 6 
#
# 1 0.010863 -0.002802 -0.000412 0.002620 0.001317 0.000610
# 2 -0.002802 0.016217 -0.002520 -0.001774 0.005638 -0.002221
# 3 -0.000412 -0.002520 0.013025 0.010198 -0.006976 0.004015
# 4 0.002620 -0.001774 0.010198 0.034699 -0.011369 0.008777
# 5 0.001317 0.005638 -0.006976 -0.011369 0.032544 0.000024
# 6 0.000610 -0.002221 0.004015 0.008777 0.000024 0.023820
#
#
# Mechanical properties :
#
#
# Convention : Reuss Voigt Hill
#
# Bulk Modulus (GPa) = 34.91826 41.61260 38.26543
# Shear Modulus (GPa) = 32.85533 42.40540 37.63037
#
# Velocity S-wave (km/s) = 3.39827 3.86069 3.63684
# Velocity P-wave (km/s) = 5.26032 5.87363 5.57541
#
# Compressibility (1/GPa) = 0.02863831
#
# Stress axis : x y z
#
# Youngs Moduli (GPa) = 92.05598 61.66257 76.77321
#
# Poissons Ratio (x) = 0.17275 0.03167
# Poissons Ratio (y) = 0.25790 0.19344
# Poissons Ratio (z) = 0.03797 0.15537
#
# Static dielectric constant tensor:
#      x y z
#    x 2.175870 -0.022800 -0.037200 
#    y -0.022800 2.241840 -0.039870 
#    z -0.037200 -0.039870 2.271520 
# 
# From -- ./inp_files/69368.got.cif
#   From: 2010.05.17/outbox.cif.g08.bks.cpg/sg2_35_cif.got.tgz:69368.got - 2010.06.03 11:33:40.
