data_PCOD9101151
_publ_section_title
;
Structure prediction by ZEFSAII (Michael W. Deem and Ramdas Pophale) SiO2 
 PCOD9101151
Probable space group: P -1
;
_chemical_formula_sum "Si O2"
_cell_formula_units_Z 13
_cell_length_a 15.991799
_cell_length_b 8.613040
_cell_length_c 7.482399
_cell_angle_alpha 70.483627
_cell_angle_beta 101.375815
_cell_angle_gamma 147.519598
_cell_volume 514.317807
_symmetry_space_group_name_H-M "P -1"
_symmetry_group_IT_number 2
_symmetry_cell_setting 'triclinic'
loop_
_space_group_symop_operation_xyz
x,y,z
-x,-y,-z
loop_
_atom_site_type_symbol
_atom_site_label
_atom_site_fract_x
_atom_site_fract_y
_atom_site_fract_z
Si Si1 0.563757 0.019156 0.845683
Si Si2 0.086658 0.162099 0.248260
Si Si3 0.771502 0.169015 0.491368
Si Si4 0.500000 0.000000 0.500000
Si Si5 0.323372 0.144759 0.067597
Si Si6 0.237830 0.352895 0.871365
Si Si7 0.038422 0.779177 0.596233
O O1 0.628853 0.239223 0.633970
O O2 0.660046 0.013524 0.935764
O O3 0.412266 0.712899 0.762942
O O4 0.500000 0.000000 0.000000
O O5 0.059793 0.304058 0.249807
O O6 0.914934 0.832274 0.221938
O O7 0.120295 0.077822 0.440911
O O8 0.210734 0.352829 0.067259
O O9 0.836781 0.167014 0.354047
O O10 0.915486 0.507810 0.504284
O O11 0.621225 0.040576 0.455413
O O12 0.733176 0.974385 0.707740
O O13 0.500000 0.500000 0.000000
O O14 0.233288 0.147544 0.935124
#
# Coordination Sequence:
#
# PCOD9101151 Si02
#       7
#     2   2   2   1   2   2   2
#     4  10  22  38  62  87 117 161 202 255 305 360
#     4  10  21  36  60  85 118 161 195 248 301 369
#     4  10  20  38  61  88 122 156 201 258 300 364
#     4  10  22  38  60  88 120 154 202 254 300 356
#     4   9  19  37  57  80 119 159 190 246 308 359
#     4  10  20  38  56  85 120 154 201 244 302 366
#     4  10  21  37  61  88 119 159 200 250 311 360
#
# _framework density 25.276198999999998
#
# number of rings (size 3 to 8) (size 9 to 14) (size 15 to 20)
#    0.000    2.154    1.538    0.923    4.308    1.231 
#    0.000    0.769    0.000    9.231    0.000    0.000 
#    0.000    0.000    0.000    0.000    0.000    0.000 
#
# Total GULP energy -72383.177000 kJ/mol
# GULP energy per Si atom -5567.936692 kJ/mol
# Density = 2.521867 g / cm^3
# Si number density = 25.276199 Si / 1000 Ang^3
#
#
#
# Elastic Constant Matrix: (Units=GPa)
#
#
# Indices 1 2 3 4 5 6 
#
# 1 208.4054 22.1946 37.2381 0.8309 -17.6444 -4.6514
# 2 22.1946 95.5703 14.0242 -28.5619 6.0842 1.8655
# 3 37.2381 14.0242 63.3747 -3.9638 -1.5132 -11.7281
# 4 0.8309 -28.5619 -3.9638 31.1814 -6.8833 -2.6497
# 5 -17.6444 6.0842 -1.5132 -6.8833 58.5129 11.2151
# 6 -4.6514 1.8655 -11.7281 -2.6497 11.2151 37.4312
#
#
#
# Elastic Compliance Matrix: (Units=1/GPa)
#
#
# Indices 1 2 3 4 5 6 
#
# 1 0.005659 -0.001389 -0.003233 -0.001521 0.001756 -0.000874
# 2 -0.001389 0.015127 -0.001769 0.013553 -0.000364 -0.000412
# 3 -0.003233 -0.001769 0.019258 0.001144 -0.001348 0.006205
# 4 -0.001521 0.013553 0.001144 0.045523 0.003179 0.001764
# 5 0.001756 -0.000364 -0.001348 0.003179 0.019085 -0.005679
# 6 -0.000874 -0.000412 0.006205 0.001764 -0.005679 0.030398
#
#
# Mechanical properties :
#
#
# Convention : Reuss Voigt Hill
#
# Bulk Modulus (GPa) = 36.67935 57.14047 46.90991
# Shear Modulus (GPa) = 31.86347 45.01798 38.44073
#
# Velocity S-wave (km/s) = 3.55436 4.22482 3.90401
# Velocity P-wave (km/s) = 5.60246 6.81574 6.23866
#
# Compressibility (1/GPa) = 0.02726330
#
# Stress axis : x y z
#
# Youngs Moduli (GPa) = 176.70541 66.10529 51.92701
#
# Poissons Ratio (x) = 0.09183 0.16787
# Poissons Ratio (y) = 0.24546 0.09184
# Poissons Ratio (z) = 0.57126 0.11691
#
# Static dielectric constant tensor:
#      x y z
#    x 2.046390 0.035500 0.015630 
#    y 0.035500 2.259580 -0.126450 
#    z 0.015630 -0.126450 2.419980 
# 
# From -- ./inp_files/161550.got.cif
#   From: 2010.05.17/outbox.cif.g08.bks.cpg/sg2_81_cif.got.tgz:161550.got - 2010.06.03 11:33:40.
