data_PCOD9101588
_publ_section_title
;
Structure prediction by ZEFSAII (Michael W. Deem and Ramdas Pophale) SiO2 
 PCOD9101588
Probable space group: P -1
;
_chemical_formula_sum "Si O2"
_cell_formula_units_Z 16
_cell_length_a 9.010826
_cell_length_b 14.717031
_cell_length_c 20.097444
_cell_angle_alpha 18.837004
_cell_angle_beta 67.514041
_cell_angle_gamma 74.048393
_cell_volume 760.420194
_symmetry_space_group_name_H-M "P -1"
_symmetry_group_IT_number 2
_symmetry_cell_setting 'triclinic'
loop_
_space_group_symop_operation_xyz
x,y,z
-x,-y,-z
loop_
_atom_site_type_symbol
_atom_site_label
_atom_site_fract_x
_atom_site_fract_y
_atom_site_fract_z
Si Si1 0.080165 0.684214 0.773691
Si Si2 0.159522 0.898777 0.756037
Si Si3 0.628434 0.807662 0.123728
Si Si4 0.503129 0.876723 0.378231
Si Si5 0.179722 0.943635 0.439574
Si Si6 0.305310 0.034158 0.846010
Si Si7 0.014413 0.770148 0.260220
Si Si8 0.076856 0.469104 0.327142
O O1 0.170420 0.770731 0.768843
O O2 0.189140 0.838879 0.585843
O O3 0.918304 0.811285 0.714375
O O4 0.001332 0.336216 0.021376
O O5 0.326496 0.951472 0.732992
O O6 0.123643 0.207845 0.537524
O O7 0.556312 0.467327 0.351242
O O8 0.653645 0.812270 0.196063
O O9 0.500000 0.000000 0.000000
O O10 0.806629 0.978425 0.940834
O O11 0.358463 0.022249 0.320006
O O12 0.543658 0.887659 0.285543
O O13 0.060656 0.672951 0.605771
O O14 0.147209 0.115363 0.784207
O O15 0.238386 0.687796 0.113330
O O16 0.011846 0.651501 0.267201
O O17 0.000000 0.500000 0.500000
#
# Coordination Sequence:
#
# PCOD9101588 Si02
#       8
#     2   2   2   2   2   2   2   2
#     4   9  21  43  62  82 112 152 191 248 304 359
#     4  10  21  39  62  86 116 147 194 245 301 359
#     4  11  23  39  58  89 127 158 198 246 289 333
#     4  12  23  36  59  90 117 152 195 245 294 347
#     4  10  21  38  63  86 112 147 197 245 301 357
#     4  11  22  39  58  83 126 163 196 236 287 348
#     4  11  22  38  62  87 122 166 201 235 285 347
#     4  10  20  38  60  84 112 160 203 231 280 358
#
# _framework density 21.040998999999999
#
# number of rings (size 3 to 8) (size 9 to 14) (size 15 to 20)
#    0.000    1.500    0.000    7.125    0.000    3.000 
#    0.000    6.250    0.000    0.000    0.000    0.000 
#    0.000    0.000    0.000    0.000    0.000    0.000 
#
# Total GULP energy -89476.409478 kJ/mol
# GULP energy per Si atom -5592.275592 kJ/mol
# Density = 2.099311 g / cm^3
# Si number density = 21.040999 Si / 1000 Ang^3
#
#
#
# Elastic Constant Matrix: (Units=GPa)
#
#
# Indices 1 2 3 4 5 6 
#
# 1 43.7185 15.7423 4.9625 5.2236 -4.0437 -0.2918
# 2 15.7423 56.6176 21.7867 22.9996 -5.8846 -11.0227
# 3 4.9625 21.7867 92.7695 6.8640 12.0002 -6.6109
# 4 5.2236 22.9996 6.8640 35.9310 3.1959 -3.6049
# 5 -4.0437 -5.8846 12.0002 3.1959 25.8237 -1.1034
# 6 -0.2918 -11.0227 -6.6109 -3.6049 -1.1034 37.6919
#
#
#
# Elastic Compliance Matrix: (Units=1/GPa)
#
#
# Indices 1 2 3 4 5 6 
#
# 1 0.025704 -0.007563 -0.000067 0.000735 0.002161 -0.001891
# 2 -0.007563 0.032718 -0.006963 -0.018907 0.012139 0.006835
# 3 -0.000067 -0.006963 0.013289 0.002680 -0.008091 0.000313
# 4 0.000735 -0.018907 0.002680 0.040093 -0.010465 -0.001525
# 5 0.002161 0.012139 -0.008091 -0.010465 0.046991 0.002522
# 6 -0.001891 0.006835 0.000313 -0.001525 0.002522 0.028498
#
#
# Mechanical properties :
#
#
# Convention : Reuss Voigt Hill
#
# Bulk Modulus (GPa) = 23.51687 30.89873 27.20780
# Shear Modulus (GPa) = 21.67739 29.93028 25.80383
#
# Velocity S-wave (km/s) = 3.21323 3.77566 3.50574
# Velocity P-wave (km/s) = 4.99674 5.80727 5.41718
#
# Compressibility (1/GPa) = 0.04252267
#
# Stress axis : x y z
#
# Youngs Moduli (GPa) = 38.90434 30.56452 75.25016
#
# Poissons Ratio (x) = 0.23117 0.00508
# Poissons Ratio (y) = 0.29424 0.52399
# Poissons Ratio (z) = 0.00262 0.21283
#
# Static dielectric constant tensor:
#      x y z
#    x 1.741600 0.004400 0.002870 
#    y 0.004400 1.758450 -0.003880 
#    z 0.002870 -0.003880 1.765030 
# 
# From -- ./inp_files/187284.got.cif
#   From: 2010.05.17/outbox.cif.g08.bks.cpg/sg2_94_cif.got.tgz:187284.got - 2010.06.03 11:33:40.
