data_PCOD9101134
_publ_section_title
;
Structure prediction by ZEFSAII (Michael W. Deem and Ramdas Pophale) SiO2 
 PCOD9101134
Probable space group: P -1
;
_chemical_formula_sum "Si O2"
_cell_formula_units_Z 16
_cell_length_a 7.235644
_cell_length_b 9.935400
_cell_length_c 13.423493
_cell_angle_alpha 60.459444
_cell_angle_beta 92.226492
_cell_angle_gamma 126.830663
_cell_volume 624.665823
_symmetry_space_group_name_H-M "P -1"
_symmetry_group_IT_number 2
_symmetry_cell_setting 'triclinic'
loop_
_space_group_symop_operation_xyz
x,y,z
-x,-y,-z
loop_
_atom_site_type_symbol
_atom_site_label
_atom_site_fract_x
_atom_site_fract_y
_atom_site_fract_z
Si Si1 0.060308 0.863692 0.006666
Si Si2 0.062847 0.301275 0.738980
Si Si3 0.413447 0.132950 0.206188
Si Si4 0.156485 0.957886 0.462148
Si Si5 0.739438 0.519399 0.511910
Si Si6 0.188613 0.465266 0.042591
Si Si7 0.830710 0.138065 0.291295
Si Si8 0.623196 0.819800 0.245279
O O1 0.886978 0.716075 0.966288
O O2 0.013305 0.708626 0.146190
O O3 0.000000 0.000000 0.000000
O O4 0.326828 0.033788 0.896890
O O5 0.171324 0.482492 0.595213
O O6 0.281882 0.293387 0.749934
O O7 0.821629 0.078294 0.772841
O O8 0.543695 0.325524 0.063015
O O9 0.626749 0.128040 0.235611
O O10 0.329929 0.130799 0.318075
O O11 0.253529 0.922519 0.574770
O O12 0.966223 0.738973 0.482507
O O13 0.000000 0.000000 0.500000
O O14 0.500000 0.500000 0.500000
O O15 0.646046 0.341111 0.653377
O O16 0.000000 0.500000 0.000000
O O17 0.102589 0.359350 0.189199
O O18 0.796494 0.960288 0.293045
#
# Coordination Sequence:
#
# PCOD9101134 Si02
#       8
#     2   2   2   2   2   2   2   2
#     4   9  18  33  55  81 108 144 192 237 280 334
#     4   9  18  34  53  80 109 142 188 235 284 337
#     4  10  21  37  56  81 115 152 189 236 285 341
#     4  11  22  36  57  84 111 146 190 235 288 344
#     4   9  18  33  52  76 105 137 177 224 277 330
#     4   9  20  38  57  80 116 156 191 233 288 343
#     4  10  20  38  56  79 112 149 190 234 283 343
#     4   9  18  35  54  75 109 144 181 236 284 328
#
# _framework density 25.613696999999998
#
# number of rings (size 3 to 8) (size 9 to 14) (size 15 to 20)
#    0.000    2.500    0.000    2.625    0.000    5.000 
#    0.000   19.375    0.000    0.000    0.000    0.000 
#    0.000    0.000    0.000    0.000    0.000    0.000 
#
# Total GULP energy -89283.604570 kJ/mol
# GULP energy per Si atom -5580.225286 kJ/mol
# Density = 2.555540 g / cm^3
# Si number density = 25.613697 Si / 1000 Ang^3
#
#
#
# Elastic Constant Matrix: (Units=GPa)
#
#
# Indices 1 2 3 4 5 6 
#
# 1 66.5885 9.0137 26.0890 0.0819 -5.5677 -8.5311
# 2 9.0137 16.7620 -4.7087 -1.1606 -8.9688 -8.8910
# 3 26.0890 -4.7087 211.5801 -7.7199 -59.5348 4.1810
# 4 0.0819 -1.1606 -7.7199 42.0144 2.0629 -1.4961
# 5 -5.5677 -8.9688 -59.5348 2.0629 34.0175 -0.3734
# 6 -8.5311 -8.8910 4.1810 -1.4961 -0.3734 18.1250
#
#
#
# Elastic Compliance Matrix: (Units=1/GPa)
#
#
# Indices 1 2 3 4 5 6 
#
# 1 0.019146 -0.018775 -0.006554 -0.001078 -0.013211 0.000953
# 2 -0.018775 0.170419 0.033267 0.008418 0.100337 0.069848
# 3 -0.006554 0.033267 0.016386 0.002529 0.036336 0.010412
# 4 -0.001078 0.008418 0.002529 0.024437 0.005044 0.005160
# 5 -0.013211 0.100337 0.036336 0.005044 0.117386 0.037453
# 6 0.000953 0.069848 0.010412 0.005160 0.037453 0.088679
#
#
# Mechanical properties :
#
#
# Convention : Reuss Voigt Hill
#
# Bulk Modulus (GPa) = 4.50801 39.52429 22.01615
# Shear Modulus (GPa) = 10.11086 36.46716 23.28901
#
# Velocity S-wave (km/s) = 1.98897 3.77734 3.01863
# Velocity P-wave (km/s) = 2.65302 5.87272 4.55671
#
# Compressibility (1/GPa) = 0.22182715
#
# Stress axis : x y z
#
# Youngs Moduli (GPa) = 52.23126 5.86791 61.02856
#
# Poissons Ratio (x) = 0.11017 0.39999
# Poissons Ratio (y) = 0.98063 -2.03026
# Poissons Ratio (z) = 0.34233 -0.19521
#
# Static dielectric constant tensor:
#      x y z
#    x 2.121020 0.003940 0.047340 
#    y 0.003940 2.004020 0.024020 
#    z 0.047340 0.024020 2.237770 
# 
# From -- ./inp_files/305949.got.cif
#   From: 2010.05.17/outbox.cif.g08.bks.cpg/sg2_153_cif.got.tgz:305949.got - 2010.06.03 11:33:40.
