data_PCOD9101184
_publ_section_title
;
Structure prediction by ZEFSAII (Michael W. Deem and Ramdas Pophale) SiO2 
 PCOD9101184
Probable space group: P -1
;
_chemical_formula_sum "Si O2"
_cell_formula_units_Z 14
_cell_length_a 11.785288
_cell_length_b 5.326303
_cell_length_c 15.891579
_cell_angle_alpha 90.872959
_cell_angle_beta 53.025928
_cell_angle_gamma 114.603065
_cell_volume 685.570121
_symmetry_space_group_name_H-M "P -1"
_symmetry_group_IT_number 2
_symmetry_cell_setting 'triclinic'
loop_
_space_group_symop_operation_xyz
x,y,z
-x,-y,-z
loop_
_atom_site_type_symbol
_atom_site_label
_atom_site_fract_x
_atom_site_fract_y
_atom_site_fract_z
Si Si1 0.768394 0.284492 0.347990
Si Si2 0.588640 0.332079 0.995620
Si Si3 0.609990 0.634154 0.367826
Si Si4 0.358222 0.764590 0.407868
Si Si5 0.611534 0.872333 0.760719
Si Si6 0.874763 0.711715 0.601403
Si Si7 0.877130 0.433657 0.757161
O O1 0.689442 0.429815 0.325012
O O2 0.958159 0.536281 0.278666
O O3 0.742195 0.979135 0.323485
O O4 0.323923 0.806455 0.519983
O O5 0.771530 0.474702 0.877009
O O6 0.500000 0.500000 0.000000
O O7 0.551806 0.300977 0.111200
O O8 0.500000 0.000000 0.000000
O O9 0.500000 0.500000 0.500000
O O10 0.483122 0.641499 0.357854
O O11 0.182321 0.538176 0.443749
O O12 0.419486 0.021145 0.313702
O O13 0.706206 0.698861 0.702880
O O14 0.747362 0.149818 0.758725
O O15 0.946260 0.683457 0.656808
O O16 0.000000 0.000000 0.500000
#
# Coordination Sequence:
#
# PCOD9101184 Si02
#       7
#     2   2   2   2   2   2   2
#     4  11  23  37  59  83 116 150 190 236 282 333
#     4  10  20  38  57  81 114 150 194 227 276 343
#     4  10  23  38  57  81 112 156 195 228 276 337
#     4  10  22  36  54  84 115 150 191 230 280 347
#     4  10  21  35  57  83 115 152 186 232 288 337
#     4  11  21  31  56  84 121 147 176 229 294 342
#     4  10  22  36  55  86 115 149 188 236 285 338
#
# _framework density 20.420961999999999
#
# number of rings (size 3 to 8) (size 9 to 14) (size 15 to 20)
#    0.000    1.714    1.429    3.429   12.000    2.286 
#    0.000    0.000    0.000    1.714    0.000    0.000 
#    0.000    0.000    0.000    0.000    0.000    0.000 
#
# Total GULP energy -78058.021503 kJ/mol
# GULP energy per Si atom -5575.572965 kJ/mol
# Density = 2.037448 g / cm^3
# Si number density = 20.420962 Si / 1000 Ang^3
#
#
#
# Elastic Constant Matrix: (Units=GPa)
#
#
# Indices 1 2 3 4 5 6 
#
# 1 106.4026 14.0566 16.8641 -1.1318 -12.4605 -8.3617
# 2 14.0566 59.9772 12.6232 -1.5302 1.5510 -8.2390
# 3 16.8641 12.6232 89.0935 6.3645 -1.9745 1.6774
# 4 -1.1318 -1.5302 6.3645 21.8615 -3.6807 -1.6462
# 5 -12.4605 1.5510 -1.9745 -3.6807 21.0866 -3.4894
# 6 -8.3617 -8.2390 1.6774 -1.6462 -3.4894 32.4666
#
#
#
# Elastic Compliance Matrix: (Units=1/GPa)
#
#
# Indices 1 2 3 4 5 6 
#
# 1 0.011129 -0.001863 -0.001921 0.002534 0.007544 0.003432
# 2 -0.001863 0.018307 -0.002496 0.001953 -0.001642 0.004217
# 3 -0.001921 -0.002496 0.012257 -0.004144 -0.000869 -0.002065
# 4 0.002534 0.001953 -0.004144 0.049344 0.010403 0.004982
# 5 0.007544 -0.001642 -0.000869 0.010403 0.055063 0.008016
# 6 0.003432 0.004217 -0.002065 0.004982 0.008016 0.033976
#
#
# Mechanical properties :
#
#
# Convention : Reuss Voigt Hill
#
# Bulk Modulus (GPa) = 34.32656 38.06235 36.19445
# Shear Modulus (GPa) = 24.71009 29.21157 26.96083
#
# Velocity S-wave (km/s) = 3.48233 3.78626 3.63747
# Velocity P-wave (km/s) = 5.74585 6.14766 5.95015
#
# Compressibility (1/GPa) = 0.02913196
#
# Stress axis : x y z
#
# Youngs Moduli (GPa) = 89.85618 54.62502 81.58489
#
# Poissons Ratio (x) = 0.10176 0.15673
# Poissons Ratio (y) = 0.16739 0.20367
# Poissons Ratio (z) = 0.17262 0.13637
#
# Static dielectric constant tensor:
#      x y z
#    x 1.711510 0.000930 -0.010650 
#    y 0.000930 1.822030 -0.000310 
#    z -0.010650 -0.000310 1.727070 
# 
# From -- ./inp_files/364999.got.cif
#   From: 2010.05.17/outbox.cif.g08.bks.cpg/sg2_183_cif.got.tgz:364999.got - 2010.06.03 11:33:40.
