data_PCOD9101530
_publ_section_title
;
Structure prediction by ZEFSAII (Michael W. Deem and Ramdas Pophale) SiO2 
 PCOD9101530
Probable space group: P -1
;
_chemical_formula_sum "Si O2"
_cell_formula_units_Z 15
_cell_length_a 15.520086
_cell_length_b 7.979853
_cell_length_c 8.056465
_cell_angle_alpha 78.025845
_cell_angle_beta 135.999350
_cell_angle_gamma 120.476544
_cell_volume 576.353630
_symmetry_space_group_name_H-M "P -1"
_symmetry_group_IT_number 2
_symmetry_cell_setting 'triclinic'
loop_
_space_group_symop_operation_xyz
x,y,z
-x,-y,-z
loop_
_atom_site_type_symbol
_atom_site_label
_atom_site_fract_x
_atom_site_fract_y
_atom_site_fract_z
Si Si1 0.395792 0.425961 0.027033
Si Si2 0.458484 0.038263 0.753211
Si Si3 0.500000 0.000000 0.500000
Si Si4 0.239258 0.640888 0.883136
Si Si5 0.056862 0.182114 0.328537
Si Si6 0.028542 0.761861 0.437656
Si Si7 0.327299 0.314324 0.479639
Si Si8 0.750985 0.909191 0.895908
O O1 0.512331 0.492479 0.324159
O O2 0.273569 0.192689 0.935016
O O3 0.500000 0.500000 0.000000
O O4 0.320668 0.554977 0.908275
O O5 0.362230 0.139667 0.615292
O O6 0.413734 0.868568 0.590180
O O7 0.618706 0.197233 0.844045
O O8 0.500000 0.000000 0.000000
O O9 0.615050 0.928596 0.674428
O O10 0.173394 0.753330 0.667862
O O11 0.092776 0.440314 0.785283
O O12 0.211673 0.326783 0.431477
O O13 0.035631 0.251055 0.463948
O O14 0.050025 0.968235 0.359401
O O15 0.903472 0.116544 0.042913
O O16 0.256238 0.248253 0.214766
#
# Coordination Sequence:
#
# PCOD9101530 Si02
#       8
#     2   2   1   2   2   2   2   2
#     4  11  23  39  66  95 124 168 215 270 324 388
#     4  10  21  38  63  91 131 168 219 270 325 387
#     4  10  24  40  62  98 124 174 218 270 328 388
#     4  10  20  38  59  96 128 168 214 271 325 386
#     4  11  21  39  64  91 127 175 214 263 326 388
#     4  10  21  35  63  93 130 162 220 270 319 383
#     4  10  23  38  61  90 125 166 214 258 328 388
#     4  11  23  42  63  89 131 168 213 271 324 391
#
# _framework density 26.025687999999999
#
# number of rings (size 3 to 8) (size 9 to 14) (size 15 to 20)
#    0.000    1.600    1.333    3.200    5.600    0.000 
#    0.000    0.000    0.000    1.600    0.000    0.000 
#    0.000    0.000    0.000    0.000    0.000    0.000 
#
# Total GULP energy -83514.011676 kJ/mol
# GULP energy per Si atom -5567.600778 kJ/mol
# Density = 2.596645 g / cm^3
# Si number density = 26.025688 Si / 1000 Ang^3
#
#
#
# Elastic Constant Matrix: (Units=GPa)
#
#
# Indices 1 2 3 4 5 6 
#
# 1 109.5660 -0.8165 28.0102 -14.5372 19.8272 1.9945
# 2 -0.8165 61.4220 15.2764 -0.7865 16.1969 -3.3107
# 3 28.0102 15.2764 119.0929 -4.6005 45.2180 3.8917
# 4 -14.5372 -0.7865 -4.6005 47.8234 -1.5555 10.8303
# 5 19.8272 16.1969 45.2180 -1.5555 58.3653 -4.3465
# 6 1.9945 -3.3107 3.8917 10.8303 -4.3465 25.9201
#
#
#
# Elastic Compliance Matrix: (Units=1/GPa)
#
#
# Indices 1 2 3 4 5 6 
#
# 1 0.010519 0.001159 -0.001264 0.003554 -0.003004 -0.002460
# 2 0.001159 0.017794 -0.000881 0.000067 -0.004534 0.001528
# 3 -0.001264 -0.000881 0.012522 0.001420 -0.009291 -0.004047
# 4 0.003554 0.000067 0.001420 0.024576 -0.002503 -0.011166
# 5 -0.003004 -0.004534 -0.009291 -0.002503 0.027037 0.006626
# 6 -0.002460 0.001528 -0.004047 -0.011166 0.006626 0.045349
#
#
# Mechanical properties :
#
#
# Convention : Reuss Voigt Hill
#
# Bulk Modulus (GPa) = 25.73190 41.66900 33.70045
# Shear Modulus (GPa) = 32.73905 42.92915 37.83410
#
# Velocity S-wave (km/s) = 3.55061 4.06580 3.81691
# Velocity P-wave (km/s) = 5.16891 6.17142 5.69228
#
# Compressibility (1/GPa) = 0.03886228
#
# Stress axis : x y z
#
# Youngs Moduli (GPa) = 95.06808 56.19838 79.86044
#
# Poissons Ratio (x) = -0.06515 0.10098
# Poissons Ratio (y) = -0.11022 0.07037
# Poissons Ratio (z) = 0.12021 0.04952
#
# Static dielectric constant tensor:
#      x y z
#    x 2.051530 0.150160 -0.065530 
#    y 0.150160 2.023820 -0.045370 
#    z -0.065530 -0.045370 2.088430 
# 
# From -- ./inp_files/298435.got.cif
#   From: 2010.05.17/outbox.cif.g08.bks.cpg/sg2_150_cif.got.tgz:298435.got - 2010.06.03 11:33:40.
