data_PCOD9101480
_publ_section_title
;
Structure prediction by ZEFSAII (Michael W. Deem and Ramdas Pophale) SiO2 
 PCOD9101480
Probable space group: P -1
;
_chemical_formula_sum "Si O2"
_cell_formula_units_Z 16
_cell_length_a 24.175281
_cell_length_b 7.073604
_cell_length_c 12.618765
_cell_angle_alpha 65.979013
_cell_angle_beta 156.191978
_cell_angle_gamma 127.940554
_cell_volume 599.512420
_symmetry_space_group_name_H-M "P -1"
_symmetry_group_IT_number 2
_symmetry_cell_setting 'triclinic'
loop_
_space_group_symop_operation_xyz
x,y,z
-x,-y,-z
loop_
_atom_site_type_symbol
_atom_site_label
_atom_site_fract_x
_atom_site_fract_y
_atom_site_fract_z
Si Si1 0.940521 0.760243 0.744251
Si Si2 0.656594 0.695434 0.848155
Si Si3 0.296778 0.087177 0.414186
Si Si4 0.194942 0.545817 0.957733
Si Si5 0.773640 0.218049 0.254768
Si Si6 0.234268 0.342396 0.746589
Si Si7 0.768744 0.224232 0.811113
Si Si8 0.636120 0.753524 0.275743
O O1 0.917378 0.826303 0.569915
O O2 0.759785 0.669299 0.502594
O O3 0.018147 0.608534 0.883460
O O4 0.107262 0.989301 0.059671
O O5 0.461306 0.409718 0.605905
O O6 0.728895 0.593025 0.919161
O O7 0.775371 0.820255 0.134884
O O8 0.675186 0.931070 0.769666
O O9 0.291963 0.055993 0.537532
O O10 0.319486 0.891873 0.433860
O O11 0.263892 0.779709 0.936032
O O12 0.979294 0.347071 0.607122
O O13 0.240402 0.625585 0.143040
O O14 0.760074 0.426168 0.242001
O O15 0.654193 0.931285 0.170575
O O16 0.426362 0.504323 0.988069
#
# Coordination Sequence:
#
# PCOD9101480 Si02
#       8
#     2   2   2   2   2   2   2   2
#     4  10  21  37  57  85 120 154 198 248 289 349
#     4  10  21  38  65  88 121 162 191 245 313 339
#     4   9  22  40  58  86 123 158 199 247 286 368
#     4  10  21  38  60  95 121 149 202 250 291 367
#     4  10  20  38  59  88 122 154 191 252 309 343
#     4  10  21  38  57  90 121 146 206 252 286 362
#     4  10  21  38  63  85 125 154 200 244 293 357
#     4  11  21  37  64  81 118 163 197 242 309 343
#
# _framework density 26.688351999999998
#
# number of rings (size 3 to 8) (size 9 to 14) (size 15 to 20)
#    0.750    1.250    1.250    2.250    1.750    1.000 
#    0.000    2.500    0.000    0.000    0.000    0.000 
#    0.000    0.000    0.000    0.000    0.000    0.000 
#
# Total GULP energy -89412.156381 kJ/mol
# GULP energy per Si atom -5588.259774 kJ/mol
# Density = 2.662761 g / cm^3
# Si number density = 26.688352 Si / 1000 Ang^3
#
#
#
# Elastic Constant Matrix: (Units=GPa)
#
#
# Indices 1 2 3 4 5 6 
#
# 1 134.7878 40.8599 19.3773 8.4603 -15.7036 -7.7009
# 2 40.8599 83.1829 -4.2138 2.0780 1.6067 -18.2652
# 3 19.3773 -4.2138 94.1249 5.0518 -7.8724 -6.9218
# 4 8.4603 2.0780 5.0518 13.2640 -6.6879 -0.1357
# 5 -15.7036 1.6067 -7.8724 -6.6879 68.5718 -1.7565
# 6 -7.7009 -18.2652 -6.9218 -0.1357 -1.7565 47.2972
#
#
#
# Elastic Compliance Matrix: (Units=1/GPa)
#
#
# Indices 1 2 3 4 5 6 
#
# 1 0.009564 -0.004850 -0.001881 -0.003769 0.001707 -0.000539
# 2 -0.004850 0.015768 0.002052 -0.000691 -0.001170 0.005554
# 3 -0.001881 0.002052 0.011483 -0.003178 0.000585 0.002179
# 4 -0.003769 -0.000691 -0.003178 0.082543 0.006817 -0.000856
# 5 0.001707 -0.001170 0.000585 0.006817 0.015747 0.000516
# 6 -0.000539 0.005554 0.002179 -0.000856 0.000516 0.023536
#
#
# Mechanical properties :
#
#
# Convention : Reuss Voigt Hill
#
# Bulk Modulus (GPa) = 36.42039 47.12696 41.77368
# Shear Modulus (GPa) = 28.22443 42.89808 35.56125
#
# Velocity S-wave (km/s) = 3.25554 4.01355 3.65425
# Velocity P-wave (km/s) = 5.27329 6.25897 5.78715
#
# Compressibility (1/GPa) = 0.02745714
#
# Stress axis : x y z
#
# Youngs Moduli (GPa) = 104.55339 63.42078 87.08510
#
# Poissons Ratio (x) = 0.30762 0.16378
# Poissons Ratio (y) = 0.50713 -0.17871
# Poissons Ratio (z) = 0.19664 -0.13015
#
# Static dielectric constant tensor:
#      x y z
#    x 2.142190 0.003380 -0.004050 
#    y 0.003380 2.081130 -0.009740 
#    z -0.004050 -0.009740 2.110290 
# 
# From -- ./inp_files/469424.got.cif
#   From: 2010.05.17/outbox.cif.g08.bks.cpg/sg2_235_cif.got.tgz:469424.got - 2010.06.03 11:33:40.
