data_PCOD9101647
_publ_section_title
;
Structure prediction by ZEFSAII (Michael W. Deem and Ramdas Pophale) SiO2 
 PCOD9101647
Probable space group: P -1
;
_chemical_formula_sum "Si O2"
_cell_formula_units_Z 16
_cell_length_a 7.655335
_cell_length_b 18.429609
_cell_length_c 12.040052
_cell_angle_alpha 144.633159
_cell_angle_beta 71.605390
_cell_angle_gamma 82.595339
_cell_volume 663.365297
_symmetry_space_group_name_H-M "P -1"
_symmetry_group_IT_number 2
_symmetry_cell_setting 'triclinic'
loop_
_space_group_symop_operation_xyz
x,y,z
-x,-y,-z
loop_
_atom_site_type_symbol
_atom_site_label
_atom_site_fract_x
_atom_site_fract_y
_atom_site_fract_z
Si Si1 0.817276 0.479634 0.869389
Si Si2 0.789178 0.631758 0.845959
Si Si3 0.301878 0.269549 0.244238
Si Si4 0.535734 0.381923 0.688239
Si Si5 0.356198 0.033711 0.682135
Si Si6 0.438736 0.627964 0.575979
Si Si7 0.308100 0.095619 0.330046
Si Si8 0.028997 0.986368 0.775918
O O1 0.743936 0.619362 0.967801
O O2 0.668629 0.430731 0.789052
O O3 0.119836 0.297080 0.582138
O O4 0.707338 0.546955 0.100257
O O5 0.605443 0.724053 0.888706
O O6 0.994974 0.428278 0.511172
O O7 0.843796 0.755096 0.990103
O O8 0.389536 0.330813 0.389101
O O9 0.424776 0.075678 0.996807
O O10 0.492751 0.450244 0.658190
O O11 0.755186 0.169850 0.378447
O O12 0.578022 0.928055 0.600900
O O13 0.197573 0.981427 0.645905
O O14 0.500000 0.000000 0.500000
O O15 0.500000 0.500000 0.500000
O O16 0.153740 0.823312 0.892746
O O17 0.133270 0.052493 0.291474
#
# Coordination Sequence:
#
# PCOD9101647 Si02
#       8
#     2   2   2   2   2   2   2   2
#     4  10  21  39  61  86 123 166 202 251 310 366
#     4  10  20  38  60  86 123 161 204 255 306 361
#     4   9  20  37  57  86 119 157 206 252 304 362
#     4  10  22  39  60  88 122 163 206 248 310 373
#     4  11  23  39  62  92 124 164 206 247 304 368
#     4  11  21  36  61  91 119 155 205 257 304 360
#     4   9  22  40  60  88 122 160 206 252 305 364
#     4  10  22  42  62  86 125 163 200 254 307 358
#
# _framework density 24.119441999999999
#
# number of rings (size 3 to 8) (size 9 to 14) (size 15 to 20)
#    0.000    2.000    0.000    2.625    0.000    6.000 
#    0.000    4.375    0.000    0.000    0.000    0.000 
#    0.000    0.000    0.000    0.000    0.000    0.000 
#
# Total GULP energy -89216.101804 kJ/mol
# GULP energy per Si atom -5576.006363 kJ/mol
# Density = 2.406455 g / cm^3
# Si number density = 24.119442 Si / 1000 Ang^3
#
#
#
# Elastic Constant Matrix: (Units=GPa)
#
#
# Indices 1 2 3 4 5 6 
#
# 1 27.4809 7.1065 19.3225 -3.9399 3.2210 3.2719
# 2 7.1065 154.6110 61.4587 -5.2070 -8.2180 -5.4147
# 3 19.3225 61.4587 89.9099 12.6824 -1.4468 -9.7017
# 4 -3.9399 -5.2070 12.6824 38.9175 -6.0383 3.2364
# 5 3.2210 -8.2180 -1.4468 -6.0383 24.2576 -0.8456
# 6 3.2719 -5.4147 -9.7017 3.2364 -0.8456 31.9545
#
#
#
# Elastic Compliance Matrix: (Units=1/GPa)
#
#
# Indices 1 2 3 4 5 6 
#
# 1 0.050129 0.003962 -0.016270 0.011191 -0.003869 -0.010637
# 2 0.003962 0.009989 -0.008546 0.005224 0.003588 -0.001742
# 3 -0.016270 -0.008546 0.022907 -0.011234 -0.001877 0.008261
# 4 0.011191 0.005224 -0.011234 0.032929 0.007573 -0.006806
# 5 -0.003869 0.003588 -0.001877 0.007573 0.044756 0.000851
# 6 -0.010637 -0.001742 0.008261 -0.006806 0.000851 0.035308
#
#
# Mechanical properties :
#
#
# Convention : Reuss Voigt Hill
#
# Bulk Modulus (GPa) = 24.20436 49.75301 36.97868
# Shear Modulus (GPa) = 19.88087 31.30020 25.59054
#
# Velocity S-wave (km/s) = 2.87412 3.60629 3.26082
# Velocity P-wave (km/s) = 4.59032 6.16547 5.43526
#
# Compressibility (1/GPa) = 0.04131488
#
# Stress axis : x y z
#
# Youngs Moduli (GPa) = 19.94869 100.11391 43.65568
#
# Poissons Ratio (x) = -0.39665 0.71028
# Poissons Ratio (y) = -0.07904 0.37310
# Poissons Ratio (z) = 0.32457 0.85562
#
# Static dielectric constant tensor:
#      x y z
#    x 1.953140 0.008540 -0.030680 
#    y 0.008540 1.964640 -0.009140 
#    z -0.030680 -0.009140 2.038090 
# 
# From -- ./inp_files/274766.got.cif
#   From: 2010.05.17/outbox.cif.g08.bks.cpg/sg2_138_cif.got.tgz:274766.got - 2010.06.03 11:33:40.
