data_PCOD9101275
_publ_section_title
;
Structure prediction by ZEFSAII (Michael W. Deem and Ramdas Pophale) SiO2 
 PCOD9101275
Probable space group: P -1
;
_chemical_formula_sum "Si O2"
_cell_formula_units_Z 16
_cell_length_a 13.051964
_cell_length_b 17.812187
_cell_length_c 7.761315
_cell_angle_alpha 88.739537
_cell_angle_beta 110.655079
_cell_angle_gamma 149.775109
_cell_volume 679.717322
_symmetry_space_group_name_H-M "P -1"
_symmetry_group_IT_number 2
_symmetry_cell_setting 'triclinic'
loop_
_space_group_symop_operation_xyz
x,y,z
-x,-y,-z
loop_
_atom_site_type_symbol
_atom_site_label
_atom_site_fract_x
_atom_site_fract_y
_atom_site_fract_z
Si Si1 0.830882 0.438116 0.760132
Si Si2 0.169649 0.692531 0.515699
Si Si3 0.336054 0.416935 0.732098
Si Si4 0.212163 0.184808 0.712025
Si Si5 0.543607 0.345615 0.199995
Si Si6 0.345431 0.828940 0.973878
Si Si7 0.274123 0.075630 0.328370
Si Si8 0.272328 0.925527 0.496622
O O1 0.831294 0.378011 0.607850
O O2 0.512171 0.254859 0.591827
O O3 0.025605 0.632424 0.840076
O O4 0.000000 0.500000 0.000000
O O5 0.327867 0.773914 0.784220
O O6 0.280924 0.840559 0.489846
O O7 0.854857 0.514024 0.380000
O O8 0.309333 0.316131 0.645847
O O9 0.464280 0.574396 0.729066
O O10 0.026908 0.246721 0.596221
O O11 0.500000 0.500000 0.000000
O O12 0.457589 0.298922 0.951345
O O13 0.000000 0.000000 0.500000
O O14 0.020925 0.093473 0.762072
O O15 0.346869 0.165807 0.194383
O O16 0.500000 0.000000 0.000000
O O17 0.511915 0.911081 0.238833
O O18 0.293014 0.996327 0.345750
#
# Coordination Sequence:
#
# PCOD9101275 Si02
#       8
#     2   2   2   2   2   2   2   2
#     4  12  24  39  58  88 128 160 196 247 297 359
#     4  10  22  38  62  89 117 164 204 235 303 361
#     4   8  17  36  59  84 111 153 194 238 295 350
#     4  10  22  39  63  87 114 153 199 246 298 354
#     4  10  20  38  65  83 115 155 198 244 293 359
#     4  10  20  38  58  84 118 158 201 242 292 353
#     4  11  22  38  59  88 123 151 198 245 303 338
#     4   9  19  37  60  86 123 158 196 246 296 353
#
# _framework density 23.539197999999999
#
# number of rings (size 3 to 8) (size 9 to 14) (size 15 to 20)
#    0.000    2.000    2.500    0.750    1.750    0.500 
#    0.000    0.625    2.750    0.000    0.000    0.000 
#    0.000    0.000    0.000    0.000    0.000    0.000 
#
# Total GULP energy -89126.107977 kJ/mol
# GULP energy per Si atom -5570.381749 kJ/mol
# Density = 2.348562 g / cm^3
# Si number density = 23.539198 Si / 1000 Ang^3
#
#
#
# Elastic Constant Matrix: (Units=GPa)
#
#
# Indices 1 2 3 4 5 6 
#
# 1 46.4934 16.1554 30.8815 -6.1511 -2.6779 -20.0686
# 2 16.1554 133.0599 5.5376 4.5087 -2.9277 -34.2685
# 3 30.8815 5.5376 111.0794 21.5054 1.5516 -10.6645
# 4 -6.1511 4.5087 21.5054 43.0648 -1.1899 9.8421
# 5 -2.6779 -2.9277 1.5516 -1.1899 33.2235 11.6144
# 6 -20.0686 -34.2685 -10.6645 9.8421 11.6144 38.4187
#
#
#
# Elastic Compliance Matrix: (Units=1/GPa)
#
#
# Indices 1 2 3 4 5 6 
#
# 1 0.034803 -0.000542 -0.009596 0.006641 -0.001361 0.013743
# 2 -0.000542 0.010723 0.001795 -0.004971 -0.003606 0.012143
# 3 -0.009596 0.001795 0.013789 -0.009366 -0.002884 0.003687
# 4 0.006641 -0.004971 -0.009366 0.032735 0.006580 -0.013940
# 5 -0.001361 -0.003606 -0.002884 0.006580 0.036099 -0.017326
# 6 0.013743 0.012143 0.003687 -0.013940 -0.017326 0.053872
#
#
# Mechanical properties :
#
#
# Convention : Reuss Voigt Hill
#
# Bulk Modulus (GPa) = 23.45867 43.97576 33.71721
# Shear Modulus (GPa) = 23.48346 38.81194 31.14770
#
# Velocity S-wave (km/s) = 3.16196 4.06497 3.64156
# Velocity P-wave (km/s) = 4.82888 6.38393 5.66006
#
# Compressibility (1/GPa) = 0.04262816
#
# Stress axis : x y z
#
# Youngs Moduli (GPa) = 28.73346 93.25710 72.52403
#
# Poissons Ratio (x) = 0.05053 0.69593
# Poissons Ratio (y) = 0.01557 -0.13016
# Poissons Ratio (z) = 0.27572 -0.16737
#
# Static dielectric constant tensor:
#      x y z
#    x 1.977720 -0.014780 0.016140 
#    y -0.014780 2.041000 -0.042600 
#    z 0.016140 -0.042600 1.909900 
# 
# From -- ./inp_files/318049.got.cif
#   From: 2010.05.17/outbox.cif.g08.bks.cpg/sg2_160_cif.got.tgz:318049.got - 2010.06.03 11:33:40.
