data_PCOD9101838
_publ_section_title
;
Structure prediction by ZEFSAII (Michael W. Deem and Ramdas Pophale) SiO2 
 PCOD9101838
Probable space group: P -1
;
_chemical_formula_sum "Si O2"
_cell_formula_units_Z 16
_cell_length_a 18.809883
_cell_length_b 8.297489
_cell_length_c 6.069459
_cell_angle_alpha 124.376366
_cell_angle_beta 114.468927
_cell_angle_gamma 57.334278
_cell_volume 649.963628
_symmetry_space_group_name_H-M "P -1"
_symmetry_group_IT_number 2
_symmetry_cell_setting 'triclinic'
loop_
_space_group_symop_operation_xyz
x,y,z
-x,-y,-z
loop_
_atom_site_type_symbol
_atom_site_label
_atom_site_fract_x
_atom_site_fract_y
_atom_site_fract_z
Si Si1 0.949684 0.440269 0.193793
Si Si2 0.659030 0.040606 0.033542
Si Si3 0.924556 0.834232 0.239095
Si Si4 0.362390 0.517966 0.433671
Si Si5 0.907594 0.244073 0.357995
Si Si6 0.498084 0.721737 0.259278
Si Si7 0.359871 0.259701 0.853846
Si Si8 0.763203 0.657391 0.623846
O O1 0.893000 0.669250 0.190568
O O2 0.902800 0.304323 0.141080
O O3 0.000000 0.500000 0.500000
O O4 0.017754 0.294135 0.992379
O O5 0.627868 0.911802 0.071819
O O6 0.745499 0.871453 0.902470
O O7 0.596129 0.114987 0.798841
O O8 0.655572 0.247707 0.319427
O O9 0.993306 0.849920 0.516519
O O10 0.872843 0.072735 0.266521
O O11 0.457658 0.349242 0.500897
O O12 0.350746 0.479121 0.133310
O O13 0.295764 0.446352 0.417619
O O14 0.856563 0.471236 0.584651
O O15 0.500000 0.500000 0.000000
O O16 0.560719 0.792966 0.248473
O O17 0.276380 0.288163 0.629494
#
# Coordination Sequence:
#
# PCOD9101838 Si02
#       8
#     2   2   2   2   2   2   2   2
#     4   9  18  35  58  92 115 140 192 239 287 352
#     4  10  21  38  60  83 115 155 194 241 295 346
#     4   9  19  37  64  85 115 149 195 244 288 340
#     4   9  21  40  57  83 117 150 198 242 290 349
#     4  10  20  38  61  83 117 157 190 241 292 347
#     4   9  19  35  60  84 112 149 194 250 291 338
#     4  10  21  36  58  84 114 151 197 243 288 353
#     4  10  23  40  54  83 124 153 191 237 292 357
#
# _framework density 24.616764
#
# number of rings (size 3 to 8) (size 9 to 14) (size 15 to 20)
#    0.000    2.500    0.000    0.750    0.000   12.500 
#    9.000    0.000    0.000    0.000    0.000    0.000 
#    0.000    0.000    0.000    0.000    0.000    0.000 
#
# Total GULP energy -89346.041160 kJ/mol
# GULP energy per Si atom -5584.127572 kJ/mol
# Density = 2.456073 g / cm^3
# Si number density = 24.616764 Si / 1000 Ang^3
#
#
#
# Elastic Constant Matrix: (Units=GPa)
#
#
# Indices 1 2 3 4 5 6 
#
# 1 35.8557 38.8391 7.9340 -1.8063 1.8776 13.7682
# 2 38.8391 156.1613 43.5568 10.3459 -5.2326 18.6042
# 3 7.9340 43.5568 115.3997 21.4410 8.7918 6.9013
# 4 -1.8063 10.3459 21.4410 34.4913 2.1372 2.2129
# 5 1.8776 -5.2326 8.7918 2.1372 30.9071 0.9015
# 6 13.7682 18.6042 6.9013 2.2129 0.9015 42.4193
#
#
#
# Elastic Compliance Matrix: (Units=1/GPa)
#
#
# Indices 1 2 3 4 5 6 
#
# 1 0.043233 -0.010348 0.000805 0.005791 -0.004721 -0.009826
# 2 -0.010348 0.010111 -0.002973 -0.001897 0.003334 -0.000564
# 3 0.000805 -0.002973 0.011069 -0.005718 -0.003294 -0.000390
# 4 0.005791 -0.001897 -0.005718 0.033619 -0.001318 -0.001843
# 5 -0.004721 0.003334 -0.003294 -0.001318 0.034236 -0.000053
# 6 -0.009826 -0.000564 -0.000390 -0.001843 -0.000053 0.027172
#
#
# Mechanical properties :
#
#
# Convention : Reuss Voigt Hill
#
# Bulk Modulus (GPa) = 25.39295 54.23074 39.81184
# Shear Modulus (GPa) = 25.30382 36.03600 30.66991
#
# Velocity S-wave (km/s) = 3.20958 3.83022 3.53355
# Velocity P-wave (km/s) = 4.90642 6.45280 5.73199
#
# Compressibility (1/GPa) = 0.03938101
#
# Stress axis : x y z
#
# Youngs Moduli (GPa) = 23.13053 98.90146 90.34373
#
# Poissons Ratio (x) = 1.02345 -0.07272
# Poissons Ratio (y) = 0.23936 0.26856
# Poissons Ratio (z) = -0.01862 0.29400
#
# Static dielectric constant tensor:
#      x y z
#    x 1.986420 0.012840 0.015400 
#    y 0.012840 1.999990 -0.007040 
#    z 0.015400 -0.007040 1.992680 
# 
# From -- ./inp_files/52704.got.cif
#   From: 2010.05.17/outbox.cif.g08.bks.cpg/sg2_27_cif.got.tgz:52704.got - 2010.06.03 11:33:40.
