data_PCOD9101412
_publ_section_title
;
Structure prediction by ZEFSAII (Michael W. Deem and Ramdas Pophale) SiO2 
 PCOD9101412
Probable space group: P -1
;
_chemical_formula_sum "Si O2"
_cell_formula_units_Z 16
_cell_length_a 19.148380
_cell_length_b 22.019344
_cell_length_c 12.048180
_cell_angle_alpha 19.151090
_cell_angle_beta 154.445733
_cell_angle_gamma 158.413323
_cell_volume 601.113496
_symmetry_space_group_name_H-M "P -1"
_symmetry_group_IT_number 2
_symmetry_cell_setting 'triclinic'
loop_
_space_group_symop_operation_xyz
x,y,z
-x,-y,-z
loop_
_atom_site_type_symbol
_atom_site_label
_atom_site_fract_x
_atom_site_fract_y
_atom_site_fract_z
Si Si1 0.014760 0.061684 0.202981
Si Si2 0.026070 0.739768 0.617571
Si Si3 0.049452 0.674716 0.528652
Si Si4 0.507072 0.889249 0.851984
Si Si5 0.993034 0.652468 0.129729
Si Si6 0.426574 0.858382 0.030654
Si Si7 0.440020 0.682085 0.910048
Si Si8 0.476253 0.430681 0.214177
O O1 0.251343 0.225072 0.263161
O O2 0.959446 0.828076 0.471393
O O3 0.941492 0.111351 0.128258
O O4 0.952232 0.173658 0.829951
O O5 0.972788 0.737896 0.416735
O O6 0.257966 0.890588 0.696362
O O7 0.000000 0.500000 0.000000
O O8 0.270826 0.753146 0.737083
O O9 0.940009 0.422873 0.754405
O O10 0.558152 0.762904 0.054385
O O11 0.589029 0.127743 0.504658
O O12 0.549558 0.903430 0.017957
O O13 0.765452 0.538840 0.977986
O O14 0.000000 0.500000 0.500000
O O15 0.391657 0.636507 0.417108
O O16 0.500000 0.000000 0.000000
O O17 0.521857 0.636466 0.998886
O O18 0.500000 0.500000 0.000000
#
# Coordination Sequence:
#
# PCOD9101412 Si02
#       8
#     2   2   2   2   2   2   2   2
#     4  10  20  38  59  84 115 156 195 244 292 350
#     4  11  24  38  56  86 118 159 196 241 301 351
#     4   9  19  36  61  82 116 153 193 242 293 347
#     4   9  19  36  59  86 117 151 190 243 296 345
#     4   8  16  34  57  85 114 148 193 238 287 339
#     4  11  22  40  57  80 123 156 190 250 298 339
#     4   9  18  34  58  88 112 148 202 231 286 363
#     4  11  23  35  59  88 114 154 204 243 292 358
#
# _framework density 26.617270000000001
#
# number of rings (size 3 to 8) (size 9 to 14) (size 15 to 20)
#    0.000    2.250    1.250    1.125    3.500    1.500 
#    2.250    0.625    0.000    0.000    0.000    0.000 
#    0.000    0.000    0.000    0.000    0.000    0.000 
#
# Total GULP energy -89170.665605 kJ/mol
# GULP energy per Si atom -5573.166600 kJ/mol
# Density = 2.655669 g / cm^3
# Si number density = 26.617270 Si / 1000 Ang^3
#
#
#
# Elastic Constant Matrix: (Units=GPa)
#
#
# Indices 1 2 3 4 5 6 
#
# 1 135.9428 85.1915 53.2303 -7.2046 21.1265 -49.4747
# 2 85.1915 101.1257 17.8074 -22.6682 15.3383 -51.9921
# 3 53.2303 17.8074 80.2709 -15.6906 17.6953 -34.2339
# 4 -7.2046 -22.6682 -15.6906 42.0144 -18.9643 18.4437
# 5 21.1265 15.3383 17.6953 -18.9643 44.0374 -5.1897
# 6 -49.4747 -51.9921 -34.2339 18.4437 -5.1897 67.5550
#
#
#
# Elastic Compliance Matrix: (Units=1/GPa)
#
#
# Indices 1 2 3 4 5 6 
#
# 1 0.029137 -0.026076 -0.016904 -0.016492 -0.005586 -0.003222
# 2 -0.026076 0.041535 0.019067 0.017176 -0.000121 0.017834
# 3 -0.016904 0.019067 0.027985 0.010257 -0.003782 0.013385
# 4 -0.016492 0.017176 0.010257 0.043076 0.015863 -0.004203
# 5 -0.005586 -0.000121 -0.003782 0.015863 0.032849 -0.007908
# 6 -0.003222 0.017834 0.013385 -0.004203 -0.007908 0.033491
#
#
# Mechanical properties :
#
#
# Convention : Reuss Voigt Hill
#
# Bulk Modulus (GPa) = 19.67246 69.97751 44.82498
# Shear Modulus (GPa) = 18.32557 41.46205 29.89381
#
# Velocity S-wave (km/s) = 2.62675 3.95107 3.35490
# Velocity P-wave (km/s) = 4.07512 6.86745 5.64662
#
# Compressibility (1/GPa) = 0.05083249
#
# Stress axis : x y z
#
# Youngs Moduli (GPa) = 34.32038 24.07582 35.73388
#
# Poissons Ratio (x) = 0.62779 0.60404
# Poissons Ratio (y) = 0.89493 -0.68134
# Poissons Ratio (z) = 0.58014 -0.45906
#
# Static dielectric constant tensor:
#      x y z
#    x 2.200830 0.057160 -0.013060 
#    y 0.057160 2.235280 0.027010 
#    z -0.013060 0.027010 2.057000 
# 
# From -- ./inp_files/314286.got.cif
#   From: 2010.05.17/outbox.cif.g08.bks.cpg/sg2_158_cif.got.tgz:314286.got - 2010.06.03 11:33:40.
