data_PCOD9101274
_publ_section_title
;
Structure prediction by ZEFSAII (Michael W. Deem and Ramdas Pophale) SiO2 
 PCOD9101274
Probable space group: P -1
;
_chemical_formula_sum "Si O2"
_cell_formula_units_Z 16
_cell_length_a 9.184546
_cell_length_b 18.689712
_cell_length_c 5.107035
_cell_angle_alpha 97.217503
_cell_angle_beta 50.760552
_cell_angle_gamma 82.176432
_cell_volume 646.538462
_symmetry_space_group_name_H-M "P -1"
_symmetry_group_IT_number 2
_symmetry_cell_setting 'triclinic'
loop_
_space_group_symop_operation_xyz
x,y,z
-x,-y,-z
loop_
_atom_site_type_symbol
_atom_site_label
_atom_site_fract_x
_atom_site_fract_y
_atom_site_fract_z
Si Si1 0.030953 0.406933 0.173907
Si Si2 0.430413 0.114984 0.387735
Si Si3 0.661073 0.528791 0.488780
Si Si4 0.634386 0.666441 0.861050
Si Si5 0.139944 0.261161 0.705767
Si Si6 0.010592 0.847559 0.479217
Si Si7 0.884521 0.939249 0.150063
Si Si8 0.418867 0.828191 0.282779
O O1 0.152508 0.374895 0.280296
O O2 0.819093 0.466480 0.450245
O O3 0.188482 0.442172 0.859045
O O4 0.000416 0.332696 0.035620
O O5 0.480706 0.136089 0.049134
O O6 0.243414 0.186714 0.714578
O O7 0.584453 0.122434 0.432328
O O8 0.337534 0.045808 0.480110
O O9 0.500000 0.500000 0.500000
O O10 0.552068 0.598934 0.830819
O O11 0.516200 0.738931 0.190485
O O12 0.681043 0.707823 0.570725
O O13 0.045019 0.228737 0.557256
O O14 0.871790 0.905974 0.859917
O O15 0.005836 0.886954 0.221894
O O16 0.212242 0.830815 0.394626
O O17 0.000000 0.000000 0.000000
#
# Coordination Sequence:
#
# PCOD9101274 Si02
#       8
#     2   2   2   2   2   2   2   2
#     4  10  20  40  59  79 123 161 212 265 325 387
#     4  10  20  40  63  89 126 169 203 257 322 380
#     4  10  23  38  56  85 120 162 213 266 323 389
#     4  10  20  38  58  84 117 168 205 259 330 385
#     4   9  20  36  59  86 116 161 211 257 317 374
#     4  11  24  39  64  99 129 160 216 274 308 378
#     4  11  23  44  67  92 128 176 214 248 314 396
#     4  11  22  39  63  96 131 159 211 273 325 366
#
# _framework density 24.747177000000001
#
# number of rings (size 3 to 8) (size 9 to 14) (size 15 to 20)
#    0.000    1.750    1.250    3.750    3.500    0.500 
#    2.250    3.750    0.000    0.000    0.000    0.000 
#    0.000    0.000    0.000    0.000    0.000    0.000 
#
# Total GULP energy -89215.473505 kJ/mol
# GULP energy per Si atom -5575.967094 kJ/mol
# Density = 2.469085 g / cm^3
# Si number density = 24.747177 Si / 1000 Ang^3
#
#
#
# Elastic Constant Matrix: (Units=GPa)
#
#
# Indices 1 2 3 4 5 6 
#
# 1 163.0443 31.6901 17.9459 -3.4484 11.3919 18.6380
# 2 31.6901 79.3652 18.5773 -4.5833 10.3334 8.8200
# 3 17.9459 18.5773 48.8058 -8.2300 12.1491 9.1725
# 4 -3.4484 -4.5833 -8.2300 16.3574 1.0416 3.6562
# 5 11.3919 10.3334 12.1491 1.0416 36.9931 2.5242
# 6 18.6380 8.8200 9.1725 3.6562 2.5242 45.2694
#
#
#
# Elastic Compliance Matrix: (Units=1/GPa)
#
#
# Indices 1 2 3 4 5 6 
#
# 1 0.007010 -0.002128 -0.000872 0.001033 -0.001149 -0.002314
# 2 -0.002128 0.014889 -0.003677 0.002317 -0.002270 -0.001340
# 3 -0.000872 -0.003677 0.027546 0.014310 -0.007797 -0.005227
# 4 0.001033 0.002317 0.014310 0.071701 -0.007058 -0.009174
# 5 -0.001149 -0.002270 -0.007797 -0.007058 0.030687 0.001354
# 6 -0.002314 -0.001340 -0.005227 -0.009174 0.001354 0.025028
#
#
# Mechanical properties :
#
#
# Convention : Reuss Voigt Hill
#
# Bulk Modulus (GPa) = 27.70930 47.51577 37.61254
# Shear Modulus (GPa) = 24.72246 34.59080 29.65663
#
# Velocity S-wave (km/s) = 3.16413 3.74273 3.46552
# Velocity P-wave (km/s) = 4.95683 6.15788 5.58971
#
# Compressibility (1/GPa) = 0.03608896
#
# Stress axis : x y z
#
# Youngs Moduli (GPa) = 142.66125 67.16471 36.30296
#
# Poissons Ratio (x) = 0.14295 0.03167
# Poissons Ratio (y) = 0.30363 0.13349
# Poissons Ratio (z) = 0.12444 0.24697
#
# Static dielectric constant tensor:
#      x y z
#    x 1.972800 -0.003330 -0.015340 
#    y -0.003330 2.072740 0.030300 
#    z -0.015340 0.030300 2.074980 
# 
# From -- ./inp_files/44874.got.cif
#   From: 2010.05.17/outbox.cif.g08.bks.cpg/sg2_23_cif.got.tgz:44874.got - 2010.06.03 11:33:40.
