data_PCOD9101259
_publ_section_title
;
Structure prediction by ZEFSAII (Michael W. Deem and Ramdas Pophale) SiO2 
 PCOD9101259
Probable space group: P -1
;
_chemical_formula_sum "Si O2"
_cell_formula_units_Z 16
_cell_length_a 14.296006
_cell_length_b 14.630373
_cell_length_c 14.316301
_cell_angle_alpha 145.148993
_cell_angle_beta 33.545594
_cell_angle_gamma 146.657222
_cell_volume 829.729291
_symmetry_space_group_name_H-M "P -1"
_symmetry_group_IT_number 2
_symmetry_cell_setting 'triclinic'
loop_
_space_group_symop_operation_xyz
x,y,z
-x,-y,-z
loop_
_atom_site_type_symbol
_atom_site_label
_atom_site_fract_x
_atom_site_fract_y
_atom_site_fract_z
Si Si1 0.392136 0.342384 0.033372
Si Si2 0.338413 0.018897 0.090269
Si Si3 0.758724 0.447840 0.916662
Si Si4 0.218835 0.158430 0.463808
Si Si5 0.404879 0.964173 0.271109
Si Si6 0.612017 0.027376 0.333835
Si Si7 0.942123 0.640707 0.118933
Si Si8 0.032539 0.362249 0.292323
O O1 0.177145 0.313062 0.188713
O O2 0.500000 0.500000 0.000000
O O3 0.538112 0.409438 0.055333
O O4 0.386850 0.158875 0.848505
O O5 0.312582 0.175426 0.297383
O O6 0.136742 0.833433 0.107211
O O7 0.500000 0.000000 0.000000
O O8 0.422955 0.042241 0.936370
O O9 0.870877 0.545912 0.810458
O O10 0.748044 0.249473 0.767915
O O11 0.852352 0.563791 0.028149
O O12 0.320606 0.076074 0.378710
O O13 0.201953 0.323092 0.664232
O O14 0.000000 0.000000 0.500000
O O15 0.491922 0.054977 0.373600
O O16 0.827832 0.188908 0.297494
O O17 0.500000 0.000000 0.500000
O O18 0.000000 0.500000 0.000000
O O19 0.000000 0.500000 0.500000
#
# Coordination Sequence:
#
# PCOD9101259 Si02
#       8
#     2   2   2   2   2   2   2   2
#     4   9  20  38  58  83 117 152 191 241 290 343
#     4   9  18  36  56  78 111 148 188 235 284 343
#     4  10  21  38  58  83 117 152 191 245 291 341
#     4   9  19  35  58  82 109 147 187 231 283 343
#     4  10  20  38  58  82 114 151 190 237 291 346
#     4  11  22  38  62  88 117 156 195 241 295 351
#     4  11  21  36  58  85 114 150 191 240 291 343
#     4  11  22  39  60  87 118 154 196 242 294 352
#
# _framework density 19.283397000000001
#
# number of rings (size 3 to 8) (size 9 to 14) (size 15 to 20)
#    0.000    2.000    0.000    5.625    0.000    3.000 
#    0.000   19.375    0.000    1.500    0.000    0.000 
#    0.000    0.000    0.000    0.000    0.000    0.000 
#
# Total GULP energy -89222.786110 kJ/mol
# GULP energy per Si atom -5576.424132 kJ/mol
# Density = 1.923951 g / cm^3
# Si number density = 19.283397 Si / 1000 Ang^3
#
#
#
# Elastic Constant Matrix: (Units=GPa)
#
#
# Indices 1 2 3 4 5 6 
#
# 1 138.4759 37.2116 73.2401 4.6004 14.3100 18.3706
# 2 37.2116 89.0733 31.9057 2.3676 5.9459 14.0687
# 3 73.2401 31.9057 134.4115 -4.1808 6.4324 5.3053
# 4 4.6004 2.3676 -4.1808 28.5851 -6.7151 4.7168
# 5 14.3100 5.9459 6.4324 -6.7151 34.8443 2.6016
# 6 18.3706 14.0687 5.3053 4.7168 2.6016 37.4840
#
#
#
# Elastic Compliance Matrix: (Units=1/GPa)
#
#
# Indices 1 2 3 4 5 6 
#
# 1 0.011707 -0.001968 -0.005681 -0.002831 -0.003701 -0.003582
# 2 -0.001968 0.013402 -0.001941 -0.000709 -0.000986 -0.003634
# 3 -0.005681 -0.001941 0.010968 0.002667 0.001038 0.001553
# 4 -0.002831 -0.000709 0.002667 0.038582 0.008538 -0.004171
# 5 -0.003701 -0.000986 0.001038 0.008538 0.031935 -0.001254
# 6 -0.003582 -0.003634 0.001553 -0.004171 -0.001254 0.030189
#
#
# Mechanical properties :
#
#
# Convention : Reuss Voigt Hill
#
# Bulk Modulus (GPa) = 59.17842 71.85283 65.51563
# Shear Modulus (GPa) = 30.94144 34.82292 32.88218
#
# Velocity S-wave (km/s) = 4.01005 4.25414 4.13389
# Velocity P-wave (km/s) = 7.22468 7.84045 7.53886
#
# Compressibility (1/GPa) = 0.01689805
#
# Stress axis : x y z
#
# Youngs Moduli (GPa) = 85.42018 74.61334 91.17169
#
# Poissons Ratio (x) = 0.14681 0.51799
# Poissons Ratio (y) = 0.16807 0.17694
# Poissons Ratio (z) = 0.48531 0.14480
#
# Static dielectric constant tensor:
#      x y z
#    x 1.676530 -0.009100 -0.008930 
#    y -0.009100 1.677760 -0.013630 
#    z -0.008930 -0.013630 1.682930 
# 
# From -- ./inp_files/207276.got.cif
#   From: 2010.05.17/outbox.cif.g08.bks.cpg/sg2_104_cif.got.tgz:207276.got - 2010.06.03 11:33:40.
