data_PCOD9101635
_publ_section_title
;
Structure prediction by ZEFSAII (Michael W. Deem and Ramdas Pophale) SiO2 
 PCOD9101635
Probable space group: P -1
;
_chemical_formula_sum "Si O2"
_cell_formula_units_Z 16
_cell_length_a 9.662157
_cell_length_b 9.696027
_cell_length_c 7.082049
_cell_angle_alpha 88.210282
_cell_angle_beta 78.898502
_cell_angle_gamma 70.122080
_cell_volume 611.850817
_symmetry_space_group_name_H-M "P -1"
_symmetry_group_IT_number 2
_symmetry_cell_setting 'triclinic'
loop_
_space_group_symop_operation_xyz
x,y,z
-x,-y,-z
loop_
_atom_site_type_symbol
_atom_site_label
_atom_site_fract_x
_atom_site_fract_y
_atom_site_fract_z
Si Si1 0.131273 0.344560 0.204764
Si Si2 0.416718 0.068826 0.709207
Si Si3 0.119013 0.639291 0.026775
Si Si4 0.547527 0.672394 0.452268
Si Si5 0.697097 0.991216 0.917103
Si Si6 0.429426 0.585672 0.825657
Si Si7 0.211424 0.885829 0.441040
Si Si8 0.944935 0.792529 0.426734
O O1 0.179709 0.479755 0.120291
O O2 0.242411 0.184004 0.121698
O O3 0.103456 0.323769 0.433667
O O4 0.977646 0.369731 0.128824
O O5 0.350189 0.237892 0.658336
O O6 0.500000 0.000000 0.500000
O O7 0.544911 0.058685 0.833320
O O8 0.324962 0.988783 0.855945
O O9 0.006292 0.739570 0.206688
O O10 0.261603 0.682541 0.925686
O O11 0.539099 0.653714 0.680954
O O12 0.589183 0.526490 0.324275
O O13 0.372444 0.767633 0.449165
O O14 0.800885 0.064126 0.778173
O O15 0.500000 0.500000 0.000000
O O16 0.082286 0.817707 0.505641
O O17 0.178590 0.043920 0.542774
#
# Coordination Sequence:
#
# PCOD9101635 Si02
#       8
#     2   2   2   2   2   2   2   2
#     4  10  22  39  58  85 121 155 196 244 290 351
#     4  10  21  36  59  87 119 158 198 243 293 349
#     4  11  23  38  60  87 116 157 200 241 295 349
#     4  10  22  40  58  85 118 150 197 246 292 350
#     4   9  20  38  57  84 121 156 197 244 293 347
#     4  11  24  41  63  87 116 157 200 247 298 348
#     4   9  19  38  61  84 118 153 190 244 294 349
#     4  10  20  38  60  86 117 152 192 239 294 349
#
# _framework density 26.150168000000001
#
# number of rings (size 3 to 8) (size 9 to 14) (size 15 to 20)
#    0.000    2.000    0.000    2.625    0.000    9.000 
#    0.000   10.000    0.000    0.000    0.000    0.000 
#    0.000    0.000    0.000    0.000    0.000    0.000 
#
# Total GULP energy -89478.779652 kJ/mol
# GULP energy per Si atom -5592.423728 kJ/mol
# Density = 2.609065 g / cm^3
# Si number density = 26.150168 Si / 1000 Ang^3
#
#
#
# Elastic Constant Matrix: (Units=GPa)
#
#
# Indices 1 2 3 4 5 6 
#
# 1 57.7734 10.6131 36.4564 -17.6460 -6.9558 -14.5732
# 2 10.6131 100.3817 33.9055 -3.6351 -10.2396 -3.1922
# 3 36.4564 33.9055 213.6205 -20.7523 -24.9432 -2.7338
# 4 -17.6460 -3.6351 -20.7523 49.5538 -0.1092 -7.3711
# 5 -6.9558 -10.2396 -24.9432 -0.1092 38.6390 -9.5572
# 6 -14.5732 -3.1922 -2.7338 -7.3711 -9.5572 39.8520
#
#
#
# Elastic Compliance Matrix: (Units=1/GPa)
#
#
# Indices 1 2 3 4 5 6 
#
# 1 0.025957 -0.000516 -0.002503 0.010043 0.006062 0.012590
# 2 -0.000516 0.010731 -0.001324 0.000224 0.002179 0.001144
# 3 -0.002503 -0.001324 0.005829 0.001518 0.003063 0.000394
# 4 0.010043 0.000224 0.001518 0.025888 0.005361 0.009869
# 5 0.006062 0.002179 0.003063 0.005361 0.032350 0.011351
# 6 0.012590 0.001144 0.000394 0.009869 0.011351 0.034363
#
#
# Mechanical properties :
#
#
# Convention : Reuss Voigt Hill
#
# Bulk Modulus (GPa) = 29.56079 59.30283 44.43181
# Shear Modulus (GPa) = 32.24136 44.99566 38.61851
#
# Velocity S-wave (km/s) = 3.51512 4.15259 3.84708
# Velocity P-wave (km/s) = 5.27291 6.76158 6.06311
#
# Compressibility (1/GPa) = 0.03382859
#
# Stress axis : x y z
#
# Youngs Moduli (GPa) = 38.52569 93.19115 171.56598
#
# Poissons Ratio (x) = 0.04812 0.42946
# Poissons Ratio (y) = 0.01989 0.22718
# Poissons Ratio (z) = 0.09644 0.12340
#
# Static dielectric constant tensor:
#      x y z
#    x 2.247330 0.103190 -0.018380 
#    y 0.103190 2.113710 0.017010 
#    z -0.018380 0.017010 2.083230 
# 
# From -- ./inp_files/69768.got.cif
#   From: 2010.05.17/outbox.cif.g08.bks.cpg/sg2_35_cif.got.tgz:69768.got - 2010.06.03 11:33:40.
