data_PCOD9101687
_publ_section_title
;
Structure prediction by ZEFSAII (Michael W. Deem and Ramdas Pophale) SiO2 
 PCOD9101687
Probable space group: P -1
;
_chemical_formula_sum "Si O2"
_cell_formula_units_Z 14
_cell_length_a 20.127503
_cell_length_b 14.064280
_cell_length_c 8.987367
_cell_angle_alpha 131.622879
_cell_angle_beta 30.627176
_cell_angle_gamma 149.590664
_cell_volume 625.406991
_symmetry_space_group_name_H-M "P -1"
_symmetry_group_IT_number 2
_symmetry_cell_setting 'triclinic'
loop_
_space_group_symop_operation_xyz
x,y,z
-x,-y,-z
loop_
_atom_site_type_symbol
_atom_site_label
_atom_site_fract_x
_atom_site_fract_y
_atom_site_fract_z
Si Si1 0.395217 0.999803 0.334700
Si Si2 0.185237 0.658786 0.600875
Si Si3 0.605775 0.837275 0.978313
Si Si4 0.775905 0.229204 0.016553
Si Si5 0.891623 0.993521 0.835128
Si Si6 0.727549 0.670067 0.402627
Si Si7 0.310717 0.224135 0.715928
O O1 0.309972 0.072803 0.528008
O O2 0.229728 0.790958 0.520856
O O3 0.577045 0.152096 0.261293
O O4 0.500000 0.000000 0.000000
O O5 0.972682 0.429410 0.764982
O O6 0.198531 0.732362 0.815578
O O7 0.372463 0.700162 0.277667
O O8 0.647495 0.736196 0.711462
O O9 0.732053 0.047980 0.884014
O O10 0.690542 0.895374 0.043526
O O11 0.065285 0.214770 0.795656
O O12 0.000000 0.000000 0.500000
O O13 0.820279 0.854401 0.965043
O O14 0.544797 0.435678 0.510485
O O15 0.766039 0.746536 0.240456
#
# Coordination Sequence:
#
# PCOD9101687 Si02
#       7
#     2   2   2   2   2   2   2
#     4  11  23  40  61  89 121 154 196 244 293 350
#     4  10  21  38  61  88 118 154 196 242 296 349
#     4  10  20  38  60  88 121 151 194 245 293 349
#     4  10  21  38  62  89 118 155 195 242 297 351
#     4  10  22  38  60  89 118 154 198 240 288 346
#     4  10  24  40  59  87 117 159 199 238 294 348
#     4  11  22  41  62  83 122 159 194 244 292 347
#
# _framework density 22.385422999999999
#
# number of rings (size 3 to 8) (size 9 to 14) (size 15 to 20)
#    0.000    1.714    0.000    5.571    0.000    9.714 
#    0.000    4.286    0.000    0.000    0.000    0.000 
#    0.000    0.000    0.000    0.000    0.000    0.000 
#
# Total GULP energy -78265.878237 kJ/mol
# GULP energy per Si atom -5590.419874 kJ/mol
# Density = 2.233447 g / cm^3
# Si number density = 22.385423 Si / 1000 Ang^3
#
#
#
# Elastic Constant Matrix: (Units=GPa)
#
#
# Indices 1 2 3 4 5 6 
#
# 1 58.0151 15.1840 22.1473 -1.7758 24.5571 2.0292
# 2 15.1840 45.5113 35.8263 -10.4874 22.8583 -16.4437
# 3 22.1473 35.8263 109.9994 -3.9288 30.4854 -19.9056
# 4 -1.7758 -10.4874 -3.9288 35.2633 -11.0845 1.0631
# 5 24.5571 22.8583 30.4854 -11.0845 31.3379 -1.1219
# 6 2.0292 -16.4437 -19.9056 1.0631 -1.1219 22.5718
#
#
#
# Elastic Compliance Matrix: (Units=1/GPa)
#
#
# Indices 1 2 3 4 5 6 
#
# 1 0.027107 0.000416 0.000393 -0.005973 -0.024137 -0.002706
# 2 0.000416 0.055979 -0.000885 0.003586 -0.037670 0.037921
# 3 0.000393 -0.000885 0.015923 -0.003908 -0.016078 0.012747
# 4 -0.005973 0.003586 -0.003908 0.034373 0.017988 -0.001021
# 5 -0.024137 -0.037670 -0.016078 0.017988 0.099038 -0.035377
# 6 -0.002706 0.037921 0.012747 -0.001021 -0.035377 0.081703
#
#
# Mechanical properties :
#
#
# Convention : Reuss Voigt Hill
#
# Bulk Modulus (GPa) = 10.11580 39.98234 25.04907
# Shear Modulus (GPa) = 14.39979 27.19247 20.79613
#
# Velocity S-wave (km/s) = 2.53902 3.48909 3.05126
# Velocity P-wave (km/s) = 3.62274 5.84220 4.86084
#
# Compressibility (1/GPa) = 0.09885529
#
# Stress axis : x y z
#
# Youngs Moduli (GPa) = 36.89147 17.86400 62.80143
#
# Poissons Ratio (x) = -0.00742 -0.02470
# Poissons Ratio (y) = -0.01533 0.05561
# Poissons Ratio (z) = -0.01451 0.01582
#
# Static dielectric constant tensor:
#      x y z
#    x 1.876620 0.014170 -0.014150 
#    y 0.014170 1.809430 0.014090 
#    z -0.014150 0.014090 1.824200 
# 
# From -- ./inp_files/274235.got.cif
#   From: 2010.05.17/outbox.cif.g08.bks.cpg/sg2_138_cif.got.tgz:274235.got - 2010.06.03 11:33:40.
