data_PCOD9101577
_publ_section_title
;
Structure prediction by ZEFSAII (Michael W. Deem and Ramdas Pophale) SiO2 
 PCOD9101577
Probable space group: P -1
;
_chemical_formula_sum "Si O2"
_cell_formula_units_Z 14
_cell_length_a 8.463506
_cell_length_b 7.044188
_cell_length_c 15.289155
_cell_angle_alpha 127.506698
_cell_angle_beta 126.708747
_cell_angle_gamma 57.039571
_cell_volume 555.954239
_symmetry_space_group_name_H-M "P -1"
_symmetry_group_IT_number 2
_symmetry_cell_setting 'triclinic'
loop_
_space_group_symop_operation_xyz
x,y,z
-x,-y,-z
loop_
_atom_site_type_symbol
_atom_site_label
_atom_site_fract_x
_atom_site_fract_y
_atom_site_fract_z
Si Si1 0.182296 0.781500 0.202902
Si Si2 0.431794 0.458568 0.839489
Si Si3 0.223465 0.542361 0.603975
Si Si4 0.134108 0.545634 0.304915
Si Si5 0.572640 0.810311 0.573437
Si Si6 0.893421 0.133343 0.089033
Si Si7 0.764334 0.961034 0.351010
O O1 0.332672 0.609763 0.132539
O O2 0.166399 0.635711 0.244473
O O3 0.291697 0.996371 0.321470
O O4 0.963142 0.924157 0.128508
O O5 0.377288 0.206941 0.781854
O O6 0.009570 0.227157 0.623744
O O7 0.343199 0.700604 0.938848
O O8 0.384710 0.326035 0.542549
O O9 0.297699 0.525297 0.723500
O O10 0.000000 0.500000 0.500000
O O11 0.229851 0.807254 0.641828
O O12 0.336659 0.400804 0.382646
O O13 0.007816 0.344874 0.200755
O O14 0.344026 0.948638 0.566934
O O15 0.000000 0.000000 0.000000
#
# Coordination Sequence:
#
# PCOD9101577 Si02
#       7
#     2   2   2   2   2   2   2
#     4  10  21  39  61  85 115 150 189 232 282 337
#     4  10  23  40  58  82 115 153 188 233 286 333
#     4  12  22  35  57  85 117 154 197 233 269 326
#     4  10  20  38  60  83 115 151 185 229 283 333
#     4  10  22  36  54  84 117 153 193 229 267 326
#     4  10  22  41  62  86 113 141 185 240 290 345
#     4  10  21  36  54  78 114 153 189 229 275 322
#
# _framework density 25.181927000000002
#
# number of rings (size 3 to 8) (size 9 to 14) (size 15 to 20)
#    0.000    1.714    0.000    5.571    0.000    6.857 
#    0.000    2.143    0.000    0.000    0.000    0.000 
#    0.000    0.000    0.000    0.000    0.000    0.000 
#
# Total GULP energy -78471.896294 kJ/mol
# GULP energy per Si atom -5605.135450 kJ/mol
# Density = 2.512461 g / cm^3
# Si number density = 25.181927 Si / 1000 Ang^3
#
#
#
# Elastic Constant Matrix: (Units=GPa)
#
#
# Indices 1 2 3 4 5 6 
#
# 1 111.0355 45.2862 18.2811 9.7208 -30.7246 -17.3008
# 2 45.2862 141.7343 28.3647 -4.9808 -23.5484 3.7499
# 3 18.2811 28.3647 69.3325 12.6626 -32.2307 -12.6445
# 4 9.7208 -4.9808 12.6626 26.9252 -13.9990 -23.8046
# 5 -30.7246 -23.5484 -32.2307 -13.9990 40.8068 6.9596
# 6 -17.3008 3.7499 -12.6445 -23.8046 6.9596 50.5674
#
#
#
# Elastic Compliance Matrix: (Units=1/GPa)
#
#
# Indices 1 2 3 4 5 6 
#
# 1 0.013457 -0.003074 0.003364 0.004414 0.011477 0.006172
# 2 -0.003074 0.009222 -0.002718 0.005198 0.002702 -0.000340
# 3 0.003364 -0.002718 0.024724 0.002413 0.020319 0.005874
# 4 0.004414 0.005198 0.002413 0.084206 0.030784 0.037131
# 5 0.011477 0.002702 0.020319 0.030784 0.058720 0.015217
# 6 0.006172 -0.000340 0.005874 0.037131 0.015217 0.038767
#
#
# Mechanical properties :
#
#
# Convention : Reuss Voigt Hill
#
# Bulk Modulus (GPa) = 23.50287 56.21847 39.86067
# Shear Modulus (GPa) = 20.15036 39.00456 29.57746
#
# Velocity S-wave (km/s) = 2.83183 3.93989 3.43089
# Velocity P-wave (km/s) = 4.47726 6.56280 5.61766
#
# Compressibility (1/GPa) = 0.04254799
#
# Stress axis : x y z
#
# Youngs Moduli (GPa) = 74.31018 108.43425 40.44610
#
# Poissons Ratio (x) = 0.33336 -0.13607
# Poissons Ratio (y) = 0.22845 0.10992
# Poissons Ratio (z) = -0.24999 0.29469
#
# Static dielectric constant tensor:
#      x y z
#    x 2.007930 -0.045850 -0.009700 
#    y -0.045850 2.000980 0.016260 
#    z -0.009700 0.016260 2.029590 
# 
# From -- ./inp_files/51926.got.cif
#   From: 2010.05.17/outbox.cif.g08.bks.cpg/sg2_26_cif.got.tgz:51926.got - 2010.06.03 11:33:40.
