data_PCOD9101245
_publ_section_title
;
Structure prediction by ZEFSAII (Michael W. Deem and Ramdas Pophale) SiO2 
 PCOD9101245
Probable space group: P -1
;
_chemical_formula_sum "Si O2"
_cell_formula_units_Z 16
_cell_length_a 15.189916
_cell_length_b 9.516169
_cell_length_c 16.115324
_cell_angle_alpha 110.375177
_cell_angle_beta 155.887022
_cell_angle_gamma 82.141664
_cell_volume 786.130715
_symmetry_space_group_name_H-M "P -1"
_symmetry_group_IT_number 2
_symmetry_cell_setting 'triclinic'
loop_
_space_group_symop_operation_xyz
x,y,z
-x,-y,-z
loop_
_atom_site_type_symbol
_atom_site_label
_atom_site_fract_x
_atom_site_fract_y
_atom_site_fract_z
Si Si1 0.824701 0.118687 0.106499
Si Si2 0.177648 0.779456 0.208375
Si Si3 0.650069 0.508992 0.712314
Si Si4 0.578139 0.872320 0.118078
Si Si5 0.635948 0.490625 0.198383
Si Si6 0.976565 0.146390 0.411102
Si Si7 0.615901 0.642243 0.381651
Si Si8 0.563721 0.072480 0.706474
O O1 0.918386 0.051340 0.252010
O O2 0.088727 0.270865 0.337729
O O3 0.623696 0.146464 0.991885
O O4 0.684444 0.037781 0.884215
O O5 0.265454 0.636112 0.252391
O O6 0.249348 0.869328 0.198680
O O7 0.326139 0.910629 0.434781
O O8 0.891448 0.688831 0.959253
O O9 0.500000 0.500000 0.500000
O O10 0.499645 0.469490 0.659457
O O11 0.797622 0.863840 0.355066
O O12 0.735692 0.047328 0.238954
O O13 0.441219 0.707750 0.907601
O O14 0.543308 0.537212 0.212448
O O15 0.912861 0.648720 0.462695
O O16 0.500000 0.500000 0.000000
O O17 0.516918 0.780880 0.318669
#
# Coordination Sequence:
#
# PCOD9101245 Si02
#       8
#     2   2   2   2   2   2   2   2
#     4  11  20  35  59  85 116 152 199 246 289 351
#     4   9  21  39  62  84 115 157 191 232 307 353
#     4  10  20  40  61  87 122 148 191 247 292 356
#     4  10  20  38  58  79 122 161 196 248 299 352
#     4   9  18  37  57  80 113 159 195 237 297 343
#     4   9  20  36  56  82 111 157 201 245 296 347
#     4  10  22  37  57  88 116 152 197 242 299 349
#     4  10  20  39  61  84 115 154 194 243 291 359
#
# _framework density 20.352848999999999
#
# number of rings (size 3 to 8) (size 9 to 14) (size 15 to 20)
#    0.000    2.250    0.000    3.375    0.000    3.000 
#   13.500    3.750    0.000    0.000    0.000    0.000 
#    0.000    0.000    0.000    0.000    0.000    0.000 
#
# Total GULP energy -89101.750175 kJ/mol
# GULP energy per Si atom -5568.859386 kJ/mol
# Density = 2.030652 g / cm^3
# Si number density = 20.352849 Si / 1000 Ang^3
#
#
#
# Elastic Constant Matrix: (Units=GPa)
#
#
# Indices 1 2 3 4 5 6 
#
# 1 135.6883 26.9961 93.3222 2.9982 -2.2653 19.0114
# 2 26.9961 47.6298 37.0692 13.2604 -4.1496 16.2338
# 3 93.3222 37.0692 141.7341 5.3192 -3.3495 23.5189
# 4 2.9982 13.2604 5.3192 22.3333 2.6160 -1.7373
# 5 -2.2653 -4.1496 -3.3495 2.6160 54.7221 -0.3305
# 6 19.0114 16.2338 23.5189 -1.7373 -0.3305 24.0991
#
#
#
# Elastic Compliance Matrix: (Units=1/GPa)
#
#
# Indices 1 2 3 4 5 6 
#
# 1 0.013588 -0.000471 -0.008488 0.000317 -0.000021 -0.002096
# 2 -0.000471 0.040896 -0.005426 -0.025213 0.003812 -0.023648
# 3 -0.008488 -0.005426 0.014701 0.000541 0.000087 -0.003956
# 4 0.000317 -0.025213 0.000541 0.061726 -0.004692 0.020591
# 5 -0.000021 0.003812 0.000087 -0.004692 0.018776 -0.002718
# 6 -0.002096 -0.023648 -0.003956 0.020591 -0.002718 0.064387
#
#
# Mechanical properties :
#
#
# Convention : Reuss Voigt Hill
#
# Bulk Modulus (GPa) = 24.74258 71.09193 47.91725
# Shear Modulus (GPa) = 19.50728 31.40854 25.45791
#
# Velocity S-wave (km/s) = 3.09925 3.93262 3.54054
# Velocity P-wave (km/s) = 4.99903 7.45830 6.34888
#
# Compressibility (1/GPa) = 0.04041616
#
# Stress axis : x y z
#
# Youngs Moduli (GPa) = 73.59674 24.45219 68.02049
#
# Poissons Ratio (x) = 0.01152 0.57735
# Poissons Ratio (y) = 0.03466 0.36905
# Poissons Ratio (z) = 0.62468 0.13267
#
# Static dielectric constant tensor:
#      x y z
#    x 1.721690 0.012530 0.015800 
#    y 0.012530 1.797490 -0.011230 
#    z 0.015800 -0.011230 1.726180 
# 
# From -- ./inp_files/531903.got.cif
#   From: 2010.05.17/outbox.cif.g08.bks.cpg/sg2_266_cif.got.tgz:531903.got - 2010.06.03 11:33:40.
