data_PCOD9101702
_publ_section_title
;
Structure prediction by ZEFSAII (Michael W. Deem and Ramdas Pophale) SiO2 
 PCOD9101702
Probable space group: P -1
;
_chemical_formula_sum "Si O2"
_cell_formula_units_Z 12
_cell_length_a 14.915611
_cell_length_b 16.296648
_cell_length_c 7.008007
_cell_angle_alpha 82.064451
_cell_angle_beta 111.472169
_cell_angle_gamma 155.349385
_cell_volume 572.041678
_symmetry_space_group_name_H-M "P -1"
_symmetry_group_IT_number 2
_symmetry_cell_setting 'triclinic'
loop_
_space_group_symop_operation_xyz
x,y,z
-x,-y,-z
loop_
_atom_site_type_symbol
_atom_site_label
_atom_site_fract_x
_atom_site_fract_y
_atom_site_fract_z
Si Si1 0.566361 0.944546 0.132578
Si Si2 0.536908 0.283885 0.388962
Si Si3 0.885119 0.165381 0.937745
Si Si4 0.407462 0.642846 0.041373
Si Si5 0.400182 0.509637 0.364992
Si Si6 0.073907 0.626522 0.677033
O O1 0.551117 0.834793 0.194185
O O2 0.749756 0.153439 0.327277
O O3 0.268578 0.738762 0.943530
O O4 0.693708 0.051164 0.982926
O O5 0.521879 0.357568 0.465023
O O6 0.802511 0.447633 0.600354
O O7 0.286962 0.023108 0.286404
O O8 0.562157 0.323558 0.170016
O O9 0.096460 0.395552 0.933008
O O10 0.081855 0.259744 0.173540
O O11 0.499771 0.628939 0.203856
O O12 0.500000 0.500000 0.500000
O O13 0.000000 0.500000 0.500000
#
# Coordination Sequence:
#
# PCOD9101702 Si02
#       6
#     2   2   2   2   2   2
#     4  10  20  38  60  88 130 160 198 253 290 367
#     4  11  21  41  64  86 129 162 193 261 304 349
#     4   9  20  40  59  88 123 154 205 253 290 368
#     4   9  21  40  62  92 121 159 211 242 302 375
#     4  10  23  43  63  89 123 159 205 260 306 352
#     4  11  19  34  65  89 123 168 195 241 311 351
#
# _framework density 20.977492999999999
#
# number of rings (size 3 to 8) (size 9 to 14) (size 15 to 20)
#    1.000    1.000    5.000    0.000    0.000    2.667 
#    0.000   14.167    0.000    0.000    0.000    0.000 
#    0.000    0.000    0.000    0.000    0.000    0.000 
#
# Total GULP energy -66888.650565 kJ/mol
# GULP energy per Si atom -5574.054214 kJ/mol
# Density = 2.092975 g / cm^3
# Si number density = 20.977493 Si / 1000 Ang^3
#
#
#
# Elastic Constant Matrix: (Units=GPa)
#
#
# Indices 1 2 3 4 5 6 
#
# 1 67.7010 1.7470 18.8253 16.0437 -6.0513 -16.2625
# 2 1.7470 75.7266 15.8460 22.9822 -9.3778 -14.3888
# 3 18.8253 15.8460 77.9265 24.1607 -10.2391 -11.1229
# 4 16.0437 22.9822 24.1607 41.7530 -12.4887 -12.7478
# 5 -6.0513 -9.3778 -10.2391 -12.4887 32.3267 -3.2735
# 6 -16.2625 -14.3888 -11.1229 -12.7478 -3.2735 28.6395
#
#
#
# Elastic Compliance Matrix: (Units=1/GPa)
#
#
# Indices 1 2 3 4 5 6 
#
# 1 0.019010 0.003587 -0.002201 -0.003759 0.003510 0.010470
# 2 0.003587 0.017324 -0.000607 -0.007150 0.003525 0.007725
# 3 -0.002201 -0.000607 0.016193 -0.007028 0.002012 0.001836
# 4 -0.003759 -0.007150 -0.007028 0.040142 0.011591 0.010736
# 5 0.003510 0.003525 0.002012 0.011591 0.039165 0.014181
# 6 0.010470 0.007725 0.001836 0.010736 0.014181 0.051856
#
#
# Mechanical properties :
#
#
# Convention : Reuss Voigt Hill
#
# Bulk Modulus (GPa) = 18.48915 32.68784 25.58849
# Shear Modulus (GPa) = 24.98003 32.87288 28.92645
#
# Velocity S-wave (km/s) = 3.45454 3.96290 3.71742
# Velocity P-wave (km/s) = 4.97441 6.04612 5.53626
#
# Compressibility (1/GPa) = 0.05408578
#
# Stress axis : x y z
#
# Youngs Moduli (GPa) = 52.60475 57.72375 61.75457
#
# Poissons Ratio (x) = -0.20704 0.13590
# Poissons Ratio (y) = -0.18868 0.03746
# Poissons Ratio (z) = 0.11576 0.03502
#
# Static dielectric constant tensor:
#      x y z
#    x 1.734430 0.003540 -0.016310 
#    y 0.003540 1.803470 -0.009630 
#    z -0.016310 -0.009630 1.795620 
# 
# From -- ./inp_files/313197.got.cif
#   From: 2010.05.17/outbox.cif.g08.bks.cpg/sg2_157_cif.got.tgz:313197.got - 2010.06.03 11:33:40.
