data_PCOD9101591
_publ_section_title
;
Structure prediction by ZEFSAII (Michael W. Deem and Ramdas Pophale) SiO2 
 PCOD9101591
Probable space group: P -1
;
_chemical_formula_sum "Si O2"
_cell_formula_units_Z 16
_cell_length_a 5.041096
_cell_length_b 19.370623
_cell_length_c 29.559606
_cell_angle_alpha 18.218477
_cell_angle_beta 93.855104
_cell_angle_gamma 101.325911
_cell_volume 815.086783
_symmetry_space_group_name_H-M "P -1"
_symmetry_group_IT_number 2
_symmetry_cell_setting 'triclinic'
loop_
_space_group_symop_operation_xyz
x,y,z
-x,-y,-z
loop_
_atom_site_type_symbol
_atom_site_label
_atom_site_fract_x
_atom_site_fract_y
_atom_site_fract_z
Si Si1 0.309098 0.229351 0.356446
Si Si2 0.359946 0.733390 0.313563
Si Si3 0.561268 0.982201 0.331037
Si Si4 0.429010 0.940749 0.612366
Si Si5 0.693762 0.431606 0.481770
Si Si6 0.416755 0.258373 0.988560
Si Si7 0.207618 0.268563 0.125132
Si Si8 0.993454 0.411214 0.942122
O O1 0.403053 0.190752 0.331153
O O2 0.472188 0.162375 0.441322
O O3 0.384689 0.513748 0.183231
O O4 0.000000 0.000000 0.500000
O O5 0.610872 0.660325 0.343562
O O6 0.383919 0.714469 0.380320
O O7 0.043621 0.528970 0.421787
O O8 0.363550 0.990470 0.139298
O O9 0.491789 0.972335 0.389778
O O10 0.333325 0.066726 0.251348
O O11 0.905990 0.166624 0.214269
O O12 0.491895 0.732153 0.459799
O O13 0.115745 0.703625 0.757698
O O14 0.131613 0.299784 0.974088
O O15 0.644028 0.301138 0.005934
O O16 0.109700 0.341669 0.031919
O O17 0.500000 0.500000 0.000000
#
# Coordination Sequence:
#
# PCOD9101591 Si02
#       8
#     2   2   2   2   2   2   2   2
#     4  10  21  40  61  86 118 157 202 250 299 362
#     4  10  20  38  60  84 115 151 202 251 292 347
#     4  12  25  39  59  87 125 167 198 238 303 359
#     4  10  23  37  58  85 121 159 196 243 297 358
#     4  10  21  38  60  84 116 157 199 244 296 351
#     4  11  22  36  63  87 114 156 201 252 299 345
#     4  12  24  35  54  86 129 165 191 230 284 368
#     4  11  21  35  55  86 123 156 192 230 295 362
#
# _framework density 19.629809999999999
#
# number of rings (size 3 to 8) (size 9 to 14) (size 15 to 20)
#    0.000    1.250    2.500    4.125    3.500    2.000 
#    0.000    0.000    0.000    1.500    0.000    0.000 
#    0.000    0.000    0.000    0.000    0.000    0.000 
#
# Total GULP energy -89148.272756 kJ/mol
# GULP energy per Si atom -5571.767047 kJ/mol
# Density = 1.958513 g / cm^3
# Si number density = 19.629810 Si / 1000 Ang^3
#
#
#
# Elastic Constant Matrix: (Units=GPa)
#
#
# Indices 1 2 3 4 5 6 
#
# 1 72.9404 18.8659 17.8013 14.1005 6.8988 9.3078
# 2 18.8659 72.9995 29.1758 -6.1463 -8.4970 -3.5180
# 3 17.8013 29.1758 106.6377 -2.5194 20.8182 -8.3262
# 4 14.1005 -6.1463 -2.5194 19.1102 1.3662 -1.7572
# 5 6.8988 -8.4970 20.8182 1.3662 34.7912 0.9749
# 6 9.3078 -3.5180 -8.3262 -1.7572 0.9749 16.8319
#
#
#
# Elastic Compliance Matrix: (Units=1/GPa)
#
#
# Indices 1 2 3 4 5 6 
#
# 1 0.023261 -0.007902 -0.002971 -0.021510 -0.003415 -0.018032
# 2 -0.007902 0.020129 -0.005126 0.011611 0.008906 0.006737
# 3 -0.002971 -0.005126 0.013839 0.003803 -0.009327 0.008354
# 4 -0.021510 0.011611 0.003803 0.074546 0.001228 0.023914
# 5 -0.003415 0.008906 -0.009327 0.001228 0.037209 -0.002891
# 6 -0.018032 0.006737 0.008354 0.023914 -0.002891 0.077587
#
#
# Mechanical properties :
#
#
# Convention : Reuss Voigt Hill
#
# Bulk Modulus (GPa) = 39.63351 42.69596 41.16473
# Shear Modulus (GPa) = 17.42296 26.59563 22.00929
#
# Velocity S-wave (km/s) = 2.98245 3.68483 3.35209
# Velocity P-wave (km/s) = 5.66519 6.31679 5.99984
#
# Compressibility (1/GPa) = 0.02523118
#
# Stress axis : x y z
#
# Youngs Moduli (GPa) = 42.99087 49.68067 72.25972
#
# Poissons Ratio (x) = 0.39257 0.21465
# Poissons Ratio (y) = 0.33970 0.37042
# Poissons Ratio (z) = 0.12771 0.25467
#
# Static dielectric constant tensor:
#      x y z
#    x 1.771250 0.009730 -0.000830 
#    y 0.009730 1.710160 -0.014790 
#    z -0.000830 -0.014790 1.820620 
# 
# From -- ./inp_files/410261.got.cif
#   From: 2010.05.17/outbox.cif.g08.bks.cpg/sg2_206_cif.got.tgz:410261.got - 2010.06.03 11:33:40.
