data_PCOD9101477
_publ_section_title
;
Structure prediction by ZEFSAII (Michael W. Deem and Ramdas Pophale) SiO2 
 PCOD9101477
Probable space group: P -1
;
_chemical_formula_sum "Si O2"
_cell_formula_units_Z 16
_cell_length_a 8.787918
_cell_length_b 15.219221
_cell_length_c 9.820037
_cell_angle_alpha 74.253009
_cell_angle_beta 65.411340
_cell_angle_gamma 119.366269
_cell_volume 832.698793
_symmetry_space_group_name_H-M "P -1"
_symmetry_group_IT_number 2
_symmetry_cell_setting 'triclinic'
loop_
_space_group_symop_operation_xyz
x,y,z
-x,-y,-z
loop_
_atom_site_type_symbol
_atom_site_label
_atom_site_fract_x
_atom_site_fract_y
_atom_site_fract_z
Si Si1 0.078751 0.442585 0.405652
Si Si2 0.757851 0.935414 0.549004
Si Si3 0.414272 0.931794 0.851744
Si Si4 0.027990 0.388854 0.135493
Si Si5 0.683975 0.190728 0.768629
Si Si6 0.484029 0.299590 0.904312
Si Si7 0.382949 0.664752 0.842832
Si Si8 0.034124 0.837258 0.819512
O O1 0.001495 0.418602 0.286050
O O2 0.355381 0.553736 0.255969
O O3 0.000000 0.500000 0.500000
O O4 0.946033 0.308004 0.577039
O O5 0.588559 0.927242 0.716364
O O6 0.611402 0.788852 0.630219
O O7 0.821909 0.030944 0.367608
O O8 0.000000 0.000000 0.500000
O O9 0.188700 0.864306 0.876088
O O10 0.553377 0.077829 0.758658
O O11 0.337604 0.865598 0.054235
O O12 0.825490 0.349823 0.128769
O O13 0.014571 0.274704 0.197983
O O14 0.270127 0.521326 0.932901
O O15 0.558415 0.240843 0.811864
O O16 0.553054 0.304180 0.033856
O O17 0.215192 0.217021 0.028359
#
# Coordination Sequence:
#
# PCOD9101477 Si02
#       8
#     2   2   2   2   2   2   2   2
#     4   9  20  36  61  81 112 156 199 235 284 355
#     4  12  22  39  60  89 124 155 190 250 306 351
#     4  11  23  37  62  85 119 158 200 244 295 355
#     4  10  21  37  63  89 116 156 200 245 301 350
#     4  10  20  40  60  82 116 162 202 238 295 353
#     4  10  20  40  59  87 121 156 192 249 301 347
#     4  10  20  38  59  88 120 155 192 244 304 351
#     4  12  23  37  63  90 124 151 199 254 296 352
#
# _framework density 19.21463
#
# number of rings (size 3 to 8) (size 9 to 14) (size 15 to 20)
#    0.000    1.500    3.750    1.125    1.750    2.500 
#    2.250    0.625    0.000    0.000    0.000    0.000 
#    0.000    0.000    0.000    0.000    0.000    0.000 
#
# Total GULP energy -89183.250266 kJ/mol
# GULP energy per Si atom -5573.953142 kJ/mol
# Density = 1.917090 g / cm^3
# Si number density = 19.214630 Si / 1000 Ang^3
#
#
#
# Elastic Constant Matrix: (Units=GPa)
#
#
# Indices 1 2 3 4 5 6 
#
# 1 65.4279 27.6290 30.5779 -0.6392 -11.4732 15.2489
# 2 27.6290 97.3020 44.8557 -27.1976 -6.1153 11.0850
# 3 30.5779 44.8557 105.4313 -38.4462 -7.4736 5.8412
# 4 -0.6392 -27.1976 -38.4462 43.0532 4.0914 -0.4034
# 5 -11.4732 -6.1153 -7.4736 4.0914 11.0857 -9.1534
# 6 15.2489 11.0850 5.8412 -0.4034 -9.1534 20.7395
#
#
#
# Elastic Compliance Matrix: (Units=1/GPa)
#
#
# Indices 1 2 3 4 5 6 
#
# 1 0.025502 -0.005006 -0.007890 -0.011527 0.017218 -0.006478
# 2 -0.005006 0.015354 -0.002174 0.008267 -0.006807 -0.006757
# 3 -0.007890 -0.002174 0.017825 0.014575 -0.001399 0.001609
# 4 -0.011527 0.008267 0.014575 0.043133 -0.020154 -0.008105
# 5 0.017218 -0.006807 -0.001399 -0.020154 0.162560 0.062726
# 6 -0.006478 -0.006757 0.001609 -0.008105 0.062726 0.083665
#
#
# Mechanical properties :
#
#
# Convention : Reuss Voigt Hill
#
# Bulk Modulus (GPa) = 35.03830 52.69848 43.86839
# Shear Modulus (GPa) = 12.89687 25.98226 19.43956
#
# Velocity S-wave (km/s) = 2.59356 3.68123 3.18418
# Velocity P-wave (km/s) = 5.21954 6.74940 6.03316
#
# Compressibility (1/GPa) = 0.02854019
#
# Stress axis : x y z
#
# Youngs Moduli (GPa) = 39.21297 65.13143 56.10205
#
# Poissons Ratio (x) = 0.32602 0.44267
# Poissons Ratio (y) = 0.19628 0.12196
# Poissons Ratio (z) = 0.30941 0.14159
#
# Static dielectric constant tensor:
#      x y z
#    x 1.634090 -0.015030 0.020790 
#    y -0.015030 1.718700 -0.038170 
#    z 0.020790 -0.038170 1.692820 
# 
# From -- ./inp_files/206774.got.cif
#   From: 2010.05.17/outbox.cif.g08.bks.cpg/sg2_104_cif.got.tgz:206774.got - 2010.06.03 11:33:40.
