data_PCOD9101390
_publ_section_title
;
Structure prediction by ZEFSAII (Michael W. Deem and Ramdas Pophale) SiO2 
 PCOD9101390
Probable space group: P -1
;
_chemical_formula_sum "Si O2"
_cell_formula_units_Z 16
_cell_length_a 11.263409
_cell_length_b 7.702209
_cell_length_c 10.512930
_cell_angle_alpha 106.636991
_cell_angle_beta 75.754426
_cell_angle_gamma 60.161154
_cell_volume 670.074974
_symmetry_space_group_name_H-M "P -1"
_symmetry_group_IT_number 2
_symmetry_cell_setting 'triclinic'
loop_
_space_group_symop_operation_xyz
x,y,z
-x,-y,-z
loop_
_atom_site_type_symbol
_atom_site_label
_atom_site_fract_x
_atom_site_fract_y
_atom_site_fract_z
Si Si1 0.052291 0.086968 0.144097
Si Si2 0.818155 0.168309 0.418772
Si Si3 0.252720 0.301122 0.063422
Si Si4 0.707350 0.154899 0.788106
Si Si5 0.512128 0.374734 0.652624
Si Si6 0.905469 0.302977 0.652231
Si Si7 0.806090 0.406889 0.110303
Si Si8 0.546289 0.212396 0.093502
O O1 0.906367 0.115048 0.253052
O O2 0.969672 0.296636 0.112464
O O3 0.150469 0.079986 0.233757
O O4 0.156978 0.832264 0.000577
O O5 0.638146 0.275983 0.485743
O O6 0.846183 0.324621 0.529206
O O7 0.921944 0.929548 0.420657
O O8 0.111884 0.492413 0.229987
O O9 0.393740 0.236375 0.106334
O O10 0.233055 0.431059 0.965020
O O11 0.311038 0.046994 0.960958
O O12 0.612419 0.182166 0.695960
O O13 0.791403 0.266693 0.751880
O O14 0.587121 0.264272 0.957815
O O15 0.339230 0.452500 0.724064
O O16 0.488495 0.600132 0.758268
#
# Coordination Sequence:
#
# PCOD9101390 Si02
#       8
#     2   2   2   2   2   2   2   2
#     4  10  20  32  55  76 106 135 171 214 255 305
#     4   9  17  29  52  79 100 134 169 212 257 301
#     4  11  19  31  50  81 109 130 170 218 262 295
#     4  10  16  32  53  76  98 133 177 209 247 295
#     4  11  18  32  57  80 102 131 176 218 249 301
#     4   9  16  30  52  75 103 133 167 216 258 297
#     4  11  20  34  53  79 105 134 174 216 253 299
#     4  11  19  28  52  82 104 132 172 218 256 300
#
# _framework density 23.877922999999999
#
# number of rings (size 3 to 8) (size 9 to 14) (size 15 to 20)
#    0.000    1.750    7.500    1.125    0.000    0.500 
#    0.000    0.625    0.000   15.750    0.000    0.000 
#    0.000    0.000    0.000    0.000    0.000    0.000 
#
# Total GULP energy -89137.006219 kJ/mol
# GULP energy per Si atom -5571.062889 kJ/mol
# Density = 2.382358 g / cm^3
# Si number density = 23.877923 Si / 1000 Ang^3
#
#
#
# Elastic Constant Matrix: (Units=GPa)
#
#
# Indices 1 2 3 4 5 6 
#
# 1 35.8325 16.0091 1.0040 11.5218 -2.1064 -14.4051
# 2 16.0091 105.4765 -1.2676 16.8410 -0.6949 -17.7635
# 3 1.0040 -1.2676 93.9364 13.1645 -28.4166 6.6804
# 4 11.5218 16.8410 13.1645 25.4314 -11.6529 -4.5836
# 5 -2.1064 -0.6949 -28.4166 -11.6529 28.7387 6.4224
# 6 -14.4051 -17.7635 6.6804 -4.5836 6.4224 40.4917
#
#
#
# Elastic Compliance Matrix: (Units=1/GPa)
#
#
# Indices 1 2 3 4 5 6 
#
# 1 0.038843 -0.000915 -0.001526 -0.017911 -0.008862 0.013047
# 2 -0.000915 0.011713 -0.000378 -0.008421 -0.004612 0.004654
# 3 -0.001526 -0.000378 0.016406 -0.000808 0.017165 -0.006230
# 4 -0.017911 -0.008421 -0.000808 0.063680 0.025000 -0.006689
# 5 -0.008862 -0.004612 0.017165 0.025000 0.064592 -0.015423
# 6 0.013047 0.004654 -0.006230 -0.006689 -0.015423 0.034096
#
#
# Mechanical properties :
#
#
# Convention : Reuss Voigt Hill
#
# Bulk Modulus (GPa) = 16.30737 29.63736 22.97236
# Shear Modulus (GPa) = 19.57646 33.56572 26.57109
#
# Velocity S-wave (km/s) = 2.86642 3.75336 3.33947
# Velocity P-wave (km/s) = 4.21894 5.58772 4.95086
#
# Compressibility (1/GPa) = 0.06132198
#
# Stress axis : x y z
#
# Youngs Moduli (GPa) = 25.74499 85.37551 60.95485
#
# Poissons Ratio (x) = 0.07813 0.09303
# Poissons Ratio (y) = 0.02356 0.02306
# Poissons Ratio (z) = 0.03929 0.03229
#
# Static dielectric constant tensor:
#      x y z
#    x 2.044160 -0.006670 -0.030850 
#    y -0.006670 2.010240 -0.016390 
#    z -0.030850 -0.016390 1.968540 
# 
# From -- ./inp_files/446075.got.cif
#   From: 2010.05.17/outbox.cif.g08.bks.cpg/sg2_224_cif.got.tgz:446075.got - 2010.06.03 11:33:40.
