data_PCOD9101088
_publ_section_title
;
Structure prediction by ZEFSAII (Michael W. Deem and Ramdas Pophale) SiO2 
 PCOD9101088
Probable space group: P -1
;
_chemical_formula_sum "Si O2"
_cell_formula_units_Z 14
_cell_length_a 11.564557
_cell_length_b 20.808613
_cell_length_c 20.026908
_cell_angle_alpha 157.354182
_cell_angle_beta 158.314329
_cell_angle_gamma 34.459711
_cell_volume 666.903277
_symmetry_space_group_name_H-M "P -1"
_symmetry_group_IT_number 2
_symmetry_cell_setting 'triclinic'
loop_
_space_group_symop_operation_xyz
x,y,z
-x,-y,-z
loop_
_atom_site_type_symbol
_atom_site_label
_atom_site_fract_x
_atom_site_fract_y
_atom_site_fract_z
Si Si1 0.123202 0.305039 0.442441
Si Si2 0.503297 0.569751 0.800068
Si Si3 0.835993 0.054127 0.897049
Si Si4 0.680787 0.639982 0.628326
Si Si5 0.266441 0.856181 0.692337
Si Si6 0.154007 0.123806 0.641414
Si Si7 0.145099 0.432908 0.720060
O O1 0.356142 0.399040 0.599835
O O2 0.177962 0.423618 0.649640
O O3 0.762680 0.313514 0.235324
O O4 0.184527 0.123510 0.323493
O O5 0.522804 0.499091 0.667385
O O6 0.782024 0.687781 0.107777
O O7 0.492113 0.090471 0.764482
O O8 0.069800 0.214274 0.140446
O O9 0.000000 0.000000 0.000000
O O10 0.465335 0.733080 0.646199
O O11 0.894236 0.552150 0.707359
O O12 0.081890 0.911207 0.582445
O O13 0.008992 0.745670 0.498741
O O14 0.500000 0.000000 0.000000
O O15 0.000000 0.000000 0.500000
O O16 0.500000 0.500000 0.000000
#
# Coordination Sequence:
#
# PCOD9101088 Si02
#       7
#     2   2   2   2   2   2   2
#     4  10  20  37  71  97 131 174 221 284 338 403
#     4  10  20  40  66 101 131 169 231 282 339 398
#     4  12  20  40  68 103 135 173 228 283 351 401
#     4  11  24  42  74  97 135 187 229 282 350 411
#     4  12  28  48  67 100 148 187 230 285 349 416
#     4  12  27  43  67 103 142 179 233 288 343 415
#     4  11  24  45  69  97 137 184 236 282 342 420
#
# _framework density 20.992550000000001
#
# number of rings (size 3 to 8) (size 9 to 14) (size 15 to 20)
#    0.000    0.857    2.857    5.571    4.000    1.714 
#    2.571    2.857    0.000    0.000    0.000    0.000 
#    0.000    0.000    0.000    0.000    0.000    0.000 
#
# Total GULP energy -78148.032926 kJ/mol
# GULP energy per Si atom -5582.002352 kJ/mol
# Density = 2.094477 g / cm^3
# Si number density = 20.992550 Si / 1000 Ang^3
#
#
#
# Elastic Constant Matrix: (Units=GPa)
#
#
# Indices 1 2 3 4 5 6 
#
# 1 75.0350 24.1985 39.7016 -9.7332 -9.1497 4.9149
# 2 24.1985 81.3003 36.6186 -7.6946 -22.8068 9.3609
# 3 39.7016 36.6186 122.6675 -3.8947 -18.9608 3.1348
# 4 -9.7332 -7.6946 -3.8947 37.5621 8.7341 -7.2438
# 5 -9.1497 -22.8068 -18.9608 8.7341 31.5139 4.4082
# 6 4.9149 9.3609 3.1348 -7.2438 4.4082 40.1739
#
#
#
# Elastic Compliance Matrix: (Units=1/GPa)
#
#
# Indices 1 2 3 4 5 6 
#
# 1 0.017101 -0.002839 -0.004697 0.003491 -0.000835 -0.000343
# 2 -0.002839 0.018085 -0.002570 -0.001012 0.011716 -0.005134
# 3 -0.004697 -0.002570 0.011000 -0.001584 0.003890 -0.000397
# 4 0.003491 -0.001012 -0.001584 0.030782 -0.010125 0.006594
# 5 -0.000835 0.011716 0.003890 -0.010125 0.046494 -0.009859
# 6 -0.000343 -0.005134 -0.000397 0.006594 -0.009859 0.028432
#
#
# Mechanical properties :
#
#
# Convention : Reuss Voigt Hill
#
# Bulk Modulus (GPa) = 38.49788 53.33779 45.91783
# Shear Modulus (GPa) = 27.66050 33.74892 30.70471
#
# Velocity S-wave (km/s) = 3.63386 4.01392 3.82861
# Velocity P-wave (km/s) = 5.99877 6.85165 6.43935
#
# Compressibility (1/GPa) = 0.02597546
#
# Stress axis : x y z
#
# Youngs Moduli (GPa) = 58.47525 55.29596 90.90508
#
# Poissons Ratio (x) = 0.15698 0.42697
# Poissons Ratio (y) = 0.16600 0.23360
# Poissons Ratio (z) = 0.27465 0.14210
#
# Static dielectric constant tensor:
#      x y z
#    x 1.766540 -0.047050 -0.076190 
#    y -0.047050 1.894540 0.032460 
#    z -0.076190 0.032460 1.852140 
# 
# From -- ./inp_files/242899.got.cif
#   From: 2010.05.17/outbox.cif.g08.bks.cpg/sg2_122_cif.got.tgz:242899.got - 2010.06.03 11:33:40.
