data_PCOD9101571
_publ_section_title
;
Structure prediction by ZEFSAII (Michael W. Deem and Ramdas Pophale) SiO2 
 PCOD9101571
Probable space group: P -1
;
_chemical_formula_sum "Si O2"
_cell_formula_units_Z 14
_cell_length_a 13.151856
_cell_length_b 11.777846
_cell_length_c 11.220568
_cell_angle_alpha 84.242160
_cell_angle_beta 143.045326
_cell_angle_gamma 124.613369
_cell_volume 601.509881
_symmetry_space_group_name_H-M "P -1"
_symmetry_group_IT_number 2
_symmetry_cell_setting 'triclinic'
loop_
_space_group_symop_operation_xyz
x,y,z
-x,-y,-z
loop_
_atom_site_type_symbol
_atom_site_label
_atom_site_fract_x
_atom_site_fract_y
_atom_site_fract_z
Si Si1 0.388541 0.309459 0.414223
Si Si2 0.655470 0.597280 0.262826
Si Si3 0.046424 0.900341 0.416061
Si Si4 0.604209 0.124837 0.254088
Si Si5 0.881137 0.320279 0.246991
Si Si6 0.253463 0.117305 0.059820
Si Si7 0.619631 0.361588 0.856949
O O1 0.500000 0.500000 0.500000
O O2 0.361455 0.240648 0.265957
O O3 0.603997 0.359840 0.700241
O O4 0.060571 0.115742 0.181162
O O5 0.932307 0.825801 0.452051
O O6 0.452491 0.553527 0.167721
O O7 0.805728 0.566266 0.455319
O O8 0.500000 0.500000 0.000000
O O9 0.147211 0.828522 0.478867
O O10 0.822547 0.836249 0.122614
O O11 0.338666 0.134224 0.658980
O O12 0.737789 0.261375 0.248929
O O13 0.477605 0.145111 0.224491
O O14 0.331065 0.893483 0.985441
O O15 0.875862 0.431115 0.151220
#
# Coordination Sequence:
#
# PCOD9101571 Si02
#       7
#     2   2   2   2   2   2   2
#     4  10  23  40  63  90 120 161 213 257 297 355
#     4  11  22  33  58  94 123 158 187 242 310 369
#     4   9  19  36  62  91 117 153 199 242 299 373
#     4   9  17  34  65  93 116 154 201 243 295 373
#     4   9  18  35  59  93 124 151 198 243 299 372
#     4  10  20  40  67  87 118 166 202 250 308 352
#     4  10  20  38  60  82 117 163 197 248 302 350
#
# _framework density 23.274764000000001
#
# number of rings (size 3 to 8) (size 9 to 14) (size 15 to 20)
#    0.000    2.286    0.000    3.857    2.000    0.571 
#    0.000   12.857    6.286   14.571    0.000    0.000 
#    0.000    0.000    0.000    0.000    0.000    0.000 
#
# Total GULP energy -78325.409420 kJ/mol
# GULP energy per Si atom -5594.672101 kJ/mol
# Density = 2.322179 g / cm^3
# Si number density = 23.274764 Si / 1000 Ang^3
#
#
#
# Elastic Constant Matrix: (Units=GPa)
#
#
# Indices 1 2 3 4 5 6 
#
# 1 110.6683 47.9182 60.3067 -21.1175 -0.2261 -20.1456
# 2 47.9182 97.4575 37.3580 -12.1493 6.9987 -6.5439
# 3 60.3067 37.3580 134.7914 -25.3387 21.3219 -13.6145
# 4 -21.1175 -12.1493 -25.3387 44.6297 -7.9724 2.5163
# 5 -0.2261 6.9987 21.3219 -7.9724 17.9265 -4.1799
# 6 -20.1456 -6.5439 -13.6145 2.5163 -4.1799 31.1622
#
#
#
# Elastic Compliance Matrix: (Units=1/GPa)
#
#
# Indices 1 2 3 4 5 6 
#
# 1 0.018131 -0.006093 -0.006953 0.005195 0.015295 0.009036
# 2 -0.006093 0.013652 -0.000447 -0.000285 -0.005463 -0.001977
# 3 -0.006953 -0.000447 0.013237 0.001435 -0.015245 -0.000966
# 4 0.005195 -0.000285 0.001435 0.027463 0.011439 0.003243
# 5 0.015295 -0.005463 -0.015245 0.011439 0.084233 0.012455
# 6 0.009036 -0.001977 -0.000966 0.003243 0.012455 0.038503
#
#
# Mechanical properties :
#
#
# Convention : Reuss Voigt Hill
#
# Bulk Modulus (GPa) = 55.45098 70.45366 62.95232
# Shear Modulus (GPa) = 21.90903 31.89931 26.90417
#
# Velocity S-wave (km/s) = 3.07142 3.70612 3.40360
# Velocity P-wave (km/s) = 6.03775 6.97494 6.52320
#
# Compressibility (1/GPa) = 0.01803395
#
# Stress axis : x y z
#
# Youngs Moduli (GPa) = 55.15461 73.24884 75.54433
#
# Poissons Ratio (x) = 0.44632 0.52528
# Poissons Ratio (y) = 0.33607 0.03374
# Poissons Ratio (z) = 0.38351 0.03271
#
# Static dielectric constant tensor:
#      x y z
#    x 1.838920 0.003040 0.014030 
#    y 0.003040 1.982030 0.090750 
#    z 0.014030 0.090750 1.975410 
# 
# From -- ./inp_files/281899.got.cif
#   From: 2010.05.17/outbox.cif.g08.bks.cpg/sg2_141_cif.got.tgz:281899.got - 2010.06.03 11:33:40.
