data_PCOD9101975
_publ_section_title
;
Structure prediction by ZEFSAII (Michael W. Deem and Ramdas Pophale) SiO2 
 PCOD9101975
Probable space group: P -1
;
_chemical_formula_sum "Si O2"
_cell_formula_units_Z 16
_cell_length_a 7.993212
_cell_length_b 6.911908
_cell_length_c 17.207470
_cell_angle_alpha 78.918796
_cell_angle_beta 93.083261
_cell_angle_gamma 134.697934
_cell_volume 658.640154
_symmetry_space_group_name_H-M "P -1"
_symmetry_group_IT_number 2
_symmetry_cell_setting 'triclinic'
loop_
_space_group_symop_operation_xyz
x,y,z
-x,-y,-z
loop_
_atom_site_type_symbol
_atom_site_label
_atom_site_fract_x
_atom_site_fract_y
_atom_site_fract_z
Si Si1 0.496994 0.773880 0.494720
Si Si2 0.676554 0.138024 0.880852
Si Si3 0.188898 0.445797 0.037430
Si Si4 0.860440 0.423888 0.704407
Si Si5 0.660746 0.049897 0.323290
Si Si6 0.245083 0.052939 0.831326
Si Si7 0.812905 0.725033 0.566548
Si Si8 0.575364 0.476342 0.104822
O O1 0.596781 0.701557 0.563743
O O2 0.244709 0.498884 0.478086
O O3 0.500000 0.000000 0.500000
O O4 0.650139 0.901054 0.409222
O O5 0.430175 0.046831 0.869103
O O6 0.609694 0.858057 0.881157
O O7 0.778916 0.300829 0.953248
O O8 0.839370 0.364243 0.799790
O O9 0.435297 0.544821 0.060124
O O10 0.989493 0.178848 0.105709
O O11 0.198109 0.404182 0.949633
O O12 0.836356 0.629231 0.655647
O O13 0.139404 0.618422 0.678593
O O14 0.615867 0.121597 0.687766
O O15 0.752685 0.004316 0.254526
O O16 0.333999 0.350728 0.826377
O O17 0.000000 0.000000 0.500000
#
# Coordination Sequence:
#
# PCOD9101975 Si02
#       8
#     2   2   2   2   2   2   2   2
#     4  10  22  40  66  96 128 165 217 268 321 390
#     4  10  21  38  60  86 127 167 211 263 321 380
#     4  10  20  38  61  89 126 162 207 273 319 378
#     4  10  20  39  66  88 127 173 211 258 325 383
#     4  10  20  40  66  88 129 174 207 263 327 377
#     4  10  21  38  62  84 128 165 209 264 321 379
#     4  10  20  39  67  90 128 169 209 265 328 384
#     4  10  22  37  60  94 121 162 218 263 318 385
#
# _framework density 24.292473999999999
#
# number of rings (size 3 to 8) (size 9 to 14) (size 15 to 20)
#    0.000    2.000    2.500    0.750    0.000    2.000 
#    0.000   18.750    0.000    0.000    0.000    0.000 
#    0.000    0.000    0.000    0.000    0.000    0.000 
#
# Total GULP energy -89068.306561 kJ/mol
# GULP energy per Si atom -5566.769160 kJ/mol
# Density = 2.423718 g / cm^3
# Si number density = 24.292474 Si / 1000 Ang^3
#
#
#
# Elastic Constant Matrix: (Units=GPa)
#
#
# Indices 1 2 3 4 5 6 
#
# 1 44.3525 12.9053 -8.1117 6.1427 -8.8103 1.0633
# 2 12.9053 154.9720 32.1053 0.4103 -12.5801 -6.4726
# 3 -8.1117 32.1053 63.8877 -13.5112 4.3182 -10.6789
# 4 6.1427 0.4103 -13.5112 42.3411 8.8478 -9.9062
# 5 -8.8103 -12.5801 4.3182 8.8478 20.8615 -9.1996
# 6 1.0633 -6.4726 -10.6789 -9.9062 -9.1996 45.7947
#
#
#
# Elastic Compliance Matrix: (Units=1/GPa)
#
#
# Indices 1 2 3 4 5 6 
#
# 1 0.026690 -0.001635 0.002375 -0.005483 0.012580 0.001044
# 2 -0.001635 0.008291 -0.005310 -0.002810 0.006933 0.000757
# 3 0.002375 -0.005310 0.022042 0.009671 -0.008810 0.004656
# 4 -0.005483 -0.002810 0.009671 0.032441 -0.017336 0.005520
# 5 0.012580 0.006933 -0.008810 -0.017336 0.070603 0.009067
# 6 0.001044 0.000757 0.004656 0.005520 0.009067 0.026021
#
#
# Mechanical properties :
#
#
# Convention : Reuss Voigt Hill
#
# Bulk Modulus (GPa) = 20.88474 37.44555 29.16514
# Shear Modulus (GPa) = 23.67549 36.88702 30.28126
#
# Velocity S-wave (km/s) = 3.12525 3.90096 3.53445
# Velocity P-wave (km/s) = 4.65175 5.97812 5.35615
#
# Compressibility (1/GPa) = 0.04788186
#
# Stress axis : x y z
#
# Youngs Moduli (GPa) = 37.46708 120.61283 45.36855
#
# Poissons Ratio (x) = 0.19725 -0.10777
# Poissons Ratio (y) = 0.06127 0.24093
# Poissons Ratio (z) = -0.08900 0.64051
#
# Static dielectric constant tensor:
#      x y z
#    x 2.070000 0.099620 0.110620 
#    y 0.099620 2.069100 -0.008350 
#    z 0.110620 -0.008350 2.155960 
# 
# From -- ./inp_files/585328.got.cif
#   From: 2010.05.17/outbox.cif.g08.bks.cpg/sg2_293_cif.got.tgz:585328.got - 2010.06.03 11:33:40.
