data_PCOD9101884
_publ_section_title
;
Structure prediction by ZEFSAII (Michael W. Deem and Ramdas Pophale) SiO2 
 PCOD9101884
Probable space group: P -1
;
_chemical_formula_sum "Si O2"
_cell_formula_units_Z 16
_cell_length_a 5.679800
_cell_length_b 7.982456
_cell_length_c 17.142998
_cell_angle_alpha 64.298026
_cell_angle_beta 88.524372
_cell_angle_gamma 72.780313
_cell_volume 664.178178
_symmetry_space_group_name_H-M "P -1"
_symmetry_group_IT_number 2
_symmetry_cell_setting 'triclinic'
loop_
_space_group_symop_operation_xyz
x,y,z
-x,-y,-z
loop_
_atom_site_type_symbol
_atom_site_label
_atom_site_fract_x
_atom_site_fract_y
_atom_site_fract_z
Si Si1 0.038258 0.569247 0.318525
Si Si2 0.160103 0.233083 0.500158
Si Si3 0.163952 0.294957 0.079058
Si Si4 0.323360 0.479961 0.174650
Si Si5 0.132668 0.157825 0.950182
Si Si6 0.404233 0.286436 0.801362
Si Si7 0.284769 0.924634 0.418501
Si Si8 0.114105 0.973230 0.240117
O O1 0.108234 0.447621 0.420727
O O2 0.239216 0.470614 0.267911
O O3 0.987842 0.802438 0.283751
O O4 0.777655 0.567287 0.286720
O O5 0.415026 0.180862 0.559809
O O6 0.904155 0.202200 0.539295
O O7 0.229434 0.084968 0.455129
O O8 0.349206 0.315977 0.142026
O O9 0.009631 0.170026 0.150299
O O10 0.275237 0.180047 0.022520
O O11 0.000000 0.500000 0.000000
O O12 0.541890 0.573570 0.161140
O O13 0.088639 0.646529 0.108330
O O14 0.286517 0.140331 0.874463
O O15 0.000000 0.000000 0.000000
O O16 0.645111 0.154988 0.783289
O O17 0.196358 0.018842 0.315776
#
# Coordination Sequence:
#
# PCOD9101884 Si02
#       8
#     2   2   2   2   2   2   2   2
#     4  10  22  40  66  93 135 179 217 277 333 405
#     4  10  23  45  71 102 141 183 231 277 342 403
#     4  10  21  40  65  91 124 170 222 284 336 407
#     4   9  20  37  58  88 122 165 216 269 330 397
#     4  10  20  38  61  85 124 164 213 275 334 402
#     4  10  22  39  59  93 128 172 216 273 341 401
#     4  10  24  44  70 104 140 182 227 285 336 410
#     4  11  24  41  64  96 132 173 225 279 344 407
#
# _framework density 24.089922000000001
#
# number of rings (size 3 to 8) (size 9 to 14) (size 15 to 20)
#    0.000    2.000    0.000    3.000    5.250    3.500 
#    2.250    7.500    0.000    0.000    0.000    0.000 
#    0.000    0.000    0.000    0.000    0.000    0.000 
#
# Total GULP energy -89200.118338 kJ/mol
# GULP energy per Si atom -5575.007396 kJ/mol
# Density = 2.403509 g / cm^3
# Si number density = 24.089922 Si / 1000 Ang^3
#
#
#
# Elastic Constant Matrix: (Units=GPa)
#
#
# Indices 1 2 3 4 5 6 
#
# 1 78.0972 19.1985 17.1446 -8.4028 9.3561 15.1118
# 2 19.1985 56.4555 25.2183 9.5242 -1.7094 16.3955
# 3 17.1446 25.2183 136.1012 -8.4703 5.4085 15.4345
# 4 -8.4028 9.5242 -8.4703 43.1254 8.3779 11.1205
# 5 9.3561 -1.7094 5.4085 8.3779 27.7501 -5.9478
# 6 15.1118 16.3955 15.4345 11.1205 -5.9478 20.0588
#
#
#
# Elastic Compliance Matrix: (Units=1/GPa)
#
#
# Indices 1 2 3 4 5 6 
#
# 1 0.025281 -0.003661 0.004051 0.020967 -0.023994 -0.037909
# 2 -0.003661 0.024595 -0.003026 -0.003946 0.001902 -0.012265
# 3 0.004051 -0.003026 0.010349 0.009864 -0.010198 -0.017034
# 4 0.020967 -0.003946 0.009864 0.053304 -0.038424 -0.061105
# 5 -0.023994 0.001902 -0.010198 -0.038424 0.072209 0.067082
# 6 -0.037909 -0.012265 -0.017034 -0.061105 0.067082 0.155312
#
#
# Mechanical properties :
#
#
# Convention : Reuss Voigt Hill
#
# Bulk Modulus (GPa) = 18.19755 43.75295 30.97525
# Shear Modulus (GPa) = 13.71218 32.12637 22.91927
#
# Velocity S-wave (km/s) = 2.38840 3.65581 3.08783
# Velocity P-wave (km/s) = 3.89568 6.00181 5.05955
#
# Compressibility (1/GPa) = 0.05495244
#
# Stress axis : x y z
#
# Youngs Moduli (GPa) = 39.55532 40.65854 96.62973
#
# Poissons Ratio (x) = 0.14885 -0.39147
# Poissons Ratio (y) = 0.14481 0.29244
# Poissons Ratio (z) = -0.16025 0.12305
#
# Static dielectric constant tensor:
#      x y z
#    x 1.959000 0.034300 -0.025510 
#    y 0.034300 2.044260 -0.008680 
#    z -0.025510 -0.008680 1.913240 
# 
# From -- ./inp_files/546992.got.cif
#   From: 2010.05.17/outbox.cif.g08.bks.cpg/sg2_274_cif.got.tgz:546992.got - 2010.06.03 11:33:40.
