data_PCOD9101236
_publ_section_title
;
Structure prediction by ZEFSAII (Michael W. Deem and Ramdas Pophale) SiO2 
 PCOD9101236
Probable space group: P -1
;
_chemical_formula_sum "Si O2"
_cell_formula_units_Z 16
_cell_length_a 8.793940
_cell_length_b 8.396695
_cell_length_c 17.552623
_cell_angle_alpha 130.384439
_cell_angle_beta 139.646543
_cell_angle_gamma 48.629647
_cell_volume 601.404148
_symmetry_space_group_name_H-M "P -1"
_symmetry_group_IT_number 2
_symmetry_cell_setting 'triclinic'
loop_
_space_group_symop_operation_xyz
x,y,z
-x,-y,-z
loop_
_atom_site_type_symbol
_atom_site_label
_atom_site_fract_x
_atom_site_fract_y
_atom_site_fract_z
Si Si1 0.441212 0.366907 0.138003
Si Si2 0.088905 0.365819 0.300611
Si Si3 0.656036 0.952161 0.226117
Si Si4 0.566710 0.575361 0.682303
Si Si5 0.308650 0.255396 0.667285
Si Si6 0.146399 0.140908 0.870046
Si Si7 0.232694 0.292351 0.490204
Si Si8 0.141654 0.940227 0.956651
O O1 0.304074 0.425796 0.186167
O O2 0.561859 0.556945 0.233546
O O3 0.658444 0.120512 0.141108
O O4 0.258229 0.332291 0.994706
O O5 0.293294 0.382495 0.324561
O O6 0.159326 0.214722 0.357520
O O7 0.968951 0.607441 0.366647
O O8 0.890585 0.288897 0.153850
O O9 0.590464 0.886745 0.264264
O O10 0.899821 0.825668 0.228475
O O11 0.663810 0.196369 0.320809
O O12 0.419941 0.934722 0.081230
O O13 0.457080 0.378821 0.579074
O O14 0.313117 0.147818 0.552839
O O15 0.022505 0.111704 0.894509
O O16 0.000000 0.500000 0.500000
O O17 0.000000 0.000000 0.000000
#
# Coordination Sequence:
#
# PCOD9101236 Si02
#       8
#     2   2   2   2   2   2   2   2
#     4   9  15  31  52  75 111 149 189 223 271 348
#     4  11  20  36  61  85 115 155 197 234 285 349
#     4  11  21  35  59  89 119 150 191 244 291 334
#     4  10  19  36  61  83 112 152 197 238 282 345
#     4  10  21  36  57  89 115 152 194 247 285 330
#     4  10  16  32  52  79 107 156 190 217 278 347
#     4   9  21  39  63  83 111 157 202 232 280 353
#     4  12  20  34  59  90 117 148 195 235 284 352
#
# _framework density 26.604406999999998
#
# number of rings (size 3 to 8) (size 9 to 14) (size 15 to 20)
#    0.000    1.750    6.250    0.375    1.750    2.000 
#    0.000    5.625    0.000    5.250    0.000    0.000 
#    0.000    0.000    0.000    0.000    0.000    0.000 
#
# Total GULP energy -89154.638291 kJ/mol
# GULP energy per Si atom -5572.164893 kJ/mol
# Density = 2.654385 g / cm^3
# Si number density = 26.604407 Si / 1000 Ang^3
#
#
#
# Elastic Constant Matrix: (Units=GPa)
#
#
# Indices 1 2 3 4 5 6 
#
# 1 156.4234 24.3730 46.5168 -11.7197 -43.6956 29.5952
# 2 24.3730 35.0750 37.3805 -8.2941 -12.8205 15.6374
# 3 46.5168 37.3805 146.6496 -8.3486 -32.0635 21.2745
# 4 -11.7197 -8.2941 -8.3486 27.5306 11.9801 -14.5519
# 5 -43.6956 -12.8205 -32.0635 11.9801 47.6425 -19.1116
# 6 29.5952 15.6374 21.2745 -14.5519 -19.1116 43.5758
#
#
#
# Elastic Compliance Matrix: (Units=1/GPa)
#
#
# Indices 1 2 3 4 5 6 
#
# 1 0.009206 -0.002571 -0.000498 -0.001286 0.006707 -0.002574
# 2 -0.002571 0.044926 -0.009390 0.005720 -0.001442 -0.008513
# 3 -0.000498 -0.009390 0.010217 -0.001829 0.004361 0.000022
# 4 -0.001286 0.005720 -0.001829 0.046616 -0.007843 0.011841
# 5 0.006707 -0.001442 0.004361 -0.007843 0.034142 0.006189
# 6 -0.002574 -0.008513 0.000022 0.011841 0.006189 0.034410
#
#
# Mechanical properties :
#
#
# Convention : Reuss Voigt Hill
#
# Bulk Modulus (GPa) = 25.36204 61.63206 43.49705
# Shear Modulus (GPa) = 22.98020 39.07496 31.02758
#
# Velocity S-wave (km/s) = 2.94219 3.83657 3.41876
# Velocity P-wave (km/s) = 4.59301 6.54539 5.65411
#
# Compressibility (1/GPa) = 0.03942900
#
# Stress axis : x y z
#
# Youngs Moduli (GPa) = 108.62660 22.25901 97.87898
#
# Poissons Ratio (x) = 0.05723 0.04875
# Poissons Ratio (y) = 0.27928 0.91913
# Poissons Ratio (z) = 0.05410 0.20902
#
# Static dielectric constant tensor:
#      x y z
#    x 2.174890 -0.043380 -0.002330 
#    y -0.043380 2.343690 -0.228550 
#    z -0.002330 -0.228550 2.160230 
# 
# From -- ./inp_files/491312.got.cif
#   From: 2010.05.17/outbox.cif.g08.bks.cpg/sg2_246_cif.got.tgz:491312.got - 2010.06.03 11:33:40.
