data_PCOD9101542
_publ_section_title
;
Structure prediction by ZEFSAII (Michael W. Deem and Ramdas Pophale) SiO2 
 PCOD9101542
Probable space group: P -1
;
_chemical_formula_sum "Si O2"
_cell_formula_units_Z 13
_cell_length_a 12.086041
_cell_length_b 14.559696
_cell_length_c 8.844649
_cell_angle_alpha 138.813178
_cell_angle_beta 41.100822
_cell_angle_gamma 149.067410
_cell_volume 499.284289
_symmetry_space_group_name_H-M "P -1"
_symmetry_group_IT_number 2
_symmetry_cell_setting 'triclinic'
loop_
_space_group_symop_operation_xyz
x,y,z
-x,-y,-z
loop_
_atom_site_type_symbol
_atom_site_label
_atom_site_fract_x
_atom_site_fract_y
_atom_site_fract_z
Si Si1 0.224452 0.886136 0.792363
Si Si2 0.092811 0.448039 0.717684
Si Si3 0.296549 0.985864 0.510658
Si Si4 0.201859 0.490943 0.345820
Si Si5 0.130655 0.146875 0.682256
Si Si6 0.500000 0.500000 0.500000
Si Si7 0.490164 0.414754 0.119335
O O1 0.269471 0.000441 0.735601
O O2 0.057535 0.671358 0.637943
O O3 0.461670 0.954788 0.685723
O O4 0.059546 0.872276 0.058559
O O5 0.190308 0.567742 0.610286
O O6 0.294219 0.479550 0.626448
O O7 0.895270 0.230093 0.608035
O O8 0.000000 0.500000 0.000000
O O9 0.254629 0.102717 0.605197
O O10 0.306968 0.399708 0.191276
O O11 0.358701 0.590526 0.158667
O O12 0.334967 0.371444 0.710370
O O13 0.000000 0.000000 0.500000
O O14 0.405710 0.311579 0.236667
#
# Coordination Sequence:
#
# PCOD9101542 Si02
#       7
#     2   2   2   2   2   1   2
#     4   9  20  39  61  85 117 157 199 239 290 352
#     4  10  21  37  59  87 117 152 194 239 291 352
#     4  10  21  39  61  87 120 157 197 242 289 353
#     4   8  17  37  57  80 116 149 191 244 284 341
#     4  11  22  36  58  89 122 157 193 241 301 351
#     4  10  20  38  60  80 112 150 194 248 292 340
#     4   9  18  36  60  85 114 154 200 243 294 350
#
# _framework density 26.037272000000002
#
# number of rings (size 3 to 8) (size 9 to 14) (size 15 to 20)
#    0.000    2.462    0.000    1.385    0.000    4.308 
#    0.000   30.769    0.000    0.000    0.000    0.000 
#    0.000    0.000    0.000    0.000    0.000    0.000 
#
# Total GULP energy -72597.504938 kJ/mol
# GULP energy per Si atom -5584.423457 kJ/mol
# Density = 2.597801 g / cm^3
# Si number density = 26.037272 Si / 1000 Ang^3
#
#
#
# Elastic Constant Matrix: (Units=GPa)
#
#
# Indices 1 2 3 4 5 6 
#
# 1 145.2448 33.8599 49.2260 -18.7345 9.4282 25.9783
# 2 33.8599 119.5099 42.9870 -19.8228 -4.7733 9.8921
# 3 49.2260 42.9870 203.6487 -37.7584 19.4845 29.3612
# 4 -18.7345 -19.8228 -37.7584 43.7532 13.6930 -15.7778
# 5 9.4282 -4.7733 19.4845 13.6930 29.0673 -7.1140
# 6 25.9783 9.8921 29.3612 -15.7778 -7.1140 46.4253
#
#
#
# Elastic Compliance Matrix: (Units=1/GPa)
#
#
# Indices 1 2 3 4 5 6 
#
# 1 0.008886 -0.001863 0.000029 0.003218 -0.005798 -0.004389
# 2 -0.001863 0.009821 -0.001750 0.001617 0.002885 0.001048
# 3 0.000029 -0.001750 0.008447 0.008575 -0.010915 -0.003744
# 4 0.003218 0.001617 0.008575 0.041210 -0.025313 0.002558
# 5 -0.005798 0.002885 -0.010915 -0.025313 0.058417 0.009881
# 6 -0.004389 0.001048 -0.003744 0.002558 0.009881 0.028524
#
#
# Mechanical properties :
#
#
# Convention : Reuss Voigt Hill
#
# Bulk Modulus (GPa) = 50.03336 80.06103 65.04720
# Shear Modulus (GPa) = 29.56245 46.67119 38.11682
#
# Velocity S-wave (km/s) = 3.37321 4.23836 3.83029
# Velocity P-wave (km/s) = 5.86764 7.40047 6.67818
#
# Compressibility (1/GPa) = 0.01998666
#
# Stress axis : x y z
#
# Youngs Moduli (GPa) = 112.54242 101.81791 118.39002
#
# Poissons Ratio (x) = 0.18965 -0.00349
# Poissons Ratio (y) = 0.20962 0.20722
# Poissons Ratio (z) = -0.00332 0.17822
#
# Static dielectric constant tensor:
#      x y z
#    x 0.732880 0.996150 -0.750000 
#    y 0.996150 1.240490 0.829640 
#    z -0.750000 0.829640 2.024450 
# 
# From -- ./inp_files/278477.got.cif
#   From: 2010.05.17/outbox.cif.g08.bks.cpg/sg2_140_cif.got.tgz:278477.got - 2010.06.03 11:33:40.
