data_PCOD9101156
_publ_section_title
;
Structure prediction by ZEFSAII (Michael W. Deem and Ramdas Pophale) SiO2 
 PCOD9101156
Probable space group: P -1
;
_chemical_formula_sum "Si O2"
_cell_formula_units_Z 15
_cell_length_a 13.994010
_cell_length_b 8.427421
_cell_length_c 14.228831
_cell_angle_alpha 61.962516
_cell_angle_beta 29.942370
_cell_angle_gamma 80.076165
_cell_volume 625.339404
_symmetry_space_group_name_H-M "P -1"
_symmetry_group_IT_number 2
_symmetry_cell_setting 'triclinic'
loop_
_space_group_symop_operation_xyz
x,y,z
-x,-y,-z
loop_
_atom_site_type_symbol
_atom_site_label
_atom_site_fract_x
_atom_site_fract_y
_atom_site_fract_z
Si Si1 0.500000 0.000000 0.500000
Si Si2 0.942195 0.670222 0.885738
Si Si3 0.770577 0.925123 0.593180
Si Si4 0.533416 0.321168 0.226346
Si Si5 0.106846 0.321772 0.668672
Si Si6 0.173228 0.875455 0.219490
Si Si7 0.024250 0.299818 0.955448
Si Si8 0.677578 0.218863 0.709479
O O1 0.554741 0.150018 0.316114
O O2 0.772103 0.122221 0.250705
O O3 0.754051 0.544778 0.001850
O O4 0.835135 0.675850 0.076540
O O5 0.045669 0.525474 0.858964
O O6 0.121882 0.898060 0.630223
O O7 0.732724 0.044958 0.675592
O O8 0.529073 0.738431 0.811981
O O9 0.956824 0.862184 0.457461
O O10 0.319694 0.320715 0.448700
O O11 0.183376 0.567218 0.527287
O O12 0.902869 0.192790 0.804469
O O13 0.071256 0.244930 0.827958
O O14 0.241136 0.737886 0.263719
O O15 0.407605 0.106561 0.958212
#
# Coordination Sequence:
#
# PCOD9101156 Si02
#       8
#     1   2   2   2   2   2   2   2
#     4  10  20  38  56  86 124 162 204 244 298 362
#     4  10  20  38  56  88 123 156 206 244 295 370
#     4  11  21  41  65  91 124 167 203 252 311 370
#     4  10  23  37  60  89 125 159 207 253 297 364
#     4  11  23  42  61  92 122 162 206 254 313 365
#     4  10  25  42  62  97 124 152 216 263 305 373
#     4  10  21  36  60  86 121 162 200 247 299 361
#     4  11  23  42  68  89 123 167 200 262 320 363
#
# _framework density 23.986975000000001
#
# number of rings (size 3 to 8) (size 9 to 14) (size 15 to 20)
#    0.000    1.600    2.667    1.600    3.733    1.067 
#    0.000    0.000    0.000    8.800    0.000    0.000 
#    0.000    0.000    0.000    0.000    0.000    0.000 
#
# Total GULP energy -83523.902417 kJ/mol
# GULP energy per Si atom -5568.260161 kJ/mol
# Density = 2.393238 g / cm^3
# Si number density = 23.986975 Si / 1000 Ang^3
#
#
#
# Elastic Constant Matrix: (Units=GPa)
#
#
# Indices 1 2 3 4 5 6 
#
# 1 107.8346 17.3124 21.0903 -5.0685 -18.8272 30.3391
# 2 17.3124 47.5142 12.4452 2.3351 -10.5658 21.6322
# 3 21.0903 12.4452 58.5274 -7.8636 -10.8606 5.6950
# 4 -5.0685 2.3351 -7.8636 23.8523 4.1801 0.6434
# 5 -18.8272 -10.5658 -10.8606 4.1801 44.0345 -1.4478
# 6 30.3391 21.6322 5.6950 0.6434 -1.4478 32.7861
#
#
#
# Elastic Compliance Matrix: (Units=1/GPa)
#
#
# Indices 1 2 3 4 5 6 
#
# 1 0.014661 0.003671 -0.003386 0.001047 0.005716 -0.015169
# 2 0.003671 0.034457 -0.005418 -0.005145 0.008176 -0.024728
# 3 -0.003386 -0.005418 0.020304 0.006107 0.001784 0.003140
# 4 0.001047 -0.005145 0.006107 0.045281 -0.003569 0.000319
# 5 0.005716 0.008176 0.001784 -0.003569 0.027575 -0.009706
# 6 -0.015169 -0.024728 0.003140 0.000319 -0.009706 0.059873
#
#
# Mechanical properties :
#
#
# Convention : Reuss Voigt Hill
#
# Bulk Modulus (GPa) = 16.90436 35.06356 25.98396
# Shear Modulus (GPa) = 21.53897 31.00313 26.27105
#
# Velocity S-wave (km/s) = 2.99982 3.59903 3.31300
# Velocity P-wave (km/s) = 4.36591 5.64980 5.04883
#
# Compressibility (1/GPa) = 0.05915635
#
# Stress axis : x y z
#
# Youngs Moduli (GPa) = 68.20624 29.02142 49.25075
#
# Poissons Ratio (x) = -0.10653 0.16678
# Poissons Ratio (y) = -0.25036 0.26682
# Poissons Ratio (z) = 0.23097 0.15723
#
# Static dielectric constant tensor:
#      x y z
#    x 1.954940 0.070340 -0.028150 
#    y 0.070340 2.026180 0.019000 
#    z -0.028150 0.019000 1.869230 
# 
# From -- ./inp_files/180927.got.cif
#   From: 2010.05.17/outbox.cif.g08.bks.cpg/sg2_91_cif.got.tgz:180927.got - 2010.06.03 11:33:40.
