data_PCOD9101747
_publ_section_title
;
Structure prediction by ZEFSAII (Michael W. Deem and Ramdas Pophale) SiO2 
 PCOD9101747
Probable space group: P -1
;
_chemical_formula_sum "Si O2"
_cell_formula_units_Z 14
_cell_length_a 20.228619
_cell_length_b 14.347308
_cell_length_c 9.122435
_cell_angle_alpha 31.175878
_cell_angle_beta 129.980666
_cell_angle_gamma 149.661351
_cell_volume 644.056724
_symmetry_space_group_name_H-M "P -1"
_symmetry_group_IT_number 2
_symmetry_cell_setting 'triclinic'
loop_
_space_group_symop_operation_xyz
x,y,z
-x,-y,-z
loop_
_atom_site_type_symbol
_atom_site_label
_atom_site_fract_x
_atom_site_fract_y
_atom_site_fract_z
Si Si1 0.842113 0.781002 0.020379
Si Si2 0.458485 0.364050 0.864773
Si Si3 0.819326 0.053406 0.820393
Si Si4 0.444368 0.163114 0.820305
Si Si5 0.453825 0.786204 0.593558
Si Si6 0.329477 0.740392 0.983817
Si Si7 0.113119 0.433310 0.860952
O O1 0.830174 0.972250 0.787532
O O2 0.710590 0.471673 0.332955
O O3 0.835096 0.665596 0.010712
O O4 0.000000 0.000000 0.000000
O O5 0.405919 0.142744 0.959256
O O6 0.557403 0.662565 0.516279
O O7 0.532281 0.380091 0.078738
O O8 0.324442 0.236464 0.916471
O O9 0.822331 0.274861 0.507908
O O10 0.949132 0.196999 0.911517
O O11 0.351422 0.864665 0.005316
O O12 0.604319 0.349763 0.798115
O O13 0.500000 0.000000 0.500000
O O14 0.560658 0.982806 0.346764
O O15 0.175510 0.515306 0.001748
#
# Coordination Sequence:
#
# PCOD9101747 Si02
#       7
#     2   2   2   2   2   2   2
#     4  10  21  35  55  94 126 149 192 259 316 349
#     4  11  21  40  57  91 120 154 207 255 297 365
#     4  10  21  36  62  91 121 157 201 260 310 350
#     4  10  24  36  58  83 130 158 191 255 312 360
#     4  12  20  35  68  90 116 160 210 257 298 354
#     4  11  21  40  58  89 119 163 202 247 309 361
#     4  10  20  38  60  90 124 154 203 263 301 358
#
# _framework density 21.737217000000001
#
# number of rings (size 3 to 8) (size 9 to 14) (size 15 to 20)
#    0.000    1.429    4.286    0.857    2.000    1.143 
#    0.000    1.429    0.000    6.857    0.000    0.000 
#    0.000    0.000    0.000    0.000    0.000    0.000 
#
# Total GULP energy -78057.966753 kJ/mol
# GULP energy per Si atom -5575.569054 kJ/mol
# Density = 2.168774 g / cm^3
# Si number density = 21.737217 Si / 1000 Ang^3
#
#
#
# Elastic Constant Matrix: (Units=GPa)
#
#
# Indices 1 2 3 4 5 6 
#
# 1 103.2230 30.3208 1.7124 2.2177 7.3353 -18.9822
# 2 30.3208 107.7781 14.4118 -0.5526 5.7602 2.0766
# 3 1.7124 14.4118 58.8336 15.2537 1.0779 3.3035
# 4 2.2177 -0.5526 15.2537 31.0417 1.1998 -2.4321
# 5 7.3353 5.7602 1.0779 1.1998 19.9892 -3.4213
# 6 -18.9822 2.0766 3.3035 -2.4321 -3.4213 28.1932
#
#
#
# Elastic Compliance Matrix: (Units=1/GPa)
#
#
# Indices 1 2 3 4 5 6 
#
# 1 0.012419 -0.003565 0.000159 -0.000296 -0.002096 0.008325
# 2 -0.003565 0.010840 -0.002772 0.001662 -0.002281 -0.003007
# 3 0.000159 -0.002772 0.020537 -0.010379 -0.000261 -0.003022
# 4 -0.000296 0.001662 -0.010379 0.037731 -0.001394 0.003980
# 5 -0.002096 -0.002281 -0.000261 -0.001394 0.052411 0.005027
# 6 0.008325 -0.003007 -0.003022 0.003980 0.005027 0.042604
#
#
# Mechanical properties :
#
#
# Convention : Reuss Voigt Hill
#
# Bulk Modulus (GPa) = 31.80593 40.30277 36.05435
# Shear Modulus (GPa) = 25.07803 30.73749 27.90776
#
# Velocity S-wave (km/s) = 3.40029 3.76446 3.58700
# Velocity P-wave (km/s) = 5.48450 6.12177 5.81188
#
# Compressibility (1/GPa) = 0.03144068
#
# Stress axis : x y z
#
# Youngs Moduli (GPa) = 80.52482 92.24897 48.69280
#
# Poissons Ratio (x) = 0.32886 -0.00776
# Poissons Ratio (y) = 0.28706 0.13498
# Poissons Ratio (z) = -0.01283 0.25571
#
# Static dielectric constant tensor:
#      x y z
#    x 1.851710 -0.004390 0.068790 
#    y -0.004390 1.806180 -0.022640 
#    z 0.068790 -0.022640 1.819100 
# 
# From -- ./inp_files/168035.got.cif
#   From: 2010.05.17/outbox.cif.g08.bks.cpg/sg2_85_cif.got.tgz:168035.got - 2010.06.03 11:33:40.
