data_PCOD9101399
_publ_section_title
;
Structure prediction by ZEFSAII (Michael W. Deem and Ramdas Pophale) SiO2 
 PCOD9101399
Probable space group: P -1
;
_chemical_formula_sum "Si O2"
_cell_formula_units_Z 14
_cell_length_a 13.247215
_cell_length_b 12.404707
_cell_length_c 9.922365
_cell_angle_alpha 52.012898
_cell_angle_beta 46.084681
_cell_angle_gamma 83.615985
_cell_volume 769.421140
_symmetry_space_group_name_H-M "P -1"
_symmetry_group_IT_number 2
_symmetry_cell_setting 'triclinic'
loop_
_space_group_symop_operation_xyz
x,y,z
-x,-y,-z
loop_
_atom_site_type_symbol
_atom_site_label
_atom_site_fract_x
_atom_site_fract_y
_atom_site_fract_z
Si Si1 0.864726 0.832234 0.176643
Si Si2 0.945367 0.137936 0.287784
Si Si3 0.350447 0.776501 0.885380
Si Si4 0.383472 0.909516 0.466847
Si Si5 0.925524 0.807288 0.593594
Si Si6 0.733030 0.020092 0.021946
Si Si7 0.306117 0.441534 0.227604
O O1 0.782298 0.682668 0.470610
O O2 0.955815 0.808730 0.985529
O O3 0.737246 0.875170 0.200661
O O4 0.000000 0.000000 0.000000
O O5 0.781301 0.141976 0.421823
O O6 0.062838 0.235721 0.230687
O O7 0.889075 0.949917 0.510362
O O8 0.348917 0.788356 0.716483
O O9 0.538255 0.915567 0.660577
O O10 0.243438 0.844081 0.995848
O O11 0.297266 0.600400 0.120891
O O12 0.543020 0.944243 0.205922
O O13 0.792322 0.659212 0.737554
O O14 0.113548 0.892756 0.290857
O O15 0.500000 0.500000 0.000000
#
# Coordination Sequence:
#
# PCOD9101399 Si02
#       7
#     2   2   2   2   2   2   2
#     4  11  20  37  64  87 112 155 203 234 288 346
#     4  10  20  38  59  83 117 162 189 240 287 357
#     4   9  20  32  58  87 117 144 192 250 277 337
#     4   9  18  35  59  83 119 153 191 233 302 339
#     4  10  22  36  57  86 120 150 202 236 292 345
#     4   9  18  35  57  85 115 150 193 238 286 348
#     4  12  23  36  62  92 116 149 201 247 286 342
#
# _framework density 18.195498000000001
#
# number of rings (size 3 to 8) (size 9 to 14) (size 15 to 20)
#    0.857    1.143    2.857    2.571    0.000    1.143 
#    0.000    1.429    0.000    0.000    0.000    0.000 
#    0.000    0.000    0.000    0.000    0.000    0.000 
#
# Total GULP energy -78021.943259 kJ/mol
# GULP energy per Si atom -5572.995947 kJ/mol
# Density = 1.815408 g / cm^3
# Si number density = 18.195498 Si / 1000 Ang^3
#
#
#
# Elastic Constant Matrix: (Units=GPa)
#
#
# Indices 1 2 3 4 5 6 
#
# 1 110.9654 27.3778 50.2599 6.8701 -7.6637 2.5724
# 2 27.3778 46.4796 29.2327 -4.4382 -0.6058 -6.8953
# 3 50.2599 29.2327 98.6732 -6.6931 9.5441 0.5208
# 4 6.8701 -4.4382 -6.6931 29.2361 -9.1586 4.0078
# 5 -7.6637 -0.6058 9.5441 -9.1586 19.9006 10.6775
# 6 2.5724 -6.8953 0.5208 4.0078 10.6775 27.6964
#
#
#
# Elastic Compliance Matrix: (Units=1/GPa)
#
#
# Indices 1 2 3 4 5 6 
#
# 1 0.014555 -0.005079 -0.007118 -0.001058 0.012138 -0.007009
# 2 -0.005079 0.029692 -0.005943 0.002872 -0.001181 0.008015
# 3 -0.007118 -0.005943 0.016762 -0.000021 -0.013067 0.003907
# 4 -0.001058 0.002872 -0.000021 0.047040 0.030958 -0.017928
# 5 0.012138 -0.001181 -0.013067 0.030958 0.098893 -0.043781
# 6 -0.007009 0.008015 0.003907 -0.017928 -0.043781 0.058151
#
#
# Mechanical properties :
#
#
# Convention : Reuss Voigt Hill
#
# Bulk Modulus (GPa) = 40.43641 52.20659 46.32150
# Shear Modulus (GPa) = 16.14903 25.31647 20.73275
#
# Velocity S-wave (km/s) = 2.98237 3.73414 3.37923
# Velocity P-wave (km/s) = 5.84217 6.88085 6.38267
#
# Compressibility (1/GPa) = 0.02473018
#
# Stress axis : x y z
#
# Youngs Moduli (GPa) = 68.70416 33.67900 59.65741
#
# Poissons Ratio (x) = 0.17107 0.42463
# Poissons Ratio (y) = 0.34897 0.35452
# Poissons Ratio (z) = 0.48902 0.20014
#
# Static dielectric constant tensor:
#      x y z
#    x 1.643410 -0.002950 -0.004600 
#    y -0.002950 1.629750 0.021240 
#    z -0.004600 0.021240 1.631260 
# 
# From -- ./inp_files/256213.got.cif
#   From: 2010.05.17/outbox.cif.g08.bks.cpg/sg2_129_cif.got.tgz:256213.got - 2010.06.03 11:33:40.
