data_PCOD9101946
_publ_section_title
;
Structure prediction by ZEFSAII (Michael W. Deem and Ramdas Pophale) SiO2 
 PCOD9101946
Probable space group: P -1
;
_chemical_formula_sum "Si O2"
_cell_formula_units_Z 14
_cell_length_a 13.459004
_cell_length_b 11.206032
_cell_length_c 11.982469
_cell_angle_alpha 49.140345
_cell_angle_beta 145.551050
_cell_angle_gamma 107.634151
_cell_volume 644.249402
_symmetry_space_group_name_H-M "P -1"
_symmetry_group_IT_number 2
_symmetry_cell_setting 'triclinic'
loop_
_space_group_symop_operation_xyz
x,y,z
-x,-y,-z
loop_
_atom_site_type_symbol
_atom_site_label
_atom_site_fract_x
_atom_site_fract_y
_atom_site_fract_z
Si Si1 0.341503 0.396576 0.622565
Si Si2 0.832851 0.218349 0.687496
Si Si3 0.933898 0.178938 0.557887
Si Si4 0.583391 0.784007 0.728489
Si Si5 0.829863 0.156992 0.154818
Si Si6 0.949085 0.402064 0.221569
Si Si7 0.480760 0.327080 0.044318
O O1 0.212965 0.625537 0.358793
O O2 0.187356 0.340598 0.467886
O O3 0.580759 0.272289 0.878153
O O4 0.370558 0.365666 0.801344
O O5 0.915275 0.244275 0.628117
O O6 0.607484 0.243984 0.451010
O O7 0.000000 0.000000 0.000000
O O8 0.927187 0.317630 0.371814
O O9 0.728372 0.169062 0.356542
O O10 0.126461 0.968134 0.837530
O O11 0.628446 0.731295 0.932672
O O12 0.500000 0.000000 0.500000
O O13 0.784463 0.627444 0.940981
O O14 0.884183 0.314330 0.117785
O O15 0.000000 0.000000 0.500000
O O16 0.500000 0.500000 0.000000
#
# Coordination Sequence:
#
# PCOD9101946 Si02
#       7
#     2   2   2   2   2   2   2
#     4  12  21  36  65  91 121 158 207 254 298 370
#     4  11  22  39  62  88 122 160 209 253 307 359
#     4  10  20  38  61  88 122 162 200 255 306 357
#     4  11  21  36  58  88 129 157 201 256 307 354
#     4  10  20  39  61  89 125 161 197 257 304 355
#     4  11  21  36  63  90 124 159 204 246 309 359
#     4  11  17  38  61  86 125 160 197 256 308 351
#
# _framework density 21.730713999999999
#
# number of rings (size 3 to 8) (size 9 to 14) (size 15 to 20)
#    0.000    1.143    8.571    0.857    0.000    5.714 
#    0.000    0.714    0.000    4.286    0.000    0.000 
#    0.000    0.000    0.000    0.000    0.000    0.000 
#
# Total GULP energy -78060.758620 kJ/mol
# GULP energy per Si atom -5575.768473 kJ/mol
# Density = 2.168125 g / cm^3
# Si number density = 21.730714 Si / 1000 Ang^3
#
#
#
# Elastic Constant Matrix: (Units=GPa)
#
#
# Indices 1 2 3 4 5 6 
#
# 1 28.9944 30.4479 21.1287 -9.6432 24.3491 -4.8150
# 2 30.4479 80.8251 32.7066 -4.4263 29.2529 9.7883
# 3 21.1287 32.7066 110.5805 -13.4700 38.0343 -3.3793
# 4 -9.6432 -4.4263 -13.4700 45.3652 4.9054 10.3972
# 5 24.3491 29.2529 38.0343 4.9054 37.7822 -8.9013
# 6 -4.8150 9.7883 -3.3793 10.3972 -8.9013 19.6734
#
#
#
# Elastic Compliance Matrix: (Units=1/GPa)
#
#
# Indices 1 2 3 4 5 6 
#
# 1 0.166426 -0.006041 0.032360 0.076218 -0.159979 -0.063368
# 2 -0.006041 0.034371 0.006826 0.019637 -0.043302 -0.047377
# 3 0.032360 0.006826 0.025590 0.030427 -0.064403 -0.036301
# 4 0.076218 0.019637 0.030427 0.082690 -0.126103 -0.086646
# 5 -0.159979 -0.043302 -0.064403 -0.126103 0.283461 0.166225
# 6 -0.063368 -0.047377 -0.036301 -0.086646 0.166225 0.173659
#
#
# Mechanical properties :
#
#
# Convention : Reuss Voigt Hill
#
# Bulk Modulus (GPa) = 3.41673 43.21850 23.31762
# Shear Modulus (GPa) = 6.26987 29.63860 17.95423
#
# Velocity S-wave (km/s) = 1.70045 3.69711 2.87751
# Velocity P-wave (km/s) = 2.33047 6.17707 4.66837
#
# Compressibility (1/GPa) = 0.29267746
#
# Stress axis : x y z
#
# Youngs Moduli (GPa) = 6.00868 29.09442 39.07833
#
# Poissons Ratio (x) = 0.17575 -1.26459
# Poissons Ratio (y) = 0.03630 -0.26675
# Poissons Ratio (z) = -0.19444 -0.19860
#
# Static dielectric constant tensor:
#      x y z
#    x 1.843880 -0.019490 -0.013110 
#    y -0.019490 1.817680 -0.029980 
#    z -0.013110 -0.029980 1.914340 
# 
# From -- ./inp_files/521732.got.cif
#   From: 2010.05.17/outbox.cif.g08.bks.cpg/sg2_261_cif.got.tgz:521732.got - 2010.06.03 11:33:40.
