data_PCOD9101725
_publ_section_title
;
Structure prediction by ZEFSAII (Michael W. Deem and Ramdas Pophale) SiO2 
 PCOD9101725
Probable space group: P -1
;
_chemical_formula_sum "Si O2"
_cell_formula_units_Z 13
_cell_length_a 6.960744
_cell_length_b 14.788342
_cell_length_c 7.142172
_cell_angle_alpha 53.072958
_cell_angle_beta 97.508420
_cell_angle_gamma 70.861047
_cell_volume 500.257972
_symmetry_space_group_name_H-M "P -1"
_symmetry_group_IT_number 2
_symmetry_cell_setting 'triclinic'
loop_
_space_group_symop_operation_xyz
x,y,z
-x,-y,-z
loop_
_atom_site_type_symbol
_atom_site_label
_atom_site_fract_x
_atom_site_fract_y
_atom_site_fract_z
Si Si1 0.229136 0.980986 0.474993
Si Si2 0.500000 0.500000 0.500000
Si Si3 0.153921 0.536954 0.217925
Si Si4 0.500953 0.757884 0.055181
Si Si5 0.018737 0.336713 0.595978
Si Si6 0.407765 0.911358 0.191377
Si Si7 0.852918 0.772252 0.611428
O O1 0.241551 0.986738 0.246415
O O2 0.237654 0.097540 0.438920
O O3 0.417855 0.839748 0.753647
O O4 0.000000 0.000000 0.500000
O O5 0.419850 0.452070 0.347191
O O6 0.502945 0.624030 0.225838
O O7 0.030421 0.456782 0.348552
O O8 0.173928 0.601718 0.344930
O O9 0.010465 0.647790 0.914161
O O10 0.750593 0.731488 0.169388
O O11 0.339867 0.854718 0.079325
O O12 0.009786 0.247724 0.541393
O O13 0.626987 0.789232 0.469714
O O14 0.500000 0.000000 0.000000
#
# Coordination Sequence:
#
# PCOD9101725 Si02
#       7
#     2   1   2   2   2   2   2
#     4  12  26  40  63 100 132 170 212 271 330 388
#     4  10  22  42  64  88 132 172 198 268 332 386
#     4  10  20  38  60  89 125 160 214 257 320 374
#     4  10  22  43  62  92 132 165 219 262 326 383
#     4   9  21  37  62  89 116 168 212 267 303 377
#     4  11  24  43  67  96 129 174 219 266 320 382
#     4  11  22  37  66  89 124 164 218 261 313 382
#
# _framework density 25.986592000000002
#
# number of rings (size 3 to 8) (size 9 to 14) (size 15 to 20)
#    0.000    1.538    1.538    2.769    4.308    1.846 
#    0.000    1.538    0.000    0.000    0.000    0.000 
#    0.000    0.000    0.000    0.000    0.000    0.000 
#
# Total GULP energy -72516.485904 kJ/mol
# GULP energy per Si atom -5578.191223 kJ/mol
# Density = 2.592745 g / cm^3
# Si number density = 25.986592 Si / 1000 Ang^3
#
#
#
# Elastic Constant Matrix: (Units=GPa)
#
#
# Indices 1 2 3 4 5 6 
#
# 1 99.9918 22.8928 44.2965 1.0396 -9.2353 -6.3791
# 2 22.8928 112.3876 20.4881 25.2487 -29.8062 -12.0124
# 3 44.2965 20.4881 168.7476 -6.0292 2.3023 -8.7594
# 4 1.0396 25.2487 -6.0292 49.7027 -13.8189 -12.2743
# 5 -9.2353 -29.8062 2.3023 -13.8189 36.4646 2.1321
# 6 -6.3791 -12.0124 -8.7594 -12.2743 2.1321 36.5531
#
#
#
# Elastic Compliance Matrix: (Units=1/GPa)
#
#
# Indices 1 2 3 4 5 6 
#
# 1 0.011877 -0.001369 -0.002888 0.001046 0.002401 0.001142
# 2 -0.001369 0.012753 -0.001344 -0.003752 0.008632 0.001867
# 3 -0.002888 -0.001344 0.006990 0.001410 -0.001813 0.001309
# 4 0.001046 -0.003752 0.001410 0.025845 0.006460 0.007589
# 5 0.002401 0.008632 -0.001813 0.006460 0.037486 0.002804
# 6 0.001142 0.001867 0.001309 0.007589 0.002804 0.030869
#
#
# Mechanical properties :
#
#
# Convention : Reuss Voigt Hill
#
# Bulk Modulus (GPa) = 48.97318 61.83133 55.40226
# Shear Modulus (GPa) = 34.76360 44.10738 39.43549
#
# Velocity S-wave (km/s) = 3.66150 4.12432 3.89978
# Velocity P-wave (km/s) = 6.06316 6.82094 6.45318
#
# Compressibility (1/GPa) = 0.02041934
#
# Stress axis : x y z
#
# Youngs Moduli (GPa) = 84.19441 78.41108 143.05629
#
# Poissons Ratio (x) = 0.10736 0.41310
# Poissons Ratio (y) = 0.11527 0.19226
# Poissons Ratio (z) = 0.24312 0.10538
#
# Static dielectric constant tensor:
#      x y z
#    x 2.317340 -0.106940 0.053400 
#    y -0.106940 2.337860 0.034130 
#    z 0.053400 0.034130 2.041780 
# 
# From -- ./inp_files/23346.got.cif
#   From: 2010.05.17/outbox.cif.g08.bks.cpg/sg2_12_cif.got.tgz:23346.got - 2010.06.03 11:33:40.
