data_PCOD9101376
_publ_section_title
;
Structure prediction by ZEFSAII (Michael W. Deem and Ramdas Pophale) SiO2 
 PCOD9101376
Probable space group: P -1
;
_chemical_formula_sum "Si O2"
_cell_formula_units_Z 16
_cell_length_a 9.204343
_cell_length_b 7.745053
_cell_length_c 17.588007
_cell_angle_alpha 92.112005
_cell_angle_beta 52.950355
_cell_angle_gamma 126.048527
_cell_volume 704.219766
_symmetry_space_group_name_H-M "P -1"
_symmetry_group_IT_number 2
_symmetry_cell_setting 'triclinic'
loop_
_space_group_symop_operation_xyz
x,y,z
-x,-y,-z
loop_
_atom_site_type_symbol
_atom_site_label
_atom_site_fract_x
_atom_site_fract_y
_atom_site_fract_z
Si Si1 0.087264 0.507279 0.058636
Si Si2 0.086172 0.622896 0.600146
Si Si3 0.179186 0.161971 0.017789
Si Si4 0.337974 0.415572 0.210552
Si Si5 0.854670 0.520223 0.276477
Si Si6 0.138944 0.822009 0.433280
Si Si7 0.683133 0.946962 0.880659
Si Si8 0.601688 0.633064 0.645942
O O1 0.891537 0.443415 0.183890
O O2 0.117455 0.321124 0.057718
O O3 0.378025 0.778292 0.983435
O O4 0.000000 0.500000 0.000000
O O5 0.927133 0.669137 0.690158
O O6 0.888806 0.346302 0.622965
O O7 0.236860 0.641310 0.622557
O O8 0.225856 0.792290 0.484572
O O9 0.477337 0.358527 0.900496
O O10 0.175636 0.029522 0.087322
O O11 0.000000 0.000000 0.000000
O O12 0.303956 0.204127 0.183879
O O13 0.473471 0.490697 0.250586
O O14 0.648699 0.532573 0.329584
O O15 0.142747 0.784639 0.203216
O O16 0.845060 0.692150 0.537996
O O17 0.302788 0.103591 0.370065
#
# Coordination Sequence:
#
# PCOD9101376 Si02
#       8
#     2   2   2   2   2   2   2   2
#     4  11  23  39  59  88 122 155 197 241 284 334
#     4  10  21  38  61  85 111 145 195 241 293 345
#     4  11  22  37  57  84 122 160 192 233 288 343
#     4  10  20  38  59  81 112 157 196 230 281 352
#     4  12  23  36  60  91 115 151 197 239 282 346
#     4   9  21  42  61  81 113 152 184 245 303 343
#     4  11  22  39  58  83 124 160 191 235 288 338
#     4  10  21  39  61  84 114 149 194 236 296 355
#
# _framework density 22.720181
#
# number of rings (size 3 to 8) (size 9 to 14) (size 15 to 20)
#    0.000    1.500    0.000    7.125    0.000    3.000 
#    0.000    5.000    0.000    0.000    0.000    0.000 
#    0.000    0.000    0.000    0.000    0.000    0.000 
#
# Total GULP energy -89415.160730 kJ/mol
# GULP energy per Si atom -5588.447546 kJ/mol
# Density = 2.266847 g / cm^3
# Si number density = 22.720181 Si / 1000 Ang^3
#
#
#
# Elastic Constant Matrix: (Units=GPa)
#
#
# Indices 1 2 3 4 5 6 
#
# 1 118.3315 -4.4479 20.8652 3.1849 21.3725 19.5269
# 2 -4.4479 32.3222 10.4088 -1.4321 -12.1087 4.3534
# 3 20.8652 10.4088 64.9587 9.2275 8.1559 4.2854
# 4 3.1849 -1.4321 9.2275 23.8005 3.0501 4.0836
# 5 21.3725 -12.1087 8.1559 3.0501 33.3973 -0.9301
# 6 19.5269 4.3534 4.2854 4.0836 -0.9301 32.7920
#
#
#
# Elastic Compliance Matrix: (Units=1/GPa)
#
#
# Indices 1 2 3 4 5 6 
#
# 1 0.011229 0.000981 -0.002726 0.001622 -0.006504 -0.006847
# 2 0.000981 0.040851 -0.009195 0.004707 0.015861 -0.004942
# 3 -0.002726 -0.009195 0.019401 -0.007166 -0.005644 0.001041
# 4 0.001622 0.004707 -0.007166 0.046224 -0.001983 -0.006467
# 5 -0.006504 0.015861 -0.005644 -0.001983 0.041524 0.003929
# 6 -0.006847 -0.004942 0.001041 -0.006467 0.003929 0.036009
#
#
# Mechanical properties :
#
#
# Convention : Reuss Voigt Hill
#
# Bulk Modulus (GPa) = 20.16093 29.91829 25.03961
# Shear Modulus (GPa) = 21.39927 30.58369 25.99148
#
# Velocity S-wave (km/s) = 3.07231 3.67291 3.38595
# Velocity P-wave (km/s) = 4.63446 5.58424 5.13137
#
# Compressibility (1/GPa) = 0.04960088
#
# Stress axis : x y z
#
# Youngs Moduli (GPa) = 89.05267 24.47934 51.54302
#
# Poissons Ratio (x) = -0.02401 0.14052
# Poissons Ratio (y) = -0.08735 0.47394
# Poissons Ratio (z) = 0.24277 0.22509
#
# Static dielectric constant tensor:
#      x y z
#    x 1.854010 0.015470 0.012350 
#    y 0.015470 1.846280 0.009400 
#    z 0.012350 0.009400 1.803010 
# 
# From -- ./inp_files/534339.got.cif
#   From: 2010.05.17/outbox.cif.g08.bks.cpg/sg2_268_cif.got.tgz:534339.got - 2010.06.03 11:33:40.
