data_PCOD9101968
_publ_section_title
;
Structure prediction by ZEFSAII (Michael W. Deem and Ramdas Pophale) SiO2 
 PCOD9101968
Probable space group: P -1
;
_chemical_formula_sum "Si O2"
_cell_formula_units_Z 14
_cell_length_a 15.117680
_cell_length_b 12.817033
_cell_length_c 12.917713
_cell_angle_alpha 132.844269
_cell_angle_beta 161.757822
_cell_angle_gamma 41.604598
_cell_volume 514.741548
_symmetry_space_group_name_H-M "P -1"
_symmetry_group_IT_number 2
_symmetry_cell_setting 'triclinic'
loop_
_space_group_symop_operation_xyz
x,y,z
-x,-y,-z
loop_
_atom_site_type_symbol
_atom_site_label
_atom_site_fract_x
_atom_site_fract_y
_atom_site_fract_z
Si Si1 0.213086 0.616173 0.624047
Si Si2 0.360323 0.223491 0.766105
Si Si3 0.306881 0.944202 0.170188
Si Si4 0.057221 0.417709 0.179588
Si Si5 0.724156 0.307417 0.907820
Si Si6 0.879897 0.216876 0.716399
Si Si7 0.578983 0.913153 0.919202
O O1 0.034924 0.586146 0.306547
O O2 0.352259 0.742293 0.849327
O O3 0.528843 0.450663 0.866536
O O4 0.973997 0.651193 0.476843
O O5 0.442094 0.193479 0.716917
O O6 0.382879 0.059919 0.724176
O O7 0.139816 0.856369 0.990300
O O8 0.500000 0.000000 0.500000
O O9 0.075405 0.087487 0.936261
O O10 0.435108 0.312735 0.518558
O O11 0.935003 0.357286 0.103047
O O12 0.887103 0.379473 0.869594
O O13 0.551008 0.215320 0.330311
O O14 0.072019 0.151866 0.780615
O O15 0.500000 0.000000 0.000000
#
# Coordination Sequence:
#
# PCOD9101968 Si02
#       7
#     2   2   2   2   2   2   2
#     4  10  20  42  56  91 125 169 209 242 303 363
#     4  11  23  39  64  87 123 168 200 259 311 368
#     4  11  23  40  57  97 132 170 212 249 299 366
#     4  10  20  38  61  89 121 174 202 255 287 363
#     4  10  21  36  58  85 130 174 201 247 283 359
#     4  11  23  41  67  94 125 165 208 255 323 361
#     4  11  25  45  68  95 120 156 209 269 322 373
#
# _framework density 27.198115000000001
#
# number of rings (size 3 to 8) (size 9 to 14) (size 15 to 20)
#    0.857    0.571    2.857    3.000    2.000    5.143 
#    0.000    0.000    0.000    5.143    0.000    0.000 
#    0.000    0.000    0.000    0.000    0.000    0.000 
#
# Total GULP energy -78381.249437 kJ/mol
# GULP energy per Si atom -5598.660674 kJ/mol
# Density = 2.713621 g / cm^3
# Si number density = 27.198115 Si / 1000 Ang^3
#
#
#
# Elastic Constant Matrix: (Units=GPa)
#
#
# Indices 1 2 3 4 5 6 
#
# 1 88.7371 30.9921 33.0478 -3.9042 5.9343 -23.3067
# 2 30.9921 75.4890 30.7454 20.6093 -3.3570 -18.7729
# 3 33.0478 30.7454 151.0376 32.5059 6.7635 4.5313
# 4 -3.9042 20.6093 32.5059 48.3097 -2.9858 -5.9631
# 5 5.9343 -3.3570 6.7635 -2.9858 43.6280 4.2285
# 6 -23.3067 -18.7729 4.5313 -5.9631 4.2285 48.6362
#
#
#
# Elastic Compliance Matrix: (Units=1/GPa)
#
#
# Indices 1 2 3 4 5 6 
#
# 1 0.017385 -0.005588 -0.004423 0.007573 -0.002339 0.007718
# 2 -0.005588 0.019026 -0.001299 -0.007131 0.001571 0.003776
# 3 -0.004423 -0.001299 0.009484 -0.006772 -0.001020 -0.004246
# 4 0.007573 -0.007131 -0.006772 0.029596 0.001007 0.005049
# 5 -0.002339 0.001571 -0.001020 0.001007 0.023817 -0.002366
# 6 0.007718 0.003776 -0.004246 0.005049 -0.002366 0.026937
#
#
# Mechanical properties :
#
#
# Convention : Reuss Voigt Hill
#
# Bulk Modulus (GPa) = 42.96715 56.09269 49.52992
# Shear Modulus (GPa) = 31.92385 42.81334 37.36860
#
# Velocity S-wave (km/s) = 3.42972 3.97183 3.71069
# Velocity P-wave (km/s) = 5.61392 6.45774 6.05056
#
# Compressibility (1/GPa) = 0.02327359
#
# Stress axis : x y z
#
# Youngs Moduli (GPa) = 57.52110 52.55944 105.44563
#
# Poissons Ratio (x) = 0.29371 0.46639
# Poissons Ratio (y) = 0.32144 0.13700
# Poissons Ratio (z) = 0.25442 0.06829
#
# Static dielectric constant tensor:
#      x y z
#    x 2.122830 -0.056570 -0.051970 
#    y -0.056570 2.154930 -0.011110 
#    z -0.051970 -0.011110 2.128160 
# 
# From -- ./inp_files/455022.got.cif
#   From: 2010.05.17/outbox.cif.g08.bks.cpg/sg2_228_cif.got.tgz:455022.got - 2010.06.03 11:33:40.
