data_PCOD9101017
_publ_section_title
;
Structure prediction by ZEFSAII (Michael W. Deem and Ramdas Pophale) SiO2 
 PCOD9101017
Probable space group: P -1
;
_chemical_formula_sum "Si O2"
_cell_formula_units_Z 16
_cell_length_a 11.391590
_cell_length_b 11.579441
_cell_length_c 7.091391
_cell_angle_alpha 119.458122
_cell_angle_beta 61.038119
_cell_angle_gamma 115.520504
_cell_volume 689.448157
_symmetry_space_group_name_H-M "P -1"
_symmetry_group_IT_number 2
_symmetry_cell_setting 'triclinic'
loop_
_space_group_symop_operation_xyz
x,y,z
-x,-y,-z
loop_
_atom_site_type_symbol
_atom_site_label
_atom_site_fract_x
_atom_site_fract_y
_atom_site_fract_z
Si Si1 0.416475 0.848254 0.911744
Si Si2 0.941437 0.134410 0.160743
Si Si3 0.879644 0.573094 0.713090
Si Si4 0.134923 0.723617 0.040331
Si Si5 0.581724 0.654658 0.524712
Si Si6 0.848307 0.571922 0.194884
Si Si7 0.634797 0.127618 0.470874
Si Si8 0.421216 0.602148 0.239983
O O1 0.518892 0.750808 0.783776
O O2 0.368443 0.835490 0.720067
O O3 0.270492 0.814897 0.104334
O O4 0.500000 0.000000 0.000000
O O5 0.789721 0.105438 0.356011
O O6 0.057786 0.266228 0.252596
O O7 0.913802 0.190580 0.018765
O O8 0.000000 0.000000 0.000000
O O9 0.731515 0.497066 0.676709
O O10 0.000000 0.500000 0.500000
O O11 0.851821 0.561760 0.953880
O O12 0.999083 0.656454 0.210201
O O13 0.180568 0.584162 0.834612
O O14 0.500000 0.500000 0.500000
O O15 0.740093 0.655364 0.406540
O O16 0.534108 0.673089 0.365497
O O17 0.615245 0.261886 0.704525
O O18 0.500000 0.000000 0.500000
O O19 0.500000 0.500000 0.000000
#
# Coordination Sequence:
#
# PCOD9101017 Si02
#       8
#     2   2   2   2   2   2   2   2
#     4  10  22  41  61  88 129 166 206 260 314 384
#     4  10  22  40  62  87 126 170 207 261 323 381
#     4  11  22  40  65  96 130 165 217 268 323 382
#     4   9  20  39  64  87 122 163 214 254 322 377
#     4  11  22  38  63  94 127 165 209 261 316 377
#     4  10  20  37  68  93 123 168 211 267 322 377
#     4  10  23  39  62  87 126 168 208 258 322 374
#     4  11  23  39  62 100 126 160 218 265 315 386
#
# _framework density 23.206966999999999
#
# number of rings (size 3 to 8) (size 9 to 14) (size 15 to 20)
#    0.000    1.750    3.750    0.000    3.500    3.000 
#    2.250    0.625    0.000    0.000    0.000    0.000 
#    0.000    0.000    0.000    0.000    0.000    0.000 
#
# Total GULP energy -89236.318831 kJ/mol
# GULP energy per Si atom -5577.269927 kJ/mol
# Density = 2.315415 g / cm^3
# Si number density = 23.206967 Si / 1000 Ang^3
#
#
#
# Elastic Constant Matrix: (Units=GPa)
#
#
# Indices 1 2 3 4 5 6 
#
# 1 126.0435 58.7134 49.0516 7.0583 -43.9253 21.3208
# 2 58.7134 144.7251 40.2235 33.2937 -25.9335 27.4246
# 3 49.0516 40.2235 111.5438 21.2322 -33.8603 0.5106
# 4 7.0583 33.2937 21.2322 42.9377 -14.4038 3.3527
# 5 -43.9253 -25.9335 -33.8603 -14.4038 48.8121 -14.5296
# 6 21.3208 27.4246 0.5106 3.3527 -14.5296 58.7642
#
#
#
# Elastic Compliance Matrix: (Units=1/GPa)
#
#
# Indices 1 2 3 4 5 6 
#
# 1 0.014480 -0.004457 -0.002795 0.005952 0.010191 -0.000969
# 2 -0.004457 0.011142 -0.001283 -0.007782 -0.002384 -0.003717
# 3 -0.002795 -0.001283 0.013029 -0.003286 0.005800 0.003122
# 4 0.005952 -0.007782 -0.003286 0.032915 0.009222 0.001903
# 5 0.010191 -0.002384 0.005800 0.009222 0.036911 0.005965
# 6 -0.000969 -0.003717 0.003122 0.001903 0.005965 0.020443
#
#
# Mechanical properties :
#
#
# Convention : Reuss Voigt Hill
#
# Bulk Modulus (GPa) = 46.34006 75.36550 60.85278
# Shear Modulus (GPa) = 32.64055 45.72438 39.18247
#
# Velocity S-wave (km/s) = 3.75440 4.44361 4.11346
# Velocity P-wave (km/s) = 6.22941 7.67290 6.98852
#
# Compressibility (1/GPa) = 0.02157960
#
# Stress axis : x y z
#
# Youngs Moduli (GPa) = 69.06126 89.75263 76.75147
#
# Poissons Ratio (x) = 0.40002 0.21454
# Poissons Ratio (y) = 0.30780 0.09850
# Poissons Ratio (z) = 0.19304 0.11518
#
# Static dielectric constant tensor:
#      x y z
#    x 1.730520 0.005530 -0.032170 
#    y 0.005530 1.879090 -0.055210 
#    z -0.032170 -0.055210 1.919600 
# 
# From -- ./inp_files/260569.got.cif
#   From: 2010.05.17/outbox.cif.g08.bks.cpg/sg2_131_cif.got.tgz:260569.got - 2010.06.03 11:33:40.
