data_PCOD9101366
_publ_section_title
;
Structure prediction by ZEFSAII (Michael W. Deem and Ramdas Pophale) SiO2 
 PCOD9101366
Probable space group: P -1
;
_chemical_formula_sum "Si O2"
_cell_formula_units_Z 16
_cell_length_a 10.010139
_cell_length_b 15.877113
_cell_length_c 15.289107
_cell_angle_alpha 139.417246
_cell_angle_beta 139.229644
_cell_angle_gamma 34.095374
_cell_volume 829.385018
_symmetry_space_group_name_H-M "P -1"
_symmetry_group_IT_number 2
_symmetry_cell_setting 'triclinic'
loop_
_space_group_symop_operation_xyz
x,y,z
-x,-y,-z
loop_
_atom_site_type_symbol
_atom_site_label
_atom_site_fract_x
_atom_site_fract_y
_atom_site_fract_z
Si Si1 0.727139 0.773196 0.849320
Si Si2 0.510963 0.056206 0.453947
Si Si3 0.948174 0.370217 0.391369
Si Si4 0.166160 0.845209 0.397575
Si Si5 0.576930 0.119408 0.863603
Si Si6 0.279078 0.155868 0.902160
Si Si7 0.577414 0.567204 0.513806
Si Si8 0.091160 0.774877 0.909603
O O1 0.676833 0.659711 0.683598
O O2 0.985365 0.735109 0.907361
O O3 0.489758 0.960621 0.861439
O O4 0.744176 0.761424 0.952749
O O5 0.223553 0.205897 0.410814
O O6 0.687517 0.113028 0.563954
O O7 0.500000 0.000000 0.500000
O O8 0.567218 0.920261 0.305992
O O9 0.832495 0.343845 0.228088
O O10 0.000000 0.500000 0.500000
O O11 0.784852 0.422752 0.439644
O O12 0.359664 0.696577 0.440192
O O13 0.980365 0.815804 0.233165
O O14 0.000000 0.000000 0.500000
O O15 0.394520 0.204388 0.923040
O O16 0.836473 0.949910 0.891217
O O17 0.682859 0.211125 0.947609
O O18 0.500000 0.500000 0.500000
#
# Coordination Sequence:
#
# PCOD9101366 Si02
#       8
#     2   2   2   2   2   2   2   2
#     4  10  20  38  58  96 119 166 212 253 307 379
#     4  11  24  38  66  96 122 161 213 258 310 373
#     4  11  21  42  63  86 125 169 205 257 311 374
#     4  12  22  43  63  92 132 167 204 269 318 358
#     4   9  18  35  54  91 118 155 199 257 303 357
#     4  10  21  35  65  87 131 160 204 262 316 364
#     4  12  26  41  67  94 125 169 217 256 315 385
#     4   9  18  34  60  82 120 156 205 252 302 359
#
# _framework density 19.291401
#
# number of rings (size 3 to 8) (size 9 to 14) (size 15 to 20)
#    0.000    1.500    5.000    0.750    5.250    0.000 
#    0.000    0.625    2.750    2.250    0.000    0.000 
#    0.000    0.000    0.000    0.000    0.000    0.000 
#
# Total GULP energy -89272.768931 kJ/mol
# GULP energy per Si atom -5579.548058 kJ/mol
# Density = 1.924749 g / cm^3
# Si number density = 19.291401 Si / 1000 Ang^3
#
#
#
# Elastic Constant Matrix: (Units=GPa)
#
#
# Indices 1 2 3 4 5 6 
#
# 1 176.5307 22.8607 46.5300 -4.5114 1.7884 -2.3113
# 2 22.8607 21.8981 14.7414 -2.8637 4.1913 1.2067
# 3 46.5300 14.7414 85.7869 -11.5151 1.3405 -8.5926
# 4 -4.5114 -2.8637 -11.5151 22.1942 -5.0752 -3.5987
# 5 1.7884 4.1913 1.3405 -5.0752 38.3733 5.8238
# 6 -2.3113 1.2067 -8.5926 -3.5987 5.8238 28.5255
#
#
#
# Elastic Compliance Matrix: (Units=1/GPa)
#
#
# Indices 1 2 3 4 5 6 
#
# 1 0.007168 -0.005566 -0.003076 -0.000830 0.000314 -0.000279
# 2 -0.005566 0.057525 -0.007062 0.000838 -0.005079 -0.003869
# 3 -0.003076 -0.007062 0.016176 0.007917 0.000514 0.005816
# 4 -0.000830 0.000838 0.007917 0.051570 0.005322 0.007701
# 5 0.000314 -0.005079 0.000514 0.005322 0.027991 -0.004648
# 6 -0.000279 -0.003869 0.005816 0.007701 -0.004648 0.038870
#
#
# Mechanical properties :
#
#
# Convention : Reuss Voigt Hill
#
# Bulk Modulus (GPa) = 20.21743 50.27556 35.24650
# Shear Modulus (GPa) = 20.22700 31.15752 25.69226
#
# Velocity S-wave (km/s) = 3.24156 4.02319 3.65334
# Velocity P-wave (km/s) = 4.95107 6.90645 6.00883
#
# Compressibility (1/GPa) = 0.04946226
#
# Stress axis : x y z
#
# Youngs Moduli (GPa) = 139.50483 17.38364 61.82104
#
# Poissons Ratio (x) = 0.09676 0.19015
# Poissons Ratio (y) = 0.77648 0.43656
# Poissons Ratio (z) = 0.42910 0.12276
#
# Static dielectric constant tensor:
#      x y z
#    x 1.715310 0.004290 -0.010980 
#    y 0.004290 1.668410 0.007220 
#    z -0.010980 0.007220 1.673030 
# 
# From -- ./inp_files/397379.got.cif
#   From: 2010.05.17/outbox.cif.g08.bks.cpg/sg2_199_cif.got.tgz:397379.got - 2010.06.03 11:33:40.
