data_PCOD9101306
_publ_section_title
;
Structure prediction by ZEFSAII (Michael W. Deem and Ramdas Pophale) SiO2 
 PCOD9101306
Probable space group: P -1
;
_chemical_formula_sum "Si O2"
_cell_formula_units_Z 16
_cell_length_a 13.669566
_cell_length_b 19.382603
_cell_length_c 9.369783
_cell_angle_alpha 142.591911
_cell_angle_beta 115.333483
_cell_angle_gamma 38.287582
_cell_volume 798.378414
_symmetry_space_group_name_H-M "P -1"
_symmetry_group_IT_number 2
_symmetry_cell_setting 'triclinic'
loop_
_space_group_symop_operation_xyz
x,y,z
-x,-y,-z
loop_
_atom_site_type_symbol
_atom_site_label
_atom_site_fract_x
_atom_site_fract_y
_atom_site_fract_z
Si Si1 0.906023 0.447971 0.193631
Si Si2 0.513478 0.176768 0.737077
Si Si3 0.138565 0.987834 0.438630
Si Si4 0.053467 0.811831 0.068041
Si Si5 0.855779 0.385424 0.777006
Si Si6 0.246373 0.294199 0.235603
Si Si7 0.004007 0.693247 0.582748
Si Si8 0.589981 0.968160 0.723435
O O1 0.770360 0.649342 0.519924
O O2 0.110423 0.302561 0.142433
O O3 0.922519 0.426170 0.998410
O O4 0.843932 0.377929 0.097258
O O5 0.538187 0.103977 0.790616
O O6 0.702385 0.065981 0.609453
O O7 0.444532 0.126956 0.521119
O O8 0.362456 0.405754 0.016442
O O9 0.111643 0.021450 0.648086
O O10 0.948005 0.193898 0.584562
O O11 0.163805 0.835042 0.164015
O O12 0.003029 0.801490 0.867072
O O13 0.927917 0.337576 0.584023
O O14 0.140758 0.482266 0.388068
O O15 0.447563 0.105500 0.989777
O O16 0.799437 0.817967 0.645677
#
# Coordination Sequence:
#
# PCOD9101306 Si02
#       8
#     2   2   2   2   2   2   2   2
#     4   9  20  37  60  85 117 161 190 240 291 346
#     4  11  23  36  59  91 118 154 196 236 294 351
#     4  10  21  44  63  82 117 158 198 242 287 342
#     4   9  21  41  64  83 116 158 199 242 286 340
#     4  11  21  38  59  86 119 153 195 236 295 346
#     4  10  20  38  58  86 125 151 192 237 296 350
#     4  11  22  37  60  92 120 153 191 240 296 349
#     4  11  22  35  59  90 123 152 187 242 293 354
#
# _framework density 20.040624000000001
#
# number of rings (size 3 to 8) (size 9 to 14) (size 15 to 20)
#    0.000    1.750    2.500    2.250    1.750    2.500 
#    0.000   15.625    0.000    0.000    0.000    0.000 
#    0.000    0.000    0.000    0.000    0.000    0.000 
#
# Total GULP energy -89272.168622 kJ/mol
# GULP energy per Si atom -5579.510539 kJ/mol
# Density = 1.999501 g / cm^3
# Si number density = 20.040624 Si / 1000 Ang^3
#
#
#
# Elastic Constant Matrix: (Units=GPa)
#
#
# Indices 1 2 3 4 5 6 
#
# 1 79.1618 20.3349 41.8183 -9.2658 3.2820 0.2321
# 2 20.3349 70.6338 41.8989 -14.3194 0.2635 11.1789
# 3 41.8183 41.8989 116.0730 -19.1070 -8.9029 -1.1362
# 4 -9.2658 -14.3194 -19.1070 46.6520 3.0771 -8.8259
# 5 3.2820 0.2635 -8.9029 3.0771 37.9452 -1.2521
# 6 0.2321 11.1789 -1.1362 -8.8259 -1.2521 20.2374
#
#
#
# Elastic Compliance Matrix: (Units=1/GPa)
#
#
# Indices 1 2 3 4 5 6 
#
# 1 0.016009 -0.001324 -0.005352 0.000843 -0.002685 0.000449
# 2 -0.001324 0.020838 -0.007131 0.001177 -0.002179 -0.011517
# 3 -0.005352 -0.007131 0.014043 0.003491 0.003740 0.006543
# 4 0.000843 0.001177 0.003491 0.025460 -0.000978 0.010579
# 5 -0.002685 -0.002179 0.003740 -0.000978 0.027648 0.002729
# 6 0.000449 -0.011517 0.006543 0.010579 0.002729 0.060920
#
#
# Mechanical properties :
#
#
# Convention : Reuss Voigt Hill
#
# Bulk Modulus (GPa) = 42.96376 52.66362 47.81369
# Shear Modulus (GPa) = 24.96364 31.75469 28.35917
#
# Velocity S-wave (km/s) = 3.53321 3.98492 3.76584
# Velocity P-wave (km/s) = 6.17492 6.89262 6.54362
#
# Compressibility (1/GPa) = 0.02327543
#
# Stress axis : x y z
#
# Youngs Moduli (GPa) = 62.46656 47.98846 71.20837
#
# Poissons Ratio (x) = 0.06353 0.38113
# Poissons Ratio (y) = 0.08270 0.50780
# Poissons Ratio (z) = 0.33434 0.34221
#
# Static dielectric constant tensor:
#      x y z
#    x 1.690490 0.042560 0.020830 
#    y 0.042560 1.751320 0.001410 
#    z 0.020830 0.001410 1.730090 
# 
# From -- ./inp_files/318807.got.cif
#   From: 2010.05.17/outbox.cif.g08.bks.cpg/sg2_160_cif.got.tgz:318807.got - 2010.06.03 11:33:40.
