data_PCOD9101785
_publ_section_title
;
Structure prediction by ZEFSAII (Michael W. Deem and Ramdas Pophale) SiO2 
 PCOD9101785
Probable space group: P -1
;
_chemical_formula_sum "Si O2"
_cell_formula_units_Z 16
_cell_length_a 11.991680
_cell_length_b 9.123677
_cell_length_c 13.771602
_cell_angle_alpha 66.657211
_cell_angle_beta 112.243123
_cell_angle_gamma 148.948732
_cell_volume 711.131336
_symmetry_space_group_name_H-M "P -1"
_symmetry_group_IT_number 2
_symmetry_cell_setting 'triclinic'
loop_
_space_group_symop_operation_xyz
x,y,z
-x,-y,-z
loop_
_atom_site_type_symbol
_atom_site_label
_atom_site_fract_x
_atom_site_fract_y
_atom_site_fract_z
Si Si1 0.949262 0.697995 0.603878
Si Si2 0.516972 0.895290 0.740926
Si Si3 0.998205 0.239047 0.021937
Si Si4 0.156066 0.977435 0.279929
Si Si5 0.860262 0.422090 0.832014
Si Si6 0.795540 0.698806 0.099280
Si Si7 0.823076 0.441952 0.441678
Si Si8 0.718996 0.767499 0.557977
O O1 0.983883 0.613732 0.724701
O O2 0.771668 0.445614 0.531695
O O3 0.866400 0.771723 0.602116
O O4 0.156946 0.963211 0.536517
O O5 0.384249 0.603541 0.824730
O O6 0.369908 0.807047 0.630303
O O7 0.724972 0.043228 0.719862
O O8 0.612762 0.124492 0.790930
O O9 0.091370 0.395985 0.115664
O O10 0.793813 0.889735 0.050737
O O11 0.932813 0.330602 0.921566
O O12 0.176422 0.347791 0.985028
O O13 0.031730 0.929625 0.166761
O O14 0.958130 0.723801 0.354240
O O15 0.322258 0.239846 0.340676
O O16 0.000000 0.500000 0.500000
O O17 0.500000 0.500000 0.500000
#
# Coordination Sequence:
#
# PCOD9101785 Si02
#       8
#     2   2   2   2   2   2   2   2
#     4  10  22  39  61  90 133 167 212 260 324 382
#     4  11  23  39  69  97 126 170 222 261 325 399
#     4  10  23  44  66  92 131 173 217 279 330 377
#     4  10  20  38  60  93 123 163 217 260 316 384
#     4  11  23  41  66  98 133 168 215 277 335 371
#     4  10  22  44  69  88 128 176 221 269 325 390
#     4  10  22  37  60  91 129 167 203 260 322 387
#     4  10  21  38  62  92 129 174 210 256 315 400
#
# _framework density 22.499359999999999
#
# number of rings (size 3 to 8) (size 9 to 14) (size 15 to 20)
#    0.000    1.750    1.250    2.250    1.750    8.000 
#    0.000    0.000    0.000    0.000    0.000    0.000 
#    0.000    0.000    0.000    0.000    0.000    0.000 
#
# Total GULP energy -89262.753956 kJ/mol
# GULP energy per Si atom -5578.922122 kJ/mol
# Density = 2.244815 g / cm^3
# Si number density = 22.499360 Si / 1000 Ang^3
#
#
#
# Elastic Constant Matrix: (Units=GPa)
#
#
# Indices 1 2 3 4 5 6 
#
# 1 58.8793 19.6177 36.0350 6.9024 -12.7683 -27.6169
# 2 19.6177 113.3749 53.0610 6.2997 -14.4200 -19.7983
# 3 36.0350 53.0610 138.6015 12.6033 -14.6894 -10.9330
# 4 6.9024 6.2997 12.6033 39.3935 -8.3218 -2.1046
# 5 -12.7683 -14.4200 -14.6894 -8.3218 35.7232 9.7119
# 6 -27.6169 -19.7983 -10.9330 -2.1046 9.7119 31.8496
#
#
#
# Elastic Compliance Matrix: (Units=1/GPa)
#
#
# Indices 1 2 3 4 5 6 
#
# 1 0.034665 0.002852 -0.007425 -0.002159 0.002250 0.028453
# 2 0.002852 0.012060 -0.004528 -0.000169 0.001855 0.007838
# 3 -0.007425 -0.004528 0.010661 -0.001454 0.001211 -0.006058
# 4 -0.002159 -0.000169 -0.001454 0.027305 0.005567 -0.002370
# 5 0.002250 0.001855 0.001211 0.005567 0.033021 -0.006182
# 6 0.028453 0.007838 -0.006058 -0.002370 -0.006182 0.060590
#
#
# Mechanical properties :
#
#
# Convention : Reuss Voigt Hill
#
# Bulk Modulus (GPa) = 25.52120 58.69812 42.10966
# Shear Modulus (GPa) = 23.85874 34.86938 29.36406
#
# Velocity S-wave (km/s) = 3.25994 3.94101 3.61655
# Velocity P-wave (km/s) = 5.05345 6.84501 6.01629
#
# Compressibility (1/GPa) = 0.03918312
#
# Stress axis : x y z
#
# Youngs Moduli (GPa) = 28.84793 82.91720 93.79556
#
# Poissons Ratio (x) = -0.23644 0.69643
# Poissons Ratio (y) = -0.08226 0.42472
# Poissons Ratio (z) = 0.21420 0.37546
#
# Static dielectric constant tensor:
#      x y z
#    x 1.873190 -0.046550 -0.001620 
#    y -0.046550 1.946980 0.007290 
#    z -0.001620 0.007290 1.884530 
# 
# From -- ./inp_files/515394.got.cif
#   From: 2010.05.17/outbox.cif.g08.bks.cpg/sg2_258_cif.got.tgz:515394.got - 2010.06.03 11:33:40.
