data_PCOD9101879
_publ_section_title
;
Structure prediction by ZEFSAII (Michael W. Deem and Ramdas Pophale) SiO2 
 PCOD9101879
Probable space group: P -1
;
_chemical_formula_sum "Si O2"
_cell_formula_units_Z 16
_cell_length_a 11.141926
_cell_length_b 28.948365
_cell_length_c 17.110257
_cell_angle_alpha 157.453915
_cell_angle_beta 20.475652
_cell_angle_gamma 147.970380
_cell_volume 733.919689
_symmetry_space_group_name_H-M "P -1"
_symmetry_group_IT_number 2
_symmetry_cell_setting 'triclinic'
loop_
_space_group_symop_operation_xyz
x,y,z
-x,-y,-z
loop_
_atom_site_type_symbol
_atom_site_label
_atom_site_fract_x
_atom_site_fract_y
_atom_site_fract_z
Si Si1 0.169021 0.079319 0.263882
Si Si2 0.494411 0.876171 0.631935
Si Si3 0.618748 0.480382 0.167968
Si Si4 0.145289 0.169098 0.156305
Si Si5 0.336015 0.793653 0.345129
Si Si6 0.498493 0.595216 0.718945
Si Si7 0.232396 0.052604 0.578793
Si Si8 0.302710 0.294264 0.614398
O O1 0.799107 0.133481 0.535966
O O2 0.350326 0.193117 0.359341
O O3 0.074723 0.005285 0.282235
O O4 0.377298 0.994209 0.940308
O O5 0.778741 0.896235 0.423200
O O6 0.598099 0.767684 0.460256
O O7 0.155180 0.851117 0.752327
O O8 0.401196 0.475141 0.371505
O O9 0.518820 0.590023 0.340369
O O10 0.622481 0.349150 0.921082
O O11 0.000000 0.500000 0.000000
O O12 0.271757 0.298262 0.267047
O O13 0.971838 0.175278 0.356607
O O14 0.450812 0.057965 0.791091
O O15 0.660250 0.844892 0.267232
O O16 0.500000 0.500000 0.500000
O O17 0.106931 0.661899 0.066042
#
# Coordination Sequence:
#
# PCOD9101879 Si02
#       8
#     2   2   2   2   2   2   2   2
#     4  12  21  38  67  92 127 162 209 257 311 373
#     4  11  25  41  61  95 136 162 200 258 328 369
#     4  10  20  38  61  85 120 162 210 252 306 365
#     4  11  20  39  64  94 123 165 211 259 304 377
#     4  11  19  36  65  93 120 157 213 267 301 360
#     4  11  23  39  65  93 117 167 222 256 300 373
#     4  11  22  38  63  97 122 166 212 255 306 376
#     4  11  24  43  59  93 130 166 202 262 320 365
#
# _framework density 21.800750000000001
#
# number of rings (size 3 to 8) (size 9 to 14) (size 15 to 20)
#    0.000    1.000    6.250    3.000    1.750    0.500 
#    2.250    6.250    0.000    0.000    0.000    0.000 
#    0.000    0.000    0.000    0.000    0.000    0.000 
#
# Total GULP energy -89477.090131 kJ/mol
# GULP energy per Si atom -5592.318133 kJ/mol
# Density = 2.175113 g / cm^3
# Si number density = 21.800750 Si / 1000 Ang^3
#
#
#
# Elastic Constant Matrix: (Units=GPa)
#
#
# Indices 1 2 3 4 5 6 
#
# 1 125.6475 49.0041 44.9579 25.1754 16.1835 -26.5168
# 2 49.0041 113.2422 21.9448 38.3134 12.1461 -6.8021
# 3 44.9579 21.9448 63.1648 27.0203 22.6345 2.3229
# 4 25.1754 38.3134 27.0203 31.0601 4.3541 0.6756
# 5 16.1835 12.1461 22.6345 4.3541 35.1781 16.4601
# 6 -26.5168 -6.8021 2.3229 0.6756 16.4601 42.3913
#
#
#
# Elastic Compliance Matrix: (Units=1/GPa)
#
#
# Indices 1 2 3 4 5 6 
#
# 1 0.015722 -0.003393 -0.007348 -0.001460 -0.006964 0.012420
# 2 -0.003393 0.020537 0.013891 -0.032945 -0.013233 0.006076
# 3 -0.007348 0.013891 0.046933 -0.048100 -0.028971 0.007076
# 4 -0.001460 -0.032945 -0.048100 0.110863 0.038821 -0.020404
# 5 -0.006964 -0.013233 -0.028971 0.038821 0.064295 -0.030476
# 6 0.012420 0.006076 0.007076 -0.020404 -0.030476 0.044105
#
#
# Mechanical properties :
#
#
# Convention : Reuss Voigt Hill
#
# Bulk Modulus (GPa) = 11.17406 59.31869 35.24638
# Shear Modulus (GPa) = 15.33810 34.13576 24.73693
#
# Velocity S-wave (km/s) = 2.65535 3.96132 3.37216
# Velocity P-wave (km/s) = 3.81285 6.94199 5.60041
#
# Compressibility (1/GPa) = 0.08949296
#
# Stress axis : x y z
#
# Youngs Moduli (GPa) = 63.60616 48.69151 21.30695
#
# Poissons Ratio (x) = 0.16519 0.15657
# Poissons Ratio (y) = 0.21579 -0.29598
# Poissons Ratio (z) = 0.46739 -0.67638
#
# Static dielectric constant tensor:
#      x y z
#    x 1.832820 -0.020500 -0.012510 
#    y -0.020500 1.834890 0.003150 
#    z -0.012510 0.003150 1.827530 
# 
# From -- ./inp_files/260150.got.cif
#   From: 2010.05.17/outbox.cif.g08.bks.cpg/sg2_131_cif.got.tgz:260150.got - 2010.06.03 11:33:40.
