data_PCOD9101754
_publ_section_title
;
Structure prediction by ZEFSAII (Michael W. Deem and Ramdas Pophale) SiO2 
 PCOD9101754
Probable space group: P -1
;
_chemical_formula_sum "Si O2"
_cell_formula_units_Z 14
_cell_length_a 17.525870
_cell_length_b 8.546713
_cell_length_c 26.227482
_cell_angle_alpha 34.281521
_cell_angle_beta 159.252873
_cell_angle_gamma 150.720210
_cell_volume 679.358233
_symmetry_space_group_name_H-M "P -1"
_symmetry_group_IT_number 2
_symmetry_cell_setting 'triclinic'
loop_
_space_group_symop_operation_xyz
x,y,z
-x,-y,-z
loop_
_atom_site_type_symbol
_atom_site_label
_atom_site_fract_x
_atom_site_fract_y
_atom_site_fract_z
Si Si1 0.697647 0.885606 0.162618
Si Si2 0.113981 0.651342 0.388869
Si Si3 0.350153 0.369195 0.547213
Si Si4 0.566706 0.385432 0.124285
Si Si5 0.175151 0.306512 0.291309
Si Si6 0.782533 0.319348 0.873013
Si Si7 0.896835 0.665595 0.430556
O O1 0.637839 0.632149 0.148569
O O2 0.700470 0.728634 0.260403
O O3 0.983601 0.165817 0.255753
O O4 0.500000 0.000000 0.000000
O O5 0.256794 0.607511 0.442919
O O6 0.198131 0.558052 0.519040
O O7 0.822728 0.389337 0.271712
O O8 0.134983 0.995559 0.317061
O O9 0.525929 0.486066 0.575709
O O10 0.545153 0.375683 0.709448
O O11 0.124086 0.011714 0.495734
O O12 0.342874 0.054394 0.093573
O O13 0.500000 0.500000 0.000000
O O14 0.108716 0.533194 0.154399
O O15 0.000000 0.500000 0.000000
O O16 0.000000 0.500000 0.500000
#
# Coordination Sequence:
#
# PCOD9101754 Si02
#       7
#     2   2   2   2   2   2   2
#     4  11  25  44  65  95 125 172 216 258 323 389
#     4  11  20  40  64  98 118 170 216 261 312 380
#     4  10  23  37  65  92 124 161 216 259 316 372
#     4  11  23  40  68  90 131 165 214 263 316 376
#     4   9  21  40  62  88 132 157 211 264 320 364
#     4  10  20  38  60  90 129 161 203 264 325 360
#     4  12  22  42  66  90 133 169 214 262 315 381
#
# _framework density 20.607683999999999
#
# number of rings (size 3 to 8) (size 9 to 14) (size 15 to 20)
#    0.857    0.571    4.286    2.571    2.000    1.714 
#    0.000    0.714    0.000    0.000    0.000    0.000 
#    0.000    0.000    0.000    0.000    0.000    0.000 
#
# Total GULP energy -78001.720712 kJ/mol
# GULP energy per Si atom -5571.551479 kJ/mol
# Density = 2.056078 g / cm^3
# Si number density = 20.607684 Si / 1000 Ang^3
#
#
#
# Elastic Constant Matrix: (Units=GPa)
#
#
# Indices 1 2 3 4 5 6 
#
# 1 51.2169 2.2705 32.3682 -6.0193 -14.2489 15.7098
# 2 2.2705 84.0073 18.4806 -7.0382 -9.4873 16.1028
# 3 32.3682 18.4806 115.0468 1.3938 -15.9261 -0.8500
# 4 -6.0193 -7.0382 1.3938 25.3372 5.1701 -11.1898
# 5 -14.2489 -9.4873 -15.9261 5.1701 40.6761 -9.1891
# 6 15.7098 16.1028 -0.8500 -11.1898 -9.1891 21.9404
#
#
#
# Elastic Compliance Matrix: (Units=1/GPa)
#
#
# Indices 1 2 3 4 5 6 
#
# 1 0.037172 0.007995 -0.011486 -0.003772 0.003308 -0.033466
# 2 0.007995 0.016220 -0.004869 -0.001562 0.000741 -0.018304
# 3 -0.011486 -0.004869 0.013227 0.000734 0.003084 0.013976
# 4 -0.003772 -0.001562 0.000734 0.051413 -0.001252 0.029572
# 5 0.003308 0.000741 0.003084 -0.001252 0.029277 0.008831
# 6 -0.033466 -0.018304 0.013976 0.029572 0.008831 0.102296
#
#
# Mechanical properties :
#
#
# Convention : Reuss Voigt Hill
#
# Bulk Modulus (GPa) = 20.04056 39.61219 29.82637
# Shear Modulus (GPa) = 17.67049 30.73419 24.20234
#
# Velocity S-wave (km/s) = 2.93144 3.86605 3.43072
# Velocity P-wave (km/s) = 4.60474 6.26037 5.49527
#
# Compressibility (1/GPa) = 0.04989880
#
# Stress axis : x y z
#
# Youngs Moduli (GPa) = 26.90230 61.65221 75.60310
#
# Poissons Ratio (x) = -0.49289 0.86838
# Poissons Ratio (y) = -0.21508 0.36807
# Poissons Ratio (z) = 0.30900 0.30015
#
# Static dielectric constant tensor:
#      x y z
#    x 1.745370 0.062690 -0.028280 
#    y 0.062690 1.752470 0.012030 
#    z -0.028280 0.012030 1.748490 
# 
# From -- ./inp_files/620231.got.cif
#   From: 2010.05.17/outbox.cif.g08.bks.cpg/sg2_311_cif.got.tgz:620231.got - 2010.06.03 11:33:40.
