data_PCOD9101581
_publ_section_title
;
Structure prediction by ZEFSAII (Michael W. Deem and Ramdas Pophale) SiO2 
 PCOD9101581
Probable space group: P -1
;
_chemical_formula_sum "Si O2"
_cell_formula_units_Z 14
_cell_length_a 8.337218
_cell_length_b 6.983438
_cell_length_c 18.971026
_cell_angle_alpha 107.828397
_cell_angle_beta 34.215906
_cell_angle_gamma 93.902970
_cell_volume 554.793871
_symmetry_space_group_name_H-M "P -1"
_symmetry_group_IT_number 2
_symmetry_cell_setting 'triclinic'
loop_
_space_group_symop_operation_xyz
x,y,z
-x,-y,-z
loop_
_atom_site_type_symbol
_atom_site_label
_atom_site_fract_x
_atom_site_fract_y
_atom_site_fract_z
Si Si1 0.912925 0.164101 0.614237
Si Si2 0.836123 0.755302 0.337198
Si Si3 0.031696 0.959425 0.160963
Si Si4 0.775242 0.652908 0.670509
Si Si5 0.744527 0.712115 0.148221
Si Si6 0.562438 0.424695 0.619677
Si Si7 0.706850 0.699982 0.860153
O O1 0.171524 0.118882 0.573698
O O2 0.879256 0.400760 0.625635
O O3 0.572981 0.186064 0.767116
O O4 0.000000 0.000000 0.500000
O O5 0.855699 0.912497 0.286101
O O6 0.150097 0.551990 0.206949
O O7 0.598764 0.633991 0.396154
O O8 0.897316 0.884846 0.132449
O O9 0.066433 0.189535 0.177094
O O10 0.378376 0.799342 0.024285
O O11 0.080984 0.690272 0.541507
O O12 0.567497 0.650969 0.677493
O O13 0.660594 0.757101 0.799493
O O14 0.617970 0.647444 0.260220
O O15 0.000000 0.500000 0.000000
#
# Coordination Sequence:
#
# PCOD9101581 Si02
#       7
#     2   2   2   2   2   2   2
#     4  10  22  37  57  85 118 155 195 245 299 349
#     4  10  21  37  59  84 114 152 195 247 296 344
#     4  10  21  37  59  86 115 153 200 240 290 356
#     4   9  19  37  55  79 118 154 190 239 296 352
#     4  10  20  38  60  83 118 161 196 238 298 354
#     4   9  19  34  58  82 106 152 195 233 290 350
#     4  10  21  37  58  85 117 153 193 246 297 346
#
# _framework density 25.234598999999999
#
# number of rings (size 3 to 8) (size 9 to 14) (size 15 to 20)
#    0.000    2.286    0.000    3.000    0.000    9.143 
#    0.000    5.000    0.000    7.714    0.000    0.000 
#    0.000    0.000    0.000    0.000    0.000    0.000 
#
# Total GULP energy -78103.505922 kJ/mol
# GULP energy per Si atom -5578.821852 kJ/mol
# Density = 2.517716 g / cm^3
# Si number density = 25.234599 Si / 1000 Ang^3
#
#
#
# Elastic Constant Matrix: (Units=GPa)
#
#
# Indices 1 2 3 4 5 6 
#
# 1 118.9317 41.3027 41.7544 -4.3486 -0.7547 69.5420
# 2 41.3027 102.7390 39.0734 3.9283 -9.5250 38.5649
# 3 41.7544 39.0734 118.5385 2.8713 -9.6147 17.5855
# 4 -4.3486 3.9283 2.8713 36.5427 8.0244 -6.4997
# 5 -0.7547 -9.5250 -9.6147 8.0244 33.3108 0.1100
# 6 69.5420 38.5649 17.5855 -6.4997 0.1100 58.1816
#
#
#
# Elastic Compliance Matrix: (Units=1/GPa)
#
#
# Indices 1 2 3 4 5 6 
#
# 1 0.033051 0.005085 -0.007027 -0.003643 0.001188 -0.041161
# 2 0.005085 0.015817 -0.004174 -0.004589 0.004591 -0.015822
# 3 -0.007027 -0.004174 0.011312 -0.000338 0.001968 0.007706
# 4 -0.003643 -0.004589 -0.000338 0.031410 -0.009095 0.011025
# 5 0.001188 0.004591 0.001968 -0.009095 0.034139 -0.006139
# 6 -0.041161 -0.015822 0.007706 0.011025 -0.006139 0.075786
#
#
# Mechanical properties :
#
#
# Convention : Reuss Voigt Hill
#
# Bulk Modulus (GPa) = 20.85620 64.94114 42.89867
# Shear Modulus (GPa) = 21.76468 40.14560 30.95514
#
# Velocity S-wave (km/s) = 2.94001 3.99293 3.50622
# Velocity P-wave (km/s) = 4.45059 6.85921 5.78172
#
# Compressibility (1/GPa) = 0.04794738
#
# Stress axis : x y z
#
# Youngs Moduli (GPa) = 30.25618 63.22469 88.40170
#
# Poissons Ratio (x) = -0.32152 0.62123
# Poissons Ratio (y) = -0.15386 0.36900
# Poissons Ratio (z) = 0.21262 0.26391
#
# Static dielectric constant tensor:
#      x y z
#    x 2.205380 -0.007950 -0.019580 
#    y -0.007950 2.031430 0.024530 
#    z -0.019580 0.024530 1.958780 
# 
# From -- ./inp_files/587446.got.cif
#   From: 2010.05.17/outbox.cif.g08.bks.cpg/sg2_294_cif.got.tgz:587446.got - 2010.06.03 11:33:40.
