data_PCOD9101545
_publ_section_title
;
Structure prediction by ZEFSAII (Michael W. Deem and Ramdas Pophale) SiO2 
 PCOD9101545
Probable space group: P -1
;
_chemical_formula_sum "Si O2"
_cell_formula_units_Z 14
_cell_length_a 7.688409
_cell_length_b 13.160136
_cell_length_c 13.110869
_cell_angle_alpha 31.746172
_cell_angle_beta 52.712446
_cell_angle_gamma 58.881405
_cell_volume 555.313240
_symmetry_space_group_name_H-M "P -1"
_symmetry_group_IT_number 2
_symmetry_cell_setting 'triclinic'
loop_
_space_group_symop_operation_xyz
x,y,z
-x,-y,-z
loop_
_atom_site_type_symbol
_atom_site_label
_atom_site_fract_x
_atom_site_fract_y
_atom_site_fract_z
Si Si1 0.670746 0.839463 0.270369
Si Si2 0.196812 0.414404 0.380777
Si Si3 0.752310 0.541547 0.354133
Si Si4 0.787242 0.236176 0.438056
Si Si5 0.262332 0.819251 0.905292
Si Si6 0.836881 0.375690 0.091929
Si Si7 0.279115 0.232029 0.302444
O O1 0.712893 0.652862 0.486738
O O2 0.763882 0.766902 0.190727
O O3 0.407228 0.870068 0.341009
O O4 0.787440 0.009646 0.144388
O O5 0.274708 0.261429 0.399311
O O6 0.933583 0.425277 0.454637
O O7 0.266927 0.625979 0.138014
O O8 0.500000 0.500000 0.500000
O O9 0.796095 0.450972 0.304381
O O10 0.728236 0.254575 0.324755
O O11 0.035292 0.158163 0.425839
O O12 0.122419 0.766294 0.898126
O O13 0.503811 0.861735 0.738110
O O14 0.710035 0.551112 0.933983
O O15 0.000000 0.500000 0.000000
#
# Coordination Sequence:
#
# PCOD9101545 Si02
#       7
#     2   2   2   2   2   2   2
#     4  11  22  36  59  87 114 151 195 236 280 337
#     4  10  20  38  60  80 115 153 185 240 291 329
#     4   9  20  39  60  81 111 154 198 234 282 341
#     4   9  18  34  58  81 115 159 188 231 287 332
#     4  11  22  35  58  92 117 143 192 237 285 348
#     4   9  17  33  55  81 113 149 186 230 288 343
#     4   9  18  33  55  83 116 152 187 228 287 346
#
# _framework density 25.210996999999999
#
# number of rings (size 3 to 8) (size 9 to 14) (size 15 to 20)
#    0.000    2.286    0.000    4.714    0.000    3.429 
#    0.000    7.143    0.000   17.143    0.000    0.000 
#    0.000    0.000    0.000    0.000    0.000    0.000 
#
# Total GULP energy -78070.067323 kJ/mol
# GULP energy per Si atom -5576.433380 kJ/mol
# Density = 2.515362 g / cm^3
# Si number density = 25.210997 Si / 1000 Ang^3
#
#
#
# Elastic Constant Matrix: (Units=GPa)
#
#
# Indices 1 2 3 4 5 6 
#
# 1 122.0629 34.2486 31.1527 3.5733 -33.7159 -1.3873
# 2 34.2486 175.8070 40.7109 -11.9846 -17.5985 35.7678
# 3 31.1527 40.7109 61.3337 -9.1421 -17.7863 5.4046
# 4 3.5733 -11.9846 -9.1421 37.0599 5.9191 -17.4777
# 5 -33.7159 -17.5985 -17.7863 5.9191 39.4219 2.3617
# 6 -1.3873 35.7678 5.4046 -17.4777 2.3617 46.8926
#
#
#
# Elastic Compliance Matrix: (Units=1/GPa)
#
#
# Indices 1 2 3 4 5 6 
#
# 1 0.011848 -0.000769 -0.003478 -0.003932 0.008845 -0.000573
# 2 -0.000769 0.008197 -0.004222 -0.001656 0.001735 -0.006493
# 3 -0.003478 -0.004222 0.022729 0.004826 0.004547 0.002068
# 4 -0.003932 -0.001656 0.004826 0.036160 -0.008222 0.014482
# 5 0.008845 0.001735 0.004547 -0.008222 0.037383 -0.006533
# 6 -0.000573 -0.006493 0.002068 0.014482 -0.006533 0.031750
#
#
# Mechanical properties :
#
#
# Convention : Reuss Voigt Hill
#
# Bulk Modulus (GPa) = 38.70530 63.49200 51.09865
# Shear Modulus (GPa) = 28.79901 41.54765 35.17333
#
# Velocity S-wave (km/s) = 3.38349 4.06396 3.73923
# Velocity P-wave (km/s) = 5.53623 6.87458 6.24139
#
# Compressibility (1/GPa) = 0.02583625
#
# Stress axis : x y z
#
# Youngs Moduli (GPa) = 84.40547 121.99096 43.99651
#
# Poissons Ratio (x) = 0.09376 0.15302
# Poissons Ratio (y) = 0.06487 0.18577
# Poissons Ratio (z) = 0.29356 0.51508
#
# Static dielectric constant tensor:
#      x y z
#    x 2.003810 0.006450 -0.074750 
#    y 0.006450 2.082470 -0.000790 
#    z -0.074750 -0.000790 2.067430 
# 
# From -- ./inp_files/497393.got.cif
#   From: 2010.05.17/outbox.cif.g08.bks.cpg/sg2_249_cif.got.tgz:497393.got - 2010.06.03 11:33:40.
