data_PCOD9101940
_publ_section_title
;
Structure prediction by ZEFSAII (Michael W. Deem and Ramdas Pophale) SiO2 
 PCOD9101940
Probable space group: P -1
;
_chemical_formula_sum "Si O2"
_cell_formula_units_Z 16
_cell_length_a 7.823263
_cell_length_b 19.248560
_cell_length_c 12.485655
_cell_angle_alpha 30.964994
_cell_angle_beta 128.222583
_cell_angle_gamma 115.291396
_cell_volume 734.737190
_symmetry_space_group_name_H-M "P -1"
_symmetry_group_IT_number 2
_symmetry_cell_setting 'triclinic'
loop_
_space_group_symop_operation_xyz
x,y,z
-x,-y,-z
loop_
_atom_site_type_symbol
_atom_site_label
_atom_site_fract_x
_atom_site_fract_y
_atom_site_fract_z
Si Si1 0.233504 0.559231 0.834110
Si Si2 0.934868 0.351691 0.925776
Si Si3 0.996991 0.958923 0.677583
Si Si4 0.436455 0.858509 0.638141
Si Si5 0.749213 0.157429 0.625872
Si Si6 0.173917 0.590936 0.424232
Si Si7 0.142403 0.899065 0.034601
Si Si8 0.607659 0.395477 0.938568
O O1 0.167996 0.702282 0.550384
O O2 0.094604 0.450273 0.890473
O O3 0.500000 0.500000 0.000000
O O4 0.230045 0.588442 0.921456
O O5 0.794040 0.414952 0.683021
O O6 0.761581 0.347991 0.958329
O O7 0.061598 0.192005 0.154597
O O8 0.821922 0.090812 0.487579
O O9 0.000000 0.000000 0.500000
O O10 0.188059 0.927390 0.889353
O O11 0.446750 0.829643 0.554263
O O12 0.500000 0.000000 0.500000
O O13 0.524936 0.718601 0.924215
O O14 0.686175 0.130063 0.759453
O O15 0.941800 0.024322 0.835284
O O16 0.072512 0.752991 0.198833
O O17 0.410649 0.531929 0.653910
O O18 0.000000 0.500000 0.500000
#
# Coordination Sequence:
#
# PCOD9101940 Si02
#       8
#     2   2   2   2   2   2   2   2
#     4  11  23  39  63  93 120 158 210 256 306 368
#     4  11  23  40  62  87 127 166 197 257 315 370
#     4  10  20  38  61  88 119 158 202 248 308 371
#     4  10  22  36  61  90 121 158 207 254 299 362
#     4   9  19  36  58  86 119 152 197 253 305 355
#     4  11  23  38  63  91 120 159 212 255 307 368
#     4   9  19  36  59  82 119 156 195 253 306 355
#     4  11  23  40  61  89 127 162 203 254 315 371
#
# _framework density 21.776492999999999
#
# number of rings (size 3 to 8) (size 9 to 14) (size 15 to 20)
#    0.000    1.750    1.250    3.000    8.750    0.000 
#    0.000    0.000    0.000    1.500    0.000    0.000 
#    0.000    0.000    0.000    0.000    0.000    0.000 
#
# Total GULP energy -89076.255373 kJ/mol
# GULP energy per Si atom -5567.265961 kJ/mol
# Density = 2.172693 g / cm^3
# Si number density = 21.776493 Si / 1000 Ang^3
#
#
#
# Elastic Constant Matrix: (Units=GPa)
#
#
# Indices 1 2 3 4 5 6 
#
# 1 32.9370 26.5387 28.5825 15.7468 -15.9269 -16.9704
# 2 26.5387 113.4792 56.3960 7.2242 -26.6635 -16.8390
# 3 28.5825 56.3960 144.4060 1.7730 -20.5531 -10.1049
# 4 15.7468 7.2242 1.7730 55.3592 -21.4650 -17.6049
# 5 -15.9269 -26.6635 -20.5531 -21.4650 37.4700 8.3707
# 6 -16.9704 -16.8390 -10.1049 -17.6049 8.3707 34.8356
#
#
#
# Elastic Compliance Matrix: (Units=1/GPa)
#
#
# Indices 1 2 3 4 5 6 
#
# 1 0.056741 -0.004552 -0.006704 -0.005707 0.009857 0.018244
# 2 -0.004552 0.013380 -0.003117 0.003489 0.007116 0.003399
# 3 -0.006704 -0.003117 0.009610 0.002308 0.001806 -0.001252
# 4 -0.005707 0.003489 0.002308 0.028329 0.015267 0.010224
# 5 0.009857 0.007116 0.001806 0.015267 0.044378 0.005817
# 6 0.018244 0.003399 -0.001252 0.010224 0.005817 0.042643
#
#
# Mechanical properties :
#
#
# Convention : Reuss Voigt Hill
#
# Bulk Modulus (GPa) = 19.61281 57.09516 38.35398
# Shear Modulus (GPa) = 20.76245 37.48664 29.12454
#
# Velocity S-wave (km/s) = 3.09112 4.15351 3.66106
# Velocity P-wave (km/s) = 4.66541 7.01982 5.96003
#
# Compressibility (1/GPa) = 0.05098709
#
# Stress axis : x y z
#
# Youngs Moduli (GPa) = 17.62406 74.73957 104.05856
#
# Poissons Ratio (x) = 0.34018 0.69756
# Poissons Ratio (y) = 0.08022 0.32431
# Poissons Ratio (z) = 0.11814 0.23293
#
# Static dielectric constant tensor:
#      x y z
#    x 1.833640 -0.020980 -0.005000 
#    y -0.020980 1.866910 0.041460 
#    z -0.005000 0.041460 1.911090 
# 
# From -- ./inp_files/209497.got.cif
#   From: 2010.05.17/outbox.cif.g08.bks.cpg/sg2_105_cif.got.tgz:209497.got - 2010.06.03 11:33:40.
