data_PCOD9101372
_publ_section_title
;
Structure prediction by ZEFSAII (Michael W. Deem and Ramdas Pophale) SiO2 
 PCOD9101372
Probable space group: P -1
;
_chemical_formula_sum "Si O2"
_cell_formula_units_Z 16
_cell_length_a 8.641818
_cell_length_b 18.418283
_cell_length_c 11.678418
_cell_angle_alpha 127.342125
_cell_angle_beta 54.794212
_cell_angle_gamma 148.863662
_cell_volume 756.677935
_symmetry_space_group_name_H-M "P -1"
_symmetry_group_IT_number 2
_symmetry_cell_setting 'triclinic'
loop_
_space_group_symop_operation_xyz
x,y,z
-x,-y,-z
loop_
_atom_site_type_symbol
_atom_site_label
_atom_site_fract_x
_atom_site_fract_y
_atom_site_fract_z
Si Si1 0.881040 0.789334 0.149225
Si Si2 0.256500 0.925924 0.631496
Si Si3 0.622068 0.633390 0.347051
Si Si4 0.821208 0.427438 0.386172
Si Si5 0.852052 0.618381 0.431257
Si Si6 0.923738 0.668094 0.832639
Si Si7 0.447474 0.009491 0.878257
Si Si8 0.051560 0.008630 0.123799
O O1 0.722803 0.724743 0.277865
O O2 0.237878 0.912690 0.141208
O O3 0.846222 0.862925 0.149863
O O4 0.785921 0.664493 0.999107
O O5 0.447572 0.021525 0.754077
O O6 0.060758 0.760180 0.556526
O O7 0.015117 0.918481 0.722364
O O8 0.500000 0.000000 0.500000
O O9 0.508034 0.665449 0.518541
O O10 0.863045 0.660348 0.336622
O O11 0.342987 0.462941 0.264765
O O12 0.924248 0.541327 0.358575
O O13 0.000000 0.500000 0.500000
O O14 0.886670 0.351691 0.241939
O O15 0.500000 0.500000 0.500000
O O16 0.162603 0.833935 0.847089
O O17 0.368043 0.072567 0.040700
O O18 0.000000 0.000000 0.000000
#
# Coordination Sequence:
#
# PCOD9101372 Si02
#       8
#     2   2   2   2   2   2   2   2
#     4  11  22  38  60  88 117 146 191 245 283 328
#     4  11  22  38  59  86 116 148 189 241 288 328
#     4  10  21  37  56  85 116 146 188 243 284 324
#     4   9  19  36  59  82 111 153 193 227 279 346
#     4  10  21  37  57  82 115 151 188 229 280 344
#     4  10  20  38  59  79 112 157 191 224 283 349
#     4  10  21  39  59  83 114 154 193 229 279 350
#     4   9  21  39  60  83 115 155 191 228 285 349
#
# _framework density 21.145059
#
# number of rings (size 3 to 8) (size 9 to 14) (size 15 to 20)
#    0.000    2.000    0.000    4.875    0.000    7.000 
#    0.000    5.000    0.000    0.000    0.000    0.000 
#    0.000    0.000    0.000    0.000    0.000    0.000 
#
# Total GULP energy -89081.614170 kJ/mol
# GULP energy per Si atom -5567.600886 kJ/mol
# Density = 2.109693 g / cm^3
# Si number density = 21.145059 Si / 1000 Ang^3
#
#
#
# Elastic Constant Matrix: (Units=GPa)
#
#
# Indices 1 2 3 4 5 6 
#
# 1 99.0801 15.4941 32.6561 2.2128 10.4614 -20.4222
# 2 15.4941 52.6576 1.7873 -15.5065 12.5436 0.0274
# 3 32.6561 1.7873 88.3480 -6.7143 -0.1094 -16.7399
# 4 2.2128 -15.5065 -6.7143 24.8182 -1.1419 14.0442
# 5 10.4614 12.5436 -0.1094 -1.1419 32.8471 4.9326
# 6 -20.4222 0.0274 -16.7399 14.0442 4.9326 37.3802
#
#
#
# Elastic Compliance Matrix: (Units=1/GPa)
#
#
# Indices 1 2 3 4 5 6 
#
# 1 0.016517 -0.008212 -0.004580 -0.015698 -0.004713 0.013499
# 2 -0.008212 0.031055 0.002006 0.027895 -0.006276 -0.013263
# 3 -0.004580 0.002006 0.013663 0.004299 0.000599 0.001920
# 4 -0.015698 0.027895 0.004299 0.081798 0.002879 -0.037784
# 5 -0.004713 -0.006276 0.000599 0.002879 0.035658 -0.008089
# 6 0.013499 -0.013263 0.001920 -0.037784 -0.008089 0.050260
#
#
# Mechanical properties :
#
#
# Convention : Reuss Voigt Hill
#
# Bulk Modulus (GPa) = 25.21231 37.77340 31.49286
# Shear Modulus (GPa) = 18.95781 31.68565 25.32173
#
# Velocity S-wave (km/s) = 2.99751 3.87523 3.46428
# Velocity P-wave (km/s) = 4.89178 6.15841 5.56127
#
# Compressibility (1/GPa) = 0.03966316
#
# Stress axis : x y z
#
# Youngs Moduli (GPa) = 60.54347 32.20101 73.19239
#
# Poissons Ratio (x) = 0.26442 0.33524
# Poissons Ratio (y) = 0.49716 -0.14684
# Poissons Ratio (z) = 0.27730 -0.06460
#
# Static dielectric constant tensor:
#      x y z
#    x 1.857440 -0.010050 0.028150 
#    y -0.010050 1.796840 -0.031320 
#    z 0.028150 -0.031320 1.798050 
# 
# From -- ./inp_files/403187.got.cif
#   From: 2010.05.17/outbox.cif.g08.bks.cpg/sg2_202_cif.got.tgz:403187.got - 2010.06.03 11:33:40.
