data_PCOD9101967
_publ_section_title
;
Structure prediction by ZEFSAII (Michael W. Deem and Ramdas Pophale) SiO2 
 PCOD9101967
Probable space group: P -1
;
_chemical_formula_sum "Si O2"
_cell_formula_units_Z 16
_cell_length_a 25.648510
_cell_length_b 5.132548
_cell_length_c 7.908738
_cell_angle_alpha 82.273508
_cell_angle_beta 54.266742
_cell_angle_gamma 119.776086
_cell_volume 585.483580
_symmetry_space_group_name_H-M "P -1"
_symmetry_group_IT_number 2
_symmetry_cell_setting 'triclinic'
loop_
_space_group_symop_operation_xyz
x,y,z
-x,-y,-z
loop_
_atom_site_type_symbol
_atom_site_label
_atom_site_fract_x
_atom_site_fract_y
_atom_site_fract_z
Si Si1 0.317179 0.391498 0.556384
Si Si2 0.075910 0.440484 0.267933
Si Si3 0.278765 0.418717 0.978294
Si Si4 0.895802 0.597704 0.120918
Si Si5 0.621635 0.834271 0.108667
Si Si6 0.234564 0.426860 0.411082
Si Si7 0.441917 0.256230 0.298312
Si Si8 0.048426 0.463464 0.668140
O O1 0.251956 0.291702 0.846213
O O2 0.268907 0.295781 0.476933
O O3 0.363182 0.242669 0.478663
O O4 0.399854 0.844518 0.384672
O O5 0.114220 0.607310 0.368563
O O6 0.020288 0.516779 0.276553
O O7 0.144027 0.557071 0.978899
O O8 0.000000 0.000000 0.500000
O O9 0.335462 0.323991 0.924787
O O10 0.348224 0.868742 0.830478
O O11 0.209490 0.280837 0.277436
O O12 0.837883 0.618234 0.345533
O O13 0.911701 0.390766 0.230553
O O14 0.988480 0.024856 0.856071
O O15 0.482922 0.500332 0.716391
O O16 0.677448 0.126545 0.821252
O O17 0.500000 0.500000 0.000000
#
# Coordination Sequence:
#
# PCOD9101967 Si02
#       8
#     2   2   2   2   2   2   2   2
#     4  12  25  40  68  90 124 166 214 253 330 365
#     4   9  18  35  60  92 125 149 204 249 297 363
#     4  10  23  43  59  94 125 163 211 263 304 390
#     4  10  20  38  61  89 120 164 202 247 313 359
#     4  10  22  42  62  88 130 154 214 260 320 364
#     4  10  25  41  58  89 129 166 206 261 305 382
#     4  12  22  40  68  95 119 164 208 274 309 380
#     4   9  19  36  62  94 120 157 203 254 297 368
#
# _framework density 27.327838
#
# number of rings (size 3 to 8) (size 9 to 14) (size 15 to 20)
#    0.750    1.000    1.250    3.000    0.000    5.000 
#    0.000    3.750    0.000    0.000    0.000    0.000 
#    0.000    0.000    0.000    0.000    0.000    0.000 
#
# Total GULP energy -89530.168344 kJ/mol
# GULP energy per Si atom -5595.635521 kJ/mol
# Density = 2.726564 g / cm^3
# Si number density = 27.327838 Si / 1000 Ang^3
#
#
#
# Elastic Constant Matrix: (Units=GPa)
#
#
# Indices 1 2 3 4 5 6 
#
# 1 107.9737 50.5963 41.8450 8.2888 17.2287 -2.2365
# 2 50.5963 120.6065 33.7309 6.7472 12.6094 -0.5445
# 3 41.8450 33.7309 194.8569 10.2623 43.8562 4.0881
# 4 8.2888 6.7472 10.2623 48.5173 -3.0782 7.7246
# 5 17.2287 12.6094 43.8562 -3.0782 48.3085 6.0251
# 6 -2.2365 -0.5445 4.0881 7.7246 6.0251 67.9169
#
#
#
# Elastic Compliance Matrix: (Units=1/GPa)
#
#
# Indices 1 2 3 4 5 6 
#
# 1 0.012367 -0.004500 -0.001311 -0.001482 -0.002242 0.000818
# 2 -0.004500 0.010464 -0.000693 -0.000589 -0.000546 0.000093
# 3 -0.001311 -0.000693 0.006903 -0.001539 -0.005744 0.000220
# 4 -0.001482 -0.000589 -0.001539 0.021960 0.003828 -0.002798
# 5 -0.002242 -0.000546 -0.005744 0.003828 0.027425 -0.002601
# 6 0.000818 0.000093 0.000220 -0.002798 -0.002601 0.015287
#
#
# Mechanical properties :
#
#
# Convention : Reuss Voigt Hill
#
# Bulk Modulus (GPa) = 59.79336 75.08684 67.44010
# Shear Modulus (GPa) = 44.25188 52.76619 48.50904
#
# Velocity S-wave (km/s) = 4.02841 4.39892 4.21774
# Velocity P-wave (km/s) = 6.60038 7.30319 6.96066
#
# Compressibility (1/GPa) = 0.01672426
#
# Stress axis : x y z
#
# Youngs Moduli (GPa) = 80.86033 95.56842 144.87256
#
# Poissons Ratio (x) = 0.43010 0.18997
# Poissons Ratio (y) = 0.36391 0.10037
# Poissons Ratio (z) = 0.10603 0.06621
#
# Static dielectric constant tensor:
#      x y z
#    x 2.162880 0.135920 0.046370 
#    y 0.135920 2.190920 -0.005540 
#    z 0.046370 -0.005540 2.221150 
# 
# From -- ./inp_files/358142.got.cif
#   From: 2010.05.17/outbox.cif.g08.bks.cpg/sg2_180_cif.got.tgz:358142.got - 2010.06.03 11:33:40.
