data_PCOD9101751
_publ_section_title
;
Structure prediction by ZEFSAII (Michael W. Deem and Ramdas Pophale) SiO2 
 PCOD9101751
Probable space group: P -1
;
_chemical_formula_sum "Si O2"
_cell_formula_units_Z 16
_cell_length_a 13.034136
_cell_length_b 16.930000
_cell_length_c 11.634553
_cell_angle_alpha 158.144663
_cell_angle_beta 50.552781
_cell_angle_gamma 126.670116
_cell_volume 737.781700
_symmetry_space_group_name_H-M "P -1"
_symmetry_group_IT_number 2
_symmetry_cell_setting 'triclinic'
loop_
_space_group_symop_operation_xyz
x,y,z
-x,-y,-z
loop_
_atom_site_type_symbol
_atom_site_label
_atom_site_fract_x
_atom_site_fract_y
_atom_site_fract_z
Si Si1 0.230550 0.292389 0.430339
Si Si2 0.473181 0.804227 0.838895
Si Si3 0.064507 0.013655 0.316594
Si Si4 0.881683 0.693179 0.114749
Si Si5 0.422872 0.876646 0.231436
Si Si6 0.152891 0.653305 0.149331
Si Si7 0.372122 0.356422 0.934070
Si Si8 0.672579 0.587612 0.704525
O O1 0.385672 0.294252 0.359188
O O2 0.219103 0.329717 0.353221
O O3 0.167245 0.068896 0.216792
O O4 0.168612 0.480322 0.803228
O O5 0.383044 0.632634 0.605405
O O6 0.407845 0.868130 0.091962
O O7 0.500000 0.000000 0.000000
O O8 0.938557 0.157756 0.570286
O O9 0.128227 0.119046 0.528621
O O10 0.005236 0.779935 0.067170
O O11 0.745036 0.662982 0.102435
O O12 0.901709 0.478323 0.880916
O O13 0.297498 0.751943 0.205993
O O14 0.424452 0.119679 0.593762
O O15 0.554730 0.755083 0.003187
O O16 0.500000 0.500000 0.000000
O O17 0.305517 0.432300 0.202784
#
# Coordination Sequence:
#
# PCOD9101751 Si02
#       8
#     2   2   2   2   2   2   2   2
#     4  10  20  38  60  90 124 164 216 263 312 379
#     4  11  22  35  61  93 129 164 211 269 322 367
#     4  10  22  39  66  94 122 165 221 272 308 357
#     4  10  22  37  59  94 122 158 216 259 310 370
#     4  11  21  39  64  92 124 171 216 263 318 379
#     4  11  19  39  69  92 122 161 220 272 313 356
#     4  12  25  39  63  93 136 166 209 261 325 394
#     4  11  22  41  58  93 129 174 202 259 334 385
#
# _framework density 21.686633
#
# number of rings (size 3 to 8) (size 9 to 14) (size 15 to 20)
#    0.000    1.250    3.750    4.125    5.250    0.000 
#    2.250    0.625    0.000    3.000    0.000    0.000 
#    0.000    0.000    0.000    0.000    0.000    0.000 
#
# Total GULP energy -89466.569689 kJ/mol
# GULP energy per Si atom -5591.660606 kJ/mol
# Density = 2.163727 g / cm^3
# Si number density = 21.686633 Si / 1000 Ang^3
#
#
#
# Elastic Constant Matrix: (Units=GPa)
#
#
# Indices 1 2 3 4 5 6 
#
# 1 74.1707 30.1011 6.7906 -0.3343 11.3401 -8.7106
# 2 30.1011 181.1739 37.4603 27.1317 20.8656 -3.1973
# 3 6.7906 37.4603 60.7658 10.3374 17.3421 -9.5911
# 4 -0.3343 27.1317 10.3374 32.4411 -1.1566 3.1825
# 5 11.3401 20.8656 17.3421 -1.1566 20.1742 0.6201
# 6 -8.7106 -3.1973 -9.5911 3.1825 0.6201 33.1914
#
#
#
# Elastic Compliance Matrix: (Units=1/GPa)
#
#
# Indices 1 2 3 4 5 6 
#
# 1 0.016137 -0.002132 0.003033 0.000142 -0.009621 0.005072
# 2 -0.002132 0.007855 -0.001860 -0.006237 -0.005695 0.000364
# 3 0.003033 -0.001860 0.027140 -0.008871 -0.023920 0.009757
# 4 0.000142 -0.006237 -0.008871 0.040174 0.016524 -0.007288
# 5 -0.009621 -0.005695 -0.023920 0.016524 0.082779 -0.013116
# 6 0.005072 0.000364 0.009757 -0.007288 -0.013116 0.035258
#
#
# Mechanical properties :
#
#
# Convention : Reuss Voigt Hill
#
# Bulk Modulus (GPa) = 20.31944 51.64604 35.98274
# Shear Modulus (GPa) = 21.96206 33.27854 27.62030
#
# Velocity S-wave (km/s) = 3.18575 3.92154 3.57264
# Velocity P-wave (km/s) = 4.78768 6.66116 5.80056
#
# Compressibility (1/GPa) = 0.04921395
#
# Stress axis : x y z
#
# Youngs Moduli (GPa) = 61.96853 127.31059 36.84610
#
# Poissons Ratio (x) = 0.27143 -0.11176
# Poissons Ratio (y) = 0.13212 0.06853
# Poissons Ratio (z) = -0.18795 0.23680
#
# Static dielectric constant tensor:
#      x y z
#    x 1.812710 -0.008280 -0.008550 
#    y -0.008280 1.859930 -0.021970 
#    z -0.008550 -0.021970 1.774930 
# 
# From -- ./inp_files/456874.got.cif
#   From: 2010.05.17/outbox.cif.g08.bks.cpg/sg2_229_cif.got.tgz:456874.got - 2010.06.03 11:33:40.
