data_PCOD9101342
_publ_section_title
;
Structure prediction by ZEFSAII (Michael W. Deem and Ramdas Pophale) SiO2 
 PCOD9101342
Probable space group: P -1
;
_chemical_formula_sum "Si O2"
_cell_formula_units_Z 16
_cell_length_a 13.367665
_cell_length_b 9.783975
_cell_length_c 15.736198
_cell_angle_alpha 60.220435
_cell_angle_beta 133.647581
_cell_angle_gamma 145.423116
_cell_volume 832.208317
_symmetry_space_group_name_H-M "P -1"
_symmetry_group_IT_number 2
_symmetry_cell_setting 'triclinic'
loop_
_space_group_symop_operation_xyz
x,y,z
-x,-y,-z
loop_
_atom_site_type_symbol
_atom_site_label
_atom_site_fract_x
_atom_site_fract_y
_atom_site_fract_z
Si Si1 0.507865 0.912211 0.278329
Si Si2 0.182803 0.648668 0.413110
Si Si3 0.469100 0.321523 0.353167
Si Si4 0.824278 0.065768 0.556552
Si Si5 0.190863 0.827449 0.770193
Si Si6 0.147131 0.141077 0.625942
Si Si7 0.698129 0.017350 0.776106
Si Si8 0.033843 0.542449 0.106009
O O1 0.664679 0.952784 0.418438
O O2 0.500321 0.085476 0.255360
O O3 0.259180 0.645794 0.224245
O O4 0.583502 0.979568 0.205374
O O5 0.359571 0.672490 0.533198
O O6 0.976073 0.381266 0.335510
O O7 0.268755 0.832279 0.329717
O O8 0.140975 0.736347 0.437018
O O9 0.298615 0.154829 0.380482
O O10 0.616453 0.602551 0.345242
O O11 0.350217 0.185948 0.235889
O O12 0.041286 0.178180 0.614025
O O13 0.151351 0.688890 0.872545
O O14 0.144128 0.967704 0.719842
O O15 0.000000 0.000000 0.500000
O O16 0.900093 0.226248 0.891515
O O17 0.000000 0.500000 0.000000
#
# Coordination Sequence:
#
# PCOD9101342 Si02
#       8
#     2   2   2   2   2   2   2   2
#     4  10  18  30  54  78 104 138 169 217 273 294
#     4  10  16  32  53  73 107 145 182 218 239 308
#     4  11  18  33  49  72 115 144 183 207 249 318
#     4  11  20  32  53  77 109 156 178 201 257 305
#     4  11  22  36  49  82 115 135 180 216 256 328
#     4  12  25  31  46  81 120 154 170 199 255 324
#     4   8  17  31  52  80  97 133 179 223 260 295
#     4   9  20  38  59  78 100 129 180 243 278 298
#
# _framework density 19.225954999999999
#
# number of rings (size 3 to 8) (size 9 to 14) (size 15 to 20)
#    0.750    1.000    5.000    0.750    1.750    3.000 
#    0.000    0.000    0.000    0.750    0.000    8.750 
#    0.000    0.000    0.000    0.000    0.000    0.000 
#
# Total GULP energy -89131.167955 kJ/mol
# GULP energy per Si atom -5570.697997 kJ/mol
# Density = 1.918220 g / cm^3
# Si number density = 19.225955 Si / 1000 Ang^3
#
#
#
# Elastic Constant Matrix: (Units=GPa)
#
#
# Indices 1 2 3 4 5 6 
#
# 1 62.0027 -0.1192 10.3880 -12.5745 -22.6964 15.7574
# 2 -0.1192 73.4901 13.5791 2.9424 -12.8921 -1.9374
# 3 10.3880 13.5791 53.0903 5.9926 -30.1067 -8.1174
# 4 -12.5745 2.9424 5.9926 9.6010 0.7357 -9.0893
# 5 -22.6964 -12.8921 -30.1067 0.7357 24.4447 -0.4415
# 6 15.7574 -1.9374 -8.1174 -9.0893 -0.4415 22.0771
#
#
#
# Elastic Compliance Matrix: (Units=1/GPa)
#
#
# Indices 1 2 3 4 5 6 
#
# 1 0.061668 0.011453 0.052998 0.023832 0.127652 -0.011159
# 2 0.011453 0.017867 0.016520 -0.005949 0.040543 -0.002170
# 3 0.052998 0.016520 0.141782 -0.037231 0.233755 0.005101
# 4 0.023832 -0.005949 -0.037231 0.217526 -0.032369 0.057689
# 5 0.127652 0.040543 0.233755 -0.032369 0.469586 -0.005539
# 6 -0.011159 -0.002170 0.005101 0.057689 -0.005539 0.078586
#
#
# Mechanical properties :
#
#
# Convention : Reuss Voigt Hill
#
# Bulk Modulus (GPa) = 2.60921 26.25321 14.43121
# Shear Modulus (GPa) = 5.24755 22.20690 13.72723
#
# Velocity S-wave (km/s) = 1.65388 3.40229 2.67497
# Velocity P-wave (km/s) = 2.23767 5.39618 4.13074
#
# Compressibility (1/GPa) = 0.38325759
#
# Stress axis : x y z
#
# Youngs Moduli (GPa) = 16.21592 55.97043 7.05308
#
# Poissons Ratio (x) = -0.64100 -0.37380
# Poissons Ratio (y) = -0.18571 -0.11652
# Poissons Ratio (z) = -0.85941 -0.92464
#
# Static dielectric constant tensor:
#      x y z
#    x 1.712460 -0.010020 -0.015340 
#    y -0.010020 1.735790 0.028970 
#    z -0.015340 0.028970 1.670650 
# 
# From -- ./inp_files/514299.got.cif
#   From: 2010.05.17/outbox.cif.g08.bks.cpg/sg2_258_cif.got.tgz:514299.got - 2010.06.03 11:33:40.
