data_PCOD9101186
_publ_section_title
;
Structure prediction by ZEFSAII (Michael W. Deem and Ramdas Pophale) SiO2 
 PCOD9101186
Probable space group: P -1
;
_chemical_formula_sum "Si O2"
_cell_formula_units_Z 14
_cell_length_a 18.637507
_cell_length_b 22.358484
_cell_length_c 7.775143
_cell_angle_alpha 136.802977
_cell_angle_beta 137.648071
_cell_angle_gamma 16.962849
_cell_volume 632.754668
_symmetry_space_group_name_H-M "P -1"
_symmetry_group_IT_number 2
_symmetry_cell_setting 'triclinic'
loop_
_space_group_symop_operation_xyz
x,y,z
-x,-y,-z
loop_
_atom_site_type_symbol
_atom_site_label
_atom_site_fract_x
_atom_site_fract_y
_atom_site_fract_z
Si Si1 0.732888 0.282362 0.551020
Si Si2 0.917712 0.913779 0.665060
Si Si3 0.954750 0.604902 0.787459
Si Si4 0.932574 0.818801 0.145426
Si Si5 0.382958 0.201468 0.871624
Si Si6 0.837693 0.132730 0.765701
Si Si7 0.584986 0.013707 0.449492
O O1 0.500000 0.500000 0.500000
O O2 0.672904 0.276419 0.608239
O O3 0.929350 0.214895 0.802755
O O4 0.892719 0.099250 0.325500
O O5 0.024893 0.778615 0.413151
O O6 0.764335 0.106949 0.705015
O O7 0.753681 0.967840 0.593501
O O8 0.116705 0.816562 0.931000
O O9 0.660685 0.813505 0.744464
O O10 0.000000 0.500000 0.500000
O O11 0.150806 0.438858 0.936562
O O12 0.992955 0.672834 0.919810
O O13 0.630164 0.051280 0.092530
O O14 0.491665 0.103334 0.665588
O O15 0.296533 0.170841 0.721260
#
# Coordination Sequence:
#
# PCOD9101186 Si02
#       7
#     2   2   2   2   2   2   2
#     4  10  21  39  63  86 107 143 195 237 271 328
#     4  10  20  38  57  81 120 152 179 227 289 339
#     4   9  19  34  54  82 108 139 189 232 268 321
#     4  10  21  35  55  82 112 145 182 229 280 331
#     4   9  18  35  56  79 107 145 190 229 268 326
#     4   9  21  40  59  82 114 149 185 231 283 332
#     4   9  18  34  56  79 108 146 187 230 273 325
#
# _framework density 22.125481000000001
#
# number of rings (size 3 to 8) (size 9 to 14) (size 15 to 20)
#    0.000    2.571    0.000    1.714    0.000    8.000 
#    0.000   13.571    0.000    0.000    0.000    0.000 
#    0.000    0.000    0.000    0.000    0.000    0.000 
#
# Total GULP energy -78114.929173 kJ/mol
# GULP energy per Si atom -5579.637798 kJ/mol
# Density = 2.207512 g / cm^3
# Si number density = 22.125481 Si / 1000 Ang^3
#
#
#
# Elastic Constant Matrix: (Units=GPa)
#
#
# Indices 1 2 3 4 5 6 
#
# 1 101.7558 5.7849 16.4273 -5.4109 21.6763 11.8282
# 2 5.7849 75.9373 0.4021 -7.7420 -3.8193 24.9422
# 3 16.4273 0.4021 77.8290 -4.3113 4.1935 -1.2019
# 4 -5.4109 -7.7420 -4.3113 17.1631 -0.2574 -1.1500
# 5 21.6763 -3.8193 4.1935 -0.2574 41.7607 -5.4476
# 6 11.8282 24.9422 -1.2019 -1.1500 -5.4476 21.0775
#
#
#
# Elastic Compliance Matrix: (Units=1/GPa)
#
#
# Indices 1 2 3 4 5 6 
#
# 1 0.013625 0.003557 -0.002428 0.004234 -0.008291 -0.013905
# 2 0.003557 0.023710 -0.000624 0.009565 -0.003532 -0.030480
# 3 -0.002428 -0.000624 0.013540 0.002565 0.000261 0.003080
# 4 0.004234 0.009565 0.002565 0.063800 -0.002588 -0.010736
# 5 -0.008291 -0.003532 0.000261 -0.002588 0.030032 0.016468
# 6 -0.013905 -0.030480 0.003080 -0.010736 0.016468 0.095163
#
#
# Mechanical properties :
#
#
# Convention : Reuss Voigt Hill
#
# Bulk Modulus (GPa) = 19.27312 33.41673 26.34492
# Shear Modulus (GPa) = 19.51950 31.52744 25.52347
#
# Velocity S-wave (km/s) = 2.97344 3.77893 3.40012
# Velocity P-wave (km/s) = 4.52970 5.84607 5.22947
#
# Compressibility (1/GPa) = 0.05188574
#
# Stress axis : x y z
#
# Youngs Moduli (GPa) = 73.39566 42.17611 73.85590
#
# Poissons Ratio (x) = -0.15002 0.17929
# Poissons Ratio (y) = -0.26106 0.04607
# Poissons Ratio (z) = 0.17818 0.02631
#
# Static dielectric constant tensor:
#      x y z
#    x 1.879070 0.012040 -0.020570 
#    y 0.012040 1.864500 -0.023590 
#    z -0.020570 -0.023590 1.821140 
# 
# From -- ./inp_files/308746.got.cif
#   From: 2010.05.17/outbox.cif.g08.bks.cpg/sg2_155_cif.got.tgz:308746.got - 2010.06.03 11:33:40.
