data_PCOD9101019
_publ_section_title
;
Structure prediction by ZEFSAII (Michael W. Deem and Ramdas Pophale) SiO2 
 PCOD9101019
Probable space group: P -1
;
_chemical_formula_sum "Si O2"
_cell_formula_units_Z 16
_cell_length_a 15.786703
_cell_length_b 22.681514
_cell_length_c 8.728054
_cell_angle_alpha 55.411474
_cell_angle_beta 122.986176
_cell_angle_gamma 162.513322
_cell_volume 773.040628
_symmetry_space_group_name_H-M "P -1"
_symmetry_group_IT_number 2
_symmetry_cell_setting 'triclinic'
loop_
_space_group_symop_operation_xyz
x,y,z
-x,-y,-z
loop_
_atom_site_type_symbol
_atom_site_label
_atom_site_fract_x
_atom_site_fract_y
_atom_site_fract_z
Si Si1 0.782295 0.601056 0.818871
Si Si2 0.848570 0.423701 0.619152
Si Si3 0.805149 0.219939 0.540280
Si Si4 0.182863 0.349463 0.571276
Si Si5 0.121505 0.151324 0.820029
Si Si6 0.214840 0.243345 0.303017
Si Si7 0.781259 0.219810 0.885388
Si Si8 0.719398 0.863437 0.567926
O O1 0.886694 0.694162 0.614370
O O2 0.457174 0.364562 0.825170
O O3 0.811847 0.688306 0.836666
O O4 0.957580 0.650265 0.978772
O O5 0.778819 0.302008 0.805642
O O6 0.574143 0.289375 0.506151
O O7 0.000000 0.500000 0.500000
O O8 0.068649 0.621060 0.628826
O O9 0.790963 0.216088 0.716327
O O10 0.019970 0.302648 0.569640
O O11 0.500000 0.000000 0.500000
O O12 0.103796 0.221192 0.760597
O O13 0.521231 0.584156 0.572201
O O14 0.929791 0.028836 0.661470
O O15 0.000000 0.000000 0.000000
O O16 0.315043 0.245574 0.285317
O O17 0.905178 0.008677 0.388291
O O18 0.500000 0.000000 0.000000
#
# Coordination Sequence:
#
# PCOD9101019 Si02
#       8
#     2   2   2   2   2   2   2   2
#     4  11  22  43  65  96 136 174 221 264 343 392
#     4  10  24  42  67  93 132 179 223 271 333 400
#     4  11  25  43  68  95 126 181 227 273 332 391
#     4  11  21  44  64  94 133 176 220 267 334 404
#     4  11  25  36  65  98 131 175 213 277 330 393
#     4  10  20  37  68  93 126 174 214 271 324 398
#     4  11  25  45  69  99 134 177 223 280 332 398
#     4  11  20  39  65  99 126 165 227 264 335 389
#
# _framework density 20.697489999999998
#
# number of rings (size 3 to 8) (size 9 to 14) (size 15 to 20)
#    0.000    1.250    3.750    2.250    7.000    1.000 
#    0.000    6.250    0.000    0.000    0.000    0.000 
#    0.000    0.000    0.000    0.000    0.000    0.000 
#
# Total GULP energy -89155.682042 kJ/mol
# GULP energy per Si atom -5572.230128 kJ/mol
# Density = 2.065038 g / cm^3
# Si number density = 20.697490 Si / 1000 Ang^3
#
#
#
# Elastic Constant Matrix: (Units=GPa)
#
#
# Indices 1 2 3 4 5 6 
#
# 1 119.4308 55.1924 39.8502 -10.5532 36.3767 -0.8011
# 2 55.1924 130.5828 40.1242 -10.5391 24.4957 -6.3918
# 3 39.8502 40.1242 66.1368 -19.7838 22.7270 -4.4155
# 4 -10.5532 -10.5391 -19.7838 42.1097 -6.1866 9.4774
# 5 36.3767 24.4957 22.7270 -6.1866 27.3845 -2.9980
# 6 -0.8011 -6.3918 -4.4155 9.4774 -2.9980 35.9935
#
#
#
# Elastic Compliance Matrix: (Units=1/GPa)
#
#
# Indices 1 2 3 4 5 6 
#
# 1 0.015337 -0.002899 -0.001925 0.000226 -0.016332 -0.001829
# 2 -0.002899 0.010543 -0.003945 -0.000567 -0.002294 0.001282
# 3 -0.001925 -0.003945 0.025933 0.008962 -0.013526 -0.001049
# 4 0.000226 -0.000567 0.008962 0.029201 -0.001379 -0.006800
# 5 -0.016332 -0.002294 -0.013526 -0.001379 0.071604 0.003897
# 6 -0.001829 0.001282 -0.001049 -0.006800 0.003897 0.029956
#
#
# Mechanical properties :
#
#
# Convention : Reuss Voigt Hill
#
# Bulk Modulus (GPa) = 29.17620 65.16488 47.17054
# Shear Modulus (GPa) = 23.63666 33.16313 28.39989
#
# Velocity S-wave (km/s) = 3.38302 4.00719 3.70826
# Velocity P-wave (km/s) = 5.42097 7.27756 6.41677
#
# Compressibility (1/GPa) = 0.03427451
#
# Stress axis : x y z
#
# Youngs Moduli (GPa) = 65.20170 94.85322 38.56156
#
# Poissons Ratio (x) = 0.27493 0.07423
# Poissons Ratio (y) = 0.18899 0.15214
# Poissons Ratio (z) = 0.12551 0.37424
#
# Static dielectric constant tensor:
#      x y z
#    x 1.801710 -0.009150 -0.030330 
#    y -0.009150 1.686550 -0.126700 
#    z -0.030330 -0.126700 1.638970 
# 
# From -- ./inp_files/189793.got.cif
#   From: 2010.05.17/outbox.cif.g08.bks.cpg/sg2_95_cif.got.tgz:189793.got - 2010.06.03 11:33:40.
