data_PCOD9101572
_publ_section_title
;
Structure prediction by ZEFSAII (Michael W. Deem and Ramdas Pophale) SiO2 
 PCOD9101572
Probable space group: P -1
;
_chemical_formula_sum "Si O2"
_cell_formula_units_Z 13
_cell_length_a 24.864617
_cell_length_b 7.164653
_cell_length_c 24.412788
_cell_angle_alpha 143.352415
_cell_angle_beta 168.758842
_cell_angle_gamma 37.483201
_cell_volume 505.228810
_symmetry_space_group_name_H-M "P -1"
_symmetry_group_IT_number 2
_symmetry_cell_setting 'triclinic'
loop_
_space_group_symop_operation_xyz
x,y,z
-x,-y,-z
loop_
_atom_site_type_symbol
_atom_site_label
_atom_site_fract_x
_atom_site_fract_y
_atom_site_fract_z
Si Si1 0.762040 0.269057 0.701052
Si Si2 0.753582 0.466236 0.171367
Si Si3 0.590206 0.701164 0.473170
Si Si4 0.000000 0.000000 0.000000
Si Si5 0.224662 0.831295 0.757246
Si Si6 0.513906 0.434496 0.224681
Si Si7 0.991395 0.230496 0.243824
O O1 0.500000 0.500000 0.500000
O O2 0.749206 0.998921 0.672761
O O3 0.823582 0.066667 0.660896
O O4 0.000000 0.500000 0.000000
O O5 0.791869 0.283711 0.223449
O O6 0.928540 0.776195 0.423215
O O7 0.871628 0.256383 0.190714
O O8 0.436581 0.586836 0.880432
O O9 0.815101 0.678176 0.740041
O O10 0.581451 0.426388 0.354973
O O11 0.282792 0.802072 0.208416
O O12 0.363038 0.158828 0.979120
O O13 0.800709 0.497358 0.497200
O O14 0.282528 0.722892 0.056549
#
# Coordination Sequence:
#
# PCOD9101572 Si02
#       7
#     2   2   2   1   2   2   2
#     4  11  22  40  63  87 123 164 205 257 319 366
#     4  10  22  41  60  91 129 164 208 250 319 367
#     4  10  21  39  60  87 122 159 201 262 310 361
#     4  10  20  38  60  82 120 158 198 254 306 366
#     4  10  22  40  63  88 130 169 197 260 312 378
#     4  11  22  39  64  93 123 164 210 257 316 364
#     4  11  23  39  64  93 124 162 214 267 299 378
#
# _framework density 25.730916000000001
#
# number of rings (size 3 to 8) (size 9 to 14) (size 15 to 20)
#    0.000    1.538    0.000    6.462    0.000    3.692 
#    8.308    0.000    0.000    0.000    0.000    0.000 
#    0.000    0.000    0.000    0.000    0.000    0.000 
#
# Total GULP energy -72505.617669 kJ/mol
# GULP energy per Si atom -5577.355205 kJ/mol
# Density = 2.567235 g / cm^3
# Si number density = 25.730916 Si / 1000 Ang^3
#
#
#
# Elastic Constant Matrix: (Units=GPa)
#
#
# Indices 1 2 3 4 5 6 
#
# 1 115.5065 39.8036 17.1506 -10.8285 23.7255 -43.4226
# 2 39.8036 75.7308 1.6933 -4.6759 17.7206 -27.2756
# 3 17.1506 1.6933 159.2111 -20.2015 24.1922 -15.3006
# 4 -10.8285 -4.6759 -20.2015 37.7127 -16.0235 6.7814
# 5 23.7255 17.7206 24.1922 -16.0235 36.9903 -4.0372
# 6 -43.4226 -27.2756 -15.3006 6.7814 -4.0372 50.7550
#
#
#
# Elastic Compliance Matrix: (Units=1/GPa)
#
#
# Indices 1 2 3 4 5 6 
#
# 1 0.015262 -0.001885 0.000646 -0.001256 -0.008573 0.011725
# 2 -0.001885 0.019503 0.001979 -0.002794 -0.009649 0.009071
# 3 0.000646 0.001979 0.007502 0.001658 -0.005197 0.003243
# 4 -0.001256 -0.002794 0.001658 0.034159 0.015264 -0.005426
# 5 -0.008573 -0.009649 -0.005197 0.015264 0.045804 -0.012483
# 6 0.011725 0.009071 0.003243 -0.005426 -0.012483 0.035318
#
#
# Mechanical properties :
#
#
# Convention : Reuss Voigt Hill
#
# Bulk Modulus (GPa) = 22.85791 51.97149 37.41470
# Shear Modulus (GPa) = 29.29978 44.54501 36.92239
#
# Velocity S-wave (km/s) = 3.37812 4.16527 3.79217
# Velocity P-wave (km/s) = 4.91104 6.58593 5.80917
#
# Compressibility (1/GPa) = 0.04374853
#
# Stress axis : x y z
#
# Youngs Moduli (GPa) = 65.52190 51.27333 133.29741
#
# Poissons Ratio (x) = 0.09663 -0.08612
# Poissons Ratio (y) = 0.12348 -0.26380
# Poissons Ratio (z) = -0.04233 -0.10147
#
# Static dielectric constant tensor:
#      x y z
#    x 1.820320 0.024570 0.148320 
#    y 0.024570 2.072290 0.079330 
#    z 0.148320 0.079330 1.816370 
# 
# From -- ./inp_files/193527.got.cif
#   From: 2010.05.17/outbox.cif.g08.bks.cpg/sg2_97_cif.got.tgz:193527.got - 2010.06.03 11:33:40.
