data_PCOD9101205
_publ_section_title
;
Structure prediction by ZEFSAII (Michael W. Deem and Ramdas Pophale) SiO2 
 PCOD9101205
Probable space group: P -1
;
_chemical_formula_sum "Si O2"
_cell_formula_units_Z 16
_cell_length_a 17.859265
_cell_length_b 10.775318
_cell_length_c 15.597577
_cell_angle_alpha 22.748080
_cell_angle_beta 139.563713
_cell_angle_gamma 141.272630
_cell_volume 715.264346
_symmetry_space_group_name_H-M "P -1"
_symmetry_group_IT_number 2
_symmetry_cell_setting 'triclinic'
loop_
_space_group_symop_operation_xyz
x,y,z
-x,-y,-z
loop_
_atom_site_type_symbol
_atom_site_label
_atom_site_fract_x
_atom_site_fract_y
_atom_site_fract_z
Si Si1 0.430743 0.594818 0.689029
Si Si2 0.184044 0.482464 0.117443
Si Si3 0.361791 0.621381 0.043810
Si Si4 0.075985 0.902178 0.882721
Si Si5 0.751939 0.058659 0.720877
Si Si6 0.733971 0.142374 0.353846
Si Si7 0.690425 0.668250 0.087812
Si Si8 0.999449 0.492546 0.398106
O O1 0.503925 0.413323 0.808158
O O2 0.298129 0.621602 0.536019
O O3 0.410466 0.380912 0.895982
O O4 0.500000 0.000000 0.500000
O O5 0.291885 0.703494 0.011268
O O6 0.057105 0.320297 0.057520
O O7 0.237369 0.197872 0.383177
O O8 0.141759 0.677165 0.032327
O O9 0.288664 0.233154 0.200098
O O10 0.343065 0.846370 0.804589
O O11 0.176186 0.128747 0.889461
O O12 0.036176 0.157287 0.623631
O O13 0.896363 0.202874 0.746135
O O14 0.687935 0.872063 0.869719
O O15 0.677167 0.285020 0.293147
O O16 0.866911 0.427693 0.284849
O O17 0.000000 0.500000 0.500000
#
# Coordination Sequence:
#
# PCOD9101205 Si02
#       8
#     2   2   2   2   2   2   2   2
#     4  10  20  38  57  86 122 153 195 247 298 337
#     4  10  22  40  55  84 123 159 186 237 298 351
#     4  10  22  35  59  83 116 157 195 235 287 362
#     4  10  21  38  60  84 122 156 188 239 296 355
#     4  10  21  33  60  93 113 156 192 251 298 331
#     4  10  21  34  58  89 114 152 192 239 294 342
#     4  11  21  36  60  91 115 150 204 246 289 354
#     4  11  18  35  60  88 122 147 190 244 294 346
#
# _framework density 22.369351999999999
#
# number of rings (size 3 to 8) (size 9 to 14) (size 15 to 20)
#    0.000    1.750    2.500    3.000    1.750    6.500 
#    2.250    2.500    0.000    1.500    0.000    0.000 
#    0.000    0.000    0.000    0.000    0.000    0.000 
#
# Total GULP energy -89188.925615 kJ/mol
# GULP energy per Si atom -5574.307851 kJ/mol
# Density = 2.231844 g / cm^3
# Si number density = 22.369352 Si / 1000 Ang^3
#
#
#
# Elastic Constant Matrix: (Units=GPa)
#
#
# Indices 1 2 3 4 5 6 
#
# 1 104.1411 0.4539 35.2009 4.7567 4.5921 15.0799
# 2 0.4539 35.7207 6.3417 6.9108 -2.5506 8.4665
# 3 35.2009 6.3417 72.9797 9.0440 10.3431 -12.7559
# 4 4.7567 6.9108 9.0440 23.0671 7.1134 1.3669
# 5 4.5921 -2.5506 10.3431 7.1134 39.5597 -2.1180
# 6 15.0799 8.4665 -12.7559 1.3669 -2.1180 21.9975
#
#
#
# Elastic Compliance Matrix: (Units=1/GPa)
#
#
# Indices 1 2 3 4 5 6 
#
# 1 0.016994 0.007165 -0.012767 0.000468 0.000577 -0.021784
# 2 0.007165 0.037586 -0.010606 -0.008539 0.004585 -0.024556
# 3 -0.012767 -0.010606 0.026937 -0.005271 -0.003775 0.028418
# 4 0.000468 -0.008539 -0.005271 0.050765 -0.008573 -0.004071
# 5 0.000577 0.004585 -0.003775 -0.008573 0.027975 -0.001123
# 6 -0.021784 -0.024556 0.028418 -0.004071 -0.001123 0.086468
#
#
# Mechanical properties :
#
#
# Convention : Reuss Voigt Hill
#
# Bulk Modulus (GPa) = 20.36566 32.98163 26.67365
# Shear Modulus (GPa) = 16.91994 28.31452 22.61723
#
# Velocity S-wave (km/s) = 2.75324 3.56163 3.18320
# Velocity P-wave (km/s) = 4.38533 5.62936 5.04583
#
# Compressibility (1/GPa) = 0.04910225
#
# Stress axis : x y z
#
# Youngs Moduli (GPa) = 58.84424 26.60540 37.12323
#
# Poissons Ratio (x) = -0.19061 0.47394
# Poissons Ratio (y) = -0.42159 0.39371
# Poissons Ratio (z) = 0.75125 0.28216
#
# Static dielectric constant tensor:
#      x y z
#    x 1.850490 0.008720 0.017520 
#    y 0.008720 1.903010 0.008470 
#    z 0.017520 0.008470 1.852570 
# 
# From -- ./inp_files/261097.got.cif
#   From: 2010.05.17/outbox.cif.g08.bks.cpg/sg2_131_cif.got.tgz:261097.got - 2010.06.03 11:33:40.
