data_PCOD9101926
_publ_section_title
;
Structure prediction by ZEFSAII (Michael W. Deem and Ramdas Pophale) SiO2 
 PCOD9101926
Probable space group: P -1
;
_chemical_formula_sum "Si O2"
_cell_formula_units_Z 16
_cell_length_a 10.630035
_cell_length_b 11.754254
_cell_length_c 7.004228
_cell_angle_alpha 87.884502
_cell_angle_beta 108.676941
_cell_angle_gamma 70.857323
_cell_volume 773.323037
_symmetry_space_group_name_H-M "P -1"
_symmetry_group_IT_number 2
_symmetry_cell_setting 'triclinic'
loop_
_space_group_symop_operation_xyz
x,y,z
-x,-y,-z
loop_
_atom_site_type_symbol
_atom_site_label
_atom_site_fract_x
_atom_site_fract_y
_atom_site_fract_z
Si Si1 0.398993 0.434524 0.534272
Si Si2 0.811933 0.493549 0.276027
Si Si3 0.836040 0.412613 0.868586
Si Si4 0.556404 0.950760 0.822323
Si Si5 0.049470 0.312760 0.650256
Si Si6 0.825390 0.156901 0.890808
Si Si7 0.431514 0.842223 0.460084
Si Si8 0.146555 0.079353 0.906250
O O1 0.500000 0.500000 0.500000
O O2 0.344612 0.477482 0.718281
O O3 0.261118 0.486665 0.329436
O O4 0.476239 0.292422 0.553271
O O5 0.848361 0.612506 0.344561
O O6 0.919240 0.371661 0.438104
O O7 0.837144 0.472486 0.067161
O O8 0.778408 0.301846 0.887261
O O9 0.982620 0.353215 0.826676
O O10 0.476747 0.869068 0.691205
O O11 0.529232 0.066271 0.665677
O O12 0.728194 0.890229 0.926465
O O13 0.500000 0.000000 0.000000
O O14 0.117396 0.165943 0.699515
O O15 0.733117 0.137861 0.667712
O O16 0.992977 0.116432 0.930209
O O17 0.803745 0.068838 0.052415
#
# Coordination Sequence:
#
# PCOD9101926 Si02
#       8
#     2   2   2   2   2   2   2   2
#     4  11  23  39  60  88 123 166 206 251 303 368
#     4  10  22  38  59  89 123 160 207 253 305 368
#     4  10  20  38  61  87 123 162 202 255 308 356
#     4  10  23  42  63  94 120 157 200 254 309 367
#     4   9  20  39  58  88 121 156 205 260 306 361
#     4   9  18  40  61  87 123 161 201 249 305 363
#     4  10  22  42  62  86 127 159 199 256 304 359
#     4   9  19  37  64  87 118 156 204 247 302 368
#
# _framework density 20.68993
#
# number of rings (size 3 to 8) (size 9 to 14) (size 15 to 20)
#    0.000    2.250    1.250    0.375    3.500    0.500 
#    9.000    5.000    0.000    0.000    0.000    0.000 
#    0.000    0.000    0.000    0.000    0.000    0.000 
#
# Total GULP energy -89098.297787 kJ/mol
# GULP energy per Si atom -5568.643612 kJ/mol
# Density = 2.064284 g / cm^3
# Si number density = 20.689930 Si / 1000 Ang^3
#
#
#
# Elastic Constant Matrix: (Units=GPa)
#
#
# Indices 1 2 3 4 5 6 
#
# 1 80.8859 13.8466 22.2301 4.5463 10.7937 2.3596
# 2 13.8466 62.6669 17.5966 -25.7266 14.0812 6.7318
# 3 22.2301 17.5966 72.4724 1.1432 0.2887 -7.1714
# 4 4.5463 -25.7266 1.1432 37.5515 2.3302 -3.4669
# 5 10.7937 14.0812 0.2887 2.3302 25.4359 -1.4979
# 6 2.3596 6.7318 -7.1714 -3.4669 -1.4979 23.6587
#
#
#
# Elastic Compliance Matrix: (Units=1/GPa)
#
#
# Indices 1 2 3 4 5 6 
#
# 1 0.014793 -0.001671 -0.004370 -0.002760 -0.005230 -0.003060
# 2 -0.001671 0.035151 -0.009357 0.024947 -0.021541 -0.010380
# 3 -0.004370 -0.009357 0.018292 -0.006167 0.007877 0.008238
# 4 -0.002760 0.024947 -0.006167 0.044998 -0.016878 -0.003167
# 5 -0.005230 -0.021541 0.007877 -0.016878 0.055509 0.010080
# 6 -0.003060 -0.010380 0.008238 -0.003167 0.010080 0.048198
#
#
# Mechanical properties :
#
#
# Convention : Reuss Voigt Hill
#
# Bulk Modulus (GPa) = 26.70993 35.93020 31.32006
# Shear Modulus (GPa) = 19.21475 28.15267 23.68371
#
# Velocity S-wave (km/s) = 3.05076 3.69276 3.38701
# Velocity P-wave (km/s) = 5.03460 5.96538 5.51964
#
# Compressibility (1/GPa) = 0.03743926
#
# Stress axis : x y z
#
# Youngs Moduli (GPa) = 67.60164 28.44879 54.66885
#
# Poissons Ratio (x) = 0.04753 0.23892
# Poissons Ratio (y) = 0.11293 0.51155
# Poissons Ratio (z) = 0.29544 0.26620
#
# Static dielectric constant tensor:
#      x y z
#    x 1.775970 -0.001710 0.028950 
#    y -0.001710 1.785590 -0.023760 
#    z 0.028950 -0.023760 1.751040 
# 
# From -- ./inp_files/70763.got.cif
#   From: 2010.05.17/outbox.cif.g08.bks.cpg/sg2_36_cif.got.tgz:70763.got - 2010.06.03 11:33:40.
