data_PCOD9101387
_publ_section_title
;
Structure prediction by ZEFSAII (Michael W. Deem and Ramdas Pophale) SiO2 
 PCOD9101387
Probable space group: P -1
;
_chemical_formula_sum "Si O2"
_cell_formula_units_Z 16
_cell_length_a 15.410303
_cell_length_b 8.366769
_cell_length_c 14.323085
_cell_angle_alpha 106.982921
_cell_angle_beta 143.589647
_cell_angle_gamma 98.930336
_cell_volume 761.264097
_symmetry_space_group_name_H-M "P -1"
_symmetry_group_IT_number 2
_symmetry_cell_setting 'triclinic'
loop_
_space_group_symop_operation_xyz
x,y,z
-x,-y,-z
loop_
_atom_site_type_symbol
_atom_site_label
_atom_site_fract_x
_atom_site_fract_y
_atom_site_fract_z
Si Si1 0.637931 0.454524 0.137934
Si Si2 0.404121 0.007836 0.741369
Si Si3 0.395128 0.357614 0.265498
Si Si4 0.078731 0.746333 0.578738
Si Si5 0.604898 0.012775 0.475257
Si Si6 0.595913 0.829436 0.933151
Si Si7 0.763774 0.514337 0.712190
Si Si8 0.236238 0.934106 0.184676
O O1 0.871267 0.680115 0.371274
O O2 0.500000 0.500000 0.000000
O O3 0.571727 0.347212 0.165550
O O4 0.571760 0.253413 0.977939
O O5 0.216437 0.850094 0.623021
O O6 0.355244 0.030563 0.599303
O O7 0.500017 0.899193 0.798372
O O8 0.630110 0.511522 0.520343
O O9 0.310053 0.462750 0.250210
O O10 0.289081 0.130052 0.197273
O O11 0.355221 0.286491 0.111179
O O12 0.000000 0.500000 0.500000
O O13 0.216406 0.943491 0.809840
O O14 0.710958 0.278163 0.619121
O O15 0.689990 0.977434 0.630123
O O16 0.369923 0.878752 0.260177
O O17 0.000008 0.720298 0.940577
#
# Coordination Sequence:
#
# PCOD9101387 Si02
#       8
#     2   2   2   2   2   2   2   2
#     4  11  25  45  61  93 125 153 197 259 310 354
#     4  11  21  41  64  91 122 154 207 249 289 370
#     4  10  22  39  58  89 122 154 200 249 286 349
#     4  11  21  39  71  88 117 163 201 244 309 363
#     4  10  22  39  58  89 122 154 200 249 286 349
#     4  11  21  41  64  91 122 154 207 249 289 370
#     4  10  20  38  59  82 123 159 198 240 296 344
#     4  10  20  38  59  82 123 159 198 240 296 344
#
# _framework density 21.017672999999998
#
# number of rings (size 3 to 8) (size 9 to 14) (size 15 to 20)
#    0.000    1.500    5.000    1.500    0.000    5.000 
#   13.500    0.000    0.000    0.000    0.000    0.000 
#    0.000    0.000    0.000    0.000    0.000    0.000 
#
# Total GULP energy -89405.764878 kJ/mol
# GULP energy per Si atom -5587.860305 kJ/mol
# Density = 2.096984 g / cm^3
# Si number density = 21.017673 Si / 1000 Ang^3
#
#
#
# Elastic Constant Matrix: (Units=GPa)
#
#
# Indices 1 2 3 4 5 6 
#
# 1 118.0924 8.7912 69.4493 4.4506 -28.2258 22.0635
# 2 8.7912 30.1357 12.0979 -0.9574 3.5560 4.6677
# 3 69.4493 12.0979 148.3864 10.0896 35.3539 8.5959
# 4 4.4506 -0.9574 10.0896 17.3165 -2.7219 -0.4314
# 5 -28.2258 3.5560 35.3539 -2.7219 38.3210 -4.7074
# 6 22.0635 4.6677 8.5959 -0.4314 -4.7074 28.0106
#
#
#
# Elastic Compliance Matrix: (Units=1/GPa)
#
#
# Indices 1 2 3 4 5 6 
#
# 1 0.079776 -0.006367 -0.067058 0.036785 0.121343 -0.020240
# 2 -0.006367 0.035757 0.002939 0.000052 -0.011173 -0.003722
# 3 -0.067058 0.002939 0.066549 -0.038717 -0.112282 0.012442
# 4 0.036785 0.000052 -0.038717 0.081442 0.068051 -0.004412
# 5 0.121343 -0.011173 -0.112282 0.068051 0.222371 -0.020842
# 6 -0.020240 -0.003722 0.012442 -0.004412 -0.020842 0.044874
#
#
# Mechanical properties :
#
#
# Convention : Reuss Voigt Hill
#
# Bulk Modulus (GPa) = 24.32554 53.03238 38.67896
# Shear Modulus (GPa) = 7.29452 30.48136 18.88794
#
# Velocity S-wave (km/s) = 1.86499 3.81238 3.00103
# Velocity P-wave (km/s) = 4.02946 6.68326 5.51827
#
# Compressibility (1/GPa) = 0.04110906
#
# Stress axis : x y z
#
# Youngs Moduli (GPa) = 12.53504 27.96624 15.02663
#
# Poissons Ratio (x) = 0.17806 1.00766
# Poissons Ratio (y) = 0.07981 -0.04416
# Poissons Ratio (z) = 0.84058 -0.08218
#
# Static dielectric constant tensor:
#      x y z
#    x 1.774740 -0.010810 -0.012090 
#    y -0.010810 1.812650 -0.008940 
#    z -0.012090 -0.008940 1.745720 
# 
# From -- ./inp_files/528842.got.cif
#   From: 2010.05.17/outbox.cif.g08.bks.cpg/sg2_265_cif.got.tgz:528842.got - 2010.06.03 11:33:40.
