data_PCOD9101467
_publ_section_title
;
Structure prediction by ZEFSAII (Michael W. Deem and Ramdas Pophale) SiO2 
 PCOD9101467
Probable space group: P -1
;
_chemical_formula_sum "Si O2"
_cell_formula_units_Z 16
_cell_length_a 13.106333
_cell_length_b 11.225261
_cell_length_c 16.670000
_cell_angle_alpha 52.776528
_cell_angle_beta 160.188613
_cell_angle_gamma 125.292519
_cell_volume 661.548376
_symmetry_space_group_name_H-M "P -1"
_symmetry_group_IT_number 2
_symmetry_cell_setting 'triclinic'
loop_
_space_group_symop_operation_xyz
x,y,z
-x,-y,-z
loop_
_atom_site_type_symbol
_atom_site_label
_atom_site_fract_x
_atom_site_fract_y
_atom_site_fract_z
Si Si1 0.225210 0.074430 0.863935
Si Si2 0.890164 0.123705 0.988936
Si Si3 0.661754 0.627158 0.770526
Si Si4 0.066221 0.660519 0.522420
Si Si5 0.719049 0.635303 0.996738
Si Si6 0.097849 0.887281 0.687627
Si Si7 0.758015 0.130022 0.715549
Si Si8 0.201140 0.387092 0.491202
O O1 0.995914 0.210101 0.640752
O O2 0.114412 0.970051 0.750907
O O3 0.555382 0.146913 0.062062
O O4 0.236889 0.967697 0.992760
O O5 0.008295 0.292656 0.027141
O O6 0.180240 0.028332 0.213888
O O7 0.680820 0.119826 0.756941
O O8 0.627926 0.601620 0.851048
O O9 0.452471 0.755351 0.529567
O O10 0.521298 0.476141 0.688050
O O11 0.411920 0.659907 0.806112
O O12 0.000000 0.500000 0.500000
O O13 0.852892 0.683406 0.431859
O O14 0.913939 0.787664 0.078364
O O15 0.939485 0.508630 0.240877
O O16 0.877557 0.741677 0.578498
O O17 0.000000 0.000000 0.500000
#
# Coordination Sequence:
#
# PCOD9101467 Si02
#       8
#     2   2   2   2   2   2   2   2
#     4  11  26  42  66  94 127 165 217 261 313 368
#     4  10  21  37  59  91 128 163 207 259 309 380
#     4  10  20  38  59  87 128 165 201 254 311 372
#     4  12  22  37  62  99 132 164 201 262 324 379
#     4  10  21  35  59  96 133 163 202 253 319 379
#     4  11  25  47  64  89 122 174 217 265 306 362
#     4   9  20  35  58  91 128 172 201 247 316 385
#     4  11  23  39  64  91 128 172 211 253 311 379
#
# _framework density 24.185684999999999
#
# number of rings (size 3 to 8) (size 9 to 14) (size 15 to 20)
#    0.000    1.500    2.500    2.250    3.500    3.000 
#    0.000    0.625    0.000    7.500    0.000    0.000 
#    0.000    0.000    0.000    0.000    0.000    0.000 
#
# Total GULP energy -89490.810659 kJ/mol
# GULP energy per Si atom -5593.175666 kJ/mol
# Density = 2.413064 g / cm^3
# Si number density = 24.185685 Si / 1000 Ang^3
#
#
#
# Elastic Constant Matrix: (Units=GPa)
#
#
# Indices 1 2 3 4 5 6 
#
# 1 74.3981 32.8765 21.1627 3.3244 -16.4049 4.5884
# 2 32.8765 142.4479 16.9967 37.0312 -1.6582 -4.7790
# 3 21.1627 16.9967 59.6084 1.6615 -10.2170 -4.6992
# 4 3.3244 37.0312 1.6615 38.3124 -3.1409 -15.1759
# 5 -16.4049 -1.6582 -10.2170 -3.1409 27.6404 -7.5083
# 6 4.5884 -4.7790 -4.6992 -15.1759 -7.5083 28.8067
#
#
#
# Elastic Compliance Matrix: (Units=1/GPa)
#
#
# Indices 1 2 3 4 5 6 
#
# 1 0.018586 -0.004828 -0.003581 0.004229 0.010034 0.000498
# 2 -0.004828 0.011894 -0.003000 -0.014298 -0.006802 -0.007053
# 3 -0.003581 -0.003000 0.020944 0.006698 0.008721 0.009291
# 4 0.004229 -0.014298 0.006698 0.052972 0.018508 0.030778
# 5 0.010034 -0.006802 0.008721 0.018508 0.053107 0.022289
# 6 0.000498 -0.007053 0.009291 0.030778 0.022289 0.057004
#
#
# Mechanical properties :
#
#
# Convention : Reuss Voigt Hill
#
# Bulk Modulus (GPa) = 34.95972 46.50290 40.73131
# Shear Modulus (GPa) = 20.25430 32.64647 26.45038
#
# Velocity S-wave (km/s) = 2.89701 3.67798 3.31061
# Velocity P-wave (km/s) = 5.06718 6.10786 5.61170
#
# Compressibility (1/GPa) = 0.02860435
#
# Stress axis : x y z
#
# Youngs Moduli (GPa) = 53.80360 84.07862 47.74742
#
# Poissons Ratio (x) = 0.40595 0.17097
# Poissons Ratio (y) = 0.25978 0.14326
# Poissons Ratio (z) = 0.19266 0.25227
#
# Static dielectric constant tensor:
#      x y z
#    x 1.945920 -0.001650 0.002620 
#    y -0.001650 1.933680 0.035430 
#    z 0.002620 0.035430 1.930020 
# 
# From -- ./inp_files/564570.got.cif
#   From: 2010.05.17/outbox.cif.g08.bks.cpg/sg2_283_cif.got.tgz:564570.got - 2010.06.03 11:33:40.
