data_PCOD9101502
_publ_section_title
;
Structure prediction by ZEFSAII (Michael W. Deem and Ramdas Pophale) SiO2 
 PCOD9101502
Probable space group: P -1
;
_chemical_formula_sum "Si O2"
_cell_formula_units_Z 10
_cell_length_a 7.606484
_cell_length_b 16.033678
_cell_length_c 5.245553
_cell_angle_alpha 86.094484
_cell_angle_beta 60.413314
_cell_angle_gamma 114.881167
_cell_volume 472.834845
_symmetry_space_group_name_H-M "P -1"
_symmetry_group_IT_number 2
_symmetry_cell_setting 'triclinic'
loop_
_space_group_symop_operation_xyz
x,y,z
-x,-y,-z
loop_
_atom_site_type_symbol
_atom_site_label
_atom_site_fract_x
_atom_site_fract_y
_atom_site_fract_z
Si Si1 0.944047 0.800366 0.650332
Si Si2 0.219844 0.544005 0.637050
Si Si3 0.046372 0.648417 0.358841
Si Si4 0.934881 0.892537 0.142990
Si Si5 0.486808 0.725447 0.712571
O O1 0.038032 0.882559 0.341238
O O2 0.659437 0.745618 0.823660
O O3 0.010902 0.721446 0.540980
O O4 0.007730 0.846432 0.872573
O O5 0.165305 0.600100 0.447058
O O6 0.439549 0.628757 0.617011
O O7 0.194593 0.446221 0.557426
O O8 0.000000 0.500000 0.000000
O O9 0.236214 0.707119 0.986930
O O10 0.650452 0.820596 0.403367
O O11 0.000000 0.000000 0.000000
#
# Coordination Sequence:
#
# PCOD9101502 Si02
#       5
#     2   2   2   2   2
#     4  10  23  38  66  88 119 158 202 246 295 362
#     4   9  19  35  59  86 127 161 188 250 290 352
#     4  10  20  38  59  91 123 158 204 235 299 355
#     4  10  22  43  63  88 120 156 199 255 304 345
#     4   9  21  37  62  87 122 162 194 249 294 349
#
# _framework density 21.149035000000001
#
# number of rings (size 3 to 8) (size 9 to 14) (size 15 to 20)
#    1.200    1.200    0.000    1.800    5.600    0.800 
#    0.000   12.000    0.000    0.000    0.000    0.000 
#    0.000    0.000    0.000    0.000    0.000    0.000 
#
# Total GULP energy -55693.737558 kJ/mol
# GULP energy per Si atom -5569.373756 kJ/mol
# Density = 2.110090 g / cm^3
# Si number density = 21.149035 Si / 1000 Ang^3
#
#
#
# Elastic Constant Matrix: (Units=GPa)
#
#
# Indices 1 2 3 4 5 6 
#
# 1 13.7443 4.8278 -2.7585 -10.0046 7.3941 2.8585
# 2 4.8278 111.3580 70.5705 -5.4459 -19.9549 -19.2802
# 3 -2.7585 70.5705 66.3542 -23.2122 24.0855 9.2146
# 4 -10.0046 -5.4459 -23.2122 31.5582 3.4843 10.4342
# 5 7.3941 -19.9549 24.0855 3.4843 17.6189 1.2068
# 6 2.8585 -19.2802 9.2146 10.4342 1.2068 17.0363
#
#
#
# Elastic Compliance Matrix: (Units=1/GPa)
#
#
# Indices 1 2 3 4 5 6 
#
# 1 0.056712 0.012977 -0.017152 0.002115 0.013089 0.012225
# 2 0.012977 0.003829 0.004064 0.010665 -0.008364 -0.005981
# 3 -0.017152 0.004064 0.000697 -0.009539 0.011906 0.012099
# 4 0.002115 0.010665 -0.009539 0.024986 0.019275 0.000205
# 5 0.013089 -0.008364 0.011906 0.019275 0.023868 -0.031597
# 6 0.012225 -0.005981 0.012099 0.000205 -0.031597 0.045447
#
#
# Mechanical properties :
#
#
# Convention : Reuss Voigt Hill
#
# Bulk Modulus (GPa) = 16.38940 37.41513 26.90227
# Shear Modulus (GPa) = 28.39261 21.16379 24.77820
#
# Velocity S-wave (km/s) = 3.66799 3.16681 3.42658
# Velocity P-wave (km/s) = 5.07003 5.57684 5.32946
#
# Compressibility (1/GPa) = 0.06101504
#
# Stress axis : x y z
#
# Youngs Moduli (GPa) = 17.63282 261.13739 1435.20932
#
# Poissons Ratio (x) = -3.38867 24.61707
# Poissons Ratio (y) = -0.22881 -5.83251
# Poissons Ratio (z) = 0.30244 -1.06123
#
# Static dielectric constant tensor:
#      x y z
#    x 1.797460 0.033330 0.026750 
#    y 0.033330 1.764680 -0.000100 
#    z 0.026750 -0.000100 1.822580 
# 
# From -- ./inp_files/2301.got.cif
#   From: 2010.05.17/outbox.cif.g08.bks.cpg/sg2_2_cif.got.tgz:2301.got - 2010.06.03 11:33:40.
