data_PCOD9101512
_publ_section_title
;
Structure prediction by ZEFSAII (Michael W. Deem and Ramdas Pophale) SiO2 
 PCOD9101512
Probable space group: P -1
;
_chemical_formula_sum "Si O2"
_cell_formula_units_Z 14
_cell_length_a 9.557991
_cell_length_b 5.382950
_cell_length_c 20.154239
_cell_angle_alpha 110.602918
_cell_angle_beta 37.936037
_cell_angle_gamma 100.321468
_cell_volume 587.936360
_symmetry_space_group_name_H-M "P -1"
_symmetry_group_IT_number 2
_symmetry_cell_setting 'triclinic'
loop_
_space_group_symop_operation_xyz
x,y,z
-x,-y,-z
loop_
_atom_site_type_symbol
_atom_site_label
_atom_site_fract_x
_atom_site_fract_y
_atom_site_fract_z
Si Si1 0.325339 0.305461 0.907740
Si Si2 0.013576 0.748178 0.658477
Si Si3 0.389364 0.976477 0.610954
Si Si4 0.381835 0.330915 0.109868
Si Si5 0.195476 0.072641 0.048601
Si Si6 0.141703 0.283620 0.838808
Si Si7 0.889260 0.878777 0.466257
O O1 0.552179 0.397287 0.860619
O O2 0.325886 0.309957 0.829342
O O3 0.288386 0.039587 0.935773
O O4 0.080334 0.490856 0.040077
O O5 0.213023 0.773219 0.640857
O O6 0.033446 0.442484 0.597328
O O7 0.774603 0.798792 0.792305
O O8 0.039192 0.956482 0.609314
O O9 0.608818 0.908845 0.571236
O O10 0.500000 0.000000 0.500000
O O11 0.240843 0.245647 0.724409
O O12 0.249600 0.338246 0.090266
O O13 0.634220 0.150068 0.994404
O O14 0.945256 0.999982 0.140411
O O15 0.000000 0.000000 0.500000
#
# Coordination Sequence:
#
# PCOD9101512 Si02
#       7
#     2   2   2   2   2   2   2
#     4  10  22  37  63  94 132 173 210 278 335 405
#     4  11  24  45  70  98 136 181 226 281 344 410
#     4  10  23  45  68  93 135 182 232 282 341 408
#     4  10  22  36  61  93 128 167 222 264 333 407
#     4  10  20  38  59  92 131 167 215 268 335 401
#     4  10  21  41  60  94 129 166 227 265 340 399
#     4  11  26  46  70 101 133 173 235 291 342 399
#
# _framework density 23.812099
#
# number of rings (size 3 to 8) (size 9 to 14) (size 15 to 20)
#    0.000    1.714    1.429    1.714    4.000    2.286 
#    5.143    0.000    0.000    0.000    0.000    0.000 
#    0.000    0.000    0.000    0.000    0.000    0.000 
#
# Total GULP energy -78045.273107 kJ/mol
# GULP energy per Si atom -5574.662365 kJ/mol
# Density = 2.375790 g / cm^3
# Si number density = 23.812099 Si / 1000 Ang^3
#
#
#
# Elastic Constant Matrix: (Units=GPa)
#
#
# Indices 1 2 3 4 5 6 
#
# 1 125.5901 31.1772 24.1170 6.0247 9.1880 23.0489
# 2 31.1772 77.6573 19.3693 -4.2282 4.9071 8.4970
# 3 24.1170 19.3693 98.1188 2.9085 13.2177 5.8181
# 4 6.0247 -4.2282 2.9085 36.1951 4.1743 5.2914
# 5 9.1880 4.9071 13.2177 4.1743 30.1642 -6.7892
# 6 23.0489 8.4970 5.8181 5.2914 -6.7892 32.2587
#
#
#
# Elastic Compliance Matrix: (Units=1/GPa)
#
#
# Indices 1 2 3 4 5 6 
#
# 1 0.010540 -0.002959 -0.001042 -0.000508 -0.003843 -0.007289
# 2 -0.002959 0.015075 -0.001981 0.002938 -0.001612 -0.002320
# 3 -0.001042 -0.001981 0.011602 -0.000168 -0.004830 -0.001815
# 4 -0.000508 0.002938 -0.000168 0.029686 -0.005815 -0.006474
# 5 -0.003843 -0.001612 -0.004830 -0.005815 0.040551 0.013530
# 6 -0.007289 -0.002320 -0.001815 -0.006474 0.013530 0.041056
#
#
# Mechanical properties :
#
#
# Convention : Reuss Voigt Hill
#
# Bulk Modulus (GPa) = 39.59765 50.07701 44.83733
# Shear Modulus (GPa) = 29.60486 34.83713 32.22100
#
# Velocity S-wave (km/s) = 3.52983 3.82907 3.68249
# Velocity P-wave (km/s) = 5.76873 6.37376 6.07877
#
# Compressibility (1/GPa) = 0.02525402
#
# Stress axis : x y z
#
# Youngs Moduli (GPa) = 94.87411 66.33580 86.19162
#
# Poissons Ratio (x) = 0.19629 0.08978
# Poissons Ratio (y) = 0.28074 0.17074
# Poissons Ratio (z) = 0.09882 0.13141
#
# Static dielectric constant tensor:
#      x y z
#    x 1.959110 -0.016650 0.036410 
#    y -0.016650 2.054890 0.063380 
#    z 0.036410 0.063380 1.981960 
# 
# From -- ./inp_files/39277.got.cif
#   From: 2010.05.17/outbox.cif.g08.bks.cpg/sg2_20_cif.got.tgz:39277.got - 2010.06.03 11:33:40.
