data_PCOD9101742
_publ_section_title
;
Structure prediction by ZEFSAII (Michael W. Deem and Ramdas Pophale) SiO2 
 PCOD9101742
Probable space group: P -1
;
_chemical_formula_sum "Si O2"
_cell_formula_units_Z 14
_cell_length_a 5.370934
_cell_length_b 5.284103
_cell_length_c 24.021644
_cell_angle_alpha 128.484886
_cell_angle_beta 92.653469
_cell_angle_gamma 78.557320
_cell_volume 520.394190
_symmetry_space_group_name_H-M "P -1"
_symmetry_group_IT_number 2
_symmetry_cell_setting 'triclinic'
loop_
_space_group_symop_operation_xyz
x,y,z
-x,-y,-z
loop_
_atom_site_type_symbol
_atom_site_label
_atom_site_fract_x
_atom_site_fract_y
_atom_site_fract_z
Si Si1 0.934428 0.714531 0.295553
Si Si2 0.535028 0.600495 0.450582
Si Si3 0.563922 0.371090 0.771247
Si Si4 0.986680 0.317835 0.582955
Si Si5 0.154452 0.930230 0.822844
Si Si6 0.851506 0.198439 0.955085
Si Si7 0.602338 0.499008 0.091843
O O1 0.665537 0.807676 0.273033
O O2 0.990833 0.306872 0.243923
O O3 0.166539 0.789878 0.273300
O O4 0.928044 0.809562 0.372542
O O5 0.500000 0.500000 0.500000
O O6 0.309490 0.506156 0.399476
O O7 0.816973 0.476971 0.411656
O O8 0.500000 0.000000 0.500000
O O9 0.444860 0.726686 0.790522
O O10 0.557725 0.475787 0.849874
O O11 0.000000 0.000000 0.500000
O O12 0.176136 0.301332 0.864574
O O13 0.046775 0.923506 0.884143
O O14 0.602274 0.301544 0.927307
O O15 0.738066 0.175832 0.012994
O O16 0.000000 0.500000 0.000000
#
# Coordination Sequence:
#
# PCOD9101742 Si02
#       7
#     2   2   2   2   2   2   2
#     4  10  22  42  61  93 125 167 209 266 317 394
#     4  10  21  40  69 101 137 176 219 281 343 405
#     4  10  23  38  64  85 129 159 216 254 318 389
#     4  10  21  41  70  91 135 168 218 282 336 404
#     4   9  21  38  59  84 125 158 206 261 313 383
#     4   9  19  35  60  86 125 157 215 262 320 380
#     4  10  20  38  60  90 118 169 208 266 319 378
#
# _framework density 26.902683
#
# number of rings (size 3 to 8) (size 9 to 14) (size 15 to 20)
#    0.857    1.429    0.000    2.143    4.000    0.571 
#    0.000   15.714    0.000    0.000    0.000    0.000 
#    0.000    0.000    0.000    0.000    0.000    0.000 
#
# Total GULP energy -78177.398315 kJ/mol
# GULP energy per Si atom -5584.099880 kJ/mol
# Density = 2.684145 g / cm^3
# Si number density = 26.902683 Si / 1000 Ang^3
#
#
#
# Elastic Constant Matrix: (Units=GPa)
#
#
# Indices 1 2 3 4 5 6 
#
# 1 211.5260 28.0231 49.1015 -13.3549 -12.6772 20.8382
# 2 28.0231 89.3882 30.1281 -15.6637 -4.3429 7.5625
# 3 49.1015 30.1281 162.7471 -24.8704 -4.9842 0.6673
# 4 -13.3549 -15.6637 -24.8704 49.0364 1.7875 -4.2252
# 5 -12.6772 -4.3429 -4.9842 1.7875 47.6310 -6.3131
# 6 20.8382 7.5625 0.6673 -4.2252 -6.3131 23.2163
#
#
#
# Elastic Compliance Matrix: (Units=1/GPa)
#
#
# Indices 1 2 3 4 5 6 
#
# 1 0.005686 -0.000837 -0.001506 0.000097 0.000668 -0.004589
# 2 -0.000837 0.012741 -0.001666 0.002748 0.000294 -0.002771
# 3 -0.001506 -0.001666 0.007366 0.002980 0.000416 0.002339
# 4 0.000097 0.002748 0.002980 0.023076 0.000142 0.003170
# 5 0.000668 0.000294 0.000416 0.000142 0.021938 0.005284
# 6 -0.004589 -0.002771 0.002339 0.003170 0.005284 0.050041
#
#
# Mechanical properties :
#
#
# Convention : Reuss Voigt Hill
#
# Bulk Modulus (GPa) = 56.26030 75.35185 65.80607
# Shear Modulus (GPa) = 37.09399 47.73732 42.41565
#
# Velocity S-wave (km/s) = 3.71728 4.21699 3.97499
# Velocity P-wave (km/s) = 6.27552 7.19587 6.75139
#
# Compressibility (1/GPa) = 0.01777452
#
# Stress axis : x y z
#
# Youngs Moduli (GPa) = 175.85927 78.48503 135.76056
#
# Poissons Ratio (x) = 0.06571 0.20452
# Poissons Ratio (y) = 0.14723 0.22616
# Poissons Ratio (z) = 0.26493 0.13075
#
# Static dielectric constant tensor:
#      x y z
#    x 2.099380 0.124200 0.086200 
#    y 0.124200 1.760310 -0.295180 
#    z 0.086200 -0.295180 1.861340 
# 
# From -- ./inp_files/603418.got.cif
#   From: 2010.05.17/outbox.cif.g08.bks.cpg/sg2_302_cif.got.tgz:603418.got - 2010.06.03 11:33:40.
