data_PCOD9101894
_publ_section_title
;
Structure prediction by ZEFSAII (Michael W. Deem and Ramdas Pophale) SiO2 
 PCOD9101894
Probable space group: P -1
;
_chemical_formula_sum "Si O2"
_cell_formula_units_Z 16
_cell_length_a 15.725022
_cell_length_b 11.956128
_cell_length_c 10.407958
_cell_angle_alpha 52.400984
_cell_angle_beta 123.004550
_cell_angle_gamma 79.347624
_cell_volume 816.245495
_symmetry_space_group_name_H-M "P -1"
_symmetry_group_IT_number 2
_symmetry_cell_setting 'triclinic'
loop_
_space_group_symop_operation_xyz
x,y,z
-x,-y,-z
loop_
_atom_site_type_symbol
_atom_site_label
_atom_site_fract_x
_atom_site_fract_y
_atom_site_fract_z
Si Si1 0.373319 0.795109 0.319647
Si Si2 0.733486 0.794331 0.453668
Si Si3 0.371840 0.099057 0.003301
Si Si4 0.908280 0.329828 0.906334
Si Si5 0.299647 0.485064 0.647967
Si Si6 0.757895 0.161857 0.547722
Si Si7 0.732836 0.293881 0.927856
Si Si8 0.669964 0.166488 0.198567
O O1 0.334480 0.789229 0.435708
O O2 0.560605 0.560925 0.606459
O O3 0.275907 0.805595 0.129276
O O4 0.336034 0.000289 0.125789
O O5 0.693986 0.857820 0.225158
O O6 0.874023 0.528513 0.774325
O O7 0.761696 0.917470 0.449384
O O8 0.565445 0.912222 0.287345
O O9 0.298784 0.330628 0.818482
O O10 0.778104 0.441827 0.607452
O O11 0.867676 0.264554 0.032028
O O12 0.079070 0.103796 0.146543
O O13 0.213575 0.702328 0.503140
O O14 0.486718 0.326500 0.895505
O O15 0.665264 0.236601 0.286632
O O16 0.745164 0.190574 0.140194
#
# Coordination Sequence:
#
# PCOD9101894 Si02
#       8
#     2   2   2   2   2   2   2   2
#     4  11  20  36  60  96 112 152 209 246 277 354
#     4   9  18  35  60  88 118 152 200 242 294 344
#     4   9  17  33  62  89 111 148 207 251 268 338
#     4  11  22  39  62  90 118 161 194 250 291 352
#     4  10  20  38  61  86 118 158 195 236 299 348
#     4  12  25  38  59  90 133 150 187 248 319 342
#     4  11  20  35  64  86 116 154 212 240 274 358
#     4  11  22  39  62  90 118 161 194 250 291 352
#
# _framework density 19.601945000000001
#
# number of rings (size 3 to 8) (size 9 to 14) (size 15 to 20)
#    0.000    1.500    5.000    2.250    0.000    1.000 
#    0.000    7.500    0.000    0.000    0.000    0.000 
#    0.000    0.000    0.000    0.000    0.000    0.000 
#
# Total GULP energy -89359.609488 kJ/mol
# GULP energy per Si atom -5584.975593 kJ/mol
# Density = 1.955733 g / cm^3
# Si number density = 19.601945 Si / 1000 Ang^3
#
#
#
# Elastic Constant Matrix: (Units=GPa)
#
#
# Indices 1 2 3 4 5 6 
#
# 1 97.2747 42.1790 21.7890 1.1566 -46.5885 -3.9182
# 2 42.1790 93.7960 24.3568 -2.0191 -29.6582 1.4394
# 3 21.7890 24.3568 55.2168 -9.5053 -20.7019 -1.2183
# 4 1.1566 -2.0191 -9.5053 36.4110 4.2180 -17.1173
# 5 -46.5885 -29.6582 -20.7019 4.2180 31.0682 -6.7002
# 6 -3.9182 1.4394 -1.2183 -17.1173 -6.7002 37.9400
#
#
#
# Elastic Compliance Matrix: (Units=1/GPa)
#
#
# Indices 1 2 3 4 5 6 
#
# 1 0.053668 0.002566 0.015481 0.002602 0.098163 0.024452
# 2 0.002566 0.015643 -0.000813 -0.000271 0.018892 0.002860
# 3 0.015481 -0.000813 0.031238 0.009357 0.045182 0.014834
# 4 0.002602 -0.000271 0.009357 0.037809 0.008889 0.019208
# 5 0.098163 0.018892 0.045182 0.008889 0.238621 0.057023
# 6 0.024452 0.002860 0.014834 0.019208 0.057023 0.047987
#
#
# Mechanical properties :
#
#
# Convention : Reuss Voigt Hill
#
# Bulk Modulus (GPa) = 7.40651 46.99302 27.19976
# Shear Modulus (GPa) = 11.48098 31.61468 21.54783
#
# Velocity S-wave (km/s) = 2.42276 4.02037 3.31912
# Velocity P-wave (km/s) = 3.40779 6.75106 5.34742
#
# Compressibility (1/GPa) = 0.13501641
#
# Stress axis : x y z
#
# Youngs Moduli (GPa) = 18.63315 63.92762 32.01224
#
# Poissons Ratio (x) = -0.16403 -0.49559
# Poissons Ratio (y) = -0.04781 0.02603
# Poissons Ratio (z) = -0.28846 0.05198
#
# Static dielectric constant tensor:
#      x y z
#    x 1.676160 0.029290 -0.012830 
#    y 0.029290 1.689850 -0.006740 
#    z -0.012830 -0.006740 1.718900 
# 
# From -- ./inp_files/271232.got.cif
#   From: 2010.05.17/outbox.cif.g08.bks.cpg/sg2_136_cif.got.tgz:271232.got - 2010.06.03 11:33:40.
