data_PCOD9101602
_publ_section_title
;
Structure prediction by ZEFSAII (Michael W. Deem and Ramdas Pophale) SiO2 
 PCOD9101602
Probable space group: P -1
;
_chemical_formula_sum "Si O2"
_cell_formula_units_Z 15
_cell_length_a 13.713123
_cell_length_b 12.357275
_cell_length_c 9.407474
_cell_angle_alpha 106.925494
_cell_angle_beta 55.928943
_cell_angle_gamma 150.781250
_cell_volume 562.201253
_symmetry_space_group_name_H-M "P -1"
_symmetry_group_IT_number 2
_symmetry_cell_setting 'triclinic'
loop_
_space_group_symop_operation_xyz
x,y,z
-x,-y,-z
loop_
_atom_site_type_symbol
_atom_site_label
_atom_site_fract_x
_atom_site_fract_y
_atom_site_fract_z
Si Si1 0.500000 0.000000 0.000000
Si Si2 0.965177 0.973658 0.269525
Si Si3 0.904697 0.195063 0.028591
Si Si4 0.610989 0.244907 0.223271
Si Si5 0.767472 0.925447 0.688050
Si Si6 0.801270 0.199881 0.408978
Si Si7 0.319748 0.696536 0.268650
Si Si8 0.710408 0.658298 0.107077
O O1 0.292267 0.754914 0.177464
O O2 0.678318 0.183984 0.071655
O O3 0.027178 0.913032 0.288737
O O4 0.208385 0.217321 0.061256
O O5 0.899190 0.004527 0.460941
O O6 0.723313 0.751273 0.270409
O O7 0.835176 0.220171 0.223391
O O8 0.616137 0.905509 0.101322
O O9 0.150880 0.463883 0.847290
O O10 0.044961 0.212832 0.004020
O O11 0.396954 0.100580 0.216237
O O12 0.433318 0.077691 0.442090
O O13 0.549058 0.641184 0.791261
O O14 0.737501 0.271553 0.540452
O O15 0.079318 0.403761 0.333766
#
# Coordination Sequence:
#
# PCOD9101602 Si02
#       8
#     1   2   2   2   2   2   2   2
#     4  10  20  38  60  84 120 156 194 246 290 352
#     4  10  21  39  61  88 120 157 196 251 306 365
#     4  11  22  39  62  89 119 161 202 247 300 366
#     4  10  22  39  61  89 123 159 202 249 297 353
#     4  10  21  39  62  87 120 161 200 247 303 366
#     4  10  21  41  56  87 122 157 202 254 289 356
#     4  10  22  39  61  84 120 161 202 248 300 347
#     4  10  22  37  61  90 122 151 201 252 304 359
#
# _framework density 26.680838000000001
#
# number of rings (size 3 to 8) (size 9 to 14) (size 15 to 20)
#    0.000    1.867    1.333    2.000    1.867    2.133 
#    7.200    6.667    0.000    0.000    0.000    0.000 
#    0.000    0.000    0.000    0.000    0.000    0.000 
#
# Total GULP energy -83640.754121 kJ/mol
# GULP energy per Si atom -5576.050275 kJ/mol
# Density = 2.662011 g / cm^3
# Si number density = 26.680838 Si / 1000 Ang^3
#
#
#
# Elastic Constant Matrix: (Units=GPa)
#
#
# Indices 1 2 3 4 5 6 
#
# 1 61.3528 27.0887 32.6673 -16.8814 8.8314 29.6301
# 2 27.0887 102.5910 50.6245 -25.5998 17.5449 15.2259
# 3 32.6673 50.6245 148.5682 -9.6709 28.8967 7.9741
# 4 -16.8814 -25.5998 -9.6709 54.1868 6.7364 6.2649
# 5 8.8314 17.5449 28.8967 6.7364 43.6740 -5.4381
# 6 29.6301 15.2259 7.9741 6.2649 -5.4381 31.4772
#
#
#
# Elastic Compliance Matrix: (Units=1/GPa)
#
#
# Indices 1 2 3 4 5 6 
#
# 1 0.071105 0.012753 -0.006510 0.040847 -0.032094 -0.085126
# 2 0.012753 0.018574 -0.004154 0.016572 -0.013021 -0.025484
# 3 -0.006510 -0.004154 0.009503 -0.002709 -0.002150 0.005897
# 4 0.040847 0.016572 -0.002709 0.049017 -0.028207 -0.060408
# 5 -0.032094 -0.013021 -0.002150 -0.028207 0.046709 0.050737
# 6 -0.085126 -0.025484 0.005897 -0.060408 0.050737 0.143521
#
#
# Mechanical properties :
#
#
# Convention : Reuss Voigt Hill
#
# Bulk Modulus (GPa) = 9.67494 59.25255 34.46374
# Shear Modulus (GPa) = 13.56096 39.34305 26.45200
#
# Velocity S-wave (km/s) = 2.25692 3.84419 3.15210
# Velocity P-wave (km/s) = 3.22888 6.47764 5.11789
#
# Compressibility (1/GPa) = 0.10335984
#
# Stress axis : x y z
#
# Youngs Moduli (GPa) = 14.06368 53.83769 105.22796
#
# Poissons Ratio (x) = -0.68657 0.68502
# Poissons Ratio (y) = -0.17935 0.43712
# Poissons Ratio (z) = 0.09155 0.22364
#
# Static dielectric constant tensor:
#      x y z
#    x 1.248410 0.340290 0.527020 
#    y 0.340290 2.112940 -0.145390 
#    z 0.527020 -0.145390 1.740170 
# 
# From -- ./inp_files/315246.got.cif
#   From: 2010.05.17/outbox.cif.g08.bks.cpg/sg2_158_cif.got.tgz:315246.got - 2010.06.03 11:33:40.
