data_PCOD9101249
_publ_section_title
;
Structure prediction by ZEFSAII (Michael W. Deem and Ramdas Pophale) SiO2 
 PCOD9101249
Probable space group: P -1
;
_chemical_formula_sum "Si O2"
_cell_formula_units_Z 13
_cell_length_a 14.836631
_cell_length_b 7.307198
_cell_length_c 15.310186
_cell_angle_alpha 81.611858
_cell_angle_beta 18.403654
_cell_angle_gamma 80.023838
_cell_volume 515.190178
_symmetry_space_group_name_H-M "P -1"
_symmetry_group_IT_number 2
_symmetry_cell_setting 'triclinic'
loop_
_space_group_symop_operation_xyz
x,y,z
-x,-y,-z
loop_
_atom_site_type_symbol
_atom_site_label
_atom_site_fract_x
_atom_site_fract_y
_atom_site_fract_z
Si Si1 0.507416 0.430770 0.604036
Si Si2 0.169095 0.807946 0.534038
Si Si3 0.346402 0.940006 0.919843
Si Si4 0.138106 0.189774 0.354219
Si Si5 0.000000 0.500000 0.000000
Si Si6 0.291091 0.051933 0.767702
Si Si7 0.679502 0.322039 0.890522
O O1 0.639594 0.349861 0.577281
O O2 0.295207 0.275720 0.770044
O O3 0.240393 0.586894 0.840978
O O4 0.771591 0.455804 0.296771
O O5 0.996176 0.728670 0.619109
O O6 0.387085 0.956657 0.297043
O O7 0.937231 0.924398 0.801448
O O8 0.374017 0.951417 0.789629
O O9 0.321239 0.741794 0.003478
O O10 0.994289 0.302505 0.561500
O O11 0.477396 0.176474 0.046267
O O12 0.000000 0.000000 0.500000
O O13 0.500000 0.000000 0.500000
O O14 0.000000 0.000000 0.000000
O O15 0.500000 0.500000 0.000000
#
# Coordination Sequence:
#
# PCOD9101249 Si02
#       7
#     2   2   2   2   1   2   2
#     4  10  21  38  60  89 121 158 205 263 317 368
#     4  11  21  37  67  94 115 154 226 274 301 360
#     4  11  21  39  63  89 123 165 211 273 320 370
#     4  12  22  41  68  95 124 169 226 263 300 393
#     4  10  20  38  58  80 118 160 192 248 330 364
#     4  11  22  38  61  90 119 160 217 260 305 381
#     4  12  25  42  62  96 141 173 202 269 348 382
#
# _framework density 25.233398000000001
#
# number of rings (size 3 to 8) (size 9 to 14) (size 15 to 20)
#    0.000    0.923    3.077    6.462    0.000    0.000 
#    0.000    9.231    0.000    0.000    0.000    0.000 
#    0.000    0.000    0.000    0.000    0.000    0.000 
#
# Total GULP energy -72436.839191 kJ/mol
# GULP energy per Si atom -5572.064553 kJ/mol
# Density = 2.517597 g / cm^3
# Si number density = 25.233398 Si / 1000 Ang^3
#
#
#
# Elastic Constant Matrix: (Units=GPa)
#
#
# Indices 1 2 3 4 5 6 
#
# 1 147.1705 12.8609 24.3025 -10.8461 12.2617 -35.0791
# 2 12.8609 61.1577 -1.6871 -6.9906 28.6334 -15.7841
# 3 24.3025 -1.6871 177.8810 0.2322 -0.1327 -6.3717
# 4 -10.8461 -6.9906 0.2322 30.7383 -8.3259 -1.5338
# 5 12.2617 28.6334 -0.1327 -8.3259 43.9551 -10.3716
# 6 -35.0791 -15.7841 -6.3717 -1.5338 -10.3716 46.8782
#
#
#
# Elastic Compliance Matrix: (Units=1/GPa)
#
#
# Indices 1 2 3 4 5 6 
#
# 1 0.008779 0.000481 -0.000964 0.003389 -0.000569 0.006585
# 2 0.000481 0.024752 0.000356 0.002139 -0.014531 0.005597
# 3 -0.000964 0.000356 0.005764 -0.000282 0.000044 0.000183
# 4 0.003389 0.002139 -0.000282 0.036082 0.005837 0.005690
# 5 -0.000569 -0.014531 0.000044 0.005837 0.034050 0.002412
# 6 0.006585 0.005597 0.000183 0.005690 0.002412 0.028889
#
#
# Mechanical properties :
#
#
# Convention : Reuss Voigt Hill
#
# Bulk Modulus (GPa) = 25.61430 50.79575 38.20502
# Shear Modulus (GPa) = 32.98509 47.69652 40.34080
#
# Velocity S-wave (km/s) = 3.61944 4.35238 4.00272
# Velocity P-wave (km/s) = 5.25739 6.74030 6.04449
#
# Compressibility (1/GPa) = 0.03904070
#
# Stress axis : x y z
#
# Youngs Moduli (GPa) = 113.91205 40.39996 173.49881
#
# Poissons Ratio (x) = -0.01942 0.16722
# Poissons Ratio (y) = -0.05476 -0.06176
# Poissons Ratio (z) = 0.10979 -0.01438
#
# Static dielectric constant tensor:
#      x y z
#    x 2.036450 0.193810 0.159700 
#    y 0.193810 1.577120 -0.490250 
#    z 0.159700 -0.490250 1.635650 
# 
# From -- ./inp_files/527461.got.cif
#   From: 2010.05.17/outbox.cif.g08.bks.cpg/sg2_264_cif.got.tgz:527461.got - 2010.06.03 11:33:40.
