data_PCOD9101423
_publ_section_title
;
Structure prediction by ZEFSAII (Michael W. Deem and Ramdas Pophale) SiO2 
 PCOD9101423
Probable space group: P -1
;
_chemical_formula_sum "Si O2"
_cell_formula_units_Z 16
_cell_length_a 17.341036
_cell_length_b 24.518284
_cell_length_c 9.700037
_cell_angle_alpha 35.265777
_cell_angle_beta 32.520593
_cell_angle_gamma 20.591496
_cell_volume 771.702505
_symmetry_space_group_name_H-M "P -1"
_symmetry_group_IT_number 2
_symmetry_cell_setting 'triclinic'
loop_
_space_group_symop_operation_xyz
x,y,z
-x,-y,-z
loop_
_atom_site_type_symbol
_atom_site_label
_atom_site_fract_x
_atom_site_fract_y
_atom_site_fract_z
Si Si1 0.466496 0.424547 0.796019
Si Si2 0.263261 0.100602 0.559896
Si Si3 0.563864 0.433668 0.198135
Si Si4 0.965520 0.583267 0.251588
Si Si5 0.890042 0.919137 0.911185
Si Si6 0.090197 0.396299 0.207297
Si Si7 0.570047 0.252719 0.751131
Si Si8 0.572246 0.940476 0.169424
O O1 0.500000 0.500000 0.500000
O O2 0.507242 0.440068 0.857588
O O3 0.621579 0.270998 0.786507
O O4 0.198020 0.524395 0.990380
O O5 0.095464 0.281028 0.435662
O O6 0.500000 0.000000 0.500000
O O7 0.353420 0.031755 0.412680
O O8 0.142877 0.085464 0.866528
O O9 0.473482 0.384075 0.516933
O O10 0.845576 0.259767 0.145937
O O11 0.500000 0.500000 0.000000
O O12 0.938271 0.522745 0.295801
O O13 0.000000 0.500000 0.500000
O O14 0.747874 0.761859 0.252332
O O15 0.790331 0.078010 0.719754
O O16 0.717056 0.947654 0.014199
O O17 0.365942 0.283437 0.029781
O O18 0.000000 0.500000 0.000000
O O19 0.500000 0.000000 0.000000
#
# Coordination Sequence:
#
# PCOD9101423 Si02
#       8
#     2   2   2   2   2   2   2   2
#     4   9  21  42  61  86 125 165 203 248 310 366
#     4  10  20  38  59  84 126 158 196 244 312 360
#     4  11  24  43  65  91 117 160 210 258 304 363
#     4  11  22  35  63  91 121 159 203 256 306 356
#     4  11  22  42  63  88 125 165 200 250 307 369
#     4  11  22  35  58  94 123 156 201 252 305 362
#     4  10  22  41  64  85 122 166 206 246 307 372
#     4  11  22  39  59  93 127 159 198 249 312 365
#
# _framework density 20.733377000000001
#
# number of rings (size 3 to 8) (size 9 to 14) (size 15 to 20)
#    0.000    1.500    3.750    2.625    3.500    0.000 
#    2.250    0.625    0.000    0.000    0.000    0.000 
#    0.000    0.000    0.000    0.000    0.000    0.000 
#
# Total GULP energy -89082.121842 kJ/mol
# GULP energy per Si atom -5567.632615 kJ/mol
# Density = 2.068619 g / cm^3
# Si number density = 20.733377 Si / 1000 Ang^3
#
#
#
# Elastic Constant Matrix: (Units=GPa)
#
#
# Indices 1 2 3 4 5 6 
#
# 1 -64.2050 221.2432 98.5273 43.8018 130.0416 -100.0651
# 2 221.2432 -75.4100 -48.0669 -87.3766 -95.4207 186.8458
# 3 98.5273 -48.0669 41.1058 -40.3987 -17.9964 72.0615
# 4 43.8018 -87.3766 -40.3987 24.2772 -33.6642 50.3754
# 5 130.0416 -95.4207 -17.9964 -33.6642 -12.4683 85.6072
# 6 -100.0651 186.8458 72.0615 50.3754 85.6072 -78.2743
#
#
#
# Elastic Compliance Matrix: (Units=1/GPa)
#
#
# Indices 1 2 3 4 5 6 
#
# 1 0.027611 0.004716 0.003140 0.014326 -0.019474 -0.033228
# 2 0.004716 0.005987 -0.003196 0.001293 -0.007179 -0.001699
# 3 0.003140 -0.003196 0.019744 0.005759 -0.012823 -0.003784
# 4 0.014326 0.001293 0.005759 0.027935 -0.017063 -0.010611
# 5 -0.019474 -0.007179 -0.012823 -0.017063 0.041015 0.029829
# 6 -0.033228 -0.001699 -0.003784 -0.010611 0.029829 0.047957
#
#
# Mechanical properties :
#
#
# Convention : Reuss Voigt Hill
#
# Bulk Modulus (GPa) = 15.95917 49.43312 32.69614
# Shear Modulus (GPa) = 27.50024 -37.97395 -5.23685
#
# Velocity S-wave (km/s) = 3.64589 -4.28429 -1.59100
# Velocity P-wave (km/s) = 5.04355 0.76122 3.52548
#
# Compressibility (1/GPa) = 0.06265991
#
# Stress axis : x y z
#
# Youngs Moduli (GPa) = 36.21808 167.03618 50.64818
#
# Poissons Ratio (x) = -0.78768 -0.15901
# Poissons Ratio (y) = -0.17079 0.16187
# Poissons Ratio (z) = -0.11371 0.53383
#
# Static dielectric constant tensor:
#      x y z
#    x 1.829030 -0.063900 -0.082220 
#    y -0.063900 1.807450 0.082570 
#    z -0.082220 0.082570 1.786940 
# 
# From -- ./inp_files/226105.got.cif
#   From: 2010.05.17/outbox.cif.g08.bks.cpg/sg2_114_cif.got.tgz:226105.got - 2010.06.03 11:33:40.
