data_PCOD9101379
_publ_section_title
;
Structure prediction by ZEFSAII (Michael W. Deem and Ramdas Pophale) SiO2 
 PCOD9101379
Probable space group: P -1
;
_chemical_formula_sum "Si O2"
_cell_formula_units_Z 14
_cell_length_a 18.995285
_cell_length_b 7.289214
_cell_length_c 4.880311
_cell_angle_alpha 104.414898
_cell_angle_beta 96.376145
_cell_angle_gamma 104.919126
_cell_volume 621.223144
_symmetry_space_group_name_H-M "P -1"
_symmetry_group_IT_number 2
_symmetry_cell_setting 'triclinic'
loop_
_space_group_symop_operation_xyz
x,y,z
-x,-y,-z
loop_
_atom_site_type_symbol
_atom_site_label
_atom_site_fract_x
_atom_site_fract_y
_atom_site_fract_z
Si Si1 0.048291 0.693686 0.250781
Si Si2 0.805071 0.694301 0.877317
Si Si3 0.443775 0.974154 0.716343
Si Si4 0.876108 0.096007 0.189274
Si Si5 0.900767 0.742879 0.406139
Si Si6 0.648102 0.479074 0.489130
Si Si7 0.584594 0.626610 0.020585
O O1 0.113743 0.724509 0.521155
O O2 0.980009 0.712652 0.416056
O O3 0.085067 0.829402 0.054808
O O4 0.000000 0.500000 0.000000
O O5 0.868951 0.731698 0.689611
O O6 0.730699 0.557000 0.667622
O O7 0.836838 0.611130 0.126528
O O8 0.800129 0.918411 0.026178
O O9 0.386350 0.756577 0.594979
O O10 0.500000 0.000000 0.500000
O O11 0.500000 0.000000 0.000000
O O12 0.406454 0.148814 0.805409
O O13 0.911044 0.953901 0.337478
O O14 0.601021 0.586431 0.699566
O O15 0.638968 0.543648 0.199768
O O16 0.500000 0.500000 0.000000
#
# Coordination Sequence:
#
# PCOD9101379 Si02
#       7
#     2   2   2   2   2   2   2
#     4  12  22  34  58  96 118 150 198 271 304 337
#     4  10  22  38  64  82 114 175 198 244 304 380
#     4  12  23  40  66  98 126 161 207 265 321 374
#     4  10  20  38  59  81 115 153 210 232 302 366
#     4  10  20  38  62  81 114 156 215 230 303 370
#     4  12  24  43  65  94 134 163 220 258 323 388
#     4  12  23  40  68  98 124 165 209 269 321 373
#
# _framework density 22.536186000000001
#
# number of rings (size 3 to 8) (size 9 to 14) (size 15 to 20)
#    0.857    0.000    4.286    4.286    0.000    0.000 
#    0.000    4.286    0.000    0.000    0.000    0.000 
#    0.000    0.000    0.000    0.000    0.000    0.000 
#
# Total GULP energy -78024.865342 kJ/mol
# GULP energy per Si atom -5573.204667 kJ/mol
# Density = 2.248489 g / cm^3
# Si number density = 22.536186 Si / 1000 Ang^3
#
#
#
# Elastic Constant Matrix: (Units=GPa)
#
#
# Indices 1 2 3 4 5 6 
#
# 1 27.4482 7.0927 11.1260 17.0577 6.1331 7.2195
# 2 7.0927 92.4825 35.8037 30.8544 3.6124 10.7678
# 3 11.1260 35.8037 144.7874 6.0547 7.0463 15.9337
# 4 17.0577 30.8544 6.0547 58.3115 15.1071 6.6879
# 5 6.1331 3.6124 7.0463 15.1071 49.6114 3.3846
# 6 7.2195 10.7678 15.9337 6.6879 3.3846 18.3980
#
#
#
# Elastic Compliance Matrix: (Units=1/GPa)
#
#
# Indices 1 2 3 4 5 6 
#
# 1 0.049200 0.003605 -0.002509 -0.014262 -0.000695 -0.013931
# 2 0.003605 0.015160 -0.003240 -0.008691 0.001875 -0.004667
# 3 -0.002509 -0.003240 0.008410 0.002429 -0.001041 -0.005095
# 4 -0.014262 -0.008691 0.002429 0.027310 -0.006252 -0.000198
# 5 -0.000695 0.001875 -0.001041 -0.006252 0.022277 -0.001749
# 6 -0.013931 -0.004667 -0.005095 -0.000198 -0.001749 0.067358
#
#
# Mechanical properties :
#
#
# Convention : Reuss Voigt Hill
#
# Bulk Modulus (GPa) = 14.60215 41.41811 28.01013
# Shear Modulus (GPa) = 23.05943 39.31055 31.18499
#
# Velocity S-wave (km/s) = 3.20225 4.18105 3.72395
# Velocity P-wave (km/s) = 4.49066 6.45961 5.56294
#
# Compressibility (1/GPa) = 0.06848306
#
# Stress axis : x y z
#
# Youngs Moduli (GPa) = 20.32518 65.96176 118.90000
#
# Poissons Ratio (x) = -0.23780 0.29831
# Poissons Ratio (y) = -0.07328 0.38526
# Poissons Ratio (z) = 0.05099 0.21373
#
# Static dielectric constant tensor:
#      x y z
#    x 1.793680 -0.046080 0.024010 
#    y -0.046080 1.976140 0.138970 
#    z 0.024010 0.138970 1.981190 
# 
# From -- ./inp_files/104280.got.cif
#   From: 2010.05.17/outbox.cif.g08.bks.cpg/sg2_53_cif.got.tgz:104280.got - 2010.06.03 11:33:40.
