data_PCOD9101928
_publ_section_title
;
Structure prediction by ZEFSAII (Michael W. Deem and Ramdas Pophale) SiO2 
 PCOD9101928
Probable space group: P -1
;
_chemical_formula_sum "Si O2"
_cell_formula_units_Z 16
_cell_length_a 11.215897
_cell_length_b 8.641769
_cell_length_c 14.374635
_cell_angle_alpha 129.210374
_cell_angle_beta 39.816751
_cell_angle_gamma 116.473706
_cell_volume 689.042922
_symmetry_space_group_name_H-M "P -1"
_symmetry_group_IT_number 2
_symmetry_cell_setting 'triclinic'
loop_
_space_group_symop_operation_xyz
x,y,z
-x,-y,-z
loop_
_atom_site_type_symbol
_atom_site_label
_atom_site_fract_x
_atom_site_fract_y
_atom_site_fract_z
Si Si1 0.702758 0.654803 0.930405
Si Si2 0.814892 0.571521 0.350494
Si Si3 0.425447 0.787084 0.988498
Si Si4 0.985618 0.603115 0.445423
Si Si5 0.826836 0.685161 0.050793
Si Si6 0.037150 0.983806 0.116524
Si Si7 0.313003 0.578729 0.808197
Si Si8 0.003239 0.949513 0.331836
O O1 0.819177 0.460372 0.747094
O O2 0.848205 0.827865 0.899357
O O3 0.532316 0.709746 0.986504
O O4 0.663559 0.658104 0.064745
O O5 0.829018 0.535209 0.439578
O O6 0.659864 0.507653 0.345062
O O7 0.854451 0.804077 0.403460
O O8 0.997500 0.444633 0.149615
O O9 0.205421 0.824516 0.155844
O O10 0.459564 0.647228 0.823398
O O11 0.500000 0.000000 0.000000
O O12 0.000000 0.500000 0.500000
O O13 0.968838 0.842372 0.555831
O O14 0.787779 0.589556 0.137290
O O15 0.876263 0.914092 0.119449
O O16 0.952227 0.007976 0.278845
O O17 0.183613 0.787011 0.954844
#
# Coordination Sequence:
#
# PCOD9101928 Si02
#       8
#     2   2   2   2   2   2   2   2
#     4  11  22  34  53  87 116 143 171 230 286 319
#     4  10  19  35  57  82 105 146 191 222 269 318
#     4  11  20  35  56  82 114 144 182 220 281 330
#     4  11  22  36  55  84 113 142 181 230 271 320
#     4  10  18  31  54  86 110 135 182 237 274 311
#     4  10  16  32  55  79 112 137 183 222 277 311
#     4  10  18  33  57  79 111 142 185 228 266 327
#     4  11  19  36  59  78 108 149 183 226 261 330
#
# _framework density 23.220614999999999
#
# number of rings (size 3 to 8) (size 9 to 14) (size 15 to 20)
#    0.000    1.500    7.500    1.500    0.000    0.500 
#    0.000    0.000    0.000    5.250    0.000    0.000 
#    0.000    0.000    0.000    0.000    0.000    0.000 
#
# Total GULP energy -89263.809605 kJ/mol
# GULP energy per Si atom -5578.988100 kJ/mol
# Density = 2.316776 g / cm^3
# Si number density = 23.220615 Si / 1000 Ang^3
#
#
#
# Elastic Constant Matrix: (Units=GPa)
#
#
# Indices 1 2 3 4 5 6 
#
# 1 167.4413 28.3400 48.0993 1.8401 54.0753 -12.2760
# 2 28.3400 86.8732 24.3854 5.2443 20.6164 7.1211
# 3 48.0993 24.3854 76.5539 7.1541 31.5341 0.2105
# 4 1.8401 5.2443 7.1541 26.7835 1.9939 13.3755
# 5 54.0753 20.6164 31.5341 1.9939 41.8111 2.2142
# 6 -12.2760 7.1211 0.2105 13.3755 2.2142 37.7269
#
#
#
# Elastic Compliance Matrix: (Units=1/GPa)
#
#
# Indices 1 2 3 4 5 6 
#
# 1 0.011140 -0.000414 -0.001119 -0.001976 -0.013541 0.005205
# 2 -0.000414 0.013506 -0.002200 -0.000607 -0.004319 -0.002203
# 3 -0.001119 -0.002200 0.020098 -0.005183 -0.012511 0.002511
# 4 -0.001976 -0.000607 -0.005183 0.047366 0.005438 -0.017612
# 5 -0.013541 -0.004319 -0.012511 0.005438 0.053190 -0.008571
# 6 0.005205 -0.002203 0.002511 -0.017612 -0.008571 0.035349
#
#
# Mechanical properties :
#
#
# Convention : Reuss Voigt Hill
#
# Bulk Modulus (GPa) = 26.82610 59.16863 42.99736
# Shear Modulus (GPa) = 24.93253 36.60054 30.76654
#
# Velocity S-wave (km/s) = 3.28033 3.97446 3.64396
# Velocity P-wave (km/s) = 5.09168 6.82628 6.02177
#
# Compressibility (1/GPa) = 0.03727714
#
# Stress axis : x y z
#
# Youngs Moduli (GPa) = 89.76473 74.04184 49.75648
#
# Poissons Ratio (x) = 0.03064 0.05570
# Poissons Ratio (y) = 0.03714 0.10947
# Poissons Ratio (z) = 0.10049 0.16290
#
# Static dielectric constant tensor:
#      x y z
#    x 2.027430 0.001660 0.017340 
#    y 0.001660 1.919930 -0.019940 
#    z 0.017340 -0.019940 1.868060 
# 
# From -- ./inp_files/269540.got.cif
#   From: 2010.05.17/outbox.cif.g08.bks.cpg/sg2_135_cif.got.tgz:269540.got - 2010.06.03 11:33:40.
