data_PCOD9101216
_publ_section_title
;
Structure prediction by ZEFSAII (Michael W. Deem and Ramdas Pophale) SiO2 
 PCOD9101216
Probable space group: P -1
;
_chemical_formula_sum "Si O2"
_cell_formula_units_Z 16
_cell_length_a 8.243586
_cell_length_b 11.120710
_cell_length_c 23.169984
_cell_angle_alpha 31.490565
_cell_angle_beta 49.398745
_cell_angle_gamma 43.549558
_cell_volume 761.280201
_symmetry_space_group_name_H-M "P -1"
_symmetry_group_IT_number 2
_symmetry_cell_setting 'triclinic'
loop_
_space_group_symop_operation_xyz
x,y,z
-x,-y,-z
loop_
_atom_site_type_symbol
_atom_site_label
_atom_site_fract_x
_atom_site_fract_y
_atom_site_fract_z
Si Si1 0.887236 0.942337 0.179679
Si Si2 0.747648 0.414327 0.945001
Si Si3 0.315217 0.834310 0.664017
Si Si4 0.229487 0.946650 0.430127
Si Si5 0.273388 0.471042 0.226169
Si Si6 0.558351 0.683396 0.555213
Si Si7 0.873529 0.111935 0.730742
Si Si8 0.654193 0.961189 0.752721
O O1 0.043216 0.660992 0.235271
O O2 0.000687 0.968037 0.203783
O O3 0.612918 0.987629 0.226407
O O4 0.906819 0.146885 0.046915
O O5 0.713486 0.404154 0.888724
O O6 0.807373 0.654583 0.842609
O O7 0.500000 0.500000 0.000000
O O8 0.501575 0.607582 0.752507
O O9 0.359591 0.730390 0.631169
O O10 0.373968 0.080541 0.550381
O O11 0.068320 0.943676 0.708381
O O12 0.265308 0.203829 0.324479
O O13 0.245277 0.913183 0.371360
O O14 0.441804 0.713228 0.507500
O O15 0.000000 0.000000 0.500000
O O16 0.779513 0.415855 0.623271
O O17 0.654228 0.064276 0.775357
#
# Coordination Sequence:
#
# PCOD9101216 Si02
#       8
#     2   2   2   2   2   2   2   2
#     4  11  22  41  65  91 127 163 210 265 310 375
#     4   9  19  40  66  88 121 163 207 262 320 365
#     4  10  20  38  57  87 127 165 210 257 306 366
#     4  10  21  39  58  88 131 168 202 261 311 363
#     4  10  20  38  64  92 123 166 211 254 315 375
#     4  10  21  36  57  88 124 169 212 248 311 367
#     4  12  23  39  64  91 127 164 208 259 308 374
#     4  10  24  41  61  96 122 165 214 255 317 374
#
# _framework density 21.017227999999999
#
# number of rings (size 3 to 8) (size 9 to 14) (size 15 to 20)
#    0.000    1.750    1.250    4.500    1.750    1.000 
#    2.250    0.000    0.000    4.500    0.000    0.000 
#    0.000    0.000    0.000    0.000    0.000    0.000 
#
# Total GULP energy -89185.549478 kJ/mol
# GULP energy per Si atom -5574.096842 kJ/mol
# Density = 2.096939 g / cm^3
# Si number density = 21.017228 Si / 1000 Ang^3
#
#
#
# Elastic Constant Matrix: (Units=GPa)
#
#
# Indices 1 2 3 4 5 6 
#
# 1 93.7118 11.2531 43.0576 3.6499 35.7369 14.5150
# 2 11.2531 80.3237 20.2369 -4.4716 10.3054 -4.8455
# 3 43.0576 20.2369 93.1764 3.2603 38.2437 -3.6259
# 4 3.6499 -4.4716 3.2603 36.2959 -4.7228 8.1930
# 5 35.7369 10.3054 38.2437 -4.7228 29.4926 1.1897
# 6 14.5150 -4.8455 -3.6259 8.1930 1.1897 27.1261
#
#
#
# Elastic Compliance Matrix: (Units=1/GPa)
#
#
# Indices 1 2 3 4 5 6 
#
# 1 0.023246 -0.000595 0.001626 -0.004321 -0.030370 -0.009691
# 2 -0.000595 0.013411 -0.002198 0.001314 -0.000988 0.002067
# 3 0.001626 -0.002198 0.026144 -0.009060 -0.036821 0.006583
# 4 -0.004321 0.001314 -0.009060 0.034121 0.022390 -0.009952
# 5 -0.030370 -0.000988 -0.036821 0.022390 0.122422 -0.000980
# 6 -0.009691 0.002067 0.006583 -0.009952 -0.000980 0.046348
#
#
# Mechanical properties :
#
#
# Convention : Reuss Voigt Hill
#
# Bulk Modulus (GPa) = 16.53773 46.25634 31.39703
# Shear Modulus (GPa) = 17.35009 31.42721 24.38865
#
# Velocity S-wave (km/s) = 2.87630 3.87112 3.41018
# Velocity P-wave (km/s) = 4.34931 6.48361 5.52059
#
# Compressibility (1/GPa) = 0.06046781
#
# Stress axis : x y z
#
# Youngs Moduli (GPa) = 43.01825 74.56374 38.24946
#
# Poissons Ratio (x) = 0.04438 -0.06220
# Poissons Ratio (y) = 0.02560 0.08407
# Poissons Ratio (z) = -0.06996 0.16388
#
# Static dielectric constant tensor:
#      x y z
#    x 1.870640 -0.018670 -0.012220 
#    y -0.018670 1.749250 0.017790 
#    z -0.012220 0.017790 1.774530 
# 
# From -- ./inp_files/284771.got.cif
#   From: 2010.05.17/outbox.cif.g08.bks.cpg/sg2_143_cif.got.tgz:284771.got - 2010.06.03 11:33:40.
