data_PCOD9101959
_publ_section_title
;
Structure prediction by ZEFSAII (Michael W. Deem and Ramdas Pophale) SiO2 
 PCOD9101959
Probable space group: P -1
;
_chemical_formula_sum "Si O2"
_cell_formula_units_Z 16
_cell_length_a 11.413235
_cell_length_b 21.016759
_cell_length_c 17.399880
_cell_angle_alpha 159.638292
_cell_angle_beta 34.613144
_cell_angle_gamma 134.274200
_cell_volume 765.766967
_symmetry_space_group_name_H-M "P -1"
_symmetry_group_IT_number 2
_symmetry_cell_setting 'triclinic'
loop_
_space_group_symop_operation_xyz
x,y,z
-x,-y,-z
loop_
_atom_site_type_symbol
_atom_site_label
_atom_site_fract_x
_atom_site_fract_y
_atom_site_fract_z
Si Si1 0.437225 0.756445 0.226146
Si Si2 0.118089 0.548710 0.417915
Si Si3 0.233146 0.200046 0.235813
Si Si4 0.748270 0.047207 0.773308
Si Si5 0.991473 0.705191 0.371036
Si Si6 0.945623 0.714525 0.162397
Si Si7 0.752375 0.109206 0.228297
Si Si8 0.554326 0.870617 0.445218
O O1 0.427557 0.784335 0.355017
O O2 0.249935 0.678245 0.210289
O O3 0.395341 0.959283 0.433837
O O4 0.694957 0.633332 0.929862
O O5 0.268830 0.667855 0.502187
O O6 0.000000 0.500000 0.500000
O O7 0.926992 0.665844 0.592470
O O8 0.119654 0.271776 0.459302
O O9 0.488753 0.176724 0.069248
O O10 0.259136 0.977084 0.946336
O O11 0.862935 0.910923 0.629706
O O12 0.799858 0.877151 0.487044
O O13 0.867427 0.198959 0.861006
O O14 0.970866 0.516806 0.125335
O O15 0.788059 0.726049 0.187452
O O16 0.599437 0.060966 0.319286
O O17 0.000000 0.000000 0.000000
#
# Coordination Sequence:
#
# PCOD9101959 Si02
#       8
#     2   2   2   2   2   2   2   2
#     4  11  23  38  69 102 135 170 228 280 346 409
#     4  11  24  40  64 102 136 175 223 280 344 413
#     4  11  24  44  66  96 139 177 225 283 340 401
#     4  11  25  47  68  98 137 184 233 280 336 402
#     4  12  25  45  70 103 135 182 232 281 337 408
#     4  11  24  44  72  95 135 180 236 284 336 399
#     4  10  20  38  61  88 129 175 211 268 340 394
#     4  11  21  41  66  97 135 176 215 289 343 396
#
# _framework density 20.894086000000001
#
# number of rings (size 3 to 8) (size 9 to 14) (size 15 to 20)
#    0.000    1.000    2.500    5.250    0.000    3.000 
#    4.500    0.000    0.000    0.000    0.000    0.000 
#    0.000    0.000    0.000    0.000    0.000    0.000 
#
# Total GULP energy -89279.052328 kJ/mol
# GULP energy per Si atom -5579.940771 kJ/mol
# Density = 2.084653 g / cm^3
# Si number density = 20.894086 Si / 1000 Ang^3
#
#
#
# Elastic Constant Matrix: (Units=GPa)
#
#
# Indices 1 2 3 4 5 6 
#
# 1 86.8577 48.1800 28.7696 -10.3215 -3.9570 -2.3531
# 2 48.1800 74.9589 29.9160 -19.4296 0.8829 -0.4437
# 3 28.7696 29.9160 75.6780 -20.6038 -8.2808 -4.1819
# 4 -10.3215 -19.4296 -20.6038 37.4769 6.7845 1.7136
# 5 -3.9570 0.8829 -8.2808 6.7845 37.1949 -6.7143
# 6 -2.3531 -0.4437 -4.1819 1.7136 -6.7143 22.8125
#
#
#
# Elastic Compliance Matrix: (Units=1/GPa)
#
#
# Indices 1 2 3 4 5 6 
#
# 1 0.018805 -0.011726 -0.002953 -0.003089 0.002575 0.002160
# 2 -0.011726 0.024587 -0.003656 0.008540 -0.004828 -0.003464
# 3 -0.002953 -0.003656 0.018092 0.006498 0.003230 0.003403
# 4 -0.003089 0.008540 0.006498 0.035091 -0.006098 -0.003392
# 5 0.002575 -0.004828 0.003230 -0.006098 0.030971 0.010337
# 6 0.002160 -0.003464 0.003403 -0.003392 0.010337 0.047912
#
#
# Mechanical properties :
#
#
# Convention : Reuss Voigt Hill
#
# Bulk Modulus (GPa) = 40.30233 50.13620 45.21926
# Shear Modulus (GPa) = 22.68601 28.20546 25.44574
#
# Velocity S-wave (km/s) = 3.29867 3.67812 3.49355
# Velocity P-wave (km/s) = 5.81713 6.48734 6.16135
#
# Compressibility (1/GPa) = 0.02481246
#
# Stress axis : x y z
#
# Youngs Moduli (GPa) = 53.17855 40.67222 55.27206
#
# Poissons Ratio (x) = 0.47693 0.16322
# Poissons Ratio (y) = 0.62359 0.20209
# Poissons Ratio (z) = 0.15704 0.14871
#
# Static dielectric constant tensor:
#      x y z
#    x 1.782260 0.009480 0.002260 
#    y 0.009480 1.718650 -0.006330 
#    z 0.002260 -0.006330 1.652500 
# 
# From -- ./inp_files/245104.got.cif
#   From: 2010.05.17/outbox.cif.g08.bks.cpg/sg2_123_cif.got.tgz:245104.got - 2010.06.03 11:33:40.
