data_PCOD9101925
_publ_section_title
;
Structure prediction by ZEFSAII (Michael W. Deem and Ramdas Pophale) SiO2 
 PCOD9101925
Probable space group: P -1
;
_chemical_formula_sum "Si O2"
_cell_formula_units_Z 15
_cell_length_a 8.637878
_cell_length_b 9.601460
_cell_length_c 10.961500
_cell_angle_alpha 91.946693
_cell_angle_beta 54.379152
_cell_angle_gamma 62.619702
_cell_volume 596.094557
_symmetry_space_group_name_H-M "P -1"
_symmetry_group_IT_number 2
_symmetry_cell_setting 'triclinic'
loop_
_space_group_symop_operation_xyz
x,y,z
-x,-y,-z
loop_
_atom_site_type_symbol
_atom_site_label
_atom_site_fract_x
_atom_site_fract_y
_atom_site_fract_z
Si Si1 0.713043 0.890930 0.490965
Si Si2 0.890636 0.654519 0.959057
Si Si3 0.273655 0.517710 0.445425
Si Si4 0.774428 0.270940 0.323065
Si Si5 0.114586 0.518768 0.265982
Si Si6 0.219264 0.946356 0.154204
Si Si7 0.494706 0.057327 0.168334
Si Si8 0.000000 0.000000 0.500000
O O1 0.927956 0.719072 0.322664
O O2 0.500000 0.000000 0.500000
O O3 0.622472 0.844395 0.650039
O O4 0.803821 0.988770 0.520298
O O5 0.104249 0.653637 0.803129
O O6 0.782439 0.600181 0.903001
O O7 0.694267 0.852317 0.095821
O O8 0.000000 0.500000 0.000000
O O9 0.512919 0.368428 0.397626
O O10 0.227022 0.692151 0.529426
O O11 0.052021 0.525879 0.595787
O O12 0.275037 0.510308 0.299657
O O13 0.956250 0.067101 0.222083
O O14 0.190396 0.882504 0.293067
O O15 0.300338 0.066250 0.171155
O O16 0.386841 0.867185 0.957893
#
# Coordination Sequence:
#
# PCOD9101925 Si02
#       8
#     2   2   2   2   2   2   2   1
#     4  11  23  40  64  94 124 165 212 264 310 377
#     4  10  20  38  61  87 122 166 198 246 313 380
#     4   9  18  34  57  88 114 152 198 260 295 359
#     4   9  18  34  60  86 117 158 204 243 308 370
#     4  10  21  37  61  88 119 153 211 251 302 372
#     4   9  18  35  61  88 117 162 209 251 305 378
#     4   9  19  38  64  87 124 168 202 249 323 376
#     4  10  22  38  62  94 126 160 208 260 314 376
#
# _framework density 25.163792999999998
#
# number of rings (size 3 to 8) (size 9 to 14) (size 15 to 20)
#    0.000    2.400    0.000    2.400    1.867    4.267 
#   14.400    1.333   14.667    0.000    0.000    0.000 
#    0.000    0.000    0.000    0.000    0.000    0.000 
#
# Total GULP energy -83539.917925 kJ/mol
# GULP energy per Si atom -5569.327862 kJ/mol
# Density = 2.510652 g / cm^3
# Si number density = 25.163793 Si / 1000 Ang^3
#
#
#
# Elastic Constant Matrix: (Units=GPa)
#
#
# Indices 1 2 3 4 5 6 
#
# 1 124.2662 21.2231 15.2223 7.7329 6.9042 -13.3311
# 2 21.2231 96.5051 17.4238 9.6634 7.3994 -10.1773
# 3 15.2223 17.4238 82.6691 -14.7170 -4.1234 0.2288
# 4 7.7329 9.6634 -14.7170 43.8813 -2.3874 -2.1524
# 5 6.9042 7.3994 -4.1234 -2.3874 24.9441 1.6216
# 6 -13.3311 -10.1773 0.2288 -2.1524 1.6216 38.8720
#
#
#
# Elastic Compliance Matrix: (Units=1/GPa)
#
#
# Indices 1 2 3 4 5 6 
#
# 1 0.009049 -0.000886 -0.002008 -0.002092 -0.002962 0.002891
# 2 -0.000886 0.012171 -0.003296 -0.003731 -0.004454 0.002881
# 3 -0.002008 -0.003296 0.014484 0.006115 0.004610 -0.001491
# 4 -0.002092 -0.003731 0.006115 0.026291 0.005245 -0.000493
# 5 -0.002962 -0.004454 0.004610 0.005245 0.043738 -0.003743
# 6 0.002891 0.002881 -0.001491 -0.000493 -0.003743 0.027609
#
#
# Mechanical properties :
#
#
# Convention : Reuss Voigt Hill
#
# Bulk Modulus (GPa) = 42.87512 45.68652 44.28082
# Shear Modulus (GPa) = 32.57382 38.17757 35.37570
#
# Velocity S-wave (km/s) = 3.60178 3.89930 3.75349
# Velocity P-wave (km/s) = 5.86281 6.20224 6.03491
#
# Compressibility (1/GPa) = 0.02332355
#
# Stress axis : x y z
#
# Youngs Moduli (GPa) = 110.50412 82.16151 69.04376
#
# Poissons Ratio (x) = 0.07281 0.13862
# Poissons Ratio (y) = 0.09792 0.22760
# Poissons Ratio (z) = 0.22187 0.27084
#
# Static dielectric constant tensor:
#      x y z
#    x 1.959000 0.023700 -0.022960 
#    y 0.023700 1.974720 -0.042400 
#    z -0.022960 -0.042400 2.058900 
# 
# From -- ./inp_files/387746.got.cif
#   From: 2010.05.17/outbox.cif.g08.bks.cpg/sg2_194_cif.got.tgz:387746.got - 2010.06.03 11:33:40.
