data_PCOD9101985
_publ_section_title
;
Structure prediction by ZEFSAII (Michael W. Deem and Ramdas Pophale) SiO2 
 PCOD9101985
Probable space group: P -1
;
_chemical_formula_sum "Si O2"
_cell_formula_units_Z 14
_cell_length_a 13.614419
_cell_length_b 17.758429
_cell_length_c 25.982618
_cell_angle_alpha 159.929941
_cell_angle_beta 21.318434
_cell_angle_gamma 149.807030
_cell_volume 780.848220
_symmetry_space_group_name_H-M "P -1"
_symmetry_group_IT_number 2
_symmetry_cell_setting 'triclinic'
loop_
_space_group_symop_operation_xyz
x,y,z
-x,-y,-z
loop_
_atom_site_type_symbol
_atom_site_label
_atom_site_fract_x
_atom_site_fract_y
_atom_site_fract_z
Si Si1 0.180082 0.495608 0.637781
Si Si2 0.602204 0.760356 0.455627
Si Si3 0.920522 0.981580 0.586448
Si Si4 0.579268 0.910979 0.032027
Si Si5 0.691377 0.552924 0.667470
Si Si6 0.576949 0.643821 0.669475
Si Si7 0.079292 0.031409 0.922499
O O1 0.500000 0.500000 0.500000
O O2 0.063916 0.275967 0.573511
O O3 0.195127 0.476269 0.556003
O O4 0.005066 0.711141 0.880757
O O5 0.465877 0.660496 0.407632
O O6 0.633525 0.542993 0.337859
O O7 0.873236 0.878368 0.392933
O O8 0.383128 0.937173 0.702071
O O9 0.621235 0.067800 0.807590
O O10 0.000000 0.000000 0.500000
O O11 0.525191 0.133558 0.166992
O O12 0.882926 0.901539 0.899029
O O13 0.544029 0.704607 0.880356
O O14 0.683897 0.681615 0.698865
O O15 0.000000 0.500000 0.500000
O O16 0.000000 0.000000 0.000000
#
# Coordination Sequence:
#
# PCOD9101985 Si02
#       7
#     2   2   2   2   2   2   2
#     4  11  20  37  63  86 116 154 198 239 292 360
#     4  10  22  36  58  84 125 144 194 250 294 335
#     4  11  23  38  58  91 123 151 193 248 300 352
#     4  11  21  37  65  84 115 163 203 237 292 354
#     4  10  20  38  61  90 114 154 204 249 287 345
#     4   9  19  36  59  88 112 150 206 240 284 351
#     4  12  20  34  61  90 113 154 199 244 299 349
#
# _framework density 17.929220999999998
#
# number of rings (size 3 to 8) (size 9 to 14) (size 15 to 20)
#    0.857    0.571    5.714    2.143    0.000    1.143 
#    0.000    0.000    0.000    3.429    0.000    0.000 
#    0.000    0.000    0.000    0.000    0.000    0.000 
#
# Total GULP energy -77976.482454 kJ/mol
# GULP energy per Si atom -5569.748747 kJ/mol
# Density = 1.788841 g / cm^3
# Si number density = 17.929221 Si / 1000 Ang^3
#
#
#
# Elastic Constant Matrix: (Units=GPa)
#
#
# Indices 1 2 3 4 5 6 
#
# 1 72.9375 14.5344 -0.0082 2.5155 12.4402 -1.1986
# 2 14.5344 97.6710 9.4904 12.7008 -2.1074 7.7355
# 3 -0.0082 9.4904 65.8014 10.2085 12.7691 0.2000
# 4 2.5155 12.7008 10.2085 23.9132 6.4790 6.2388
# 5 12.4402 -2.1074 12.7691 6.4790 33.8131 -0.9867
# 6 -1.1986 7.7355 0.2000 6.2388 -0.9867 27.9217
#
#
#
# Elastic Compliance Matrix: (Units=1/GPa)
#
#
# Indices 1 2 3 4 5 6 
#
# 1 0.015362 -0.002747 0.001553 0.000675 -0.006509 0.001028
# 2 -0.002747 0.011760 -0.001448 -0.005728 0.003330 -0.001968
# 3 0.001553 -0.001448 0.017455 -0.005534 -0.006153 0.001362
# 4 0.000675 -0.005728 -0.005534 0.052237 -0.008826 -0.010328
# 5 -0.006509 0.003330 -0.006153 -0.008826 0.036253 0.002095
# 6 0.001028 -0.001968 0.001362 -0.010328 0.002095 0.038776
#
#
# Mechanical properties :
#
#
# Convention : Reuss Voigt Hill
#
# Bulk Modulus (GPa) = 25.44926 31.60478 28.52702
# Shear Modulus (GPa) = 26.28489 31.28917 28.78703
#
# Velocity S-wave (km/s) = 3.83304 4.18203 4.01133
# Velocity P-wave (km/s) = 5.81504 6.40195 6.11554
#
# Compressibility (1/GPa) = 0.03929388
#
# Stress axis : x y z
#
# Youngs Moduli (GPa) = 65.09739 85.03066 57.29100
#
# Poissons Ratio (x) = 0.23354 -0.08899
# Poissons Ratio (y) = 0.17879 0.08297
# Poissons Ratio (z) = -0.10111 0.12314
#
# Static dielectric constant tensor:
#      x y z
#    x 1.656750 -0.002790 0.008210 
#    y -0.002790 1.605120 0.038030 
#    z 0.008210 0.038030 1.623010 
# 
# From -- ./inp_files/199396.got.cif
#   From: 2010.05.17/outbox.cif.g08.bks.cpg/sg2_100_cif.got.tgz:199396.got - 2010.06.03 11:33:40.
