data_PCOD9101604
_publ_section_title
;
Structure prediction by ZEFSAII (Michael W. Deem and Ramdas Pophale) SiO2 
 PCOD9101604
Probable space group: P -1
;
_chemical_formula_sum "Si O2"
_cell_formula_units_Z 15
_cell_length_a 8.410670
_cell_length_b 8.417328
_cell_length_c 14.704126
_cell_angle_alpha 55.916122
_cell_angle_beta 88.120867
_cell_angle_gamma 126.170546
_cell_volume 584.115069
_symmetry_space_group_name_H-M "P -1"
_symmetry_group_IT_number 2
_symmetry_cell_setting 'triclinic'
loop_
_space_group_symop_operation_xyz
x,y,z
-x,-y,-z
loop_
_atom_site_type_symbol
_atom_site_label
_atom_site_fract_x
_atom_site_fract_y
_atom_site_fract_z
Si Si1 0.311483 0.722538 0.382932
Si Si2 0.500000 0.000000 0.000000
Si Si3 0.050353 0.288853 0.223036
Si Si4 0.150558 0.683486 0.221968
Si Si5 0.330985 0.173463 0.303689
Si Si6 0.176210 0.280586 0.847656
Si Si7 0.583742 0.879141 0.487260
Si Si8 0.245307 0.973508 0.847949
O O1 0.286046 0.918995 0.352808
O O2 0.541745 0.890719 0.265197
O O3 0.120684 0.545969 0.361614
O O4 0.369605 0.647312 0.494891
O O5 0.616514 0.987895 0.906528
O O6 0.304428 0.940476 0.954539
O O7 0.233474 0.598504 0.169118
O O8 0.148486 0.164022 0.272194
O O9 0.985275 0.283132 0.123586
O O10 0.818991 0.110387 0.347795
O O11 0.933780 0.620351 0.219364
O O12 0.595076 0.465836 0.180069
O O13 0.342178 0.189733 0.408627
O O14 0.237418 0.195092 0.790793
O O15 0.000000 0.000000 0.000000
O O16 0.500000 0.000000 0.500000
#
# Coordination Sequence:
#
# PCOD9101604 Si02
#       8
#     2   1   2   2   2   2   2   2
#     4   9  20  40  66  95 127 166 211 268 324 382
#     4  10  20  38  60  84 122 166 204 262 302 374
#     4  11  23  40  66  97 129 170 209 265 326 381
#     4  11  22  40  62  91 131 163 217 262 320 374
#     4  11  22  42  65  94 132 170 213 266 320 387
#     4  12  24  42  63  93 124 174 216 268 319 380
#     4   9  19  40  66  95 128 166 212 261 324 388
#     4  10  21  41  61  92 128 161 218 261 321 378
#
# _framework density 25.679874999999999
#
# number of rings (size 3 to 8) (size 9 to 14) (size 15 to 20)
#    0.000    1.600    1.333    5.200    0.000    0.533 
#    4.800   14.667    0.000    0.000    0.000    0.000 
#    0.000    0.000    0.000    0.000    0.000    0.000 
#
# Total GULP energy -83594.542430 kJ/mol
# GULP energy per Si atom -5572.969495 kJ/mol
# Density = 2.562143 g / cm^3
# Si number density = 25.679875 Si / 1000 Ang^3
#
#
#
# Elastic Constant Matrix: (Units=GPa)
#
#
# Indices 1 2 3 4 5 6 
#
# 1 161.5800 33.1921 35.3539 17.2543 14.7515 11.6364
# 2 33.1921 102.0259 26.8681 27.2537 16.6411 16.4396
# 3 35.3539 26.8681 111.1468 23.5016 6.7085 12.7901
# 4 17.2543 27.2537 23.5016 42.1581 16.2557 6.7858
# 5 14.7515 16.6411 6.7085 16.2557 38.2943 7.3567
# 6 11.6364 16.4396 12.7901 6.7858 7.3567 35.3037
#
#
#
# Elastic Compliance Matrix: (Units=1/GPa)
#
#
# Indices 1 2 3 4 5 6 
#
# 1 0.007069 -0.001406 -0.001662 -0.000354 -0.001539 -0.000684
# 2 -0.001406 0.012991 -0.000872 -0.006099 -0.001640 -0.003756
# 3 -0.001662 -0.000872 0.011002 -0.005178 0.001751 -0.002402
# 4 -0.000354 -0.006099 -0.005178 0.034952 -0.011230 0.000455
# 5 -0.001539 -0.001640 0.001751 -0.011230 0.032650 -0.004009
# 6 -0.000684 -0.003756 -0.002402 0.000455 -0.004009 0.031918
#
#
# Mechanical properties :
#
#
# Convention : Reuss Voigt Hill
#
# Bulk Modulus (GPa) = 43.13924 62.84233 52.99078
# Shear Modulus (GPa) = 34.20233 41.77378 37.98806
#
# Velocity S-wave (km/s) = 3.65344 4.03763 3.85033
# Velocity P-wave (km/s) = 5.88491 6.80155 6.35977
#
# Compressibility (1/GPa) = 0.02318075
#
# Stress axis : x y z
#
# Youngs Moduli (GPa) = 141.46247 76.97922 90.89132
#
# Poissons Ratio (x) = 0.10825 0.15107
# Poissons Ratio (y) = 0.19893 0.07927
# Poissons Ratio (z) = 0.23513 0.06714
#
# Static dielectric constant tensor:
#      x y z
#    x 2.043740 0.105270 -0.096490 
#    y 0.105270 2.413210 -0.170390 
#    z -0.096490 -0.170390 2.233590 
# 
# From -- ./inp_files/227163.got.cif
#   From: 2010.05.17/outbox.cif.g08.bks.cpg/sg2_114_cif.got.tgz:227163.got - 2010.06.03 11:33:40.
