data_PCOD9101087
_publ_section_title
;
Structure prediction by ZEFSAII (Michael W. Deem and Ramdas Pophale) SiO2 
 PCOD9101087
Probable space group: P -1
;
_chemical_formula_sum "Si O2"
_cell_formula_units_Z 16
_cell_length_a 22.150713
_cell_length_b 10.376042
_cell_length_c 9.874714
_cell_angle_alpha 138.600329
_cell_angle_beta 39.936003
_cell_angle_gamma 149.276962
_cell_volume 715.110495
_symmetry_space_group_name_H-M "P -1"
_symmetry_group_IT_number 2
_symmetry_cell_setting 'triclinic'
loop_
_space_group_symop_operation_xyz
x,y,z
-x,-y,-z
loop_
_atom_site_type_symbol
_atom_site_label
_atom_site_fract_x
_atom_site_fract_y
_atom_site_fract_z
Si Si1 0.142114 0.905862 0.989129
Si Si2 0.523610 0.922645 0.094358
Si Si3 0.991887 0.262969 0.367438
Si Si4 0.937437 0.652835 0.372044
Si Si5 0.600023 0.882043 0.200312
Si Si6 0.169818 0.193157 0.901294
Si Si7 0.661653 0.389625 0.620380
Si Si8 0.540227 0.339987 0.272332
O O1 0.106323 0.632778 0.799556
O O2 0.290543 0.112439 0.939985
O O3 0.129977 0.013841 0.959869
O O4 0.047114 0.837534 0.218189
O O5 0.384348 0.676957 0.197463
O O6 0.614999 0.956227 0.074632
O O7 0.532970 0.168509 0.266579
O O8 0.542523 0.862064 0.866895
O O9 0.017927 0.268724 0.486905
O O10 0.000000 0.500000 0.500000
O O11 0.094738 0.290036 0.121531
O O12 0.864937 0.980928 0.309275
O O13 0.811885 0.608924 0.523795
O O14 0.626609 0.123082 0.419371
O O15 0.448285 0.627931 0.274148
O O16 0.315652 0.444480 0.849230
O O17 0.500000 0.500000 0.500000
#
# Coordination Sequence:
#
# PCOD9101087 Si02
#       8
#     2   2   2   2   2   2   2   2
#     4  10  21  39  65 102 135 167 230 276 335 401
#     4   9  20  42  62  93 129 178 224 265 337 407
#     4  11  24  46  70  93 133 185 222 278 346 397
#     4  10  20  37  71  95 126 188 215 271 341 400
#     4   8  17  34  67  90 127 173 212 270 332 399
#     4  11  26  44  65 103 135 170 235 283 326 409
#     4   8  16  35  65  94 121 171 223 256 331 401
#     4  11  25  38  66  96 134 177 220 280 330 394
#
# _framework density 22.374165999999999
#
# number of rings (size 3 to 8) (size 9 to 14) (size 15 to 20)
#    0.750    1.500    1.250    0.750    3.500    4.500 
#    6.750    0.625    8.250    0.000    0.000    0.000 
#    0.000    0.000    0.000    0.000    0.000    0.000 
#
# Total GULP energy -89284.239651 kJ/mol
# GULP energy per Si atom -5580.264978 kJ/mol
# Density = 2.232324 g / cm^3
# Si number density = 22.374166 Si / 1000 Ang^3
#
#
#
# Elastic Constant Matrix: (Units=GPa)
#
#
# Indices 1 2 3 4 5 6 
#
# 1 112.7014 44.1892 48.5249 -0.6389 9.0671 24.0938
# 2 44.1892 83.1101 44.4482 0.9970 -6.3785 11.3143
# 3 48.5249 44.4482 85.3410 12.7150 -6.8433 5.8538
# 4 -0.6389 0.9970 12.7150 34.2537 1.9197 -6.2150
# 5 9.0671 -6.3785 -6.8433 1.9197 44.5138 2.7066
# 6 24.0938 11.3143 5.8538 -6.2150 2.7066 22.7272
#
#
#
# Elastic Compliance Matrix: (Units=1/GPa)
#
#
# Indices 1 2 3 4 5 6 
#
# 1 0.016448 -0.003492 -0.007103 0.000898 -0.004183 -0.013125
# 2 -0.003492 0.018503 -0.007428 0.001385 0.002374 -0.003501
# 3 -0.007103 -0.007428 0.020753 -0.007194 0.003672 0.003478
# 4 0.000898 0.001385 -0.007194 0.033801 -0.003146 0.009829
# 5 -0.004183 0.002374 0.003672 -0.003146 0.024446 -0.001464
# 6 -0.013125 -0.003501 0.003478 0.009829 -0.001464 0.061624
#
#
# Mechanical properties :
#
#
# Convention : Reuss Voigt Hill
#
# Bulk Modulus (GPa) = 50.86491 61.71966 56.29229
# Shear Modulus (GPa) = 22.91773 29.89828 26.40801
#
# Velocity S-wave (km/s) = 3.20393 3.65949 3.43926
# Velocity P-wave (km/s) = 6.03904 6.74544 6.40199
#
# Compressibility (1/GPa) = 0.01965992
#
# Stress axis : x y z
#
# Youngs Moduli (GPa) = 60.79836 54.04457 48.18690
#
# Poissons Ratio (x) = 0.18871 0.34225
# Poissons Ratio (y) = 0.21229 0.35791
# Poissons Ratio (z) = 0.43182 0.40142
#
# Static dielectric constant tensor:
#      x y z
#    x 1.846680 0.061880 0.013810 
#    y 0.061880 1.818190 0.012510 
#    z 0.013810 0.012510 1.850170 
# 
# From -- ./inp_files/474885.got.cif
#   From: 2010.05.17/outbox.cif.g08.bks.cpg/sg2_238_cif.got.tgz:474885.got - 2010.06.03 11:33:40.
