data_PCOD9101915
_publ_section_title
;
Structure prediction by ZEFSAII (Michael W. Deem and Ramdas Pophale) SiO2 
 PCOD9101915
Probable space group: P -1
;
_chemical_formula_sum "Si O2"
_cell_formula_units_Z 16
_cell_length_a 12.605207
_cell_length_b 13.895117
_cell_length_c 11.906263
_cell_angle_alpha 61.756165
_cell_angle_beta 140.138703
_cell_angle_gamma 145.723025
_cell_volume 673.674784
_symmetry_space_group_name_H-M "P -1"
_symmetry_group_IT_number 2
_symmetry_cell_setting 'triclinic'
loop_
_space_group_symop_operation_xyz
x,y,z
-x,-y,-z
loop_
_atom_site_type_symbol
_atom_site_label
_atom_site_fract_x
_atom_site_fract_y
_atom_site_fract_z
Si Si1 0.119320 0.742657 0.245500
Si Si2 0.061255 0.657742 0.935060
Si Si3 0.225462 0.718661 0.587797
Si Si4 0.962579 0.002387 0.314544
Si Si5 0.394129 0.029624 0.661341
Si Si6 0.141373 0.997020 0.026930
Si Si7 0.238740 0.360782 0.454200
Si Si8 0.413507 0.563972 0.142616
O O1 0.225330 0.783694 0.434067
O O2 0.362993 0.819866 0.321867
O O3 0.097613 0.854017 0.122368
O O4 0.784924 0.526234 0.077681
O O5 0.952318 0.638980 0.736174
O O6 0.838175 0.584778 0.886299
O O7 0.392488 0.865279 0.116136
O O8 0.000000 0.500000 0.000000
O O9 0.514714 0.809493 0.800958
O O10 0.000000 0.500000 0.500000
O O11 0.230996 0.826108 0.618515
O O12 0.641398 0.786780 0.205119
O O13 0.966917 0.043237 0.165514
O O14 0.184557 0.020490 0.495375
O O15 0.059835 0.155646 0.386655
O O16 0.000000 0.000000 0.000000
O O17 0.500000 0.500000 0.500000
O O18 0.376450 0.422452 0.655981
#
# Coordination Sequence:
#
# PCOD9101915 Si02
#       8
#     2   2   2   2   2   2   2   2
#     4  10  21  40  59  81 117 158 201 243 296 365
#     4  10  21  41  65  87 119 163 203 239 298 373
#     4  11  22  39  59  86 120 156 199 256 303 350
#     4  12  22  38  62  91 121 152 200 259 304 350
#     4  10  21  38  60  86 117 159 201 243 299 366
#     4  11  22  38  62  87 115 160 203 243 300 367
#     4  10  20  38  61  87 118 158 197 241 299 365
#     4  10  22  38  59  89 121 154 198 254 300 346
#
# _framework density 23.750333000000001
#
# number of rings (size 3 to 8) (size 9 to 14) (size 15 to 20)
#    0.000    1.500    0.000    8.625    0.000    1.000 
#    0.000   12.500    0.000    0.000    0.000    0.000 
#    0.000    0.000    0.000    0.000    0.000    0.000 
#
# Total GULP energy -89243.656512 kJ/mol
# GULP energy per Si atom -5577.728532 kJ/mol
# Density = 2.369628 g / cm^3
# Si number density = 23.750333 Si / 1000 Ang^3
#
#
#
# Elastic Constant Matrix: (Units=GPa)
#
#
# Indices 1 2 3 4 5 6 
#
# 1 44.8393 15.0441 49.3578 -18.2593 -5.0341 5.2798
# 2 15.0441 131.3897 41.3908 13.8189 9.9276 -8.3705
# 3 49.3578 41.3908 162.2960 -8.2716 3.2447 -3.8315
# 4 -18.2593 13.8189 -8.2716 43.2822 5.4684 -5.7891
# 5 -5.0341 9.9276 3.2447 5.4684 33.8501 -10.0327
# 6 5.2798 -8.3705 -3.8315 -5.7891 -10.0327 31.5334
#
#
#
# Elastic Compliance Matrix: (Units=1/GPa)
#
#
# Indices 1 2 3 4 5 6 
#
# 1 0.044604 -0.003751 -0.011993 0.016411 0.004620 -0.005438
# 2 -0.003751 0.009160 -0.001341 -0.004316 -0.001982 0.001474
# 3 -0.011993 -0.001341 0.010112 -0.002252 -0.001396 0.002023
# 4 0.016411 -0.004316 -0.002252 0.031246 -0.000729 0.001337
# 5 0.004620 -0.001982 -0.001396 -0.000729 0.033771 0.009142
# 6 -0.005438 0.001474 0.002023 0.001337 0.009142 0.036414
#
#
# Mechanical properties :
#
#
# Convention : Reuss Voigt Hill
#
# Bulk Modulus (GPa) = 33.66241 61.12340 47.39290
# Shear Modulus (GPa) = 23.88020 37.24862 30.56441
#
# Velocity S-wave (km/s) = 3.17435 3.96453 3.59124
# Velocity P-wave (km/s) = 5.25733 6.83727 6.09868
#
# Compressibility (1/GPa) = 0.02970672
#
# Stress axis : x y z
#
# Youngs Moduli (GPa) = 22.41976 109.16538 98.89485
#
# Poissons Ratio (x) = 0.40945 1.18602
# Poissons Ratio (y) = 0.08409 0.13262
# Poissons Ratio (z) = 0.26887 0.14640
#
# Static dielectric constant tensor:
#      x y z
#    x 1.913010 0.171640 0.092150 
#    y 0.171640 1.813670 0.022540 
#    z 0.092150 0.022540 2.006590 
# 
# From -- ./inp_files/534350.got.cif
#   From: 2010.05.17/outbox.cif.g08.bks.cpg/sg2_268_cif.got.tgz:534350.got - 2010.06.03 11:33:40.
