data_PCOD9101333
_publ_section_title
;
Structure prediction by ZEFSAII (Michael W. Deem and Ramdas Pophale) SiO2 
 PCOD9101333
Probable space group: P -1
;
_chemical_formula_sum "Si O2"
_cell_formula_units_Z 15
_cell_length_a 8.133446
_cell_length_b 14.114134
_cell_length_c 11.104499
_cell_angle_alpha 59.078432
_cell_angle_beta 40.964240
_cell_angle_gamma 44.048637
_cell_volume 579.879938
_symmetry_space_group_name_H-M "P -1"
_symmetry_group_IT_number 2
_symmetry_cell_setting 'triclinic'
loop_
_space_group_symop_operation_xyz
x,y,z
-x,-y,-z
loop_
_atom_site_type_symbol
_atom_site_label
_atom_site_fract_x
_atom_site_fract_y
_atom_site_fract_z
Si Si1 0.112370 0.657654 0.548783
Si Si2 0.857162 0.917537 0.676617
Si Si3 0.745874 0.254255 0.816527
Si Si4 0.027142 0.024208 0.178610
Si Si5 0.452280 0.719933 0.843438
Si Si6 0.151270 0.420327 0.597447
Si Si7 0.554854 0.879995 0.405348
Si Si8 0.500000 0.500000 0.000000
O O1 0.033613 0.765689 0.625645
O O2 0.756423 0.713921 0.668490
O O3 0.294548 0.674236 0.332264
O O4 0.255155 0.497731 0.570960
O O5 0.854829 0.925432 0.815707
O O6 0.527811 0.018974 0.726177
O O7 0.000000 0.000000 0.500000
O O8 0.102871 0.181627 0.699719
O O9 0.544448 0.345201 0.983867
O O10 0.716293 0.131253 0.896621
O O11 0.851663 0.130415 0.099446
O O12 0.731781 0.036623 0.397653
O O13 0.419683 0.615831 0.857685
O O14 0.416007 0.259662 0.541172
O O15 0.000000 0.500000 0.500000
O O16 0.875194 0.431506 0.813605
#
# Coordination Sequence:
#
# PCOD9101333 Si02
#       8
#     2   2   2   2   2   2   2   1
#     4  11  21  40  64  90 126 156 200 255 304 362
#     4  10  22  39  63  82 126 175 195 245 306 356
#     4  12  20  37  63  93 120 150 201 263 299 350
#     4  11  22  38  60  88 126 162 205 246 301 365
#     4  11  22  36  64  94 115 155 207 250 307 355
#     4  11  20  35  63  95 117 156 200 253 309 354
#     4  11  19  36  62  89 121 158 197 251 309 347
#     4  10  20  38  58  88 126 148 190 258 302 358
#
# _framework density 25.867422000000001
#
# number of rings (size 3 to 8) (size 9 to 14) (size 15 to 20)
#    0.000    1.067    6.667    2.400    0.000    0.000 
#    0.000    5.333    2.933    1.600    0.000    0.000 
#    0.000    0.000    0.000    0.000    0.000    0.000 
#
# Total GULP energy -83564.910159 kJ/mol
# GULP energy per Si atom -5570.994011 kJ/mol
# Density = 2.580855 g / cm^3
# Si number density = 25.867422 Si / 1000 Ang^3
#
#
#
# Elastic Constant Matrix: (Units=GPa)
#
#
# Indices 1 2 3 4 5 6 
#
# 1 58.7576 30.1820 11.5492 1.1236 12.2804 31.2250
# 2 30.1820 169.7201 14.8375 -1.5420 11.8822 40.4360
# 3 11.5492 14.8375 105.1816 -1.9991 4.6493 5.2166
# 4 1.1236 -1.5420 -1.9991 42.5326 3.4286 -1.4063
# 5 12.2804 11.8822 4.6493 3.4286 26.2884 1.0152
# 6 31.2250 40.4360 5.2166 -1.4063 1.0152 44.8356
#
#
#
# Elastic Compliance Matrix: (Units=1/GPa)
#
#
# Indices 1 2 3 4 5 6 
#
# 1 0.031767 0.000808 -0.001888 -0.000513 -0.013942 -0.022333
# 2 0.000808 0.007835 -0.000662 0.000271 -0.003549 -0.007463
# 3 -0.001888 -0.000662 0.009808 0.000567 -0.000658 0.000803
# 4 -0.000513 0.000271 0.000567 0.023842 -0.003126 0.000866
# 5 -0.013942 -0.003549 -0.000658 -0.003126 0.046223 0.011842
# 6 -0.022333 -0.007463 0.000803 0.000866 0.011842 0.044254
#
#
# Mechanical properties :
#
#
# Convention : Reuss Voigt Hill
#
# Bulk Modulus (GPa) = 21.77373 49.64409 35.70891
# Shear Modulus (GPa) = 27.39401 41.20403 34.29902
#
# Velocity S-wave (km/s) = 3.25778 3.99544 3.64532
# Velocity P-wave (km/s) = 4.75253 6.36538 5.61715
#
# Compressibility (1/GPa) = 0.04592690
#
# Stress axis : x y z
#
# Youngs Moduli (GPa) = 31.47927 127.62750 101.95687
#
# Poissons Ratio (x) = -0.10313 0.19249
# Poissons Ratio (y) = -0.02544 0.06748
# Poissons Ratio (z) = 0.05943 0.08447
#
# Static dielectric constant tensor:
#      x y z
#    x 2.416960 0.370480 -0.048100 
#    y 0.370480 2.725170 -0.077560 
#    z -0.048100 -0.077560 2.090700 
# 
# From -- ./inp_files/393964.got.cif
#   From: 2010.05.17/outbox.cif.g08.bks.cpg/sg2_197_cif.got.tgz:393964.got - 2010.06.03 11:33:40.
