data_PCOD9101738
_publ_section_title
;
Structure prediction by ZEFSAII (Michael W. Deem and Ramdas Pophale) SiO2 
 PCOD9101738
Probable space group: P -1
;
_chemical_formula_sum "Si O2"
_cell_formula_units_Z 14
_cell_length_a 15.754011
_cell_length_b 24.352252
_cell_length_c 13.101606
_cell_angle_alpha 157.556908
_cell_angle_beta 155.473572
_cell_angle_gamma 22.286829
_cell_volume 674.087803
_symmetry_space_group_name_H-M "P -1"
_symmetry_group_IT_number 2
_symmetry_cell_setting 'triclinic'
loop_
_space_group_symop_operation_xyz
x,y,z
-x,-y,-z
loop_
_atom_site_type_symbol
_atom_site_label
_atom_site_fract_x
_atom_site_fract_y
_atom_site_fract_z
Si Si1 0.224589 0.555398 0.804748
Si Si2 0.399914 0.493050 0.240429
Si Si3 0.767251 0.664809 0.387139
Si Si4 0.842814 0.890702 0.081629
Si Si5 0.996772 0.877943 0.447015
Si Si6 0.286546 0.387374 0.138586
Si Si7 0.417703 0.008012 0.678070
O O1 0.247871 0.402063 0.632560
O O2 0.053185 0.601273 0.595236
O O3 0.500000 0.500000 0.000000
O O4 0.072795 0.721531 0.995441
O O5 0.418273 0.384157 0.171976
O O6 0.625782 0.519539 0.527328
O O7 0.179007 0.685413 0.346967
O O8 0.322742 0.420533 0.937698
O O9 0.579677 0.868156 0.529415
O O10 0.848973 0.877583 0.186748
O O11 0.867894 0.039428 0.314888
O O12 0.592617 0.931059 0.834044
O O13 0.828263 0.976935 0.528935
O O14 0.358663 0.197328 0.918446
O O15 0.000000 0.500000 0.000000
#
# Coordination Sequence:
#
# PCOD9101738 Si02
#       7
#     2   2   2   2   2   2   2
#     4  10  20  38  60  89 135 168 195 240 317 375
#     4  11  23  43  64  89 124 161 212 262 304 367
#     4  10  23  40  60  95 128 159 204 258 305 370
#     4  10  21  36  59  95 124 164 203 249 302 377
#     4  11  20  37  63  91 124 161 206 253 309 367
#     4  11  24  43  67  87 118 168 215 259 309 359
#     4  11  22  40  64  91 125 160 208 257 308 368
#
# _framework density 20.768808
#
# number of rings (size 3 to 8) (size 9 to 14) (size 15 to 20)
#    0.000    1.429    4.286    1.286    0.000    1.714 
#    5.143    0.714    0.000    0.000    0.000    0.000 
#    0.000    0.000    0.000    0.000    0.000    0.000 
#
# Total GULP energy -77993.404083 kJ/mol
# GULP energy per Si atom -5570.957434 kJ/mol
# Density = 2.072154 g / cm^3
# Si number density = 20.768808 Si / 1000 Ang^3
#
#
#
# Elastic Constant Matrix: (Units=GPa)
#
#
# Indices 1 2 3 4 5 6 
#
# 1 40.9665 28.0947 21.7224 -4.7609 1.6975 -0.4939
# 2 28.0947 115.7101 48.8424 -3.4996 -6.3475 -17.5092
# 3 21.7224 48.8424 100.1110 -19.5593 -19.9364 -13.1269
# 4 -4.7609 -3.4996 -19.5593 33.5808 2.1214 8.5329
# 5 1.6975 -6.3475 -19.9364 2.1214 27.6275 -1.3970
# 6 -0.4939 -17.5092 -13.1269 8.5329 -1.3970 29.9791
#
#
#
# Elastic Compliance Matrix: (Units=1/GPa)
#
#
# Indices 1 2 3 4 5 6 
#
# 1 0.032891 -0.007035 -0.005755 0.002968 -0.008388 -0.007323
# 2 -0.007035 0.013289 -0.004729 -0.004138 0.000733 0.006786
# 3 -0.005755 -0.004729 0.017766 0.007451 0.011685 0.003346
# 4 0.002968 -0.004138 0.007451 0.036444 0.000968 -0.009433
# 5 -0.008388 0.000733 0.011685 0.000968 0.045604 0.007256
# 6 -0.007323 0.006786 0.003346 -0.009433 0.007256 0.041688
#
#
# Mechanical properties :
#
#
# Convention : Reuss Voigt Hill
#
# Bulk Modulus (GPa) = 34.59399 50.45628 42.52513
# Shear Modulus (GPa) = 21.51860 28.77935 25.14898
#
# Velocity S-wave (km/s) = 3.22235 3.72654 3.48358
# Velocity P-wave (km/s) = 5.52608 6.54699 6.05808
#
# Compressibility (1/GPa) = 0.02890676
#
# Stress axis : x y z
#
# Youngs Moduli (GPa) = 30.40364 75.25165 56.28571
#
# Poissons Ratio (x) = 0.52940 0.32393
# Poissons Ratio (y) = 0.21389 0.26620
# Poissons Ratio (z) = 0.17498 0.35589
#
# Static dielectric constant tensor:
#      x y z
#    x 1.751230 -0.020960 0.014820 
#    y -0.020960 1.761710 -0.031910 
#    z 0.014820 -0.031910 1.888910 
# 
# From -- ./inp_files/333276.got.cif
#   From: 2010.05.17/outbox.cif.g08.bks.cpg/sg2_167_cif.got.tgz:333276.got - 2010.06.03 11:33:40.
