data_PCOD9101095
_publ_section_title
;
Structure prediction by ZEFSAII (Michael W. Deem and Ramdas Pophale) SiO2 
 PCOD9101095
Probable space group: P -1
;
_chemical_formula_sum "Si O2"
_cell_formula_units_Z 14
_cell_length_a 9.945928
_cell_length_b 8.990655
_cell_length_c 17.881010
_cell_angle_alpha 29.190540
_cell_angle_beta 55.569208
_cell_angle_gamma 55.540822
_cell_volume 632.755700
_symmetry_space_group_name_H-M "P -1"
_symmetry_group_IT_number 2
_symmetry_cell_setting 'triclinic'
loop_
_space_group_symop_operation_xyz
x,y,z
-x,-y,-z
loop_
_atom_site_type_symbol
_atom_site_label
_atom_site_fract_x
_atom_site_fract_y
_atom_site_fract_z
Si Si1 0.509332 0.074418 0.843338
Si Si2 0.575383 0.471131 0.196445
Si Si3 0.896964 0.244224 0.119747
Si Si4 0.686733 0.317024 0.003161
Si Si5 0.677337 0.312732 0.549834
Si Si6 0.259977 0.241771 0.336429
Si Si7 0.989101 0.563259 0.388541
O O1 0.462519 0.374323 0.778686
O O2 0.646789 0.123897 0.717754
O O3 0.563044 0.772150 0.012328
O O4 0.351008 0.003757 0.877694
O O5 0.753533 0.259547 0.220837
O O6 0.436142 0.276379 0.301657
O O7 0.014832 0.914877 0.217472
O O8 0.797057 0.300133 0.049056
O O9 0.000000 0.500000 0.000000
O O10 0.764701 0.496210 0.835354
O O11 0.500000 0.500000 0.000000
O O12 0.500000 0.500000 0.500000
O O13 0.808032 0.530556 0.430914
O O14 0.737298 0.077131 0.567337
O O15 0.121192 0.326421 0.404891
O O16 0.000000 0.500000 0.500000
#
# Coordination Sequence:
#
# PCOD9101095 Si02
#       7
#     2   2   2   2   2   2   2
#     4  10  20  37  73  98 128 176 227 280 340 399
#     4  10  21  41  71 100 130 175 236 281 344 401
#     4  12  27  45  68 106 140 178 236 291 342 407
#     4  11  20  43  76  97 135 175 238 285 344 401
#     4  12  24  44  70  96 140 182 232 276 344 419
#     4  11  23  44  75  98 138 185 233 281 350 407
#     4  12  30  46  66 102 148 186 227 282 348 414
#
# _framework density 22.125442
#
# number of rings (size 3 to 8) (size 9 to 14) (size 15 to 20)
#    0.000    0.857    4.286    3.000   10.000    1.714 
#    2.571    2.857    0.000    0.000    0.000    0.000 
#    0.000    0.000    0.000    0.000    0.000    0.000 
#
# Total GULP energy -78355.926972 kJ/mol
# GULP energy per Si atom -5596.851927 kJ/mol
# Density = 2.207508 g / cm^3
# Si number density = 22.125442 Si / 1000 Ang^3
#
#
#
# Elastic Constant Matrix: (Units=GPa)
#
#
# Indices 1 2 3 4 5 6 
#
# 1 98.0726 36.9200 23.9267 -5.0449 -12.4744 24.8148
# 2 36.9200 154.1236 15.3385 5.7450 6.1965 28.8619
# 3 23.9267 15.3385 44.1153 -0.9993 -8.4806 13.4524
# 4 -5.0449 5.7450 -0.9993 33.4074 9.5484 -11.1645
# 5 -12.4744 6.1965 -8.4806 9.5484 29.3309 -4.8048
# 6 24.8148 28.8619 13.4524 -11.1645 -4.8048 42.7503
#
#
#
# Elastic Compliance Matrix: (Units=1/GPa)
#
#
# Indices 1 2 3 4 5 6 
#
# 1 0.013844 -0.002122 -0.004451 -0.000568 0.004440 -0.004852
# 2 -0.002122 0.008242 -0.000763 -0.002656 -0.002836 -0.005104
# 3 -0.004451 -0.000763 0.028384 -0.003610 0.006663 -0.006027
# 4 -0.000568 -0.002656 -0.003610 0.037248 -0.010924 0.011759
# 5 0.004440 -0.002836 0.006663 -0.010924 0.041916 -0.000901
# 6 -0.004852 -0.005104 -0.006027 0.011759 -0.000901 0.034520
#
#
# Mechanical properties :
#
#
# Convention : Reuss Voigt Hill
#
# Bulk Modulus (GPa) = 27.93469 49.85355 38.89412
# Shear Modulus (GPa) = 26.21094 35.77282 30.99188
#
# Velocity S-wave (km/s) = 3.44561 4.02533 3.74670
# Velocity P-wave (km/s) = 5.33691 6.64722 6.02778
#
# Compressibility (1/GPa) = 0.03579779
#
# Stress axis : x y z
#
# Youngs Moduli (GPa) = 72.23103 121.33708 35.23090
#
# Poissons Ratio (x) = 0.25749 0.15680
# Poissons Ratio (y) = 0.15328 0.02689
# Poissons Ratio (z) = 0.32148 0.09262
#
# Static dielectric constant tensor:
#      x y z
#    x 1.793110 -0.004390 0.026960 
#    y -0.004390 1.811230 -0.013350 
#    z 0.026960 -0.013350 1.846380 
# 
# From -- ./inp_files/354978.got.cif
#   From: 2010.05.17/outbox.cif.g08.bks.cpg/sg2_178_cif.got.tgz:354978.got - 2010.06.03 11:33:40.
