data_PCOD9101012
_publ_section_title
;
Structure prediction by ZEFSAII (Michael W. Deem and Ramdas Pophale) SiO2 
 PCOD9101012
Probable space group: P -1
;
_chemical_formula_sum "Si O2"
_cell_formula_units_Z 16
_cell_length_a 11.905692
_cell_length_b 13.239233
_cell_length_c 9.222384
_cell_angle_alpha 56.015811
_cell_angle_beta 141.003601
_cell_angle_gamma 111.020450
_cell_volume 750.468327
_symmetry_space_group_name_H-M "P -1"
_symmetry_group_IT_number 2
_symmetry_cell_setting 'triclinic'
loop_
_space_group_symop_operation_xyz
x,y,z
-x,-y,-z
loop_
_atom_site_type_symbol
_atom_site_label
_atom_site_fract_x
_atom_site_fract_y
_atom_site_fract_z
Si Si1 0.886670 0.830319 0.978146
Si Si2 0.546155 0.295620 0.629102
Si Si3 0.671058 0.561047 0.175819
Si Si4 0.883136 0.394437 0.768541
Si Si5 0.483221 0.863570 0.535260
Si Si6 0.769490 0.517632 0.992449
Si Si7 0.828032 0.110630 0.586539
Si Si8 0.414535 0.725481 0.986496
O O1 0.685573 0.800744 0.816727
O O2 0.866178 0.964586 0.771588
O O3 0.005715 0.732386 0.076580
O O4 0.987153 0.840501 0.224212
O O5 0.729657 0.357138 0.750477
O O6 0.558154 0.172423 0.641430
O O7 0.388729 0.392735 0.320714
O O8 0.512055 0.266694 0.784217
O O9 0.775675 0.471030 0.470535
O O10 0.500000 0.500000 0.000000
O O11 0.786879 0.557033 0.147730
O O12 0.579345 0.681869 0.075689
O O13 0.042046 0.472990 0.904228
O O14 0.316391 0.828845 0.486342
O O15 0.500000 0.000000 0.500000
O O16 0.707834 0.384267 0.045217
O O17 0.720571 0.154844 0.298457
#
# Coordination Sequence:
#
# PCOD9101012 Si02
#       8
#     2   2   2   2   2   2   2   2
#     4  10  20  37  68  93 116 159 220 269 305 365
#     4  12  23  42  62  92 136 169 205 260 322 386
#     4  10  20  38  63  92 126 165 212 267 304 365
#     4  12  22  37  66  94 124 166 216 261 313 365
#     4  10  21  40  68  91 117 165 218 261 310 369
#     4  11  23  40  64  92 129 166 220 255 309 381
#     4  10  21  41  65  92 124 159 216 267 311 369
#     4  11  24  42  61  94 136 174 201 256 329 374
#
# _framework density 21.320021000000001
#
# number of rings (size 3 to 8) (size 9 to 14) (size 15 to 20)
#    0.000    1.250    5.000    3.000    0.000    0.500 
#    0.000    3.125    0.000    0.000    0.000    0.000 
#    0.000    0.000    0.000    0.000    0.000    0.000 
#
# Total GULP energy -89239.704591 kJ/mol
# GULP energy per Si atom -5577.481537 kJ/mol
# Density = 2.127150 g / cm^3
# Si number density = 21.320021 Si / 1000 Ang^3
#
#
#
# Elastic Constant Matrix: (Units=GPa)
#
#
# Indices 1 2 3 4 5 6 
#
# 1 91.3324 14.5087 36.7630 21.7273 -4.7708 -8.0233
# 2 14.5087 49.1680 6.4907 1.6313 -4.6304 -2.0597
# 3 36.7630 6.4907 104.8315 -17.7897 1.6351 -7.6536
# 4 21.7273 1.6313 -17.7897 32.9960 7.3319 8.3749
# 5 -4.7708 -4.6304 1.6351 7.3319 40.8923 12.7488
# 6 -8.0233 -2.0597 -7.6536 8.3749 12.7488 20.6594
#
#
#
# Elastic Compliance Matrix: (Units=1/GPa)
#
#
# Indices 1 2 3 4 5 6 
#
# 1 0.023500 -0.003728 -0.011450 -0.025448 0.003364 0.012753
# 2 -0.003728 0.021542 0.000070 0.001231 0.002117 -0.001080
# 3 -0.011450 0.000070 0.016474 0.018144 -0.004291 -0.003044
# 4 -0.025448 0.001231 0.018144 0.064704 -0.007468 -0.024659
# 5 0.003364 0.002117 -0.004291 -0.007468 0.031792 -0.016663
# 6 0.012753 -0.001080 -0.003044 -0.024659 -0.016663 0.072401
#
#
# Mechanical properties :
#
#
# Convention : Reuss Voigt Hill
#
# Bulk Modulus (GPa) = 31.94716 40.09519 36.02117
# Shear Modulus (GPa) = 18.44600 31.41417 24.93009
#
# Velocity S-wave (km/s) = 2.94461 3.84273 3.42325
# Velocity P-wave (km/s) = 5.15540 6.20773 5.70588
#
# Compressibility (1/GPa) = 0.03130169
#
# Stress axis : x y z
#
# Youngs Moduli (GPa) = 42.55317 46.42000 60.70209
#
# Poissons Ratio (x) = 0.17304 0.69505
# Poissons Ratio (y) = 0.15862 -0.00428
# Poissons Ratio (z) = 0.48724 -0.00327
#
# Static dielectric constant tensor:
#      x y z
#    x 1.834730 -0.027080 0.006370 
#    y -0.027080 1.922060 0.008850 
#    z 0.006370 0.008850 1.776080 
# 
# From -- ./inp_files/269900.got.cif
#   From: 2010.05.17/outbox.cif.g08.bks.cpg/sg2_135_cif.got.tgz:269900.got - 2010.06.03 11:33:40.
