data_PCOD9101308
_publ_section_title
;
Structure prediction by ZEFSAII (Michael W. Deem and Ramdas Pophale) SiO2 
 PCOD9101308
Probable space group: P -1
;
_chemical_formula_sum "Si O2"
_cell_formula_units_Z 14
_cell_length_a 12.300531
_cell_length_b 18.020706
_cell_length_c 22.645531
_cell_angle_alpha 15.819530
_cell_angle_beta 27.869702
_cell_angle_gamma 29.090442
_cell_volume 628.877455
_symmetry_space_group_name_H-M "P -1"
_symmetry_group_IT_number 2
_symmetry_cell_setting 'triclinic'
loop_
_space_group_symop_operation_xyz
x,y,z
-x,-y,-z
loop_
_atom_site_type_symbol
_atom_site_label
_atom_site_fract_x
_atom_site_fract_y
_atom_site_fract_z
Si Si1 0.887689 0.370863 0.964151
Si Si2 0.279057 0.113576 0.190157
Si Si3 0.445225 0.092097 0.248517
Si Si4 0.404223 0.094800 0.562377
Si Si5 0.807388 0.861276 0.111416
Si Si6 0.865882 0.348249 0.784748
Si Si7 0.871538 0.240001 0.201656
O O1 0.979314 0.283868 0.052546
O O2 0.696814 0.182452 0.183287
O O3 0.742004 0.678485 0.803530
O O4 0.082064 0.303178 0.872413
O O5 0.302404 0.997112 0.334842
O O6 0.060839 0.088391 0.273013
O O7 0.529329 0.966821 0.156243
O O8 0.245688 0.449554 0.956884
O O9 0.547945 0.868288 0.419136
O O10 0.653158 0.239517 0.007269
O O11 0.225227 0.347151 0.427338
O O12 0.654693 0.081627 0.420376
O O13 0.905994 0.682588 0.258964
O O14 0.903627 0.142313 0.867981
#
# Coordination Sequence:
#
# PCOD9101308 Si02
#       7
#     2   2   2   2   2   2   2
#     4  11  22  35  60  96 120 150 191 253 303 338
#     4   9  20  43  58  81 122 161 198 237 287 350
#     4  10  21  39  61  90 118 154 199 241 295 345
#     4  12  21  36  66  91 115 152 206 240 292 352
#     4  10  20  38  58  86 128 152 185 250 301 343
#     4  10  21  39  56  89 121 157 189 240 301 344
#     4  10  21  38  63  83 116 163 202 236 281 357
#
# _framework density 22.261889
#
# number of rings (size 3 to 8) (size 9 to 14) (size 15 to 20)
#    0.000    1.714    5.714    0.857    0.000    1.714 
#    0.000    0.000    0.000    3.429    0.000    0.000 
#    0.000    0.000    0.000    0.000    0.000    0.000 
#
# Total GULP energy -78202.214608 kJ/mol
# GULP energy per Si atom -5585.872472 kJ/mol
# Density = 2.221122 g / cm^3
# Si number density = 22.261889 Si / 1000 Ang^3
#
#
#
# Elastic Constant Matrix: (Units=GPa)
#
#
# Indices 1 2 3 4 5 6 
#
# 1 95.8003 50.0415 14.5781 -12.9145 18.6082 -31.7359
# 2 50.0415 144.5027 8.9687 2.3482 8.1686 -4.9830
# 3 14.5781 8.9687 26.3220 -4.7546 18.9307 -6.4578
# 4 -12.9145 2.3482 -4.7546 10.1672 -5.2877 5.9975
# 5 18.6082 8.1686 18.9307 -5.2877 24.6382 -2.2110
# 6 -31.7359 -4.9830 -6.4578 5.9975 -2.2110 45.5535
#
#
#
# Elastic Compliance Matrix: (Units=1/GPa)
#
#
# Indices 1 2 3 4 5 6 
#
# 1 0.023049 -0.007423 0.007540 0.018705 -0.015550 0.013097
# 2 -0.007423 0.009618 -0.003908 -0.010037 0.002978 -0.003208
# 3 0.007540 -0.003908 0.091455 0.008132 -0.071735 0.013238
# 4 0.018705 -0.010037 0.008132 0.137042 0.011971 -0.004376
# 5 -0.015550 0.002978 -0.071735 0.011971 0.107502 -0.017035
# 6 0.013097 -0.003208 0.013238 -0.004376 -0.017035 0.032352
#
#
# Mechanical properties :
#
#
# Convention : Reuss Voigt Hill
#
# Bulk Modulus (GPa) = 8.58080 45.97797 27.27938
# Shear Modulus (GPa) = 11.17449 28.94090 20.05770
#
# Velocity S-wave (km/s) = 2.24287 3.60949 3.00490
# Velocity P-wave (km/s) = 3.25117 6.17003 4.93150
#
# Compressibility (1/GPa) = 0.11653927
#
# Stress axis : x y z
#
# Youngs Moduli (GPa) = 43.38512 103.97572 10.93432
#
# Poissons Ratio (x) = 0.77184 -0.08244
# Poissons Ratio (y) = 0.32206 0.04273
# Poissons Ratio (z) = -0.32711 0.40631
#
# Static dielectric constant tensor:
#      x y z
#    x 1.857270 0.018000 0.013350 
#    y 0.018000 1.836080 0.034330 
#    z 0.013350 0.034330 1.841820 
# 
# From -- ./inp_files/595906.got.cif
#   From: 2010.05.17/outbox.cif.g08.bks.cpg/sg2_298_cif.got.tgz:595906.got - 2010.06.03 11:33:40.
