data_PCOD9101737
_publ_section_title
;
Structure prediction by ZEFSAII (Michael W. Deem and Ramdas Pophale) SiO2 
 PCOD9101737
Probable space group: P -1
;
_chemical_formula_sum "Si O2"
_cell_formula_units_Z 14
_cell_length_a 8.534265
_cell_length_b 11.041578
_cell_length_c 8.666246
_cell_angle_alpha 94.788606
_cell_angle_beta 126.725624
_cell_angle_gamma 94.620945
_cell_volume 643.492690
_symmetry_space_group_name_H-M "P -1"
_symmetry_group_IT_number 2
_symmetry_cell_setting 'triclinic'
loop_
_space_group_symop_operation_xyz
x,y,z
-x,-y,-z
loop_
_atom_site_type_symbol
_atom_site_label
_atom_site_fract_x
_atom_site_fract_y
_atom_site_fract_z
Si Si1 0.070903 0.370651 0.486142
Si Si2 0.969941 0.988201 0.295412
Si Si3 0.610951 0.839547 0.889658
Si Si4 0.082783 0.232175 0.185958
Si Si5 0.948410 0.370194 0.868281
Si Si6 0.774641 0.206879 0.509630
Si Si7 0.354525 0.373174 0.910982
O O1 0.111146 0.348296 0.329927
O O2 0.268932 0.348364 0.687916
O O3 0.000000 0.500000 0.500000
O O4 0.901340 0.266683 0.444845
O O5 0.105895 0.883561 0.335970
O O6 0.038577 0.112424 0.254524
O O7 0.000000 0.000000 0.500000
O O8 0.753262 0.936483 0.090500
O O9 0.741712 0.790326 0.826759
O O10 0.423477 0.868511 0.687906
O O11 0.540597 0.727939 0.954728
O O12 0.920777 0.267531 0.975897
O O13 0.773652 0.323824 0.637062
O O14 0.150805 0.372076 0.887578
O O15 0.000000 0.500000 0.000000
O O16 0.500000 0.500000 0.000000
#
# Coordination Sequence:
#
# PCOD9101737 Si02
#       7
#     2   2   2   2   2   2   2
#     4  11  21  40  65  94 131 174 217 268 328 387
#     4  12  23  47  68  91 137 170 219 274 327 394
#     4  11  24  41  67 100 129 169 223 268 331 386
#     4  11  22  41  68  93 131 175 208 277 330 374
#     4  10  22  41  64  95 134 167 213 271 323 380
#     4  11  23  43  65  96 130 172 220 265 324 398
#     4  10  20  38  60  89 131 168 209 264 315 388
#
# _framework density 21.756267999999999
#
# number of rings (size 3 to 8) (size 9 to 14) (size 15 to 20)
#    0.000    1.143    5.714    3.000    0.000    2.286 
#    0.000    3.571    0.000    0.000    0.000    0.000 
#    0.000    0.000    0.000    0.000    0.000    0.000 
#
# Total GULP energy -77976.914151 kJ/mol
# GULP energy per Si atom -5569.779582 kJ/mol
# Density = 2.170675 g / cm^3
# Si number density = 21.756268 Si / 1000 Ang^3
#
#
#
# Elastic Constant Matrix: (Units=GPa)
#
#
# Indices 1 2 3 4 5 6 
#
# 1 23.5951 16.2551 40.5534 9.5377 -20.7751 5.4524
# 2 16.2551 103.3983 26.4453 -8.0754 -7.1767 11.2260
# 3 40.5534 26.4453 170.4589 15.1305 -12.8349 6.8503
# 4 9.5377 -8.0754 15.1305 33.6402 0.4574 -13.1007
# 5 -20.7751 -7.1767 -12.8349 0.4574 44.8852 3.9993
# 6 5.4524 11.2260 6.8503 -13.1007 3.9993 26.0094
#
#
#
# Elastic Compliance Matrix: (Units=1/GPa)
#
#
# Indices 1 2 3 4 5 6 
#
# 1 0.851426 -0.065619 -0.118503 -0.346383 0.384649 -0.352567
# 2 -0.065619 0.015766 0.007561 0.028593 -0.028091 0.023681
# 3 -0.118503 0.007561 0.023374 0.043147 -0.051411 0.045060
# 4 -0.346383 0.028593 0.043147 0.181866 -0.159979 0.165111
# 5 0.384649 -0.028091 -0.051411 -0.159979 0.197536 -0.165923
# 6 -0.352567 0.023681 0.045060 0.165111 -0.165923 0.198945
#
#
# Mechanical properties :
#
#
# Convention : Reuss Voigt Hill
#
# Bulk Modulus (GPa) = 1.86066 51.55110 26.70588
# Shear Modulus (GPa) = 2.49852 35.18684 18.84268
#
# Velocity S-wave (km/s) = 1.07280 4.02595 2.94612
# Velocity P-wave (km/s) = 1.54649 6.73479 4.88615
#
# Compressibility (1/GPa) = 0.53744339
#
# Stress axis : x y z
#
# Youngs Moduli (GPa) = 1.17450 63.42813 42.78176
#
# Poissons Ratio (x) = 4.16211 5.06975
# Poissons Ratio (y) = 0.07707 -0.32346
# Poissons Ratio (z) = 0.13918 -0.47955
#
# Static dielectric constant tensor:
#      x y z
#    x 1.843490 -0.085710 -0.019020 
#    y -0.085710 1.868630 0.041110 
#    z -0.019020 0.041110 1.973250 
# 
# From -- ./inp_files/180577.got.cif
#   From: 2010.05.17/outbox.cif.g08.bks.cpg/sg2_91_cif.got.tgz:180577.got - 2010.06.03 11:33:40.
