data_PCOD9101309
_publ_section_title
;
Structure prediction by ZEFSAII (Michael W. Deem and Ramdas Pophale) SiO2 
 PCOD9101309
Probable space group: P -1
;
_chemical_formula_sum "Si O2"
_cell_formula_units_Z 15
_cell_length_a 10.792793
_cell_length_b 5.413283
_cell_length_c 11.614750
_cell_angle_alpha 61.620040
_cell_angle_beta 70.912310
_cell_angle_gamma 84.814840
_cell_volume 562.474266
_symmetry_space_group_name_H-M "P -1"
_symmetry_group_IT_number 2
_symmetry_cell_setting 'triclinic'
loop_
_space_group_symop_operation_xyz
x,y,z
-x,-y,-z
loop_
_atom_site_type_symbol
_atom_site_label
_atom_site_fract_x
_atom_site_fract_y
_atom_site_fract_z
Si Si1 0.468574 0.753556 0.658091
Si Si2 0.011452 0.746369 0.197859
Si Si3 0.257429 0.080267 0.762470
Si Si4 0.326712 0.132794 0.230016
Si Si5 0.097111 0.275910 0.402864
Si Si6 0.000000 0.500000 0.000000
Si Si7 0.690492 0.492657 0.540617
Si Si8 0.746998 0.820581 0.995985
O O1 0.540068 0.511048 0.623433
O O2 0.500000 0.000000 0.500000
O O3 0.328888 0.840994 0.726942
O O4 0.553425 0.765282 0.747420
O O5 0.009401 0.537707 0.352579
O O6 0.984488 0.589454 0.121728
O O7 0.902009 0.977717 0.182985
O O8 0.151888 0.910881 0.119400
O O9 0.287481 0.381613 0.620977
O O10 0.299893 0.135570 0.869174
O O11 0.284367 0.820954 0.361963
O O12 0.193380 0.282532 0.261713
O O13 0.356540 0.172683 0.077556
O O14 0.206337 0.304830 0.462431
O O15 0.000000 0.000000 0.500000
O O16 0.156422 0.427738 0.989406
#
# Coordination Sequence:
#
# PCOD9101309 Si02
#       8
#     2   2   2   2   2   1   2   2
#     4   9  22  44  64  91 130 169 224 272 324 382
#     4  11  22  39  61  95 131 170 209 267 329 392
#     4  10  22  39  63  92 127 171 218 264 317 396
#     4  11  22  41  68  91 129 174 213 277 330 378
#     4  11  23  36  64  97 126 166 217 268 326 392
#     4  10  20  38  58  86 132 174 198 250 328 388
#     4  10  22  42  66  91 128 169 218 274 325 382
#     4  11  23  40  65  95 133 173 213 268 333 393
#
# _framework density 26.667885999999999
#
# number of rings (size 3 to 8) (size 9 to 14) (size 15 to 20)
#    0.000    1.600    2.667    2.400    1.867    4.800 
#    0.000   11.333    0.000    0.000    0.000    0.000 
#    0.000    0.000    0.000    0.000    0.000    0.000 
#
# Total GULP energy -83704.450529 kJ/mol
# GULP energy per Si atom -5580.296702 kJ/mol
# Density = 2.660719 g / cm^3
# Si number density = 26.667886 Si / 1000 Ang^3
#
#
#
# Elastic Constant Matrix: (Units=GPa)
#
#
# Indices 1 2 3 4 5 6 
#
# 1 96.3102 8.8964 42.5356 4.1692 20.2335 -10.8266
# 2 8.8964 58.3854 17.6018 8.6645 -7.2710 -28.3921
# 3 42.5356 17.6018 158.0187 9.2902 23.3728 1.1362
# 4 4.1692 8.6645 9.2902 46.7750 -2.0933 -0.6920
# 5 20.2335 -7.2710 23.3728 -2.0933 51.8376 11.8365
# 6 -10.8266 -28.3921 1.1362 -0.6920 11.8365 39.0292
#
#
#
# Elastic Compliance Matrix: (Units=1/GPa)
#
#
# Indices 1 2 3 4 5 6 
#
# 1 0.013432 0.001507 -0.003002 -0.001017 -0.005196 0.006468
# 2 0.001507 0.029169 -0.003541 -0.004515 -0.000031 0.021670
# 3 -0.003002 -0.003541 0.007933 -0.000797 -0.002256 -0.002969
# 4 -0.001017 -0.004515 -0.000797 0.022493 0.001880 -0.003715
# 5 -0.005196 -0.000031 -0.002256 0.001880 0.024410 -0.008768
# 6 0.006468 0.021670 -0.002969 -0.003715 -0.008768 0.045860
#
#
# Mechanical properties :
#
#
# Convention : Reuss Voigt Hill
#
# Bulk Modulus (GPa) = 24.71332 50.08687 37.40009
# Shear Modulus (GPa) = 29.96599 43.77374 36.86986
#
# Velocity S-wave (km/s) = 3.35576 4.05586 3.72231
# Velocity P-wave (km/s) = 4.92971 6.38403 5.70342
#
# Compressibility (1/GPa) = 0.04046402
#
# Stress axis : x y z
#
# Youngs Moduli (GPa) = 74.44727 34.28241 126.06098
#
# Poissons Ratio (x) = -0.05167 0.37841
# Poissons Ratio (y) = -0.11221 0.44635
# Poissons Ratio (z) = 0.22347 0.12138
#
# Static dielectric constant tensor:
#      x y z
#    x 2.220820 0.063390 -0.044410 
#    y 0.063390 2.158670 0.029000 
#    z -0.044410 0.029000 2.056310 
# 
# From -- ./inp_files/410032.got.cif
#   From: 2010.05.17/outbox.cif.g08.bks.cpg/sg2_206_cif.got.tgz:410032.got - 2010.06.03 11:33:40.
