data_PCOD9101261
_publ_section_title
;
Structure prediction by ZEFSAII (Michael W. Deem and Ramdas Pophale) SiO2 
 PCOD9101261
Probable space group: P -1
;
_chemical_formula_sum "Si O2"
_cell_formula_units_Z 15
_cell_length_a 7.147940
_cell_length_b 12.292218
_cell_length_c 10.791273
_cell_angle_alpha 128.900070
_cell_angle_beta 119.422610
_cell_angle_gamma 55.112045
_cell_volume 592.185503
_symmetry_space_group_name_H-M "P -1"
_symmetry_group_IT_number 2
_symmetry_cell_setting 'triclinic'
loop_
_space_group_symop_operation_xyz
x,y,z
-x,-y,-z
loop_
_atom_site_type_symbol
_atom_site_label
_atom_site_fract_x
_atom_site_fract_y
_atom_site_fract_z
Si Si1 0.270119 0.172502 0.432222
Si Si2 0.882230 0.228540 0.140706
Si Si3 0.625070 0.836235 0.280090
Si Si4 0.000000 0.500000 0.000000
Si Si5 0.217279 0.479690 0.297589
Si Si6 0.707674 0.342745 0.917671
Si Si7 0.531157 0.848370 0.978039
Si Si8 0.353454 0.456734 0.584638
O O1 0.195899 0.185233 0.562320
O O2 0.356064 0.306284 0.534968
O O3 0.086295 0.181438 0.272333
O O4 0.483146 0.015929 0.363933
O O5 0.722415 0.401460 0.248872
O O6 0.906890 0.247824 0.016195
O O7 0.726124 0.132456 0.047769
O O8 0.439220 0.765112 0.212608
O O9 0.676693 0.797938 0.121364
O O10 0.000744 0.524472 0.168030
O O11 0.167729 0.599746 0.107802
O O12 0.171565 0.492433 0.436844
O O13 0.393203 0.563976 0.397245
O O14 0.364613 0.301778 0.181128
O O15 0.500000 0.500000 0.000000
O O16 0.500000 0.000000 0.000000
#
# Coordination Sequence:
#
# PCOD9101261 Si02
#       8
#     2   2   2   1   2   2   2   2
#     4  11  21  37  58  85 115 158 208 251 308 372
#     4  10  22  37  62  89 116 161 212 254 303 372
#     4  10  23  38  59  86 123 162 200 256 313 364
#     4  12  22  36  62  90 118 160 202 248 306 366
#     4  10  22  35  56  89 116 151 205 250 301 366
#     4  11  23  42  63  92 127 162 208 260 310 368
#     4  10  21  40  59  82 121 164 199 254 315 364
#     4  10  20  38  58  82 120 157 197 256 308 360
#
# _framework density 25.329901
#
# number of rings (size 3 to 8) (size 9 to 14) (size 15 to 20)
#    0.000    1.600    0.000    6.000    0.000    5.333 
#    0.000    0.667    0.000    0.000    0.000    0.000 
#    0.000    0.000    0.000    0.000    0.000    0.000 
#
# Total GULP energy -83604.952487 kJ/mol
# GULP energy per Si atom -5573.663499 kJ/mol
# Density = 2.527225 g / cm^3
# Si number density = 25.329901 Si / 1000 Ang^3
#
#
#
# Elastic Constant Matrix: (Units=GPa)
#
#
# Indices 1 2 3 4 5 6 
#
# 1 78.4505 30.6063 9.1726 7.3205 15.8717 28.3989
# 2 30.6063 127.4743 54.1543 -13.1562 22.7017 32.4218
# 3 9.1726 54.1543 116.7243 -37.2068 -5.1481 16.6454
# 4 7.3205 -13.1562 -37.2068 73.6534 3.5179 1.4394
# 5 15.8717 22.7017 -5.1481 3.5179 29.6165 3.9539
# 6 28.3989 32.4218 16.6454 1.4394 3.9539 37.4985
#
#
#
# Elastic Compliance Matrix: (Units=1/GPa)
#
#
# Indices 1 2 3 4 5 6 
#
# 1 0.019669 0.000628 -0.000699 -0.001486 -0.009083 -0.014115
# 2 0.000628 0.014632 -0.005921 0.000285 -0.011373 -0.009311
# 3 -0.000699 -0.005921 0.013648 0.005608 0.006798 -0.001342
# 4 -0.001486 0.000285 0.005608 0.016658 -0.000128 -0.002237
# 5 -0.009083 -0.011373 0.006798 -0.000128 0.047385 0.008703
# 6 -0.014115 -0.009311 -0.001342 -0.002237 0.008703 0.045171
#
#
# Mechanical properties :
#
#
# Convention : Reuss Voigt Hill
#
# Bulk Modulus (GPa) = 27.80341 56.72397 42.26369
# Shear Modulus (GPa) = 27.60376 43.40140 35.50258
#
# Velocity S-wave (km/s) = 3.30475 4.14387 3.74787
# Velocity P-wave (km/s) = 5.05590 6.73337 5.95401
#
# Compressibility (1/GPa) = 0.03596681
#
# Stress axis : x y z
#
# Youngs Moduli (GPa) = 50.84090 68.34344 73.27216
#
# Poissons Ratio (x) = -0.04295 0.05120
# Poissons Ratio (y) = -0.03195 0.43383
# Poissons Ratio (z) = 0.03552 0.40465
#
# Static dielectric constant tensor:
#      x y z
#    x 2.038820 -0.053390 -0.002830 
#    y -0.053390 2.074940 -0.094850 
#    z -0.002830 -0.094850 2.026020 
# 
# From -- ./inp_files/393217.got.cif
#   From: 2010.05.17/outbox.cif.g08.bks.cpg/sg2_197_cif.got.tgz:393217.got - 2010.06.03 11:33:40.
