data_PCOD9101878
_publ_section_title
;
Structure prediction by ZEFSAII (Michael W. Deem and Ramdas Pophale) SiO2 
 PCOD9101878
Probable space group: P -1
;
_chemical_formula_sum "Si O2"
_cell_formula_units_Z 16
_cell_length_a 12.940486
_cell_length_b 9.479267
_cell_length_c 7.484774
_cell_angle_alpha 83.647457
_cell_angle_beta 88.231960
_cell_angle_gamma 128.513449
_cell_volume 708.092244
_symmetry_space_group_name_H-M "P -1"
_symmetry_group_IT_number 2
_symmetry_cell_setting 'triclinic'
loop_
_space_group_symop_operation_xyz
x,y,z
-x,-y,-z
loop_
_atom_site_type_symbol
_atom_site_label
_atom_site_fract_x
_atom_site_fract_y
_atom_site_fract_z
Si Si1 0.663604 0.777283 0.075889
Si Si2 0.925731 0.299040 0.879922
Si Si3 0.595145 0.025241 0.192577
Si Si4 0.868915 0.306881 0.277602
Si Si5 0.954496 0.171138 0.571839
Si Si6 0.322234 0.711289 0.158974
Si Si7 0.798047 0.799041 0.410790
Si Si8 0.369094 0.427743 0.236653
O O1 0.771589 0.817585 0.206644
O O2 0.524687 0.587147 0.175844
O O3 0.641408 0.926623 0.087727
O O4 0.680953 0.729278 0.884532
O O5 0.901674 0.144036 0.779049
O O6 0.815396 0.321609 0.826380
O O7 0.071331 0.486368 0.794982
O O8 0.914903 0.268535 0.096267
O O9 0.709779 0.147060 0.316715
O O10 0.440694 0.861560 0.268236
O O11 0.612000 0.178935 0.046902
O O12 0.935976 0.300599 0.448260
O O13 0.104817 0.249779 0.567099
O O14 0.872646 0.989982 0.483069
O O15 0.304822 0.528034 0.193542
O O16 0.666739 0.654405 0.552504
#
# Coordination Sequence:
#
# PCOD9101878 Si02
#       8
#     2   2   2   2   2   2   2   2
#     4  10  21  41  65  91 122 162 201 251 312 363
#     4  10  22  38  64  85 120 163 204 250 313 361
#     4   9  18  36  63  88 122 154 197 255 304 358
#     4  10  20  38  61  85 120 159 200 256 302 358
#     4  11  24  39  57  89 121 165 205 249 300 362
#     4   9  19  37  61  92 121 153 202 255 302 361
#     4  11  24  38  60  88 127 160 206 254 296 364
#     4  10  22  39  66  92 122 161 201 251 310 367
#
# _framework density 22.595924
#
# number of rings (size 3 to 8) (size 9 to 14) (size 15 to 20)
#    0.000    2.000    1.250    1.500    3.500    4.000 
#    0.000    3.125    2.750    0.000    0.000    0.000 
#    0.000    0.000    0.000    0.000    0.000    0.000 
#
# Total GULP energy -89303.101885 kJ/mol
# GULP energy per Si atom -5581.443868 kJ/mol
# Density = 2.254450 g / cm^3
# Si number density = 22.595924 Si / 1000 Ang^3
#
#
#
# Elastic Constant Matrix: (Units=GPa)
#
#
# Indices 1 2 3 4 5 6 
#
# 1 55.7847 11.0580 9.9660 13.9669 12.8921 14.8291
# 2 11.0580 80.7603 6.6474 9.5232 -2.8076 7.1332
# 3 9.9660 6.6474 63.4081 14.1321 8.8094 -7.7526
# 4 13.9669 9.5232 14.1321 29.7171 0.3940 5.5559
# 5 12.8921 -2.8076 8.8094 0.3940 28.5659 -1.2578
# 6 14.8291 7.1332 -7.7526 5.5559 -1.2578 17.5263
#
#
#
# Elastic Compliance Matrix: (Units=1/GPa)
#
#
# Indices 1 2 3 4 5 6 
#
# 1 0.030901 -0.001188 -0.004534 -0.006854 -0.013736 -0.026481
# 2 -0.001188 0.013387 -0.001542 -0.002230 0.002171 -0.004263
# 3 -0.004534 -0.001542 0.021717 -0.010874 -0.003894 0.017238
# 4 -0.006854 -0.002230 -0.010874 0.044930 0.005080 -0.011982
# 5 -0.013736 0.002171 -0.003894 0.005080 0.043012 0.010493
# 6 -0.026481 -0.004263 0.017238 -0.011982 0.010493 0.093374
#
#
# Mechanical properties :
#
#
# Convention : Reuss Voigt Hill
#
# Bulk Modulus (GPa) = 19.42664 28.36622 23.89643
# Shear Modulus (GPa) = 17.92049 26.64730 22.28390
#
# Velocity S-wave (km/s) = 2.81923 3.43781 3.14377
# Velocity P-wave (km/s) = 4.38332 5.32344 4.87609
#
# Compressibility (1/GPa) = 0.05147572
#
# Stress axis : x y z
#
# Youngs Moduli (GPa) = 32.36100 74.69994 46.04644
#
# Poissons Ratio (x) = 0.08877 0.20878
# Poissons Ratio (y) = 0.03846 0.07102
# Poissons Ratio (z) = 0.14673 0.11522
#
# Static dielectric constant tensor:
#      x y z
#    x 1.869620 0.035130 -0.014720 
#    y 0.035130 1.892340 0.013950 
#    z -0.014720 0.013950 1.821260 
# 
# From -- ./inp_files/239118.got.cif
#   From: 2010.05.17/outbox.cif.g08.bks.cpg/sg2_120_cif.got.tgz:239118.got - 2010.06.03 11:33:40.
