data_PCOD9101031
_publ_section_title
;
Structure prediction by ZEFSAII (Michael W. Deem and Ramdas Pophale) SiO2 
 PCOD9101031
Probable space group: P -1
;
_chemical_formula_sum "Si O2"
_cell_formula_units_Z 14
_cell_length_a 8.645244
_cell_length_b 12.594068
_cell_length_c 13.947095
_cell_angle_alpha 129.306126
_cell_angle_beta 84.952622
_cell_angle_gamma 52.843112
_cell_volume 605.218860
_symmetry_space_group_name_H-M "P -1"
_symmetry_group_IT_number 2
_symmetry_cell_setting 'triclinic'
loop_
_space_group_symop_operation_xyz
x,y,z
-x,-y,-z
loop_
_atom_site_type_symbol
_atom_site_label
_atom_site_fract_x
_atom_site_fract_y
_atom_site_fract_z
Si Si1 0.926664 0.468929 0.391265
Si Si2 0.286350 0.526884 0.850368
Si Si3 0.884686 0.743376 0.427502
Si Si4 0.246592 0.898481 0.711131
Si Si5 0.840043 0.246521 0.203390
Si Si6 0.890007 0.047580 0.639036
Si Si7 0.808602 0.697236 0.214566
O O1 0.037303 0.494809 0.321401
O O2 0.569626 0.710333 0.557428
O O3 0.029942 0.234581 0.225887
O O4 0.000000 0.500000 0.500000
O O5 0.359818 0.538754 0.750059
O O6 0.536110 0.351723 0.819757
O O7 0.253447 0.389254 0.765763
O O8 0.965143 0.829008 0.071159
O O9 0.946664 0.699802 0.284604
O O10 0.950402 0.838986 0.526979
O O11 0.526802 0.998192 0.614612
O O12 0.284195 0.742727 0.692950
O O13 0.054979 0.998233 0.686851
O O14 0.000000 0.000000 0.000000
O O15 0.000000 0.000000 0.500000
O O16 0.000000 0.500000 0.000000
#
# Coordination Sequence:
#
# PCOD9101031 Si02
#       7
#     2   2   2   2   2   2   2
#     4  12  24  43  71  95 132 181 233 280 339 406
#     4  10  21  41  68  98 133 172 220 281 333 409
#     4  10  23  40  63 100 134 171 227 279 332 408
#     4  11  24  42  69  95 133 180 225 276 343 407
#     4  10  22  43  68  97 137 178 222 283 342 405
#     4  11  24  40  67 102 136 174 221 272 347 408
#     4  10  20  37  68  95 134 174 217 277 343 397
#
# _framework density 23.132126
#
# number of rings (size 3 to 8) (size 9 to 14) (size 15 to 20)
#    0.000    1.429    1.429    3.429    6.000    1.143 
#    0.000    2.857    9.429    0.000    0.000    0.000 
#    0.000    0.000    0.000    0.000    0.000    0.000 
#
# Total GULP energy -78027.303444 kJ/mol
# GULP energy per Si atom -5573.378817 kJ/mol
# Density = 2.307948 g / cm^3
# Si number density = 23.132126 Si / 1000 Ang^3
#
#
#
# Elastic Constant Matrix: (Units=GPa)
#
#
# Indices 1 2 3 4 5 6 
#
# 1 93.2759 49.2116 5.1784 8.1999 29.0361 -5.8877
# 2 49.2116 104.1532 4.8763 -10.6133 14.2852 13.1617
# 3 5.1784 4.8763 104.3333 -0.4894 19.8130 -3.6251
# 4 8.1999 -10.6133 -0.4894 26.2443 3.6285 18.0059
# 5 29.0361 14.2852 19.8130 3.6285 35.9149 -0.1316
# 6 -5.8877 13.1617 -3.6251 18.0059 -0.1316 56.5178
#
#
#
# Elastic Compliance Matrix: (Units=1/GPa)
#
#
# Indices 1 2 3 4 5 6 
#
# 1 0.024110 -0.013031 0.002319 -0.018888 -0.013638 0.011681
# 2 -0.013031 0.019220 -0.000826 0.020078 0.001272 -0.012280
# 3 0.002319 -0.000826 0.010981 -0.000745 -0.007524 0.001358
# 4 -0.018888 0.020078 -0.000745 0.072515 0.000260 -0.029793
# 5 -0.013638 0.001272 -0.007524 0.000260 0.042480 -0.002184
# 6 0.011681 -0.012280 0.001358 -0.029793 -0.002184 0.031344
#
#
# Mechanical properties :
#
#
# Convention : Reuss Voigt Hill
#
# Bulk Modulus (GPa) = 32.01314 46.69943 39.35629
# Shear Modulus (GPa) = 21.35511 39.90183 30.62847
#
# Velocity S-wave (km/s) = 3.04168 4.15776 3.64272
# Velocity P-wave (km/s) = 5.11909 6.57885 5.89433
#
# Compressibility (1/GPa) = 0.03123717
#
# Stress axis : x y z
#
# Youngs Moduli (GPa) = 41.47640 52.02897 91.06899
#
# Poissons Ratio (x) = 0.67797 -0.21123
# Poissons Ratio (y) = 0.54047 0.07519
# Poissons Ratio (z) = -0.09620 0.04296
#
# Static dielectric constant tensor:
#      x y z
#    x 1.885750 -0.014820 -0.005450 
#    y -0.014820 1.982550 -0.021910 
#    z -0.005450 -0.021910 1.965090 
# 
# From -- ./inp_files/499417.got.cif
#   From: 2010.05.17/outbox.cif.g08.bks.cpg/sg2_250_cif.got.tgz:499417.got - 2010.06.03 11:33:40.
