data_PCOD9101853
_publ_section_title
;
Structure prediction by ZEFSAII (Michael W. Deem and Ramdas Pophale) SiO2 
 PCOD9101853
Probable space group: P -1
;
_chemical_formula_sum "Si O2"
_cell_formula_units_Z 12
_cell_length_a 15.256491
_cell_length_b 7.327607
_cell_length_c 7.327601
_cell_angle_alpha 39.405851
_cell_angle_beta 123.060264
_cell_angle_gamma 123.060272
_cell_volume 423.823918
_symmetry_space_group_name_H-M "P -1"
_symmetry_group_IT_number 2
_symmetry_cell_setting 'triclinic'
loop_
_space_group_symop_operation_xyz
x,y,z
-x,-y,-z
loop_
_atom_site_type_symbol
_atom_site_label
_atom_site_fract_x
_atom_site_fract_y
_atom_site_fract_z
Si Si1 0.267963 0.929449 0.976738
Si Si2 0.874865 0.706253 0.027936
Si Si3 0.232040 0.523265 0.570556
Si Si4 0.072129 0.861489 0.551592
Si Si5 0.625132 0.472061 0.793741
Si Si6 0.572127 0.051590 0.361484
O O1 0.298242 0.267504 0.816377
O O2 0.192080 0.960202 0.697783
O O3 0.201761 0.683627 0.232501
O O4 0.362628 0.771399 0.153444
O O5 0.862626 0.653442 0.271395
O O6 0.944658 0.488358 0.198985
O O7 0.918935 0.013256 0.740588
O O8 0.749999 0.591015 0.908980
O O9 0.307921 0.802219 0.539805
O O10 0.000000 0.000000 0.500000
O O11 0.581064 0.759412 0.486737
O O12 0.555339 0.301015 0.011635
O O13 0.500000 0.000000 0.500000
#
# Coordination Sequence:
#
# PCOD9101853 Si02
#       6
#     2   2   2   2   2   2
#     4  11  22  39  62  90 120 157 203 251 297 353
#     4  10  20  38  61  84 116 163 202 232 291 374
#     4  11  22  39  62  90 120 157 203 251 297 353
#     4  11  22  39  61  88 119 158 201 245 295 357
#     4  10  20  38  61  84 116 163 202 232 291 374
#     4  11  22  39  61  88 119 158 201 245 295 357
#
# _framework density 28.313647
#
# number of rings (size 3 to 8) (size 9 to 14) (size 15 to 20)
#    0.000    1.333    0.000   10.000    0.000    0.000 
#    0.000   10.000    0.000    0.000    0.000    0.000 
#    0.000    0.000    0.000    0.000    0.000    0.000 
#
# Total GULP energy -67253.160019 kJ/mol
# GULP energy per Si atom -5604.430002 kJ/mol
# Density = 2.824920 g / cm^3
# Si number density = 28.313647 Si / 1000 Ang^3
#
#
#
# Elastic Constant Matrix: (Units=GPa)
#
#
# Indices 1 2 3 4 5 6 
#
# 1 154.2011 31.0546 54.4528 -7.3023 -0.7618 -2.6675
# 2 31.0546 71.1945 33.6079 -24.0331 8.4342 -13.6486
# 3 54.4528 33.6079 191.5738 -13.5409 -14.9062 -8.9455
# 4 -7.3023 -24.0331 -13.5409 54.0162 -18.1100 5.8078
# 5 -0.7618 8.4342 -14.9062 -18.1100 70.2692 -7.3159
# 6 -2.6675 -13.6486 -8.9455 5.8078 -7.3159 46.8311
#
#
#
# Elastic Compliance Matrix: (Units=1/GPa)
#
#
# Indices 1 2 3 4 5 6 
#
# 1 0.007634 -0.002825 -0.001768 -0.000660 -0.000194 -0.000674
# 2 -0.002825 0.019483 -0.001951 0.007182 -0.000497 0.004176
# 3 -0.001768 -0.001951 0.006318 0.001037 0.001896 0.000705
# 4 -0.000660 0.007182 0.001037 0.023696 0.005476 0.000170
# 5 -0.000194 -0.000497 0.001896 0.005476 0.016318 0.002076
# 6 -0.000674 0.004176 0.000705 0.000170 0.002076 0.022970
#
#
# Mechanical properties :
#
#
# Convention : Reuss Voigt Hill
#
# Bulk Modulus (GPa) = 49.14331 72.80000 60.97165
# Shear Modulus (GPa) = 42.99592 54.08024 48.53808
#
# Velocity S-wave (km/s) = 3.90110 4.37514 4.14490
# Velocity P-wave (km/s) = 6.13888 7.16173 6.66994
#
# Compressibility (1/GPa) = 0.02034865
#
# Stress axis : x y z
#
# Youngs Moduli (GPa) = 130.98896 51.32659 158.26925
#
# Poissons Ratio (x) = 0.14499 0.27976
# Poissons Ratio (y) = 0.37002 0.30879
# Poissons Ratio (z) = 0.23154 0.10014
#
# Static dielectric constant tensor:
#      x y z
#    x 2.189090 -0.005860 -0.001680 
#    y -0.005860 2.267780 0.067750 
#    z -0.001680 0.067750 2.050740 
# 
# From -- ./inp_files/193524.got.cif
#   From: 2010.05.17/outbox.cif.g08.bks.cpg/sg2_97_cif.got.tgz:193524.got - 2010.06.03 11:33:40.
