data_PCOD9101243
_publ_section_title
;
Structure prediction by ZEFSAII (Michael W. Deem and Ramdas Pophale) SiO2 
 PCOD9101243
Probable space group: P -1
;
_chemical_formula_sum "Si O2"
_cell_formula_units_Z 16
_cell_length_a 12.242249
_cell_length_b 30.160047
_cell_length_c 22.025218
_cell_angle_alpha 19.354810
_cell_angle_beta 160.687855
_cell_angle_gamma 151.254572
_cell_volume 884.417068
_symmetry_space_group_name_H-M "P -1"
_symmetry_group_IT_number 2
_symmetry_cell_setting 'triclinic'
loop_
_space_group_symop_operation_xyz
x,y,z
-x,-y,-z
loop_
_atom_site_type_symbol
_atom_site_label
_atom_site_fract_x
_atom_site_fract_y
_atom_site_fract_z
Si Si1 0.125687 0.867654 0.668583
Si Si2 0.656371 0.418596 0.743068
Si Si3 0.176427 0.598062 0.834095
Si Si4 0.746356 0.415493 0.442298
Si Si5 0.854383 0.656309 0.710308
Si Si6 0.091663 0.167085 0.269232
Si Si7 0.362886 0.662054 0.720945
Si Si8 0.191382 0.287398 0.737739
O O1 0.039898 0.756794 0.718929
O O2 0.881531 0.857794 0.611445
O O3 0.076627 0.020870 0.422333
O O4 0.512080 0.832627 0.938142
O O5 0.500000 0.500000 0.500000
O O6 0.406809 0.410750 0.678123
O O7 0.975126 0.480799 0.853844
O O8 0.755482 0.269944 0.959999
O O9 0.270931 0.682929 0.716397
O O10 0.939982 0.678032 0.656948
O O11 0.498858 0.520815 0.136309
O O12 0.522599 0.340572 0.468159
O O13 0.000000 0.500000 0.500000
O O14 0.953203 0.313655 0.636161
O O15 0.000000 0.500000 0.000000
O O16 0.363357 0.248147 0.276136
O O17 0.044257 0.704605 0.455554
O O18 0.500000 0.500000 0.000000
#
# Coordination Sequence:
#
# PCOD9101243 Si02
#       8
#     2   2   2   2   2   2   2   2
#     4  10  22  39  59  84 115 164 193 238 298 346
#     4  11  19  34  58  90 116 149 188 235 293 353
#     4  11  21  35  56  85 119 149 189 246 296 340
#     4  11  20  33  55  85 115 147 191 244 292 336
#     4  10  20  38  58  79 117 154 199 240 291 347
#     4  10  21  38  58  86 121 154 193 242 293 349
#     4  12  20  35  55  90 118 149 189 251 301 337
#     4  11  19  31  56  85 115 144 200 236 290 348
#
# _framework density 18.091011999999999
#
# number of rings (size 3 to 8) (size 9 to 14) (size 15 to 20)
#    0.000    1.250    3.750    6.000    0.000    0.500 
#    0.000    1.875    0.000    0.750    0.000    0.000 
#    0.000    0.000    0.000    0.000    0.000    0.000 
#
# Total GULP energy -89146.201295 kJ/mol
# GULP energy per Si atom -5571.637581 kJ/mol
# Density = 1.804984 g / cm^3
# Si number density = 18.091012 Si / 1000 Ang^3
#
#
#
# Elastic Constant Matrix: (Units=GPa)
#
#
# Indices 1 2 3 4 5 6 
#
# 1 149.8830 47.6261 31.3424 0.6204 9.1158 19.5422
# 2 47.6261 92.4792 51.2648 -7.9632 0.5398 2.7363
# 3 31.3424 51.2648 76.9550 2.0098 0.3636 -3.9943
# 4 0.6204 -7.9632 2.0098 33.2582 1.5832 -0.6806
# 5 9.1158 0.5398 0.3636 1.5832 21.8056 5.2976
# 6 19.5422 2.7363 -3.9943 -0.6806 5.2976 37.6050
#
#
#
# Elastic Compliance Matrix: (Units=1/GPa)
#
#
# Indices 1 2 3 4 5 6 
#
# 1 0.008834 -0.003812 -0.001234 -0.000968 -0.002510 -0.004108
# 2 -0.003812 0.019830 -0.011846 0.005467 0.001092 -0.000775
# 3 -0.001234 -0.011846 0.021690 -0.004039 -0.000172 0.003758
# 4 -0.000968 0.005467 -0.004039 0.031750 -0.002102 0.000547
# 5 -0.002510 0.001092 -0.000172 -0.002102 0.048410 -0.005651
# 6 -0.004108 -0.000775 0.003758 0.000547 -0.005651 0.029989
#
#
# Mechanical properties :
#
#
# Convention : Reuss Voigt Hill
#
# Bulk Modulus (GPa) = 60.35260 64.42043 62.38651
# Shear Modulus (GPa) = 25.02358 31.13934 28.08146
#
# Velocity S-wave (km/s) = 3.72318 4.15331 3.94411
# Velocity P-wave (km/s) = 7.20526 7.66070 7.43647
#
# Compressibility (1/GPa) = 0.01656929
#
# Stress axis : x y z
#
# Youngs Moduli (GPa) = 113.20437 50.42752 46.10391
#
# Poissons Ratio (x) = 0.19223 0.05691
# Poissons Ratio (y) = 0.43154 0.54615
# Poissons Ratio (z) = 0.13974 0.59736
#
# Static dielectric constant tensor:
#      x y z
#    x 1.687250 0.018450 0.025910 
#    y 0.018450 1.634620 0.013740 
#    z 0.025910 0.013740 1.643170 
# 
# From -- ./inp_files/594862.got.cif
#   From: 2010.05.17/outbox.cif.g08.bks.cpg/sg2_298_cif.got.tgz:594862.got - 2010.06.03 11:33:40.
