data_PCOD9101544
_publ_section_title
;
Structure prediction by ZEFSAII (Michael W. Deem and Ramdas Pophale) SiO2 
 PCOD9101544
Probable space group: P -1
;
_chemical_formula_sum "Si O2"
_cell_formula_units_Z 13
_cell_length_a 6.361599
_cell_length_b 15.032929
_cell_length_c 6.627712
_cell_angle_alpha 80.032648
_cell_angle_beta 70.575440
_cell_angle_gamma 54.482439
_cell_volume 486.366886
_symmetry_space_group_name_H-M "P -1"
_symmetry_group_IT_number 2
_symmetry_cell_setting 'triclinic'
loop_
_space_group_symop_operation_xyz
x,y,z
-x,-y,-z
loop_
_atom_site_type_symbol
_atom_site_label
_atom_site_fract_x
_atom_site_fract_y
_atom_site_fract_z
Si Si1 0.991505 0.598426 0.860909
Si Si2 0.449456 0.082111 0.300800
Si Si3 0.204168 0.583909 0.196974
Si Si4 0.000000 0.500000 0.500000
Si Si5 0.389942 0.737623 0.120571
Si Si6 0.859482 0.887680 0.997826
Si Si7 0.625997 0.772507 0.376314
O O1 0.094545 0.556605 0.623884
O O2 0.181299 0.607298 0.955788
O O3 0.683076 0.697473 0.959230
O O4 0.000000 0.500000 0.000000
O O5 0.419312 0.178765 0.406750
O O6 0.500000 0.000000 0.500000
O O7 0.693198 0.010913 0.091821
O O8 0.198252 0.114822 0.219972
O O9 0.876957 0.643050 0.342593
O O10 0.271408 0.467813 0.287406
O O11 0.341100 0.641991 0.211360
O O12 0.380711 0.786710 0.324909
O O13 0.161328 0.821294 0.007307
O O14 0.735474 0.831000 0.184398
#
# Coordination Sequence:
#
# PCOD9101544 Si02
#       7
#     2   2   2   1   2   2   2
#     4   9  20  39  57  81 117 151 192 248 299 350
#     4   9  18  37  60  84 121 159 193 243 298 348
#     4   9  20  38  58  85 119 153 196 247 297 351
#     4  10  20  38  60  80 112 156 192 240 304 354
#     4  10  20  38  62  87 120 161 202 246 297 356
#     4   9  19  37  59  84 119 160 199 243 294 348
#     4   9  19  36  57  86 122 156 196 245 292 348
#
# _framework density 26.728793
#
# number of rings (size 3 to 8) (size 9 to 14) (size 15 to 20)
#    0.000    2.769    0.000    0.000    0.000    6.769 
#    0.000   39.231    0.000    0.000    0.000    0.000 
#    0.000    0.000    0.000    0.000    0.000    0.000 
#
# Total GULP energy -72381.899796 kJ/mol
# GULP energy per Si atom -5567.838446 kJ/mol
# Density = 2.666796 g / cm^3
# Si number density = 26.728793 Si / 1000 Ang^3
#
#
#
# Elastic Constant Matrix: (Units=GPa)
#
#
# Indices 1 2 3 4 5 6 
#
# 1 135.5531 26.3437 74.3052 7.7250 15.6780 21.5107
# 2 26.3437 59.9193 30.7404 20.5905 5.6234 14.0583
# 3 74.3052 30.7404 173.9388 9.2982 57.0668 9.5867
# 4 7.7250 20.5905 9.2982 61.8888 12.4655 11.7777
# 5 15.6780 5.6234 57.0668 12.4655 53.7940 5.0749
# 6 21.5107 14.0583 9.5867 11.7777 5.0749 44.2213
#
#
#
# Elastic Compliance Matrix: (Units=1/GPa)
#
#
# Indices 1 2 3 4 5 6 
#
# 1 0.010713 -0.001525 -0.004963 0.000143 0.002645 -0.003992
# 2 -0.001525 0.022386 -0.004193 -0.006739 0.004509 -0.004189
# 3 -0.004963 -0.004193 0.012266 0.002197 -0.011812 0.001858
# 4 0.000143 -0.006739 0.002197 0.019827 -0.005980 -0.002998
# 5 0.002645 0.004509 -0.011812 -0.005980 0.031468 -0.002178
# 6 -0.003992 -0.004189 0.001858 -0.002998 -0.002178 0.026533
#
#
# Mechanical properties :
#
#
# Convention : Reuss Voigt Hill
#
# Bulk Modulus (GPa) = 41.66059 70.24332 55.95196
# Shear Modulus (GPa) = 32.77503 47.84895 40.31199
#
# Velocity S-wave (km/s) = 3.50552 4.23562 3.88775
# Velocity P-wave (km/s) = 5.65731 7.08927 6.41338
#
# Compressibility (1/GPa) = 0.02400350
#
# Stress axis : x y z
#
# Youngs Moduli (GPa) = 93.34217 44.67089 81.52940
#
# Poissons Ratio (x) = 0.06811 0.40460
# Poissons Ratio (y) = 0.14232 0.34188
# Poissons Ratio (z) = 0.46322 0.18732
#
# Static dielectric constant tensor:
#      x y z
#    x 2.195130 -0.047190 0.097650 
#    y -0.047190 0.617660 0.978700 
#    z 0.097650 0.978700 1.760180 
# 
# From -- ./inp_files/6705.got.cif
#   From: 2010.05.17/outbox.cif.g08.bks.cpg/sg2_4_cif.got.tgz:6705.got - 2010.06.03 11:33:40.
