data_PCOD9101695
_publ_section_title
;
Structure prediction by ZEFSAII (Michael W. Deem and Ramdas Pophale) SiO2 
 PCOD9101695
Probable space group: P -1
;
_chemical_formula_sum "Si O2"
_cell_formula_units_Z 16
_cell_length_a 14.057531
_cell_length_b 7.908907
_cell_length_c 13.451598
_cell_angle_alpha 125.953796
_cell_angle_beta 149.039620
_cell_angle_gamma 67.758561
_cell_volume 594.097940
_symmetry_space_group_name_H-M "P -1"
_symmetry_group_IT_number 2
_symmetry_cell_setting 'triclinic'
loop_
_space_group_symop_operation_xyz
x,y,z
-x,-y,-z
loop_
_atom_site_type_symbol
_atom_site_label
_atom_site_fract_x
_atom_site_fract_y
_atom_site_fract_z
Si Si1 0.594537 0.620678 0.970916
Si Si2 0.709858 0.183622 0.267402
Si Si3 0.220454 0.832713 0.189417
Si Si4 0.364651 0.828272 0.110288
Si Si5 0.647615 0.555538 0.770121
Si Si6 0.218762 0.286494 0.264244
Si Si7 0.741324 0.976308 0.395348
Si Si8 0.018603 0.749699 0.638658
O O1 0.368486 0.611319 0.753414
O O2 0.686312 0.631712 0.946299
O O3 0.598736 0.402279 0.953502
O O4 0.704936 0.804602 0.211583
O O5 0.844439 0.131795 0.287861
O O6 0.814003 0.195457 0.470761
O O7 0.500000 0.000000 0.000000
O O8 0.286653 0.666452 0.264163
O O9 0.214161 0.084553 0.265622
O O10 0.371832 0.858768 0.243732
O O11 0.997263 0.696825 0.918960
O O12 0.149990 0.796504 0.869416
O O13 0.540016 0.989898 0.264791
O O14 0.414226 0.478390 0.528783
O O15 0.743233 0.727456 0.827662
O O16 0.857855 0.875930 0.541840
O O17 0.000000 0.500000 0.500000
#
# Coordination Sequence:
#
# PCOD9101695 Si02
#       8
#     2   2   2   2   2   2   2   2
#     4  10  20  38  60  88 122 167 196 249 303 362
#     4  10  21  37  58  80 125 164 200 250 295 348
#     4  10  23  40  67  93 123 160 208 256 314 373
#     4  11  22  39  60  91 123 166 202 250 301 364
#     4  10  22  40  68  92 125 158 207 256 320 370
#     4  10  22  43  66  92 122 158 204 264 321 369
#     4  11  22  38  59  87 129 166 204 245 299 355
#     4  12  22  36  61  85 122 167 208 243 292 360
#
# _framework density 26.931585999999999
#
# number of rings (size 3 to 8) (size 9 to 14) (size 15 to 20)
#    0.000    1.500    3.750    2.250    1.750    3.000 
#    0.000    0.000    0.000    0.000    0.000    0.000 
#    0.000    0.000    0.000    0.000    0.000    0.000 
#
# Total GULP energy -89234.368267 kJ/mol
# GULP energy per Si atom -5577.148017 kJ/mol
# Density = 2.687029 g / cm^3
# Si number density = 26.931586 Si / 1000 Ang^3
#
#
#
# Elastic Constant Matrix: (Units=GPa)
#
#
# Indices 1 2 3 4 5 6 
#
# 1 98.1278 -10.9348 10.3348 3.9714 1.8678 18.0545
# 2 -10.9348 104.5359 39.4531 -19.1976 -8.8750 4.8429
# 3 10.3348 39.4531 75.5356 -20.0849 3.1627 3.5635
# 4 3.9714 -19.1976 -20.0849 45.6604 3.8686 2.3043
# 5 1.8678 -8.8750 3.1627 3.8686 30.3554 -6.8912
# 6 18.0545 4.8429 3.5635 2.3043 -6.8912 30.5217
#
#
#
# Elastic Compliance Matrix: (Units=1/GPa)
#
#
# Indices 1 2 3 4 5 6 
#
# 1 0.012182 0.002387 -0.002699 -0.000746 -0.001384 -0.007526
# 2 0.002387 0.013136 -0.006663 0.002180 0.003642 -0.002061
# 3 -0.002699 -0.006663 0.019007 0.006259 -0.004815 -0.001125
# 4 -0.000746 0.002180 0.006259 0.026162 -0.004106 -0.003537
# 5 -0.001384 0.003642 -0.004815 -0.004106 0.037282 0.009530
# 6 -0.007526 -0.002061 -0.001125 -0.003537 0.009530 0.040093
#
#
# Mechanical properties :
#
#
# Convention : Reuss Voigt Hill
#
# Bulk Modulus (GPa) = 32.92194 39.54507 36.23350
# Shear Modulus (GPa) = 29.08058 37.26390 33.17224
#
# Velocity S-wave (km/s) = 3.28959 3.72378 3.51340
# Velocity P-wave (km/s) = 5.16520 5.76230 5.47190
#
# Compressibility (1/GPa) = 0.03037488
#
# Stress axis : x y z
#
# Youngs Moduli (GPa) = 82.08648 76.12954 52.61143
#
# Poissons Ratio (x) = -0.18173 0.14200
# Poissons Ratio (y) = -0.19595 0.35056
# Poissons Ratio (z) = 0.22155 0.50727
#
# Static dielectric constant tensor:
#      x y z
#    x 2.178640 0.105240 -0.003370 
#    y 0.105240 2.573250 0.010680 
#    z -0.003370 0.010680 2.202160 
# 
# From -- ./inp_files/529011.got.cif
#   From: 2010.05.17/outbox.cif.g08.bks.cpg/sg2_265_cif.got.tgz:529011.got - 2010.06.03 11:33:40.
