data_PCOD9101079
_publ_section_title
;
Structure prediction by ZEFSAII (Michael W. Deem and Ramdas Pophale) SiO2 
 PCOD9101079
Probable space group: P -1
;
_chemical_formula_sum "Si O2"
_cell_formula_units_Z 14
_cell_length_a 16.805141
_cell_length_b 18.475124
_cell_length_c 7.222619
_cell_angle_alpha 116.810082
_cell_angle_beta 134.210426
_cell_angle_gamma 24.592408
_cell_volume 528.232520
_symmetry_space_group_name_H-M "P -1"
_symmetry_group_IT_number 2
_symmetry_cell_setting 'triclinic'
loop_
_space_group_symop_operation_xyz
x,y,z
-x,-y,-z
loop_
_atom_site_type_symbol
_atom_site_label
_atom_site_fract_x
_atom_site_fract_y
_atom_site_fract_z
Si Si1 0.190432 0.780252 0.885959
Si Si2 0.638700 0.669673 0.240186
Si Si3 0.869046 0.693649 0.064732
Si Si4 0.426582 0.417326 0.255099
Si Si5 0.890084 0.301821 0.597254
Si Si6 0.679673 0.678165 0.914400
Si Si7 0.970304 0.922681 0.085027
O O1 0.037833 0.833217 0.533252
O O2 0.119773 0.921884 0.908827
O O3 0.553306 0.537133 0.229790
O O4 0.056401 0.832964 0.918162
O O5 0.881259 0.498080 0.596171
O O6 0.645222 0.575656 0.046955
O O7 0.694986 0.684927 0.165486
O O8 0.321571 0.911899 0.093383
O O9 0.874744 0.786890 0.177986
O O10 0.007373 0.569274 0.951263
O O11 0.607194 0.808747 0.832789
O O12 0.176467 0.634084 0.219327
O O13 0.502541 0.283747 0.346543
O O14 0.709792 0.282148 0.531547
#
# Coordination Sequence:
#
# PCOD9101079 Si02
#       7
#     2   2   2   2   2   2   2
#     4   9  18  28  51  74  95 135 166 196 245 297
#     4  10  18  29  51  77  99 129 161 206 240 294
#     4  10  16  32  52  72  99 131 160 206 247 276
#     4   8  18  30  47  72 104 121 163 205 234 291
#     4   9  16  32  48  72 102 125 168 204 238 289
#     4   8  19  29  48  78  99 123 168 205 235 289
#     4  10  17  30  49  74 101 130 161 199 248 291
#
# _framework density 26.503478000000001
#
# number of rings (size 3 to 8) (size 9 to 14) (size 15 to 20)
#    0.857    2.000    1.429    0.857    2.000    0.000 
#    0.000    0.714    3.143    1.714    0.000    0.000 
#    0.000    0.000    0.000    0.000    0.000    0.000 
#
# Total GULP energy -78065.320585 kJ/mol
# GULP energy per Si atom -5576.094327 kJ/mol
# Density = 2.644315 g / cm^3
# Si number density = 26.503478 Si / 1000 Ang^3
#
#
#
# Elastic Constant Matrix: (Units=GPa)
#
#
# Indices 1 2 3 4 5 6 
#
# 1 134.9366 22.8471 10.4847 7.7648 23.8002 -38.0813
# 2 22.8471 87.0740 15.4200 15.7519 3.1021 -17.5429
# 3 10.4847 15.4200 74.3093 22.7975 7.9233 -0.1482
# 4 7.7648 15.7519 22.7975 28.6167 -0.1944 -2.9215
# 5 23.8002 3.1021 7.9233 -0.1944 34.7958 3.8291
# 6 -38.0813 -17.5429 -0.1482 -2.9215 3.8291 36.6125
#
#
#
# Elastic Compliance Matrix: (Units=1/GPa)
#
#
# Indices 1 2 3 4 5 6 
#
# 1 0.013873 0.000342 -0.000068 -0.002384 -0.011231 0.015577
# 2 0.000342 0.014176 -0.000711 -0.006646 -0.002125 0.006837
# 3 -0.000068 -0.000711 0.018477 -0.014447 -0.004061 -0.001065
# 4 -0.002384 -0.006646 -0.014447 0.050563 0.006051 -0.002321
# 5 -0.011231 -0.002125 -0.004061 0.006051 0.039369 -0.016351
# 6 0.015577 0.006837 -0.001065 -0.002321 -0.016351 0.048311
#
#
# Mechanical properties :
#
#
# Convention : Reuss Voigt Hill
#
# Bulk Modulus (GPa) = 21.90500 43.75814 32.83157
# Shear Modulus (GPa) = 24.89287 36.50952 30.70119
#
# Velocity S-wave (km/s) = 3.06801 3.71555 3.40720
# Velocity P-wave (km/s) = 4.56433 5.91212 5.28140
#
# Compressibility (1/GPa) = 0.04565168
#
# Stress axis : x y z
#
# Youngs Moduli (GPa) = 72.08487 70.54092 54.12029
#
# Poissons Ratio (x) = -0.02411 0.00370
# Poissons Ratio (y) = -0.02464 0.03846
# Poissons Ratio (z) = 0.00492 0.05013
#
# Static dielectric constant tensor:
#      x y z
#    x 2.255230 0.046460 0.009620 
#    y 0.046460 2.200730 -0.028920 
#    z 0.009620 -0.028920 2.088560 
# 
# From -- ./inp_files/220004.got.cif
#   From: 2010.05.17/outbox.cif.g08.bks.cpg/sg2_111_cif.got.tgz:220004.got - 2010.06.03 11:33:40.
