data_PCOD9101150
_publ_section_title
;
Structure prediction by ZEFSAII (Michael W. Deem and Ramdas Pophale) SiO2 
 PCOD9101150
Probable space group: P -1
;
_chemical_formula_sum "Si O2"
_cell_formula_units_Z 14
_cell_length_a 10.291772
_cell_length_b 11.720843
_cell_length_c 10.200280
_cell_angle_alpha 143.485101
_cell_angle_beta 105.323445
_cell_angle_gamma 53.436834
_cell_volume 525.507829
_symmetry_space_group_name_H-M "P -1"
_symmetry_group_IT_number 2
_symmetry_cell_setting 'triclinic'
loop_
_space_group_symop_operation_xyz
x,y,z
-x,-y,-z
loop_
_atom_site_type_symbol
_atom_site_label
_atom_site_fract_x
_atom_site_fract_y
_atom_site_fract_z
Si Si1 0.049463 0.172261 0.500730
Si Si2 0.328939 0.602980 0.138745
Si Si3 0.706967 0.776193 0.327028
Si Si4 0.484608 0.306762 0.178077
Si Si5 0.190396 0.560947 0.543657
Si Si6 0.771697 0.755092 0.043838
Si Si7 0.119694 0.172859 0.107623
O O1 0.188001 0.207084 0.519847
O O2 0.940206 0.204593 0.376831
O O3 0.162624 0.904107 0.354343
O O4 0.905808 0.443280 0.788221
O O5 0.403005 0.508742 0.221169
O O6 0.500000 0.500000 0.000000
O O7 0.263607 0.468777 0.928900
O O8 0.750475 0.843715 0.265891
O O9 0.500000 0.000000 0.500000
O O10 0.387494 0.422101 0.402868
O O11 0.416083 0.157360 0.977769
O O12 0.702183 0.110870 0.057140
O O13 0.162757 0.357084 0.325936
O O14 0.079776 0.695766 0.774047
O O15 0.855071 0.836313 0.049779
#
# Coordination Sequence:
#
# PCOD9101150 Si02
#       7
#     2   2   2   2   2   2   2
#     4  10  20  38  56  85 119 144 189 240 282 347
#     4  11  21  35  58  88 117 154 188 234 294 338
#     4  11  22  36  56  85 119 150 191 231 286 347
#     4   9  18  31  51  83 114 144 193 235 279 343
#     4   9  18  30  55  85 109 150 189 236 288 331
#     4   9  20  34  55  84 114 154 187 237 291 331
#     4   9  16  32  52  81 117 143 193 240 275 341
#
# _framework density 26.640898
#
# number of rings (size 3 to 8) (size 9 to 14) (size 15 to 20)
#    0.000    2.571    1.429    3.000    2.000    5.143 
#    2.571    0.000    0.000    0.857    0.000   53.000 
#    0.000    4.571    0.000    0.000    0.000    0.000 
#
# Total GULP energy -78152.957021 kJ/mol
# GULP energy per Si atom -5582.354073 kJ/mol
# Density = 2.658026 g / cm^3
# Si number density = 26.640898 Si / 1000 Ang^3
#
#
#
# Elastic Constant Matrix: (Units=GPa)
#
#
# Indices 1 2 3 4 5 6 
#
# 1 108.9252 21.6646 21.9593 -4.1859 -26.3742 10.7645
# 2 21.6646 124.3149 55.8201 23.4507 -22.1603 26.8663
# 3 21.9593 55.8201 99.6908 21.6395 -1.2590 12.9722
# 4 -4.1859 23.4507 21.6395 44.6583 9.3082 -10.8268
# 5 -26.3742 -22.1603 -1.2590 9.3082 54.6119 -3.3366
# 6 10.7645 26.8663 12.9722 -10.8268 -3.3366 41.4862
#
#
#
# Elastic Compliance Matrix: (Units=1/GPa)
#
#
# Indices 1 2 3 4 5 6 
#
# 1 0.011070 0.000429 -0.002476 0.000470 0.005271 -0.001829
# 2 0.000429 0.015907 -0.005367 -0.009885 0.007569 -0.010705
# 3 -0.002476 -0.005367 0.014781 -0.004537 -0.002374 -0.001879
# 4 0.000470 -0.009885 -0.004537 0.035641 -0.008969 0.016278
# 5 0.005271 0.007569 -0.002374 -0.008969 0.025044 -0.005853
# 6 -0.001829 -0.010705 -0.001879 0.016278 -0.005853 0.035876
#
#
# Mechanical properties :
#
#
# Convention : Reuss Voigt Hill
#
# Bulk Modulus (GPa) = 37.13452 59.09100 48.11276
# Shear Modulus (GPa) = 30.84087 43.71707 37.27897
#
# Velocity S-wave (km/s) = 3.40612 4.05529 3.74480
# Velocity P-wave (km/s) = 5.42568 6.64499 6.06605
#
# Compressibility (1/GPa) = 0.02692912
#
# Stress axis : x y z
#
# Youngs Moduli (GPa) = 90.33783 62.86709 67.65597
#
# Poissons Ratio (x) = -0.02696 0.16751
# Poissons Ratio (y) = -0.03875 0.36310
# Poissons Ratio (z) = 0.22367 0.33740
#
# Static dielectric constant tensor:
#      x y z
#    x 2.358340 -0.147520 0.090960 
#    y -0.147520 2.353040 -0.088980 
#    z 0.090960 -0.088980 2.140280 
# 
# From -- ./inp_files/426919.got.cif
#   From: 2010.05.17/outbox.cif.g08.bks.cpg/sg2_214_cif.got.tgz:426919.got - 2010.06.03 11:33:40.
