data_PCOD9101188
_publ_section_title
;
Structure prediction by ZEFSAII (Michael W. Deem and Ramdas Pophale) SiO2 
 PCOD9101188
Probable space group: P -1
;
_chemical_formula_sum "Si O2"
_cell_formula_units_Z 10
_cell_length_a 9.530248
_cell_length_b 5.519192
_cell_length_c 11.575395
_cell_angle_alpha 97.732282
_cell_angle_beta 94.456779
_cell_angle_gamma 38.893017
_cell_volume 378.449083
_symmetry_space_group_name_H-M "P -1"
_symmetry_group_IT_number 2
_symmetry_cell_setting 'triclinic'
loop_
_space_group_symop_operation_xyz
x,y,z
-x,-y,-z
loop_
_atom_site_type_symbol
_atom_site_label
_atom_site_fract_x
_atom_site_fract_y
_atom_site_fract_z
Si Si1 0.300977 0.549929 0.608250
Si Si2 0.861030 0.931361 0.982220
Si Si3 0.407941 0.834161 0.805503
Si Si4 0.298017 0.359435 0.355437
Si Si5 0.005656 0.339653 0.261708
O O1 0.368199 0.699205 0.690138
O O2 0.282769 0.576921 0.471039
O O3 0.069664 0.769675 0.664430
O O4 0.493255 0.093723 0.622329
O O5 0.812343 0.962363 0.844811
O O6 0.000000 0.500000 0.000000
O O7 0.658624 0.195177 0.078827
O O8 0.000000 0.000000 0.000000
O O9 0.643207 0.634114 0.770646
O O10 0.218998 0.295358 0.800528
O O11 0.087048 0.465091 0.344757
#
# Coordination Sequence:
#
# PCOD9101188 Si02
#       5
#     2   2   2   2   2
#     4  10  20  38  57  81 121 153 190 251 299 351
#     4  10  20  39  64  87 121 160 199 250 306 355
#     4  10  21  37  59  81 118 155 194 247 300 350
#     4  10  22  36  56  88 115 152 199 246 295 358
#     4  10  21  37  59  84 115 154 201 241 299 359
#
# _framework density 26.423634
#
# number of rings (size 3 to 8) (size 9 to 14) (size 15 to 20)
#    0.000    2.000    2.000    1.200    0.000    3.200 
#    0.000    1.000    0.000    0.000    0.000    0.000 
#    0.000    0.000    0.000    0.000    0.000    0.000 
#
# Total GULP energy -55907.852864 kJ/mol
# GULP energy per Si atom -5590.785286 kJ/mol
# Density = 2.636349 g / cm^3
# Si number density = 26.423634 Si / 1000 Ang^3
#
#
#
# Elastic Constant Matrix: (Units=GPa)
#
#
# Indices 1 2 3 4 5 6 
#
# 1 112.0174 -9.3789 21.1614 6.4437 -21.1419 11.2128
# 2 -9.3789 85.8504 22.8555 -9.1295 -13.1711 8.3084
# 3 21.1614 22.8555 125.5249 16.5154 -25.1846 0.9189
# 4 6.4437 -9.1295 16.5154 45.4183 2.8122 -0.7933
# 5 -21.1419 -13.1711 -25.1846 2.8122 55.9692 10.5836
# 6 11.2128 8.3084 0.9189 -0.7933 10.5836 34.0875
#
#
#
# Elastic Compliance Matrix: (Units=1/GPa)
#
#
# Indices 1 2 3 4 5 6 
#
# 1 0.011086 0.002827 -0.001083 -0.001061 0.005565 -0.006059
# 2 0.002827 0.014132 -0.002580 0.003026 0.004123 -0.005514
# 3 -0.001083 -0.002580 0.009935 -0.004221 0.003770 -0.000551
# 4 -0.001061 0.003026 -0.004221 0.024522 -0.003055 0.001244
# 5 0.005565 0.004123 0.003770 -0.003055 0.024815 -0.010713
# 6 -0.006059 -0.005514 -0.000551 0.001244 -0.010713 0.036043
#
#
# Mechanical properties :
#
#
# Convention : Reuss Voigt Hill
#
# Bulk Modulus (GPa) = 29.86897 43.62987 36.74942
# Shear Modulus (GPa) = 37.49061 46.34533 41.91797
#
# Velocity S-wave (km/s) = 3.77082 4.19254 3.98726
# Velocity P-wave (km/s) = 5.50338 6.32330 5.92753
#
# Compressibility (1/GPa) = 0.03347956
#
# Stress axis : x y z
#
# Youngs Moduli (GPa) = 90.20161 70.76151 100.65650
#
# Poissons Ratio (x) = -0.20003 0.10904
# Poissons Ratio (y) = -0.25498 0.25972
# Poissons Ratio (z) = 0.09771 0.18258
#
# Static dielectric constant tensor:
#      x y z
#    x 2.002320 -0.013170 -0.055920 
#    y -0.013170 2.190000 0.021970 
#    z -0.055920 0.021970 2.042080 
# 
# From -- ./inp_files/1455.got.cif
#   From: 2010.05.17/outbox.cif.g08.bks.cpg/sg2_1_cif.got.tgz:1455.got - 2010.06.03 11:33:40.
