data_PCOD9101290
_publ_section_title
;
Structure prediction by ZEFSAII (Michael W. Deem and Ramdas Pophale) SiO2 
 PCOD9101290
Probable space group: P -1
;
_chemical_formula_sum "Si O2"
_cell_formula_units_Z 14
_cell_length_a 13.770078
_cell_length_b 25.620293
_cell_length_c 25.572563
_cell_angle_alpha 11.003154
_cell_angle_beta 22.337405
_cell_angle_gamma 22.992477
_cell_volume 644.493106
_symmetry_space_group_name_H-M "P -1"
_symmetry_group_IT_number 2
_symmetry_cell_setting 'triclinic'
loop_
_space_group_symop_operation_xyz
x,y,z
-x,-y,-z
loop_
_atom_site_type_symbol
_atom_site_label
_atom_site_fract_x
_atom_site_fract_y
_atom_site_fract_z
Si Si1 0.966259 0.164110 0.799627
Si Si2 0.633123 0.756414 0.361821
Si Si3 0.351183 0.764483 0.784121
Si Si4 0.752833 0.986636 0.851517
Si Si5 0.466290 0.995112 0.319509
Si Si6 0.288723 0.573858 0.885708
Si Si7 0.764199 0.462470 0.300397
O O1 0.809304 0.474857 0.573459
O O2 0.259507 0.160351 0.639924
O O3 0.809597 0.959308 0.048213
O O4 0.000000 0.000000 0.000000
O O5 0.482123 0.932923 0.311074
O O6 0.441072 0.648455 0.524178
O O7 0.500000 0.000000 0.500000
O O8 0.500000 0.500000 0.000000
O O9 0.378760 0.688503 0.783274
O O10 0.039339 0.850708 0.864227
O O11 0.785260 0.281279 0.521064
O O12 0.500000 0.000000 0.000000
O O13 0.696729 0.783984 0.032289
O O14 0.452537 0.313828 0.028986
O O15 0.252067 0.838106 0.605939
O O16 0.035506 0.447643 0.150838
#
# Coordination Sequence:
#
# PCOD9101290 Si02
#       7
#     2   2   2   2   2   2   2
#     4  10  20  38  58  85 128 175 211 264 317 349
#     4  11  22  39  63  91 130 174 216 256 314 385
#     4  11  23  45  68  94 128 168 213 274 334 388
#     4  11  24  47  70  94 133 170 217 277 339 393
#     4  11  21  38  61  92 128 170 212 254 309 384
#     4  11  23  40  63  92 130 165 205 264 325 372
#     4  11  24  43  65  94 132 169 209 267 330 379
#
# _framework density 21.722497000000001
#
# number of rings (size 3 to 8) (size 9 to 14) (size 15 to 20)
#    0.000    1.143    0.000    9.857    0.000    1.143 
#   15.429    0.000    0.000    0.000    0.000    0.000 
#    0.000    0.000    0.000    0.000    0.000    0.000 
#
# Total GULP energy -78130.609840 kJ/mol
# GULP energy per Si atom -5580.757846 kJ/mol
# Density = 2.167306 g / cm^3
# Si number density = 21.722497 Si / 1000 Ang^3
#
#
#
# Elastic Constant Matrix: (Units=GPa)
#
#
# Indices 1 2 3 4 5 6 
#
# 1 37.0283 23.9886 -4.9379 -0.8989 -25.4691 -26.1011
# 2 23.9886 83.9263 21.2763 -5.3953 -7.5348 1.4169
# 3 -4.9379 21.2763 121.7384 -7.8708 -16.2296 -9.5946
# 4 -0.8989 -5.3953 -7.8708 47.8821 2.0405 -8.4263
# 5 -25.4691 -7.5348 -16.2296 2.0405 49.7055 1.0520
# 6 -26.1011 1.4169 -9.5946 -8.4263 1.0520 19.5499
#
#
#
# Elastic Compliance Matrix: (Units=1/GPa)
#
#
# Indices 1 2 3 4 5 6 
#
# 1 -0.035843 0.011715 -0.011216 -0.010569 -0.018596 -0.057763
# 2 0.011715 0.008813 0.001531 0.004173 0.007304 0.017158
# 3 -0.011216 0.001531 0.006008 -0.001101 -0.003245 -0.012437
# 4 -0.010569 0.004173 -0.001101 0.020179 -0.005845 -0.005942
# 5 -0.018596 0.007304 -0.003245 -0.005845 0.011514 -0.030089
# 6 -0.057763 0.017158 -0.012437 -0.005942 -0.030089 -0.034258
#
#
# Mechanical properties :
#
#
# Convention : Reuss Voigt Hill
#
# Bulk Modulus (GPa) = -58.94844 35.92746 -11.51049
# Shear Modulus (GPa) = -150.14698 36.91857 -56.61420
#
# Velocity S-wave (km/s) = -8.32289 4.12704 -5.11068
# Velocity P-wave (km/s) = 10.93420 6.26778 6.33528
#
# Compressibility (1/GPa) = -0.01696398
#
# Stress axis : x y z
#
# Youngs Moduli (GPa) = -27.89914 113.46835 166.44905
#
# Poissons Ratio (x) = -1.32926 1.86693
# Poissons Ratio (y) = 0.32683 -0.25479
# Poissons Ratio (z) = -0.31292 -0.17369
#
# Static dielectric constant tensor:
#      x y z
#    x 1.833730 0.024170 -0.000440 
#    y 0.024170 2.071900 0.014960 
#    z -0.000440 0.014960 1.772930 
# 
# From -- ./inp_files/531906.got.cif
#   From: 2010.05.17/outbox.cif.g08.bks.cpg/sg2_266_cif.got.tgz:531906.got - 2010.06.03 11:33:40.
