data_PCOD9101158
_publ_section_title
;
Structure prediction by ZEFSAII (Michael W. Deem and Ramdas Pophale) SiO2 
 PCOD9101158
Probable space group: P -1
;
_chemical_formula_sum "Si O2"
_cell_formula_units_Z 16
_cell_length_a 8.571343
_cell_length_b 7.307192
_cell_length_c 14.920001
_cell_angle_alpha 70.433302
_cell_angle_beta 84.883188
_cell_angle_gamma 60.739466
_cell_volume 765.002406
_symmetry_space_group_name_H-M "P -1"
_symmetry_group_IT_number 2
_symmetry_cell_setting 'triclinic'
loop_
_space_group_symop_operation_xyz
x,y,z
-x,-y,-z
loop_
_atom_site_type_symbol
_atom_site_label
_atom_site_fract_x
_atom_site_fract_y
_atom_site_fract_z
Si Si1 0.633440 0.101348 0.236970
Si Si2 0.297021 0.615992 0.955383
Si Si3 0.094814 0.205891 0.383267
Si Si4 0.290707 0.164576 0.998220
Si Si5 0.985010 0.713635 0.306416
Si Si6 0.041800 0.724958 0.110841
Si Si7 0.761631 0.801148 0.807962
Si Si8 0.815927 0.059017 0.406148
O O1 0.710665 0.229700 0.151476
O O2 0.437683 0.162743 0.204668
O O3 0.772493 0.836704 0.270271
O O4 0.648615 0.160124 0.330215
O O5 0.260973 0.415422 0.961806
O O6 0.500000 0.500000 0.000000
O O7 0.164187 0.741523 0.024166
O O8 0.181113 0.117299 0.295960
O O9 0.208682 0.040903 0.484255
O O10 0.069373 0.451720 0.357732
O O11 0.902060 0.215722 0.393949
O O12 0.162562 0.154778 0.931514
O O13 0.236991 0.113048 0.106860
O O14 0.500000 0.000000 0.000000
O O15 0.068825 0.767894 0.205785
O O16 0.969003 0.848764 0.375188
O O17 0.103942 0.462343 0.152120
#
# Coordination Sequence:
#
# PCOD9101158 Si02
#       8
#     2   2   2   2   2   2   2   2
#     4  10  21  37  56  86 121 152 200 245 294 352
#     4  11  21  38  56  83 125 156 197 247 286 357
#     4  10  20  41  65  84 116 153 199 255 300 350
#     4  11  23  38  57  87 118 162 199 242 295 351
#     4   9  21  37  62  87 116 152 199 245 292 361
#     4  10  21  35  61  82 117 164 195 236 298 352
#     4  10  20  38  56  87 117 157 199 238 300 358
#     4   9  22  38  64  89 112 152 204 246 306 354
#
# _framework density 20.914964999999999
#
# number of rings (size 3 to 8) (size 9 to 14) (size 15 to 20)
#    0.750    1.250    2.500    2.625    5.250    1.000 
#    2.250    0.000    0.000    1.500    0.000    0.000 
#    0.000    0.000    0.000    0.000    0.000    0.000 
#
# Total GULP energy -89216.431890 kJ/mol
# GULP energy per Si atom -5576.026993 kJ/mol
# Density = 2.086736 g / cm^3
# Si number density = 20.914965 Si / 1000 Ang^3
#
#
#
# Elastic Constant Matrix: (Units=GPa)
#
#
# Indices 1 2 3 4 5 6 
#
# 1 40.5231 -2.6502 19.4429 -14.5996 -7.0476 -0.3330
# 2 -2.6502 40.3412 11.7425 -0.0860 -14.3057 2.3397
# 3 19.4429 11.7425 156.6524 -6.5026 -9.7536 4.6662
# 4 -14.5996 -0.0860 -6.5026 23.9647 2.8012 -2.3740
# 5 -7.0476 -14.3057 -9.7536 2.8012 29.7229 -1.1481
# 6 -0.3330 2.3397 4.6662 -2.3740 -1.1481 31.2800
#
#
#
# Elastic Compliance Matrix: (Units=1/GPa)
#
#
# Indices 1 2 3 4 5 6 
#
# 1 0.035468 0.006290 -0.003588 0.019891 0.008473 0.002263
# 2 0.006290 0.031476 -0.002060 0.001413 0.015782 -0.001294
# 3 -0.003588 -0.002060 0.007022 -0.000436 0.000467 -0.000948
# 4 0.019891 0.001413 -0.000436 0.054120 0.000319 0.004290
# 5 0.008473 0.015782 0.000467 0.000319 0.043390 0.000457
# 6 0.002263 -0.001294 -0.000948 0.004290 0.000457 0.032574
#
#
# Mechanical properties :
#
#
# Convention : Reuss Voigt Hill
#
# Bulk Modulus (GPa) = 13.28884 32.73191 23.01038
# Shear Modulus (GPa) = 21.94421 30.92560 26.43491
#
# Velocity S-wave (km/s) = 3.24267 3.84947 3.55903
# Velocity P-wave (km/s) = 4.51524 5.95331 5.28343
#
# Compressibility (1/GPa) = 0.07525110
#
# Stress axis : x y z
#
# Youngs Moduli (GPa) = 28.19405 31.77024 142.39980
#
# Poissons Ratio (x) = -0.19984 0.51091
# Poissons Ratio (y) = -0.17735 0.29339
# Poissons Ratio (z) = 0.10116 0.06546
#
# Static dielectric constant tensor:
#      x y z
#    x 1.724710 0.002330 -0.012610 
#    y 0.002330 1.773510 0.018590 
#    z -0.012610 0.018590 1.787340 
# 
# From -- ./inp_files/490775.got.cif
#   From: 2010.05.17/outbox.cif.g08.bks.cpg/sg2_246_cif.got.tgz:490775.got - 2010.06.03 11:33:40.
