data_PCOD9101196
_publ_section_title
;
Structure prediction by ZEFSAII (Michael W. Deem and Ramdas Pophale) SiO2 
 PCOD9101196
Probable space group: P -1
;
_chemical_formula_sum "Si O2"
_cell_formula_units_Z 12
_cell_length_a 7.679488
_cell_length_b 7.452868
_cell_length_c 10.938897
_cell_angle_alpha 71.857017
_cell_angle_beta 99.538939
_cell_angle_gamma 65.565755
_cell_volume 509.313800
_symmetry_space_group_name_H-M "P -1"
_symmetry_group_IT_number 2
_symmetry_cell_setting 'triclinic'
loop_
_space_group_symop_operation_xyz
x,y,z
-x,-y,-z
loop_
_atom_site_type_symbol
_atom_site_label
_atom_site_fract_x
_atom_site_fract_y
_atom_site_fract_z
Si Si1 0.088789 0.143580 0.814898
Si Si2 0.760384 0.279133 0.947722
Si Si3 0.081176 0.127895 0.561021
Si Si4 0.403946 0.299583 0.757553
Si Si5 0.633581 0.752180 0.519921
Si Si6 0.557750 0.324743 0.261070
O O1 0.947462 0.248063 0.893997
O O2 0.266474 0.205122 0.814304
O O3 0.967871 0.223804 0.654552
O O4 0.163485 0.886600 0.896677
O O5 0.604374 0.536305 0.892414
O O6 0.624197 0.203983 0.867052
O O7 0.298612 0.930144 0.678255
O O8 0.139140 0.282835 0.459460
O O9 0.000000 0.000000 0.500000
O O10 0.422786 0.274631 0.618810
O O11 0.313078 0.554152 0.725910
O O12 0.579490 0.629244 0.642456
O O13 0.500000 0.000000 0.500000
#
# Coordination Sequence:
#
# PCOD9101196 Si02
#       6
#     2   2   2   2   2   2
#     4  10  20  38  57  84 107 147 185 219 276 323
#     4   9  21  35  61  78 113 141 186 225 268 326
#     4  10  22  35  55  82 113 144 182 227 270 327
#     4   9  19  34  59  80 110 143 182 228 267 327
#     4   9  18  33  53  79 110 143 180 218 280 316
#     4   9  20  35  55  82 109 145 178 226 280 313
#
# _framework density 23.561115000000001
#
# number of rings (size 3 to 8) (size 9 to 14) (size 15 to 20)
#    1.000    1.667    0.000    1.000    4.667    2.000 
#    0.000    3.333    0.000    3.000    0.000    0.000 
#    0.000    0.000    0.000    0.000    0.000    0.000 
#
# Total GULP energy -66864.715925 kJ/mol
# GULP energy per Si atom -5572.059660 kJ/mol
# Density = 2.350749 g / cm^3
# Si number density = 23.561115 Si / 1000 Ang^3
#
#
#
# Elastic Constant Matrix: (Units=GPa)
#
#
# Indices 1 2 3 4 5 6 
#
# 1 103.0388 -0.6065 39.7632 9.8987 -29.4943 8.2716
# 2 -0.6065 57.9692 -3.1838 -19.8557 -7.7361 2.5923
# 3 39.7632 -3.1838 77.7576 6.6958 -35.5705 -8.5976
# 4 9.8987 -19.8557 6.6958 37.1763 -3.0981 0.2009
# 5 -29.4943 -7.7361 -35.5705 -3.0981 42.3203 1.8166
# 6 8.2716 2.5923 -8.5976 0.2009 1.8166 32.6970
#
#
#
# Elastic Compliance Matrix: (Units=1/GPa)
#
#
# Indices 1 2 3 4 5 6 
#
# 1 0.013811 0.000076 -0.004862 -0.002267 0.005605 -0.005076
# 2 0.000076 0.022739 0.003319 0.012197 0.007955 -0.001466
# 3 -0.004862 0.003319 0.024010 0.000136 0.017137 0.006327
# 4 -0.002267 0.012197 0.000136 0.034272 0.003306 -0.000752
# 5 0.005605 0.007955 0.017137 0.003306 0.043635 0.000013
# 6 -0.005076 -0.001466 0.006327 -0.000752 0.000013 0.033652
#
#
# Mechanical properties :
#
#
# Convention : Reuss Voigt Hill
#
# Bulk Modulus (GPa) = 17.35329 34.52350 25.93839
# Shear Modulus (GPa) = 25.73857 35.95823 30.84840
#
# Velocity S-wave (km/s) = 3.30876 3.91086 3.62234
# Velocity P-wave (km/s) = 4.68811 5.92264 5.34116
#
# Compressibility (1/GPa) = 0.05762596
#
# Stress axis : x y z
#
# Youngs Moduli (GPa) = 72.40438 43.97806 41.64975
#
# Poissons Ratio (x) = -0.00335 0.20248
# Poissons Ratio (y) = -0.00551 -0.13822
# Poissons Ratio (z) = 0.35200 -0.14594
#
# Static dielectric constant tensor:
#      x y z
#    x 1.924830 -0.084620 0.026670 
#    y -0.084620 1.929010 -0.046270 
#    z 0.026670 -0.046270 1.959870 
# 
# From -- ./inp_files/386661.got.cif
#   From: 2010.05.17/outbox.cif.g08.bks.cpg/sg2_194_cif.got.tgz:386661.got - 2010.06.03 11:33:40.
