data_PCOD9101584
_publ_section_title
;
Structure prediction by ZEFSAII (Michael W. Deem and Ramdas Pophale) SiO2 
 PCOD9101584
Probable space group: P -1
;
_chemical_formula_sum "Si O2"
_cell_formula_units_Z 16
_cell_length_a 5.118853
_cell_length_b 25.013886
_cell_length_c 5.182596
_cell_angle_alpha 108.886213
_cell_angle_beta 85.672267
_cell_angle_gamma 108.877188
_cell_volume 593.778669
_symmetry_space_group_name_H-M "P -1"
_symmetry_group_IT_number 2
_symmetry_cell_setting 'triclinic'
loop_
_space_group_symop_operation_xyz
x,y,z
-x,-y,-z
loop_
_atom_site_type_symbol
_atom_site_label
_atom_site_fract_x
_atom_site_fract_y
_atom_site_fract_z
Si Si1 0.105798 0.787243 0.246197
Si Si2 0.649923 0.726142 0.536555
Si Si3 0.205128 0.573074 0.796338
Si Si4 0.663847 0.960400 0.286619
Si Si5 0.949489 0.158887 0.165723
Si Si6 0.665326 0.463451 0.777069
Si Si7 0.916951 0.317780 0.270636
Si Si8 0.806731 0.932964 0.734305
O O1 0.788252 0.749225 0.287924
O O2 0.211096 0.814647 0.563084
O O3 0.144934 0.840236 0.119011
O O4 0.184796 0.735994 0.012011
O O5 0.754698 0.788451 0.781560
O O6 0.814867 0.686902 0.607672
O O7 0.328550 0.696623 0.527267
O O8 0.409716 0.562632 0.544403
O O9 0.965334 0.510949 0.771967
O O10 0.072888 0.621088 0.772246
O O11 0.336863 0.586845 0.090926
O O12 0.687056 0.913741 0.428505
O O13 0.500000 0.000000 0.500000
O O14 0.575523 0.935639 0.966357
O O15 0.970116 0.003533 0.256001
O O16 0.024095 0.105051 0.204251
O O17 0.500000 0.500000 0.000000
#
# Coordination Sequence:
#
# PCOD9101584 Si02
#       8
#     2   2   2   2   2   2   2   2
#     4   9  21  41  60  89 129 155 214 259 311 378
#     4   9  24  41  65  92 135 160 223 257 319 379
#     4  10  24  38  65  92 123 163 213 251 324 373
#     4  10  21  37  57  88 118 156 206 258 304 373
#     4   9  19  42  60  89 120 168 200 263 316 376
#     4  10  22  43  61  92 126 159 210 264 309 383
#     4  11  23  44  66  98 128 175 208 271 315 386
#     4  10  20  38  60  83 123 155 205 253 308 371
#
# _framework density 26.946068
#
# number of rings (size 3 to 8) (size 9 to 14) (size 15 to 20)
#    0.750    1.500    0.000    1.500    3.500    3.000 
#    6.750    0.000    0.000    0.000    0.000    0.000 
#    0.000    0.000    0.000    0.000    0.000    0.000 
#
# Total GULP energy -89340.435959 kJ/mol
# GULP energy per Si atom -5583.777247 kJ/mol
# Density = 2.688474 g / cm^3
# Si number density = 26.946068 Si / 1000 Ang^3
#
#
#
# Elastic Constant Matrix: (Units=GPa)
#
#
# Indices 1 2 3 4 5 6 
#
# 1 72.3415 23.2666 46.7659 -6.7185 -3.8027 -10.7802
# 2 23.2666 134.0484 61.7789 -36.3141 10.6623 -33.0855
# 3 46.7659 61.7789 222.0072 -41.4865 -9.3515 -16.4276
# 4 -6.7185 -36.3141 -41.4865 52.7985 -8.5789 1.3917
# 5 -3.8027 10.6623 -9.3515 -8.5789 28.7647 -8.9458
# 6 -10.7802 -33.0855 -16.4276 1.3917 -8.9458 40.4427
#
#
#
# Elastic Compliance Matrix: (Units=1/GPa)
#
#
# Indices 1 2 3 4 5 6 
#
# 1 0.016616 -0.001214 -0.003010 -0.000786 0.002288 0.002747
# 2 -0.001214 0.012417 -0.001197 0.007175 -0.000195 0.009059
# 3 -0.003010 -0.001197 0.006631 0.004626 0.004098 0.001659
# 4 -0.000786 0.007175 0.004626 0.028814 0.010063 0.008774
# 5 0.002288 -0.000195 0.004098 0.010063 0.042979 0.011275
# 6 0.002747 0.009059 0.001659 0.008774 0.011275 0.035735
#
#
# Mechanical properties :
#
#
# Convention : Reuss Voigt Hill
#
# Bulk Modulus (GPa) = 40.28392 76.89107 58.58750
# Shear Modulus (GPa) = 30.80546 44.17356 37.48951
#
# Velocity S-wave (km/s) = 3.38483 4.05326 3.73403
# Velocity P-wave (km/s) = 5.50076 7.10650 6.35455
#
# Compressibility (1/GPa) = 0.02482380
#
# Stress axis : x y z
#
# Youngs Moduli (GPa) = 60.18330 80.53197 150.79957
#
# Poissons Ratio (x) = 0.09777 0.45385
# Poissons Ratio (y) = 0.07306 0.18048
# Poissons Ratio (z) = 0.18113 0.09638
#
# Static dielectric constant tensor:
#      x y z
#    x 2.197490 0.011780 0.107450 
#    y 0.011780 2.113650 0.061980 
#    z 0.107450 0.061980 2.221990 
# 
# From -- ./inp_files/14147.got.cif
#   From: 2010.05.17/outbox.cif.g08.bks.cpg/sg2_8_cif.got.tgz:14147.got - 2010.06.03 11:33:40.
