data_PCOD9101796
_publ_section_title
;
Structure prediction by ZEFSAII (Michael W. Deem and Ramdas Pophale) SiO2 
 PCOD9101796
Probable space group: P -1
;
_chemical_formula_sum "Si O2"
_cell_formula_units_Z 16
_cell_length_a 13.965396
_cell_length_b 13.522572
_cell_length_c 6.440323
_cell_angle_alpha 137.708281
_cell_angle_beta 109.822758
_cell_angle_gamma 92.462896
_cell_volume 681.963329
_symmetry_space_group_name_H-M "P -1"
_symmetry_group_IT_number 2
_symmetry_cell_setting 'triclinic'
loop_
_space_group_symop_operation_xyz
x,y,z
-x,-y,-z
loop_
_atom_site_type_symbol
_atom_site_label
_atom_site_fract_x
_atom_site_fract_y
_atom_site_fract_z
Si Si1 0.735001 0.970095 0.668350
Si Si2 0.301103 0.247959 0.311731
Si Si3 0.088227 0.556928 0.465112
Si Si4 0.530264 0.692230 0.810584
Si Si5 0.389400 0.821602 0.138023
Si Si6 0.726994 0.447124 0.102404
Si Si7 0.888387 0.905175 0.407662
Si Si8 0.934684 0.651610 0.271991
O O1 0.749679 0.899073 0.787503
O O2 0.837812 0.014606 0.650603
O O3 0.705895 0.121253 0.901727
O O4 0.627671 0.810007 0.230530
O O5 0.411959 0.253330 0.288532
O O6 0.320002 0.419837 0.696700
O O7 0.210046 0.215774 0.010200
O O8 0.202679 0.565856 0.664341
O O9 0.000000 0.500000 0.500000
O O10 0.051688 0.685117 0.525533
O O11 0.056029 0.416637 0.050269
O O12 0.500000 0.500000 0.500000
O O13 0.420153 0.715803 0.828403
O O14 0.500000 0.000000 0.500000
O O15 0.373694 0.738889 0.228364
O O16 0.820823 0.513115 0.091007
O O17 0.913834 0.807879 0.458922
O O18 0.000000 0.000000 0.500000
#
# Coordination Sequence:
#
# PCOD9101796 Si02
#       8
#     2   2   2   2   2   2   2   2
#     4  10  24  43  64  97 138 167 218 275 339 388
#     4  11  22  41  67  98 126 177 227 260 323 405
#     4   9  20  35  60  93 128 161 217 274 311 375
#     4  10  21  42  71  96 127 171 224 273 328 401
#     4  10  23  45  65  98 133 166 212 282 338 382
#     4  11  20  39  68  91 127 172 217 270 315 396
#     4  11  24  40  65  93 137 176 218 270 326 394
#     4  10  20  38  60  95 123 172 224 259 317 393
#
# _framework density 23.461670999999999
#
# number of rings (size 3 to 8) (size 9 to 14) (size 15 to 20)
#    0.000    1.750    3.750    0.000    0.000    5.500 
#    0.000    2.500    0.000    0.000    0.000    0.000 
#    0.000    0.000    0.000    0.000    0.000    0.000 
#
# Total GULP energy -89280.449221 kJ/mol
# GULP energy per Si atom -5580.028076 kJ/mol
# Density = 2.340827 g / cm^3
# Si number density = 23.461671 Si / 1000 Ang^3
#
#
#
# Elastic Constant Matrix: (Units=GPa)
#
#
# Indices 1 2 3 4 5 6 
#
# 1 168.8871 53.4730 25.1007 6.6055 -37.0934 10.5613
# 2 53.4730 116.7141 12.8003 13.5803 -13.8665 1.7926
# 3 25.1007 12.8003 54.8949 6.5146 -22.0825 -2.7713
# 4 6.6055 13.5803 6.5146 35.3381 -7.7436 -0.9779
# 5 -37.0934 -13.8665 -22.0825 -7.7436 34.7888 2.3922
# 6 10.5613 1.7926 -2.7713 -0.9779 2.3922 49.4834
#
#
#
# Elastic Compliance Matrix: (Units=1/GPa)
#
#
# Indices 1 2 3 4 5 6 
#
# 1 0.008924 -0.003179 -0.000151 0.001409 0.008617 -0.002187
# 2 -0.003179 0.010441 -0.000762 -0.003376 -0.000477 0.000214
# 3 -0.000151 -0.000762 0.024601 -0.000931 0.014896 0.000699
# 4 0.001409 -0.003376 -0.000931 0.030918 0.006443 0.000069
# 5 0.008617 -0.000477 0.014896 0.006443 0.048853 -0.003222
# 6 -0.002187 0.000214 0.000699 0.000069 -0.003222 0.020864
#
#
# Mechanical properties :
#
#
# Convention : Reuss Voigt Hill
#
# Bulk Modulus (GPa) = 27.94563 58.13823 43.04193
# Shear Modulus (GPa) = 30.35625 40.53021 35.44323
#
# Velocity S-wave (km/s) = 3.60094 4.16084 3.89097
# Velocity P-wave (km/s) = 5.40611 6.92223 6.21061
#
# Compressibility (1/GPa) = 0.03578377
#
# Stress axis : x y z
#
# Youngs Moduli (GPa) = 112.05634 95.77939 40.64837
#
# Poissons Ratio (x) = 0.30445 0.00613
# Poissons Ratio (y) = 0.35619 0.03096
# Poissons Ratio (z) = 0.01689 0.07295
#
# Static dielectric constant tensor:
#      x y z
#    x 2.066860 0.117080 0.168950 
#    y 0.117080 1.845910 0.066330 
#    z 0.168950 0.066330 1.997650 
# 
# From -- ./inp_files/95656.got.cif
#   From: 2010.05.17/outbox.cif.g08.bks.cpg/sg2_48_cif.got.tgz:95656.got - 2010.06.03 11:33:40.
