data_PCOD9101453
_publ_section_title
;
Structure prediction by ZEFSAII (Michael W. Deem and Ramdas Pophale) SiO2 
 PCOD9101453
Probable space group: P -1
;
_chemical_formula_sum "Si O2"
_cell_formula_units_Z 16
_cell_length_a 9.468602
_cell_length_b 7.233392
_cell_length_c 13.329533
_cell_angle_alpha 108.945801
_cell_angle_beta 75.552676
_cell_angle_gamma 127.355886
_cell_volume 684.692761
_symmetry_space_group_name_H-M "P -1"
_symmetry_group_IT_number 2
_symmetry_cell_setting 'triclinic'
loop_
_space_group_symop_operation_xyz
x,y,z
-x,-y,-z
loop_
_atom_site_type_symbol
_atom_site_label
_atom_site_fract_x
_atom_site_fract_y
_atom_site_fract_z
Si Si1 0.258660 0.988601 0.176815
Si Si2 0.948003 0.118459 0.612478
Si Si3 0.047684 0.309571 0.972088
Si Si4 0.739690 0.315797 0.609364
Si Si5 0.472584 0.776511 0.553165
Si Si6 0.330485 0.361844 0.647517
Si Si7 0.556843 0.495352 0.136426
Si Si8 0.755231 0.481762 0.845489
O O1 0.199968 0.035044 0.302901
O O2 0.268834 0.763590 0.159652
O O3 0.104567 0.907183 0.106181
O O4 0.437784 0.216319 0.139495
O O5 0.891542 0.271054 0.591305
O O6 0.127241 0.269685 0.671842
O O7 0.000000 0.000000 0.500000
O O8 0.248614 0.416514 0.920107
O O9 0.074284 0.304390 0.086533
O O10 0.000000 0.500000 0.000000
O O11 0.701851 0.361617 0.512168
O O12 0.775242 0.494676 0.723597
O O13 0.555206 0.050010 0.610042
O O14 0.428702 0.626378 0.633444
O O15 0.621812 0.770716 0.463634
O O16 0.401988 0.359909 0.741778
O O17 0.424655 0.535162 0.105753
#
# Coordination Sequence:
#
# PCOD9101453 Si02
#       8
#     2   2   2   2   2   2   2   2
#     4  10  24  44  65  94 133 167 213 266 317 379
#     4  11  21  36  60  88 128 169 205 261 311 367
#     4  10  23  45  69  96 128 164 213 269 322 380
#     4  10  20  38  59  86 129 161 206 265 308 369
#     4  10  21  36  59  90 123 166 207 253 313 382
#     4  11  21  36  61  90 122 166 214 245 316 384
#     4  12  23  43  70  94 126 173 210 262 326 378
#     4  10  22  40  67  95 126 166 216 263 315 381
#
# _framework density 23.368144000000001
#
# number of rings (size 3 to 8) (size 9 to 14) (size 15 to 20)
#    0.000    1.500    3.750    1.875    1.750    3.000 
#    0.000    3.750    0.000    0.000    0.000    0.000 
#    0.000    0.000    0.000    0.000    0.000    0.000 
#
# Total GULP energy -89315.761235 kJ/mol
# GULP energy per Si atom -5582.235077 kJ/mol
# Density = 2.331496 g / cm^3
# Si number density = 23.368144 Si / 1000 Ang^3
#
#
#
# Elastic Constant Matrix: (Units=GPa)
#
#
# Indices 1 2 3 4 5 6 
#
# 1 159.7964 1.9785 23.7906 1.3279 21.4976 10.4360
# 2 1.9785 34.8534 -0.5741 -3.3864 4.9295 5.2874
# 3 23.7906 -0.5741 88.6660 18.2531 15.4119 7.4344
# 4 1.3279 -3.3864 18.2531 11.7368 10.9009 4.5472
# 5 21.4976 4.9295 15.4119 10.9009 40.1047 15.0372
# 6 10.4360 5.2874 7.4344 4.5472 15.0372 37.8189
#
#
#
# Elastic Compliance Matrix: (Units=1/GPa)
#
#
# Indices 1 2 3 4 5 6 
#
# 1 0.007338 0.001256 -0.002872 0.009091 -0.005208 -0.000658
# 2 0.001256 0.032616 -0.003185 0.023518 -0.008444 -0.003751
# 3 -0.002872 -0.003185 0.017966 -0.031997 0.003692 0.000085
# 4 0.009091 0.023518 -0.031997 0.182829 -0.043606 -0.004151
# 5 -0.005208 -0.008444 0.003692 -0.043606 0.042922 -0.009931
# 6 -0.000658 -0.003751 0.000085 -0.004151 -0.009931 0.031579
#
#
# Mechanical properties :
#
#
# Convention : Reuss Voigt Hill
#
# Bulk Modulus (GPa) = 20.69577 37.07842 28.88710
# Shear Modulus (GPa) = 14.66452 35.14012 24.90232
#
# Velocity S-wave (km/s) = 2.50780 3.88204 3.26797
# Velocity P-wave (km/s) = 4.15464 5.99960 5.16024
#
# Compressibility (1/GPa) = 0.04831904
#
# Stress axis : x y z
#
# Youngs Moduli (GPa) = 136.27508 30.65955 55.65942
#
# Poissons Ratio (x) = -0.03851 0.15984
# Poissons Ratio (y) = -0.17115 0.17728
# Poissons Ratio (z) = 0.39135 0.09765
#
# Static dielectric constant tensor:
#      x y z
#    x 1.905590 0.012170 0.028970 
#    y 0.012170 1.874080 0.032510 
#    z 0.028970 0.032510 1.955500 
# 
# From -- ./inp_files/493363.got.cif
#   From: 2010.05.17/outbox.cif.g08.bks.cpg/sg2_247_cif.got.tgz:493363.got - 2010.06.03 11:33:40.
