data_PCOD9101470
_publ_section_title
;
Structure prediction by ZEFSAII (Michael W. Deem and Ramdas Pophale) SiO2 
 PCOD9101470
Probable space group: P -1
;
_chemical_formula_sum "Si O2"
_cell_formula_units_Z 16
_cell_length_a 13.330119
_cell_length_b 13.108195
_cell_length_c 14.925931
_cell_angle_alpha 54.856163
_cell_angle_beta 103.436257
_cell_angle_gamma 148.646608
_cell_volume 879.933615
_symmetry_space_group_name_H-M "P -1"
_symmetry_group_IT_number 2
_symmetry_cell_setting 'triclinic'
loop_
_space_group_symop_operation_xyz
x,y,z
-x,-y,-z
loop_
_atom_site_type_symbol
_atom_site_label
_atom_site_fract_x
_atom_site_fract_y
_atom_site_fract_z
Si Si1 0.262269 0.824866 0.928154
Si Si2 0.555601 0.194833 0.457041
Si Si3 0.113080 0.270733 0.296536
Si Si4 0.088910 0.708388 0.297928
Si Si5 0.830251 0.715599 0.488851
Si Si6 0.129482 0.798945 0.463598
Si Si7 0.629604 0.895366 0.359967
Si Si8 0.435863 0.094236 0.014612
O O1 0.362605 0.030066 0.772034
O O2 0.266032 0.886321 0.997427
O O3 0.435620 0.895030 0.937059
O O4 0.000000 0.500000 0.000000
O O5 0.468562 0.114831 0.581370
O O6 0.842820 0.520613 0.342109
O O7 0.500000 0.000000 0.500000
O O8 0.380921 0.096392 0.417215
O O9 0.189315 0.323189 0.387871
O O10 0.344764 0.575665 0.136868
O O11 0.992457 0.015784 0.357549
O O12 0.894697 0.133750 0.320666
O O13 0.187546 0.827453 0.358921
O O14 0.009263 0.475394 0.386631
O O15 0.273315 0.952916 0.136736
O O16 0.572019 0.433404 0.527294
O O17 0.965337 0.740168 0.468839
#
# Coordination Sequence:
#
# PCOD9101470 Si02
#       8
#     2   2   2   2   2   2   2   2
#     4  11  24  35  60  89 125 157 185 242 311 357
#     4  10  22  33  59  89 118 148 192 245 295 350
#     4  11  24  40  59  89 117 162 201 246 295 346
#     4  10  22  36  59  87 120 150 191 245 299 354
#     4  11  22  40  63  84 119 156 206 253 287 343
#     4  10  20  38  59  88 114 153 199 243 295 347
#     4  12  21  40  62  91 119 152 202 246 300 356
#     4  11  24  39  56  89 126 157 195 237 301 366
#
# _framework density 18.18319
#
# number of rings (size 3 to 8) (size 9 to 14) (size 15 to 20)
#    0.000    1.250    5.000    1.125    8.750    0.000 
#    0.000    0.625    0.000    0.750    0.000    0.000 
#    0.000    0.000    0.000    0.000    0.000    0.000 
#
# Total GULP energy -89286.088134 kJ/mol
# GULP energy per Si atom -5580.380508 kJ/mol
# Density = 1.814180 g / cm^3
# Si number density = 18.183190 Si / 1000 Ang^3
#
#
#
# Elastic Constant Matrix: (Units=GPa)
#
#
# Indices 1 2 3 4 5 6 
#
# 1 44.9208 -1.5278 24.4376 -5.3900 -9.1209 -6.1752
# 2 -1.5278 86.2671 27.6752 -3.1430 -6.1082 2.7586
# 3 24.4376 27.6752 103.5474 -5.0301 -15.6340 -2.7998
# 4 -5.3900 -3.1430 -5.0301 21.5678 -1.9439 -0.8490
# 5 -9.1209 -6.1082 -15.6340 -1.9439 22.9175 -2.9720
# 6 -6.1752 2.7586 -2.7998 -0.8490 -2.9720 27.7337
#
#
#
# Elastic Compliance Matrix: (Units=1/GPa)
#
#
# Indices 1 2 3 4 5 6 
#
# 1 0.029412 0.003120 -0.005668 0.007680 0.010229 0.006998
# 2 0.003120 0.013128 -0.003836 0.001969 0.002199 -0.000702
# 3 -0.005668 -0.003836 0.013019 0.001635 0.005886 0.001115
# 4 0.007680 0.001969 0.001635 0.049974 0.009484 0.004225
# 5 0.010229 0.002199 0.005886 0.009484 0.054247 0.008757
# 6 0.006998 -0.000702 0.001115 0.004225 0.008757 0.038865
#
#
# Mechanical properties :
#
#
# Convention : Reuss Voigt Hill
#
# Bulk Modulus (GPa) = 23.37085 37.32282 30.34684
# Shear Modulus (GPa) = 22.15548 26.72047 24.43797
#
# Velocity S-wave (km/s) = 3.49443 3.83758 3.67002
# Velocity P-wave (km/s) = 5.40021 6.34087 5.88935
#
# Compressibility (1/GPa) = 0.04278835
#
# Stress axis : x y z
#
# Youngs Moduli (GPa) = 34.00013 76.17450 76.81236
#
# Poissons Ratio (x) = -0.23764 0.43540
# Poissons Ratio (y) = -0.10607 0.29467
# Poissons Ratio (z) = 0.19272 0.29222
#
# Static dielectric constant tensor:
#      x y z
#    x 1.633780 0.017050 0.007200 
#    y 0.017050 1.678740 -0.022010 
#    z 0.007200 -0.022010 1.620930 
# 
# From -- ./inp_files/436651.got.cif
#   From: 2010.05.17/outbox.cif.g08.bks.cpg/sg2_219_cif.got.tgz:436651.got - 2010.06.03 11:33:40.
