data_PCOD9101819
_publ_section_title
;
Structure prediction by ZEFSAII (Michael W. Deem and Ramdas Pophale) SiO2 
 PCOD9101819
Probable space group: P -1
;
_chemical_formula_sum "Si O2"
_cell_formula_units_Z 16
_cell_length_a 8.169402
_cell_length_b 23.418888
_cell_length_c 4.881324
_cell_angle_alpha 88.729594
_cell_angle_beta 73.773504
_cell_angle_gamma 135.950986
_cell_volume 587.624690
_symmetry_space_group_name_H-M "P -1"
_symmetry_group_IT_number 2
_symmetry_cell_setting 'triclinic'
loop_
_space_group_symop_operation_xyz
x,y,z
-x,-y,-z
loop_
_atom_site_type_symbol
_atom_site_label
_atom_site_fract_x
_atom_site_fract_y
_atom_site_fract_z
Si Si1 0.195695 0.959265 0.818903
Si Si2 0.721740 0.565571 0.164852
Si Si3 0.228357 0.727906 0.183795
Si Si4 0.992762 0.454788 0.254772
Si Si5 0.028647 0.738049 0.803583
Si Si6 0.926712 0.145166 0.634796
Si Si7 0.790898 0.924608 0.381020
Si Si8 0.535802 0.749345 0.421441
O O1 0.249187 0.922108 0.015160
O O2 0.601144 0.824293 0.555081
O O3 0.956603 0.932875 0.072152
O O4 0.365844 0.060026 0.668952
O O5 0.500000 0.500000 0.500000
O O6 0.756158 0.639455 0.029693
O O7 0.999614 0.630580 0.187016
O O8 0.768358 0.530391 0.908140
O O9 0.485127 0.757621 0.132902
O O10 0.141930 0.722635 0.530041
O O11 0.195881 0.776028 0.003577
O O12 0.715942 0.351785 0.388148
O O13 0.000000 0.500000 0.500000
O O14 0.000000 0.500000 0.000000
O O15 0.040586 0.796716 0.611336
O O16 0.861351 0.079544 0.448410
O O17 0.202455 0.219329 0.655952
O O18 0.000000 0.000000 0.500000
#
# Coordination Sequence:
#
# PCOD9101819 Si02
#       8
#     2   2   2   2   2   2   2   2
#     4  10  20  38  61 108 144 183 246 318 367 457
#     4  10  25  51  81 106 150 216 273 323 391 495
#     4  10  22  44  71 105 138 198 260 309 384 474
#     4  12  28  51  73 116 163 201 264 338 401 455
#     4  10  23  45  71 104 145 204 264 298 395 482
#     4  11  23  40  72 107 150 191 250 322 385 452
#     4  10  20  40  67 108 146 197 244 313 390 479
#     4  11  23  47  74 108 153 199 254 329 398 451
#
# _framework density 27.228263999999999
#
# number of rings (size 3 to 8) (size 9 to 14) (size 15 to 20)
#    0.750    0.750    3.750    1.500    0.000    7.500 
#    6.750    0.000    0.000    4.500    0.000    0.000 
#    0.000    0.000    0.000    0.000    0.000    0.000 
#
# Total GULP energy -89100.393713 kJ/mol
# GULP energy per Si atom -5568.774607 kJ/mol
# Density = 2.716629 g / cm^3
# Si number density = 27.228264 Si / 1000 Ang^3
#
#
#
# Elastic Constant Matrix: (Units=GPa)
#
#
# Indices 1 2 3 4 5 6 
#
# 1 68.3139 34.4567 59.1624 -34.8257 37.7783 2.9245
# 2 34.4567 160.2437 66.3667 -16.2342 12.8287 8.3993
# 3 59.1624 66.3667 179.1638 2.7527 48.5805 4.2001
# 4 -34.8257 -16.2342 2.7527 60.7767 -11.0794 13.0004
# 5 37.7783 12.8287 48.5805 -11.0794 64.7513 -2.8559
# 6 2.9245 8.3993 4.2001 13.0004 -2.8559 57.7981
#
#
#
# Elastic Compliance Matrix: (Units=1/GPa)
#
#
# Indices 1 2 3 4 5 6 
#
# 1 0.046369 -0.001148 -0.011210 0.025843 -0.014341 -0.007886
# 2 -0.001148 0.007880 -0.002996 0.002159 0.001670 -0.001272
# 3 -0.011210 -0.002996 0.011200 -0.008644 -0.002660 0.002001
# 4 0.025843 0.002159 -0.008644 0.033418 -0.003686 -0.008692
# 5 -0.014341 0.001670 -0.002660 -0.003686 0.024966 0.002739
# 6 -0.007886 -0.001272 0.002001 -0.008692 0.002739 0.019830
#
#
# Mechanical properties :
#
#
# Convention : Reuss Voigt Hill
#
# Bulk Modulus (GPa) = 28.78457 80.85478 54.81967
# Shear Modulus (GPa) = 26.88890 53.18093 40.03492
#
# Velocity S-wave (km/s) = 3.14592 4.42424 3.83867
# Velocity P-wave (km/s) = 4.87753 7.47383 6.31064
#
# Compressibility (1/GPa) = 0.03474084
#
# Stress axis : x y z
#
# Youngs Moduli (GPa) = 21.56634 126.90476 89.28603
#
# Poissons Ratio (x) = 0.14571 1.00087
# Poissons Ratio (y) = 0.02476 0.26749
# Poissons Ratio (z) = 0.24175 0.38019
#
# Static dielectric constant tensor:
#      x y z
#    x 2.381790 -0.093300 0.024510 
#    y -0.093300 3.637160 -1.285010 
#    z 0.024510 -1.285010 3.265000 
# 
# From -- ./inp_files/56637.got.cif
#   From: 2010.05.17/outbox.cif.g08.bks.cpg/sg2_29_cif.got.tgz:56637.got - 2010.06.03 11:33:40.
