data_PCOD9101415
_publ_section_title
;
Structure prediction by ZEFSAII (Michael W. Deem and Ramdas Pophale) SiO2 
 PCOD9101415
Probable space group: P -1
;
_chemical_formula_sum "Si O2"
_cell_formula_units_Z 16
_cell_length_a 18.307115
_cell_length_b 18.444816
_cell_length_c 7.853341
_cell_angle_alpha 99.233493
_cell_angle_beta 69.115245
_cell_angle_gamma 159.271584
_cell_volume 747.421047
_symmetry_space_group_name_H-M "P -1"
_symmetry_group_IT_number 2
_symmetry_cell_setting 'triclinic'
loop_
_space_group_symop_operation_xyz
x,y,z
-x,-y,-z
loop_
_atom_site_type_symbol
_atom_site_label
_atom_site_fract_x
_atom_site_fract_y
_atom_site_fract_z
Si Si1 0.511238 0.936249 0.855995
Si Si2 0.102293 0.011946 0.870785
Si Si3 0.309359 0.478524 0.861131
Si Si4 0.238528 0.731859 0.670805
Si Si5 0.682532 0.508394 0.550186
Si Si6 0.850579 0.506661 0.996688
Si Si7 0.102723 0.010686 0.463642
Si Si8 0.080068 0.433223 0.625485
O O1 0.299590 0.763267 0.824574
O O2 0.421125 0.774840 0.923965
O O3 0.807082 0.190078 0.669682
O O4 0.500000 0.000000 0.000000
O O5 0.117709 0.019796 0.657957
O O6 0.401275 0.271295 0.773700
O O7 0.888602 0.763421 0.021045
O O8 0.000000 0.000000 0.000000
O O9 0.332056 0.505804 0.648298
O O10 0.175846 0.433880 0.019312
O O11 0.610241 0.740621 0.761155
O O12 0.187618 0.610908 0.569181
O O13 0.500000 0.000000 0.500000
O O14 0.037227 0.616975 0.789637
O O15 0.768086 0.503046 0.531456
O O16 0.897203 0.762941 0.498551
O O17 0.931571 0.581856 0.160469
O O18 0.000000 0.000000 0.500000
#
# Coordination Sequence:
#
# PCOD9101415 Si02
#       8
#     2   2   2   2   2   2   2   2
#     4  11  18  37  61  79 108 160 208 235 289 355
#     4  11  24  42  66  94 124 161 200 246 309 373
#     4  10  23  41  63  90 126 163 202 251 306 363
#     4  11  23  35  56  86 120 156 196 250 297 342
#     4  10  23  41  63  92 123 163 203 253 305 359
#     4  10  20  38  59  84 116 158 201 243 296 353
#     4  11  23  42  67  94 124 158 203 250 304 368
#     4  10  20  39  61  81 117 158 202 244 294 354
#
# _framework density 21.406942999999998
#
# number of rings (size 3 to 8) (size 9 to 14) (size 15 to 20)
#    0.000    1.500    2.500    3.000    1.750    6.500 
#    0.000    0.000    0.000    0.000    0.000    0.000 
#    0.000    0.000    0.000    0.000    0.000    0.000 
#
# Total GULP energy -89165.394383 kJ/mol
# GULP energy per Si atom -5572.837149 kJ/mol
# Density = 2.135822 g / cm^3
# Si number density = 21.406943 Si / 1000 Ang^3
#
#
#
# Elastic Constant Matrix: (Units=GPa)
#
#
# Indices 1 2 3 4 5 6 
#
# 1 161.2700 68.2417 54.4293 -34.2701 -48.8274 -36.3993
# 2 68.2417 136.5310 35.0237 -38.6392 -29.6134 -25.2698
# 3 54.4293 35.0237 68.9422 -33.9923 -18.2228 -7.0069
# 4 -34.2701 -38.6392 -33.9923 46.7542 5.8868 5.5345
# 5 -48.8274 -29.6134 -18.2228 5.8868 35.0169 0.2064
# 6 -36.3993 -25.2698 -7.0069 5.5345 0.2064 44.5829
#
#
#
# Elastic Compliance Matrix: (Units=1/GPa)
#
#
# Indices 1 2 3 4 5 6 
#
# 1 0.019674 0.001792 -0.004411 0.007701 0.025269 0.015313
# 2 0.001792 0.013308 0.001197 0.010680 0.012535 0.007811
# 3 -0.004411 0.001197 0.027275 0.016893 0.006221 -0.000762
# 4 0.007701 0.010680 0.016893 0.044380 0.021045 0.009389
# 5 0.025269 0.012535 0.006221 0.021045 0.073941 0.025759
# 6 0.015313 0.007811 -0.000762 0.009389 0.025759 0.037955
#
#
# Mechanical properties :
#
#
# Convention : Reuss Voigt Hill
#
# Bulk Modulus (GPa) = 17.41708 75.79249 46.60479
# Shear Modulus (GPa) = 20.96301 39.20736 30.08519
#
# Velocity S-wave (km/s) = 3.13271 4.28428 3.75293
# Velocity P-wave (km/s) = 4.60858 7.74311 6.37161
#
# Compressibility (1/GPa) = 0.05741492
#
# Stress axis : x y z
#
# Youngs Moduli (GPa) = 50.82762 75.14018 36.66334
#
# Poissons Ratio (x) = -0.13466 0.16171
# Poissons Ratio (y) = -0.09109 -0.04389
# Poissons Ratio (z) = 0.22418 -0.08994
#
# Static dielectric constant tensor:
#      x y z
#    x 1.942590 -0.021060 0.087930 
#    y -0.021060 1.720030 0.066760 
#    z 0.087930 0.066760 1.978360 
# 
# From -- ./inp_files/51887.got.cif
#   From: 2010.05.17/outbox.cif.g08.bks.cpg/sg2_26_cif.got.tgz:51887.got - 2010.06.03 11:33:40.
