data_PCOD9101663
_publ_section_title
;
Structure prediction by ZEFSAII (Michael W. Deem and Ramdas Pophale) SiO2 
 PCOD9101663
Probable space group: P -1
;
_chemical_formula_sum "Si O2"
_cell_formula_units_Z 14
_cell_length_a 11.249264
_cell_length_b 9.153122
_cell_length_c 16.508023
_cell_angle_alpha 38.449928
_cell_angle_beta 141.744053
_cell_angle_gamma 141.458620
_cell_volume 589.528315
_symmetry_space_group_name_H-M "P -1"
_symmetry_group_IT_number 2
_symmetry_cell_setting 'triclinic'
loop_
_space_group_symop_operation_xyz
x,y,z
-x,-y,-z
loop_
_atom_site_type_symbol
_atom_site_label
_atom_site_fract_x
_atom_site_fract_y
_atom_site_fract_z
Si Si1 0.346295 0.460937 0.557785
Si Si2 0.562652 0.578107 0.875807
Si Si3 0.794533 0.075258 0.710875
Si Si4 0.785633 0.873834 0.026802
Si Si5 0.021576 0.239553 0.601491
Si Si6 0.014970 0.470124 0.925038
Si Si7 0.801182 0.772243 0.593394
O O1 0.270948 0.691503 0.419865
O O2 0.254074 0.309959 0.657950
O O3 0.594199 0.594045 0.612949
O O4 0.244329 0.285902 0.500042
O O5 0.585745 0.803916 0.727016
O O6 0.654963 0.673419 0.115707
O O7 0.636755 0.744451 0.926562
O O8 0.752748 0.505492 0.984076
O O9 0.982573 0.127071 0.854197
O O10 0.917004 0.062457 0.700393
O O11 0.840337 0.175218 0.938500
O O12 0.000000 0.500000 0.500000
O O13 0.869376 0.073213 0.519513
O O14 0.974415 0.681440 0.759209
O O15 0.000000 0.500000 0.000000
#
# Coordination Sequence:
#
# PCOD9101663 Si02
#       7
#     2   2   2   2   2   2   2
#     4  10  23  39  61  89 119 160 199 241 294 350
#     4  10  21  38  62  88 117 157 201 245 292 348
#     4  10  20  38  60  87 121 154 196 247 295 348
#     4  10  21  38  62  88 115 156 203 244 292 350
#     4  10  23  39  58  85 116 155 199 243 291 347
#     4  11  23  39  60  90 125 156 192 244 299 353
#     4  11  22  40  62  87 123 159 196 242 295 355
#
# _framework density 23.747800000000002
#
# number of rings (size 3 to 8) (size 9 to 14) (size 15 to 20)
#    0.000    1.714    0.000    5.571    0.000    8.571 
#    0.000    4.286    0.000    0.000    0.000    0.000 
#    0.000    0.000    0.000    0.000    0.000    0.000 
#
# Total GULP energy -78244.750976 kJ/mol
# GULP energy per Si atom -5588.910784 kJ/mol
# Density = 2.369375 g / cm^3
# Si number density = 23.747800 Si / 1000 Ang^3
#
#
#
# Elastic Constant Matrix: (Units=GPa)
#
#
# Indices 1 2 3 4 5 6 
#
# 1 131.5371 51.0551 -6.7017 -10.9221 -14.2169 5.7437
# 2 51.0551 124.6755 12.9881 -16.9132 3.8936 -1.5001
# 3 -6.7017 12.9881 30.9767 -11.7259 3.8676 -11.2300
# 4 -10.9221 -16.9132 -11.7259 26.5555 0.8558 -6.4148
# 5 -14.2169 3.8936 3.8676 0.8558 33.5877 -7.1636
# 6 5.7437 -1.5001 -11.2300 -6.4148 -7.1636 46.1945
#
#
#
# Elastic Compliance Matrix: (Units=1/GPa)
#
#
# Indices 1 2 3 4 5 6 
#
# 1 0.010339 -0.004383 0.005451 0.004000 0.004397 0.001135
# 2 -0.004383 0.010769 -0.003794 0.003476 -0.002749 0.000029
# 3 0.005451 -0.003794 0.050203 0.025604 -0.000512 0.014880
# 4 0.004000 0.003476 0.025604 0.056114 -0.000186 0.013603
# 5 0.004397 -0.002749 -0.000512 -0.000186 0.032938 0.004321
# 6 0.001135 0.000029 0.014880 0.013603 0.004321 0.027684
#
#
# Mechanical properties :
#
#
# Convention : Reuss Voigt Hill
#
# Bulk Modulus (GPa) = 15.18370 44.65249 29.91809
# Shear Modulus (GPa) = 23.20715 36.59073 29.89894
#
# Velocity S-wave (km/s) = 3.12947 3.92957 3.55212
# Velocity P-wave (km/s) = 4.41199 6.27951 5.42669
#
# Compressibility (1/GPa) = 0.06586011
#
# Stress axis : x y z
#
# Youngs Moduli (GPa) = 96.71985 92.86272 19.91916
#
# Poissons Ratio (x) = 0.40700 -0.10858
# Poissons Ratio (y) = 0.42390 0.07557
# Poissons Ratio (z) = -0.52724 0.35230
#
# Static dielectric constant tensor:
#      x y z
#    x 1.932710 0.014650 -0.094860 
#    y 0.014650 1.937120 0.003910 
#    z -0.094860 0.003910 1.939450 
# 
# From -- ./inp_files/565701.got.cif
#   From: 2010.05.17/outbox.cif.g08.bks.cpg/sg2_283_cif.got.tgz:565701.got - 2010.06.03 11:33:40.
