data_PCOD9101691
_publ_section_title
;
Structure prediction by ZEFSAII (Michael W. Deem and Ramdas Pophale) SiO2 
 PCOD9101691
Probable space group: P -1
;
_chemical_formula_sum "Si O2"
_cell_formula_units_Z 14
_cell_length_a 8.637000
_cell_length_b 13.392533
_cell_length_c 9.971086
_cell_angle_alpha 60.320610
_cell_angle_beta 135.381670
_cell_angle_gamma 133.656673
_cell_volume 586.085516
_symmetry_space_group_name_H-M "P -1"
_symmetry_group_IT_number 2
_symmetry_cell_setting 'triclinic'
loop_
_space_group_symop_operation_xyz
x,y,z
-x,-y,-z
loop_
_atom_site_type_symbol
_atom_site_label
_atom_site_fract_x
_atom_site_fract_y
_atom_site_fract_z
Si Si1 0.794472 0.178751 0.795328
Si Si2 0.772728 0.617656 0.264885
Si Si3 0.206691 0.108458 0.449058
Si Si4 0.647858 0.657289 0.448095
Si Si5 0.089431 0.590198 0.127248
Si Si6 0.651668 0.373985 0.192277
Si Si7 0.657256 0.939939 0.708459
O O1 0.490294 0.130338 0.639103
O O2 0.945060 0.284381 0.942270
O O3 0.946063 0.283914 0.696377
O O4 0.801477 0.046711 0.849759
O O5 0.795128 0.672591 0.391252
O O6 0.676723 0.459030 0.286053
O O7 0.560134 0.628965 0.038615
O O8 0.213086 0.244187 0.405246
O O9 0.164511 0.064938 0.296456
O O10 0.000000 0.000000 0.500000
O O11 0.500000 0.500000 0.500000
O O12 0.403411 0.669352 0.257882
O O13 0.933380 0.474189 0.224552
O O14 0.000000 0.500000 0.000000
O O15 0.541226 0.216257 0.258863
O O16 0.500000 0.000000 0.500000
#
# Coordination Sequence:
#
# PCOD9101691 Si02
#       7
#     2   2   2   2   2   2   2
#     4   9  21  37  61  85 118 160 204 243 304 365
#     4  10  20  38  60  88 122 158 210 246 300 366
#     4  10  21  38  59  83 122 159 195 252 302 355
#     4  11  22  35  61  94 119 154 203 255 303 353
#     4  10  20  40  62  88 125 159 202 256 303 360
#     4  10  21  37  64  87 120 168 199 249 305 359
#     4  10  21  40  60  86 123 160 205 247 302 368
#
# _framework density 23.8873
#
# number of rings (size 3 to 8) (size 9 to 14) (size 15 to 20)
#    0.000    2.000    1.429    1.714    0.000    5.143 
#    0.000    9.286    0.000    0.000    0.000    0.000 
#    0.000    0.000    0.000    0.000    0.000    0.000 
#
# Total GULP energy -78077.891341 kJ/mol
# GULP energy per Si atom -5576.992239 kJ/mol
# Density = 2.383293 g / cm^3
# Si number density = 23.887300 Si / 1000 Ang^3
#
#
#
# Elastic Constant Matrix: (Units=GPa)
#
#
# Indices 1 2 3 4 5 6 
#
# 1 192.1893 87.0941 31.0592 16.0010 -28.7611 -19.3146
# 2 87.0941 187.2991 21.3082 2.6041 -12.6795 -45.8118
# 3 31.0592 21.3082 64.0655 8.1260 -9.1006 -16.9401
# 4 16.0010 2.6041 8.1260 26.2149 -7.5528 -4.6846
# 5 -28.7611 -12.6795 -9.1006 -7.5528 19.6398 20.6478
# 6 -19.3146 -45.8118 -16.9401 -4.6846 20.6478 67.9771
#
#
#
# Elastic Compliance Matrix: (Units=1/GPa)
#
#
# Indices 1 2 3 4 5 6 
#
# 1 0.009401 -0.004435 -0.002240 -0.001197 0.015298 -0.005605
# 2 -0.004435 0.008566 -0.000097 0.000818 -0.008041 0.006987
# 3 -0.002240 -0.000097 0.018122 -0.003635 -0.000131 0.003604
# 4 -0.001197 0.000818 -0.003635 0.044351 0.017136 -0.002843
# 5 0.015298 -0.008041 -0.000131 0.017136 0.109567 -0.033205
# 6 -0.005605 0.006987 0.003604 -0.002843 -0.033205 0.028615
#
#
# Mechanical properties :
#
#
# Convention : Reuss Voigt Hill
#
# Bulk Modulus (GPa) = 44.35622 80.27519 62.31570
# Shear Modulus (GPa) = 20.86099 43.03918 31.95008
#
# Velocity S-wave (km/s) = 2.95839 4.24932 3.66120
# Velocity P-wave (km/s) = 5.50261 7.59963 6.63449
#
# Compressibility (1/GPa) = 0.02254475
#
# Stress axis : x y z
#
# Youngs Moduli (GPa) = 106.37355 116.74294 55.18050
#
# Poissons Ratio (x) = 0.51780 0.12358
# Poissons Ratio (y) = 0.47181 0.00537
# Poissons Ratio (z) = 0.23823 0.01135
#
# Static dielectric constant tensor:
#      x y z
#    x 2.134490 -0.113630 0.078980 
#    y -0.113630 1.971480 0.053590 
#    z 0.078980 0.053590 2.066270 
# 
# From -- ./inp_files/154862.got.cif
#   From: 2010.05.17/outbox.cif.g08.bks.cpg/sg2_78_cif.got.tgz:154862.got - 2010.06.03 11:33:40.
