data_PCOD9101272
_publ_section_title
;
Structure prediction by ZEFSAII (Michael W. Deem and Ramdas Pophale) SiO2 
 PCOD9101272
Probable space group: P -1
;
_chemical_formula_sum "Si O2"
_cell_formula_units_Z 14
_cell_length_a 25.093709
_cell_length_b 7.843250
_cell_length_c 8.942758
_cell_angle_alpha 69.303072
_cell_angle_beta 36.350571
_cell_angle_gamma 44.463262
_cell_volume 618.174708
_symmetry_space_group_name_H-M "P -1"
_symmetry_group_IT_number 2
_symmetry_cell_setting 'triclinic'
loop_
_space_group_symop_operation_xyz
x,y,z
-x,-y,-z
loop_
_atom_site_type_symbol
_atom_site_label
_atom_site_fract_x
_atom_site_fract_y
_atom_site_fract_z
Si Si1 0.601668 0.838338 0.604746
Si Si2 0.907373 0.308298 0.546740
Si Si3 0.442195 0.812970 0.166605
Si Si4 0.013332 0.557507 0.240607
Si Si5 0.105284 0.696902 0.774990
Si Si6 0.287426 0.228218 0.926242
Si Si7 0.697109 0.143686 0.801770
O O1 0.742289 0.507691 0.433335
O O2 0.613232 0.012377 0.610731
O O3 0.476565 0.924771 0.940096
O O4 0.608393 0.857378 0.408286
O O5 0.980851 0.393515 0.363216
O O6 0.883422 0.309586 0.425743
O O7 0.766218 0.550816 0.891920
O O8 0.000000 0.000000 0.500000
O O9 0.334540 0.860151 0.298881
O O10 0.586455 0.477600 0.978934
O O11 0.142681 0.403117 0.106805
O O12 0.866695 0.890161 0.515022
O O13 0.056506 0.573427 0.978552
O O14 0.000000 0.000000 0.000000
O O15 0.341998 0.961285 0.966687
#
# Coordination Sequence:
#
# PCOD9101272 Si02
#       7
#     2   2   2   2   2   2   2
#     4  10  21  39  56  83 114 151 197 234 285 340
#     4  11  21  34  55  88 120 150 185 232 297 350
#     4  10  22  37  59  80 113 159 195 231 275 347
#     4  10  21  39  61  87 119 151 190 243 296 348
#     4  11  22  38  62  87 117 154 194 242 294 349
#     4  10  22  39  61  86 118 148 189 249 296 339
#     4  10  20  38  58  84 113 150 194 234 287 341
#
# _framework density 22.647317999999999
#
# number of rings (size 3 to 8) (size 9 to 14) (size 15 to 20)
#    0.000    1.714    0.000    6.429    0.000    3.429 
#    0.000    2.857    0.000    1.714    0.000    0.000 
#    0.000    0.000    0.000    0.000    0.000    0.000 
#
# Total GULP energy -78256.369087 kJ/mol
# GULP energy per Si atom -5589.740649 kJ/mol
# Density = 2.259577 g / cm^3
# Si number density = 22.647318 Si / 1000 Ang^3
#
#
#
# Elastic Constant Matrix: (Units=GPa)
#
#
# Indices 1 2 3 4 5 6 
#
# 1 98.0104 37.7053 38.1873 8.9428 29.2471 -18.5516
# 2 37.7053 136.6392 42.2537 2.8737 23.5731 -14.3812
# 3 38.1873 42.2537 82.5819 -8.4719 39.0114 -5.5963
# 4 8.9428 2.8737 -8.4719 48.4787 -9.5592 8.6492
# 5 29.2471 23.5731 39.0114 -9.5592 46.0351 -2.3516
# 6 -18.5516 -14.3812 -5.5963 8.6492 -2.3516 37.4571
#
#
#
# Elastic Compliance Matrix: (Units=1/GPa)
#
#
# Indices 1 2 3 4 5 6 
#
# 1 0.016514 -0.001114 -0.003416 -0.006626 -0.007980 0.008270
# 2 -0.001114 0.009292 -0.003688 -0.001712 -0.001138 0.002789
# 3 -0.003416 -0.003688 0.022710 0.002099 -0.014808 -0.001129
# 4 -0.006626 -0.001712 0.002099 0.025532 0.008149 -0.009009
# 5 -0.007980 -0.001138 -0.014808 0.008149 0.041315 -0.005889
# 6 0.008270 0.002789 -0.001129 -0.009009 -0.005889 0.033406
#
#
# Mechanical properties :
#
#
# Convention : Reuss Voigt Hill
#
# Bulk Modulus (GPa) = 31.17307 61.50268 46.33788
# Shear Modulus (GPa) = 28.42544 39.66653 34.04598
#
# Velocity S-wave (km/s) = 3.54663 4.18962 3.88146
# Velocity P-wave (km/s) = 5.52865 7.11474 6.37124
#
# Compressibility (1/GPa) = 0.03207897
#
# Stress axis : x y z
#
# Youngs Moduli (GPa) = 60.55615 107.61495 44.03334
#
# Poissons Ratio (x) = 0.11991 0.15041
# Poissons Ratio (y) = 0.06747 0.16242
# Poissons Ratio (z) = 0.20685 0.39693
#
# Static dielectric constant tensor:
#      x y z
#    x 1.878910 0.014090 -0.048390 
#    y 0.014090 1.841270 -0.026260 
#    z -0.048390 -0.026260 1.877040 
# 
# From -- ./inp_files/205587.got.cif
#   From: 2010.05.17/outbox.cif.g08.bks.cpg/sg2_103_cif.got.tgz:205587.got - 2010.06.03 11:33:40.
