data_PCOD9101034
_publ_section_title
;
Structure prediction by ZEFSAII (Michael W. Deem and Ramdas Pophale) SiO2 
 PCOD9101034
Probable space group: P -1
;
_chemical_formula_sum "Si O2"
_cell_formula_units_Z 16
_cell_length_a 9.497501
_cell_length_b 11.789302
_cell_length_c 11.976075
_cell_angle_alpha 128.180246
_cell_angle_beta 50.733769
_cell_angle_gamma 123.743682
_cell_volume 785.800962
_symmetry_space_group_name_H-M "P -1"
_symmetry_group_IT_number 2
_symmetry_cell_setting 'triclinic'
loop_
_space_group_symop_operation_xyz
x,y,z
-x,-y,-z
loop_
_atom_site_type_symbol
_atom_site_label
_atom_site_fract_x
_atom_site_fract_y
_atom_site_fract_z
Si Si1 0.490567 0.884028 0.332451
Si Si2 0.426019 0.647545 0.662110
Si Si3 0.965384 0.813842 0.377712
Si Si4 0.951023 0.357911 0.289395
Si Si5 0.320248 0.370890 0.962659
Si Si6 0.924000 0.291211 0.510602
Si Si7 0.678310 0.965975 0.673311
Si Si8 0.199020 0.476006 0.856137
O O1 0.638711 0.789461 0.177506
O O2 0.296064 0.758070 0.378200
O O3 0.500000 0.000000 0.500000
O O4 0.468404 0.973366 0.286235
O O5 0.500000 0.500000 0.500000
O O6 0.253580 0.669971 0.684636
O O7 0.579731 0.808858 0.684599
O O8 0.341567 0.611797 0.805611
O O9 0.827226 0.917636 0.487164
O O10 0.857672 0.656876 0.285338
O O11 0.986189 0.787299 0.484139
O O12 0.169305 0.888522 0.263650
O O13 0.945218 0.265662 0.352118
O O14 0.995716 0.532828 0.404194
O O15 0.127702 0.347642 0.117396
O O16 0.286841 0.430570 0.894604
O O17 0.500000 0.500000 0.000000
O O18 0.000000 0.500000 0.000000
#
# Coordination Sequence:
#
# PCOD9101034 Si02
#       8
#     2   2   2   2   2   2   2   2
#     4  11  23  41  67  98 138 188 235 280 354 427
#     4  12  23  41  70 106 135 180 243 291 343 420
#     4  10  20  42  67 101 134 180 228 285 355 415
#     4  11  22  40  66 103 139 179 241 293 343 409
#     4  12  26  45  70 103 142 193 235 291 355 420
#     4  10  20  37  68  97 136 179 230 291 341 419
#     4  10  22  39  68  96 137 175 230 289 340 417
#     4  12  24  42  72 101 144 179 235 291 351 416
#
# _framework density 20.36139
#
# number of rings (size 3 to 8) (size 9 to 14) (size 15 to 20)
#    0.000    1.000    5.000    1.500    3.500    1.000 
#    0.000    3.125    5.500    0.000    0.000    0.000 
#    0.000    0.000    0.000    0.000    0.000    0.000 
#
# Total GULP energy -89128.420689 kJ/mol
# GULP energy per Si atom -5570.526293 kJ/mol
# Density = 2.031505 g / cm^3
# Si number density = 20.361390 Si / 1000 Ang^3
#
#
#
# Elastic Constant Matrix: (Units=GPa)
#
#
# Indices 1 2 3 4 5 6 
#
# 1 123.2514 48.3153 47.6776 -6.9845 -7.1663 -17.1436
# 2 48.3153 143.0611 27.2238 -22.4452 1.1461 -10.2649
# 3 47.6776 27.2238 76.3090 -13.5902 -10.3078 -18.1903
# 4 -6.9845 -22.4452 -13.5902 31.8318 -5.7324 -2.4952
# 5 -7.1663 1.1461 -10.3078 -5.7324 23.0823 -6.1972
# 6 -17.1436 -10.2649 -18.1903 -2.4952 -6.1972 35.7665
#
#
#
# Elastic Compliance Matrix: (Units=1/GPa)
#
#
# Indices 1 2 3 4 5 6 
#
# 1 0.011856 -0.003005 -0.006051 -0.001744 0.001186 0.001827
# 2 -0.003005 0.009037 0.000291 0.006122 0.000769 0.001862
# 3 -0.006051 0.000291 0.024447 0.013215 0.015874 0.013289
# 4 -0.001744 0.006122 0.013215 0.045767 0.020274 0.014348
# 5 0.001186 0.000769 0.015874 0.020274 0.061392 0.020914
# 6 0.001827 0.001862 0.013289 0.014348 0.020914 0.040752
#
#
# Mechanical properties :
#
#
# Convention : Reuss Voigt Hill
#
# Bulk Modulus (GPa) = 35.95608 65.45055 50.70331
# Shear Modulus (GPa) = 22.72205 32.76312 27.74259
#
# Velocity S-wave (km/s) = 3.34419 4.01569 3.69522
# Velocity P-wave (km/s) = 5.71041 7.32907 6.56978
#
# Compressibility (1/GPa) = 0.02781171
#
# Stress axis : x y z
#
# Youngs Moduli (GPa) = 84.34406 110.65299 40.90513
#
# Poissons Ratio (x) = 0.33248 0.24750
# Poissons Ratio (y) = 0.25343 -0.01191
# Poissons Ratio (z) = 0.51033 -0.03221
#
# Static dielectric constant tensor:
#      x y z
#    x 1.792450 0.075470 0.042640 
#    y 0.075470 1.925750 0.102960 
#    z 0.042640 0.102960 1.783320 
# 
# From -- ./inp_files/392976.got.cif
#   From: 2010.05.17/outbox.cif.g08.bks.cpg/sg2_197_cif.got.tgz:392976.got - 2010.06.03 11:33:40.
