data_PCOD9101317
_publ_section_title
;
Structure prediction by ZEFSAII (Michael W. Deem and Ramdas Pophale) SiO2 
 PCOD9101317
Probable space group: P -1
;
_chemical_formula_sum "Si O2"
_cell_formula_units_Z 16
_cell_length_a 18.632313
_cell_length_b 11.257645
_cell_length_c 8.957350
_cell_angle_alpha 140.625315
_cell_angle_beta 101.654500
_cell_angle_gamma 52.742260
_cell_volume 806.389010
_symmetry_space_group_name_H-M "P -1"
_symmetry_group_IT_number 2
_symmetry_cell_setting 'triclinic'
loop_
_space_group_symop_operation_xyz
x,y,z
-x,-y,-z
loop_
_atom_site_type_symbol
_atom_site_label
_atom_site_fract_x
_atom_site_fract_y
_atom_site_fract_z
Si Si1 0.218291 0.423862 0.717696
Si Si2 0.827387 0.240274 0.243293
Si Si3 0.455214 0.875468 0.343615
Si Si4 0.132064 0.441947 0.272804
Si Si5 0.478301 0.529954 0.270911
Si Si6 0.676324 0.198797 0.254793
Si Si7 0.065525 0.701604 0.181537
Si Si8 0.992984 0.367704 0.207359
O O1 0.216678 0.602001 0.778784
O O2 0.131450 0.436834 0.628936
O O3 0.331701 0.122782 0.490397
O O4 0.167456 0.572916 0.000246
O O5 0.855095 0.373731 0.479100
O O6 0.742065 0.265415 0.312223
O O7 0.933089 0.920580 0.960357
O O8 0.467369 0.735123 0.364269
O O9 0.500000 0.000000 0.500000
O O10 0.513734 0.654922 0.022136
O O11 0.102463 0.517223 0.159950
O O12 0.040022 0.487131 0.354939
O O13 0.240140 0.125530 0.029359
O O14 0.585495 0.340761 0.230009
O O15 0.382306 0.687003 0.499574
O O16 0.997766 0.709101 0.039752
O O17 0.000000 0.000000 0.500000
#
# Coordination Sequence:
#
# PCOD9101317 Si02
#       8
#     2   2   2   2   2   2   2   2
#     4  10  22  38  60  88 121 159 200 241 306 360
#     4  11  21  39  61  92 124 157 199 249 295 361
#     4  11  23  43  65  92 123 157 205 255 306 357
#     4  11  20  38  62  88 122 157 202 245 296 364
#     4  10  23  44  62  90 124 158 204 257 302 358
#     4  10  23  40  65  90 121 162 204 249 305 356
#     4  10  20  38  58  87 122 159 197 244 295 360
#     4   9  22  37  59  86 124 156 198 243 294 361
#
# _framework density 19.841540999999999
#
# number of rings (size 3 to 8) (size 9 to 14) (size 15 to 20)
#    0.750    1.000    1.250    3.000    0.000    2.500 
#    0.000   10.625    0.000    0.000    0.000    0.000 
#    0.000    0.000    0.000    0.000    0.000    0.000 
#
# Total GULP energy -89374.337535 kJ/mol
# GULP energy per Si atom -5585.896096 kJ/mol
# Density = 1.979638 g / cm^3
# Si number density = 19.841541 Si / 1000 Ang^3
#
#
#
# Elastic Constant Matrix: (Units=GPa)
#
#
# Indices 1 2 3 4 5 6 
#
# 1 135.5372 37.5438 70.5599 7.9609 7.3560 10.7551
# 2 37.5438 121.4505 45.4689 19.6511 -3.9720 25.9144
# 3 70.5599 45.4689 108.2404 8.1319 1.3541 11.0408
# 4 7.9609 19.6511 8.1319 31.3986 -1.9103 -4.3517
# 5 7.3560 -3.9720 1.3541 -1.9103 35.2163 2.3541
# 6 10.7551 25.9144 11.0408 -4.3517 2.3541 31.3803
#
#
#
# Elastic Compliance Matrix: (Units=1/GPa)
#
#
# Indices 1 2 3 4 5 6 
#
# 1 0.011447 -0.000646 -0.007001 -0.000941 -0.002186 -0.000893
# 2 -0.000646 0.013651 -0.003529 -0.008892 0.002077 -0.011199
# 3 -0.007001 -0.003529 0.015286 0.000041 0.000485 -0.000095
# 4 -0.000941 -0.008892 0.000041 0.039484 0.000459 0.013092
# 5 -0.002186 0.002077 0.000485 0.000459 0.029312 -0.003272
# 6 -0.000893 -0.011199 -0.000095 0.013092 -0.003272 0.043516
#
#
# Mechanical properties :
#
#
# Convention : Reuss Voigt Hill
#
# Bulk Modulus (GPa) = 55.46098 74.70813 65.08455
# Shear Modulus (GPa) = 27.61558 33.70939 30.66249
#
# Velocity S-wave (km/s) = 3.73474 4.12628 3.93538
# Velocity P-wave (km/s) = 6.82718 7.77404 7.31594
#
# Compressibility (1/GPa) = 0.01803070
#
# Stress axis : x y z
#
# Youngs Moduli (GPa) = 87.36201 73.25578 65.42080
#
# Poissons Ratio (x) = 0.04732 0.45803
# Poissons Ratio (y) = 0.05643 0.23086
# Poissons Ratio (z) = 0.61165 0.25851
#
# Static dielectric constant tensor:
#      x y z
#    x 1.682870 -0.006390 -0.010500 
#    y -0.006390 1.713410 -0.046940 
#    z -0.010500 -0.046940 1.698000 
# 
# From -- ./inp_files/346489.got.cif
#   From: 2010.05.17/outbox.cif.g08.bks.cpg/sg2_174_cif.got.tgz:346489.got - 2010.06.03 11:33:40.
