data_PCOD9101410
_publ_section_title
;
Structure prediction by ZEFSAII (Michael W. Deem and Ramdas Pophale) SiO2 
 PCOD9101410
Probable space group: P -1
;
_chemical_formula_sum "Si O2"
_cell_formula_units_Z 16
_cell_length_a 27.232972
_cell_length_b 17.311303
_cell_length_c 5.274328
_cell_angle_alpha 123.556241
_cell_angle_beta 123.930089
_cell_angle_gamma 22.304801
_cell_volume 777.790225
_symmetry_space_group_name_H-M "P -1"
_symmetry_group_IT_number 2
_symmetry_cell_setting 'triclinic'
loop_
_space_group_symop_operation_xyz
x,y,z
-x,-y,-z
loop_
_atom_site_type_symbol
_atom_site_label
_atom_site_fract_x
_atom_site_fract_y
_atom_site_fract_z
Si Si1 0.200382 0.888771 0.619633
Si Si2 0.492422 0.355448 0.141263
Si Si3 0.354470 0.719741 0.236193
Si Si4 0.359574 0.146067 0.891934
Si Si5 0.934548 0.192045 0.224434
Si Si6 0.721442 0.425038 0.726468
Si Si7 0.306408 0.403792 0.426700
Si Si8 0.581693 0.035629 0.761463
O O1 0.278056 0.804231 0.432912
O O2 0.223678 0.749564 0.525767
O O3 0.258556 0.863033 0.980133
O O4 0.050503 0.097288 0.472219
O O5 0.450682 0.495615 0.083366
O O6 0.558917 0.313496 0.496744
O O7 0.361234 0.490354 0.114410
O O8 0.581077 0.147374 0.928363
O O9 0.339055 0.125531 0.526721
O O10 0.271501 0.355052 0.108844
O O11 0.500000 0.000000 0.000000
O O12 0.367242 0.063974 0.996861
O O13 0.821852 0.364797 0.421526
O O14 0.839928 0.329717 0.958337
O O15 0.000000 0.000000 0.000000
O O16 0.632281 0.607838 0.614422
O O17 0.428168 0.216201 0.627980
#
# Coordination Sequence:
#
# PCOD9101410 Si02
#       8
#     2   2   2   2   2   2   2   2
#     4  10  23  38  53  80 119 151 199 226 274 338
#     4  10  20  38  59  84 115 148 196 233 297 342
#     4  10  23  38  57  83 114 156 191 241 276 341
#     4  10  22  34  53  81 119 151 188 227 285 351
#     4  10  23  36  55  84 116 161 192 231 279 350
#     4  10  21  34  56  84 116 155 184 232 290 346
#     4  11  21  34  57  82 120 156 188 233 287 344
#     4  11  21  35  55  84 115 153 183 233 290 349
#
# _framework density 20.571100000000001
#
# number of rings (size 3 to 8) (size 9 to 14) (size 15 to 20)
#    0.000    1.750    1.250    3.750    7.000    8.500 
#    0.000    0.000    0.000    0.000    0.000    5.250 
#    0.000    0.000    0.000    0.000    0.000    0.000 
#
# Total GULP energy -89103.502293 kJ/mol
# GULP energy per Si atom -5568.968893 kJ/mol
# Density = 2.052428 g / cm^3
# Si number density = 20.571100 Si / 1000 Ang^3
#
#
#
# Elastic Constant Matrix: (Units=GPa)
#
#
# Indices 1 2 3 4 5 6 
#
# 1 41.4414 27.5036 33.5435 -0.8793 -3.2892 5.6020
# 2 27.5036 54.3367 38.5897 0.9711 1.8750 -6.7501
# 3 33.5435 38.5897 126.4300 -3.0646 -3.0862 -7.5039
# 4 -0.8793 0.9711 -3.0646 48.5142 0.7146 7.8046
# 5 -3.2892 1.8750 -3.0862 0.7146 31.3767 -3.8635
# 6 5.6020 -6.7501 -7.5039 7.8046 -3.8635 23.2001
#
#
#
# Elastic Compliance Matrix: (Units=1/GPa)
#
#
# Indices 1 2 3 4 5 6 
#
# 1 0.047436 -0.021824 -0.006997 0.004189 0.002908 -0.020992
# 2 -0.021824 0.034244 -0.003946 -0.003656 -0.002827 0.014716
# 3 -0.006997 -0.003946 0.011258 -0.000061 0.001152 0.004395
# 4 0.004189 -0.003656 -0.000061 0.022348 -0.001063 -0.009790
# 5 0.002908 -0.002827 0.001152 -0.001063 0.033062 0.004711
# 6 -0.020992 0.014716 0.004395 -0.009790 0.004711 0.057953
#
#
# Mechanical properties :
#
#
# Convention : Reuss Voigt Hill
#
# Bulk Modulus (GPa) = 36.49299 46.83128 41.66214
# Shear Modulus (GPa) = 17.79549 28.78964 23.29257
#
# Velocity S-wave (km/s) = 2.94440 3.74507 3.36861
# Velocity P-wave (km/s) = 5.41644 6.44327 5.95204
#
# Compressibility (1/GPa) = 0.02740252
#
# Stress axis : x y z
#
# Youngs Moduli (GPa) = 21.08123 29.20233 88.82562
#
# Poissons Ratio (x) = 0.63731 0.62155
# Poissons Ratio (y) = 0.46007 0.35052
# Poissons Ratio (z) = 0.14751 0.11524
#
# Static dielectric constant tensor:
#      x y z
#    x 1.761340 -0.002880 -0.038090 
#    y -0.002880 1.813310 0.043920 
#    z -0.038090 0.043920 1.890310 
# 
# From -- ./inp_files/128767.got.cif
#   From: 2010.05.17/outbox.cif.g08.bks.cpg/sg2_65_cif.got.tgz:128767.got - 2010.06.03 11:33:40.
