data_PCOD9101395
_publ_section_title
;
Structure prediction by ZEFSAII (Michael W. Deem and Ramdas Pophale) SiO2 
 PCOD9101395
Probable space group: P -1
;
_chemical_formula_sum "Si O2"
_cell_formula_units_Z 14
_cell_length_a 24.590092
_cell_length_b 5.292901
_cell_length_c 5.377541
_cell_angle_alpha 106.586898
_cell_angle_beta 74.203815
_cell_angle_gamma 129.886098
_cell_volume 510.905541
_symmetry_space_group_name_H-M "P -1"
_symmetry_group_IT_number 2
_symmetry_cell_setting 'triclinic'
loop_
_space_group_symop_operation_xyz
x,y,z
-x,-y,-z
loop_
_atom_site_type_symbol
_atom_site_label
_atom_site_fract_x
_atom_site_fract_y
_atom_site_fract_z
Si Si1 0.418611 0.680087 0.723582
Si Si2 0.822274 0.930790 0.989342
Si Si3 0.042567 0.806501 0.835201
Si Si4 0.095555 0.514174 0.312059
Si Si5 0.551190 0.405964 0.838183
Si Si6 0.295080 0.713625 0.838067
Si Si7 0.769473 0.352678 0.599063
O O1 0.414227 0.468698 0.439928
O O2 0.372751 0.808717 0.760809
O O3 0.500885 0.004137 0.750234
O O4 0.397848 0.504402 0.967323
O O5 0.861694 0.298455 0.943505
O O6 0.788761 0.715372 0.718489
O O7 0.885174 0.924001 0.024288
O O8 0.757154 0.694916 0.189503
O O9 0.073077 0.715867 0.544799
O O10 0.982645 0.815051 0.770704
O O11 0.000000 0.500000 0.000000
O O12 0.152995 0.555517 0.440319
O O13 0.500000 0.500000 0.000000
O O14 0.270871 0.796247 0.647587
O O15 0.277298 0.822447 0.142487
#
# Coordination Sequence:
#
# PCOD9101395 Si02
#       7
#     2   2   2   2   2   2   2
#     4  10  21  41  66  90 139 164 197 272 299 355
#     4   9  21  38  58  84 119 156 201 256 304 376
#     4   9  19  35  58  83 114 154 206 255 323 357
#     4  10  20  38  59  83 116 159 202 264 307 366
#     4  10  21  40  68  99 125 167 214 247 306 368
#     4  10  22  42  59  91 123 166 195 248 314 365
#     4  10  23  38  61  83 123 154 209 247 302 374
#
# _framework density 27.402322999999999
#
# number of rings (size 3 to 8) (size 9 to 14) (size 15 to 20)
#    0.857    1.429    0.000    2.143    4.000    0.571 
#    2.571    7.143    0.000    0.000    0.000    0.000 
#    0.000    0.000    0.000    0.000    0.000    0.000 
#
# Total GULP energy -78158.758959 kJ/mol
# GULP energy per Si atom -5582.768497 kJ/mol
# Density = 2.733995 g / cm^3
# Si number density = 27.402323 Si / 1000 Ang^3
#
#
#
# Elastic Constant Matrix: (Units=GPa)
#
#
# Indices 1 2 3 4 5 6 
#
# 1 148.4965 -1.2568 68.8528 1.7527 24.5584 1.5587
# 2 -1.2568 78.3135 16.4862 -10.8476 8.3227 11.3468
# 3 68.8528 16.4862 216.5367 -7.8765 37.3420 10.0138
# 4 1.7527 -10.8476 -7.8765 21.0854 6.2469 2.1076
# 5 24.5584 8.3227 37.3420 6.2469 49.0891 -0.0645
# 6 1.5587 11.3468 10.0138 2.1076 -0.0645 36.4662
#
#
#
# Elastic Compliance Matrix: (Units=1/GPa)
#
#
# Indices 1 2 3 4 5 6 
#
# 1 0.008202 0.000813 -0.002258 -0.000377 -0.002475 0.000034
# 2 0.000813 0.015341 -0.000119 0.009540 -0.004138 -0.005334
# 3 -0.002258 -0.000119 0.006282 0.003877 -0.004124 -0.001823
# 4 -0.000377 0.009540 0.003877 0.058041 -0.011774 -0.007392
# 5 -0.002475 -0.004138 -0.004124 -0.011774 0.026951 0.003254
# 6 0.000034 -0.005334 -0.001823 -0.007392 0.003254 0.030015
#
#
# Mechanical properties :
#
#
# Convention : Reuss Voigt Hill
#
# Bulk Modulus (GPa) = 37.45944 67.94567 52.70256
# Shear Modulus (GPa) = 31.87586 45.27910 38.57748
#
# Velocity S-wave (km/s) = 3.41435 4.06936 3.75616
# Velocity P-wave (km/s) = 5.40773 6.85047 6.17141
#
# Compressibility (1/GPa) = 0.02669554
#
# Stress axis : x y z
#
# Youngs Moduli (GPa) = 121.92860 65.18342 159.18807
#
# Poissons Ratio (x) = -0.05298 0.35948
# Poissons Ratio (y) = -0.09911 0.01898
# Poissons Ratio (z) = 0.27534 0.00777
#
# Static dielectric constant tensor:
#      x y z
#    x 2.129720 -0.071540 -0.049160 
#    y -0.071540 2.267420 0.077400 
#    z -0.049160 0.077400 2.208110 
# 
# From -- ./inp_files/121745.got.cif
#   From: 2010.05.17/outbox.cif.g08.bks.cpg/sg2_61_cif.got.tgz:121745.got - 2010.06.03 11:33:40.
