data_PCOD9101329
_publ_section_title
;
Structure prediction by ZEFSAII (Michael W. Deem and Ramdas Pophale) SiO2 
 PCOD9101329
Probable space group: P -1
;
_chemical_formula_sum "Si O2"
_cell_formula_units_Z 14
_cell_length_a 12.112263
_cell_length_b 6.025148
_cell_length_c 11.558923
_cell_angle_alpha 87.617363
_cell_angle_beta 81.433342
_cell_angle_gamma 133.585657
_cell_volume 591.819661
_symmetry_space_group_name_H-M "P -1"
_symmetry_group_IT_number 2
_symmetry_cell_setting 'triclinic'
loop_
_space_group_symop_operation_xyz
x,y,z
-x,-y,-z
loop_
_atom_site_type_symbol
_atom_site_label
_atom_site_fract_x
_atom_site_fract_y
_atom_site_fract_z
Si Si1 0.633400 0.874211 0.484826
Si Si2 0.043996 0.062616 0.169782
Si Si3 0.240216 0.719308 0.046349
Si Si4 0.849007 0.877105 0.595534
Si Si5 0.465827 0.870740 0.335600
Si Si6 0.208700 0.076393 0.917216
Si Si7 0.480628 0.741625 0.892666
O O1 0.500000 0.500000 0.500000
O O2 0.784842 0.988170 0.522754
O O3 0.621650 0.964841 0.357251
O O4 0.574077 0.984077 0.575310
O O5 0.111570 0.410989 0.146271
O O6 0.090253 0.012347 0.283860
O O7 0.114291 0.032071 0.047957
O O8 0.863147 0.868982 0.174201
O O9 0.345720 0.045147 0.090952
O O10 0.360459 0.687756 0.001239
O O11 0.186730 0.780548 0.940342
O O12 0.692183 0.501272 0.637240
O O13 0.000000 0.000000 0.500000
O O14 0.501410 0.043992 0.209172
O O15 0.393640 0.396373 0.877132
#
# Coordination Sequence:
#
# PCOD9101329 Si02
#       7
#     2   2   2   2   2   2   2
#     4   9  22  41  63  88 118 160 207 257 307 364
#     4  10  22  39  57  87 126 157 206 245 301 368
#     4  10  20  38  58  88 122 155 198 247 299 358
#     4  11  24  40  62  90 124 166 210 256 311 371
#     4  10  21  42  64  90 123 160 208 258 310 362
#     4  10  22  37  60  89 121 166 196 247 304 361
#     4  10  21  35  61  92 116 151 204 247 296 368
#
# _framework density 23.655853
#
# number of rings (size 3 to 8) (size 9 to 14) (size 15 to 20)
#    0.000    2.000    1.429    0.857    2.000    7.429 
#    0.000    0.000    0.000    0.000    0.000    0.000 
#    0.000    0.000    0.000    0.000    0.000    0.000 
#
# Total GULP energy -78003.678187 kJ/mol
# GULP energy per Si atom -5571.691299 kJ/mol
# Density = 2.360201 g / cm^3
# Si number density = 23.655853 Si / 1000 Ang^3
#
#
#
# Elastic Constant Matrix: (Units=GPa)
#
#
# Indices 1 2 3 4 5 6 
#
# 1 117.4362 -9.3701 26.4376 4.3504 43.6829 0.7347
# 2 -9.3701 31.6170 -7.8680 -5.9615 0.1184 3.0314
# 3 26.4376 -7.8680 91.0029 1.8817 35.5121 8.7267
# 4 4.3504 -5.9615 1.8817 31.4544 0.5858 4.8474
# 5 43.6829 0.1184 35.5121 0.5858 42.5157 -1.6723
# 6 0.7347 3.0314 8.7267 4.8474 -1.6723 15.7686
#
#
#
# Elastic Compliance Matrix: (Units=1/GPa)
#
#
# Indices 1 2 3 4 5 6 
#
# 1 0.015453 0.006431 0.004450 0.000201 -0.019873 -0.006588
# 2 0.006431 0.039056 0.008719 0.008876 -0.014787 -0.016930
# 3 0.004450 0.008719 0.020855 0.002784 -0.022710 -0.016689
# 4 0.000201 0.008876 0.002784 0.035595 -0.003621 -0.014583
# 5 -0.019873 -0.014787 -0.022710 -0.003621 0.063953 0.024232
# 6 -0.006588 -0.016930 -0.016689 -0.014583 0.024232 0.083267
#
#
# Mechanical properties :
#
#
# Convention : Reuss Voigt Hill
#
# Bulk Modulus (GPa) = 8.72886 28.71723 18.72305
# Shear Modulus (GPa) = 19.44252 33.33820 26.39036
#
# Velocity S-wave (km/s) = 2.86997 3.75814 3.34368
# Velocity P-wave (km/s) = 3.83149 5.56753 4.77900
#
# Compressibility (1/GPa) = 0.11456246
#
# Stress axis : x y z
#
# Youngs Moduli (GPa) = 64.71320 25.60411 47.95030
#
# Poissons Ratio (x) = -0.16466 -0.21336
# Poissons Ratio (y) = -0.41616 -0.41807
# Poissons Ratio (z) = -0.28795 -0.22324
#
# Static dielectric constant tensor:
#      x y z
#    x 1.973360 0.024370 0.044300 
#    y 0.024370 2.040430 0.145130 
#    z 0.044300 0.145130 2.009340 
# 
# From -- ./inp_files/28457.got.cif
#   From: 2010.05.17/outbox.cif.g08.bks.cpg/sg2_15_cif.got.tgz:28457.got - 2010.06.03 11:33:40.
