data_PCOD9101293
_publ_section_title
;
Structure prediction by ZEFSAII (Michael W. Deem and Ramdas Pophale) SiO2 
 PCOD9101293
Probable space group: P -1
;
_chemical_formula_sum "Si O2"
_cell_formula_units_Z 15
_cell_length_a 7.325677
_cell_length_b 20.929853
_cell_length_c 8.134450
_cell_angle_alpha 124.487833
_cell_angle_beta 37.138217
_cell_angle_gamma 123.983496
_cell_volume 605.980533
_symmetry_space_group_name_H-M "P -1"
_symmetry_group_IT_number 2
_symmetry_cell_setting 'triclinic'
loop_
_space_group_symop_operation_xyz
x,y,z
-x,-y,-z
loop_
_atom_site_type_symbol
_atom_site_label
_atom_site_fract_x
_atom_site_fract_y
_atom_site_fract_z
Si Si1 0.104932 0.592399 0.589371
Si Si2 0.622116 0.691473 0.180975
Si Si3 0.365887 0.869148 0.133747
Si Si4 0.554974 0.611637 0.610968
Si Si5 0.000000 0.500000 0.000000
Si Si6 0.758750 0.035441 0.110287
Si Si7 0.343410 0.138696 0.744093
Si Si8 0.264593 0.229407 0.436955
O O1 0.301592 0.631306 0.351798
O O2 0.301206 0.601430 0.629868
O O3 0.000000 0.500000 0.500000
O O4 0.846093 0.641810 0.870350
O O5 0.605119 0.772713 0.226498
O O6 0.731467 0.718535 0.326735
O O7 0.592654 0.856023 0.100411
O O8 0.030806 0.842080 0.419590
O O9 0.439782 0.810592 0.854288
O O10 0.497028 0.960934 0.128839
O O11 0.332712 0.571082 0.857791
O O12 0.714752 0.705705 0.629235
O O13 0.807835 0.562129 0.307646
O O14 0.992684 0.089522 0.894301
O O15 0.578552 0.090746 0.423457
O O16 0.000000 0.000000 0.000000
#
# Coordination Sequence:
#
# PCOD9101293 Si02
#       8
#     2   2   2   2   1   2   2   2
#     4  11  23  44  66  88 119 170 211 249 313 388
#     4  11  24  43  65  90 128 167 206 260 323 365
#     4  11  21  38  64  93 121 165 213 247 306 376
#     4  10  21  40  61  84 122 160 197 247 322 367
#     4  10  20  38  58  86 112 156 198 246 308 362
#     4  10  20  38  64  89 129 169 201 255 320 369
#     4  11  22  41  63  94 125 162 213 265 304 363
#     4  11  22  40  61  87 127 165 203 247 316 380
#
# _framework density 24.753271000000002
#
# number of rings (size 3 to 8) (size 9 to 14) (size 15 to 20)
#    0.000    1.333    0.000    9.200    0.000    0.000 
#   14.400    4.000    0.000    0.000    0.000    0.000 
#    0.000    0.000    0.000    0.000    0.000    0.000 
#
# Total GULP energy -83645.815172 kJ/mol
# GULP energy per Si atom -5576.387678 kJ/mol
# Density = 2.469693 g / cm^3
# Si number density = 24.753271 Si / 1000 Ang^3
#
#
#
# Elastic Constant Matrix: (Units=GPa)
#
#
# Indices 1 2 3 4 5 6 
#
# 1 35.8485 21.5952 17.8699 2.0860 -8.9137 4.2142
# 2 21.5952 203.9376 89.7379 -4.0285 -13.9697 -18.9180
# 3 17.8699 89.7379 233.9863 19.6043 -34.1129 -11.0814
# 4 2.0860 -4.0285 19.6043 49.1807 4.0400 -8.4968
# 5 -8.9137 -13.9697 -34.1129 4.0400 28.3857 3.6738
# 6 4.2142 -18.9180 -11.0814 -8.4968 3.6738 21.3533
#
#
#
# Elastic Compliance Matrix: (Units=1/GPa)
#
#
# Indices 1 2 3 4 5 6 
#
# 1 0.035689 -0.004770 0.000691 -0.005869 0.012519 -0.015400
# 2 -0.004770 0.007204 -0.002714 0.003435 -0.002706 0.007748
# 3 0.000691 -0.002714 0.006602 -0.003847 0.007616 -0.001956
# 4 -0.005869 0.003435 -0.003847 0.025693 -0.010269 0.014196
# 5 0.012519 -0.002706 0.007616 -0.010269 0.050208 -0.013640
# 6 -0.015400 0.007748 -0.001956 0.014196 -0.013640 0.063715
#
#
# Mechanical properties :
#
#
# Convention : Reuss Voigt Hill
#
# Bulk Modulus (GPa) = 27.84828 81.35316 54.60072
# Shear Modulus (GPa) = 23.29207 42.75525 33.02366
#
# Velocity S-wave (km/s) = 3.07085 4.16054 3.65651
# Velocity P-wave (km/s) = 4.88347 7.48445 6.31923
#
# Compressibility (1/GPa) = 0.03590886
#
# Stress axis : x y z
#
# Youngs Moduli (GPa) = 28.02008 138.81164 151.47463
#
# Poissons Ratio (x) = 0.66218 -0.10473
# Poissons Ratio (y) = 0.13366 0.41109
# Poissons Ratio (z) = -0.01937 0.37672
#
# Static dielectric constant tensor:
#      x y z
#    x 2.053340 0.004410 0.048590 
#    y 0.004410 2.068940 -0.071740 
#    z 0.048590 -0.071740 1.930450 
# 
# From -- ./inp_files/226431.got.cif
#   From: 2010.05.17/outbox.cif.g08.bks.cpg/sg2_114_cif.got.tgz:226431.got - 2010.06.03 11:33:40.
