data_PCOD9101215
_publ_section_title
;
Structure prediction by ZEFSAII (Michael W. Deem and Ramdas Pophale) SiO2 
 PCOD9101215
Probable space group: P -1
;
_chemical_formula_sum "Si O2"
_cell_formula_units_Z 16
_cell_length_a 6.897646
_cell_length_b 14.133925
_cell_length_c 16.652645
_cell_angle_alpha 31.261937
_cell_angle_beta 115.606671
_cell_angle_gamma 98.545715
_cell_volume 669.842553
_symmetry_space_group_name_H-M "P -1"
_symmetry_group_IT_number 2
_symmetry_cell_setting 'triclinic'
loop_
_space_group_symop_operation_xyz
x,y,z
-x,-y,-z
loop_
_atom_site_type_symbol
_atom_site_label
_atom_site_fract_x
_atom_site_fract_y
_atom_site_fract_z
Si Si1 0.109773 0.434225 0.711489
Si Si2 0.575506 0.662527 0.437644
Si Si3 0.746447 0.526011 0.107996
Si Si4 0.702631 0.010724 0.971160
Si Si5 0.393166 0.610415 0.225885
Si Si6 0.228640 0.539340 0.085065
Si Si7 0.578862 0.241838 0.268912
Si Si8 0.907290 0.762334 0.717324
O O1 0.169225 0.436487 0.815270
O O2 0.329804 0.435805 0.701370
O O3 0.851591 0.614762 0.506525
O O4 0.105359 0.224027 0.838259
O O5 0.500000 0.500000 0.500000
O O6 0.403593 0.884808 0.209708
O O7 0.587233 0.595820 0.580297
O O8 0.834784 0.280392 0.264600
O O9 0.020163 0.471095 0.145704
O O10 0.565978 0.700687 0.884614
O O11 0.753019 0.178939 0.903572
O O12 0.500000 0.000000 0.000000
O O13 0.276005 0.641487 0.096726
O O14 0.513776 0.472001 0.139658
O O15 0.329684 0.287961 0.254445
O O16 0.050393 0.706895 0.867916
O O17 0.737045 0.998568 0.491181
#
# Coordination Sequence:
#
# PCOD9101215 Si02
#       8
#     2   2   2   2   2   2   2   2
#     4  11  22  42  65  92 130 168 207 264 317 366
#     4  10  23  42  65  92 124 164 210 259 315 375
#     4  10  21  36  59  86 122 159 207 258 304 368
#     4   9  22  42  65  94 124 165 207 259 314 379
#     4  10  21  41  64  91 130 165 211 264 309 376
#     4  10  20  38  57  87 124 159 206 259 305 369
#     4  10  20  38  58  86 121 164 205 254 311 367
#     4  10  21  36  59  86 122 163 204 255 314 367
#
# _framework density 23.886210999999999
#
# number of rings (size 3 to 8) (size 9 to 14) (size 15 to 20)
#    0.000    2.000    1.250    1.500    0.000    8.500 
#    4.500    5.000    0.000    0.000    0.000    0.000 
#    0.000    0.000    0.000    0.000    0.000    0.000 
#
# Total GULP energy -89151.151642 kJ/mol
# GULP energy per Si atom -5571.946978 kJ/mol
# Density = 2.383184 g / cm^3
# Si number density = 23.886211 Si / 1000 Ang^3
#
#
#
# Elastic Constant Matrix: (Units=GPa)
#
#
# Indices 1 2 3 4 5 6 
#
# 1 176.8679 16.1925 8.6963 -17.5034 0.9310 17.8167
# 2 16.1925 86.0269 37.3830 15.4574 9.3432 -3.9363
# 3 8.6963 37.3830 130.5752 -3.5515 0.0744 3.0463
# 4 -17.5034 15.4574 -3.5515 14.0530 2.9762 1.7003
# 5 0.9310 9.3432 0.0744 2.9762 57.8724 6.5517
# 6 17.8167 -3.9363 3.0463 1.7003 6.5517 24.6192
#
#
#
# Elastic Compliance Matrix: (Units=1/GPa)
#
#
# Indices 1 2 3 4 5 6 
#
# 1 0.009186 -0.006909 0.002151 0.020546 0.001007 -0.009706
# 2 -0.006909 0.024105 -0.007783 -0.037994 -0.003325 0.013326
# 3 0.002151 -0.007783 0.010255 0.014249 0.001081 -0.005342
# 4 0.020546 -0.037994 0.014249 0.145738 0.002063 -0.033321
# 5 0.001007 -0.003325 0.001081 0.002063 0.018422 -0.006439
# 6 -0.009706 0.013326 -0.005342 -0.033321 -0.006439 0.054449
#
#
# Mechanical properties :
#
#
# Convention : Reuss Voigt Hill
#
# Bulk Modulus (GPa) = 54.16145 57.55707 55.85926
# Shear Modulus (GPa) = 17.04202 41.38878 29.21540
#
# Velocity S-wave (km/s) = 2.67398 4.16714 3.50109
# Velocity P-wave (km/s) = 5.67957 6.87765 6.30713
#
# Compressibility (1/GPa) = 0.01846332
#
# Stress axis : x y z
#
# Youngs Moduli (GPa) = 108.85575 41.48555 97.51277
#
# Poissons Ratio (x) = 0.28663 -0.20974
# Poissons Ratio (y) = 0.75209 0.75897
# Poissons Ratio (z) = -0.23414 0.32290
#
# Static dielectric constant tensor:
#      x y z
#    x 2.349100 -0.007390 -0.031910 
#    y -0.007390 1.837720 -0.025110 
#    z -0.031910 -0.025110 1.757390 
# 
# From -- ./inp_files/348869.got.cif
#   From: 2010.05.17/outbox.cif.g08.bks.cpg/sg2_175_cif.got.tgz:348869.got - 2010.06.03 11:33:40.
