data_PCOD9101979
_publ_section_title
;
Structure prediction by ZEFSAII (Michael W. Deem and Ramdas Pophale) SiO2 
 PCOD9101979
Probable space group: P -1
;
_chemical_formula_sum "Si O2"
_cell_formula_units_Z 16
_cell_length_a 12.638536
_cell_length_b 11.677115
_cell_length_c 9.254624
_cell_angle_alpha 51.297140
_cell_angle_beta 49.672744
_cell_angle_gamma 76.241933
_cell_volume 779.983034
_symmetry_space_group_name_H-M "P -1"
_symmetry_group_IT_number 2
_symmetry_cell_setting 'triclinic'
loop_
_space_group_symop_operation_xyz
x,y,z
-x,-y,-z
loop_
_atom_site_type_symbol
_atom_site_label
_atom_site_fract_x
_atom_site_fract_y
_atom_site_fract_z
Si Si1 0.207345 0.827829 0.734189
Si Si2 0.864954 0.869163 0.786832
Si Si3 0.173901 0.368061 0.443965
Si Si4 0.678283 0.820414 0.725608
Si Si5 0.406339 0.845507 0.785555
Si Si6 0.063251 0.658449 0.738923
Si Si7 0.843149 0.309519 0.697401
Si Si8 0.922146 0.861853 0.068461
O O1 0.313043 0.767194 0.790631
O O2 0.192039 0.761585 0.641138
O O3 0.246556 0.012164 0.543010
O O4 0.046638 0.782737 0.975971
O O5 0.720868 0.848474 0.835074
O O6 0.926119 0.726075 0.813611
O O7 0.863274 0.900342 0.935333
O O8 0.000000 0.000000 0.500000
O O9 0.254648 0.311161 0.287560
O O10 0.205361 0.546094 0.310749
O O11 0.197431 0.265106 0.639168
O O12 0.002136 0.314013 0.608209
O O13 0.517511 0.784967 0.831022
O O14 0.500000 0.000000 0.500000
O O15 0.276415 0.839973 0.018788
O O16 0.129106 0.663422 0.518172
O O17 0.000000 0.500000 0.000000
O O18 0.000000 0.000000 0.000000
#
# Coordination Sequence:
#
# PCOD9101979 Si02
#       8
#     2   2   2   2   2   2   2   2
#     4  10  20  38  61  89 128 165 209 261 324 377
#     4  11  20  35  60  92 123 161 210 270 318 364
#     4  11  22  37  63  96 118 163 221 269 317 372
#     4  11  21  41  60  93 125 169 208 264 323 382
#     4  10  24  42  63  91 134 171 212 259 326 394
#     4  11  23  38  64  96 131 163 210 274 331 373
#     4  11  23  39  63  93 127 168 218 263 317 390
#     4  11  19  32  61  93 125 148 206 271 317 365
#
# _framework density 20.513266999999999
#
# number of rings (size 3 to 8) (size 9 to 14) (size 15 to 20)
#    0.000    1.250    6.250    1.500    1.750    0.500 
#    0.000    3.750    0.000    2.250    0.000    0.000 
#    0.000    0.000    0.000    0.000    0.000    0.000 
#
# Total GULP energy -89080.292129 kJ/mol
# GULP energy per Si atom -5567.518258 kJ/mol
# Density = 2.046658 g / cm^3
# Si number density = 20.513267 Si / 1000 Ang^3
#
#
#
# Elastic Constant Matrix: (Units=GPa)
#
#
# Indices 1 2 3 4 5 6 
#
# 1 160.6623 37.2855 22.3552 19.0202 23.4358 15.5499
# 2 37.2855 88.8945 26.7405 5.2031 11.8284 9.1025
# 3 22.3552 26.7405 89.0854 13.7594 15.5883 9.3762
# 4 19.0202 5.2031 13.7594 23.0725 3.9610 15.2355
# 5 23.4358 11.8284 15.5883 3.9610 34.6369 9.5995
# 6 15.5499 9.1025 9.3762 15.2355 9.5995 23.2474
#
#
#
# Elastic Compliance Matrix: (Units=1/GPa)
#
#
# Indices 1 2 3 4 5 6 
#
# 1 0.008061 -0.002699 0.000408 -0.006620 -0.004420 0.001664
# 2 -0.002699 0.013750 -0.003567 0.004624 -0.000407 -0.005003
# 3 0.000408 -0.003567 0.014230 -0.009735 -0.005463 0.004020
# 4 -0.006620 0.004624 -0.009735 0.089111 0.012944 -0.057201
# 5 -0.004420 -0.000407 -0.005463 0.012944 0.038231 -0.018950
# 6 0.001664 -0.005003 0.004020 -0.057201 -0.018950 0.087553
#
#
# Mechanical properties :
#
#
# Convention : Reuss Voigt Hill
#
# Bulk Modulus (GPa) = 41.10748 56.82272 48.96510
# Shear Modulus (GPa) = 18.46661 33.00876 25.73769
#
# Velocity S-wave (km/s) = 3.00363 4.01576 3.54600
# Velocity P-wave (km/s) = 5.66675 7.01872 6.37865
#
# Compressibility (1/GPa) = 0.02432648
#
# Stress axis : x y z
#
# Youngs Moduli (GPa) = 124.05055 72.72852 70.27535
#
# Poissons Ratio (x) = 0.19626 -0.02867
# Poissons Ratio (y) = 0.33476 0.25064
# Poissons Ratio (z) = -0.05061 0.25939
#
# Static dielectric constant tensor:
#      x y z
#    x 1.774980 0.032500 0.006130 
#    y 0.032500 1.765420 0.006030 
#    z 0.006130 0.006030 1.788290 
# 
# From -- ./inp_files/261508.got.cif
#   From: 2010.05.17/outbox.cif.g08.bks.cpg/sg2_131_cif.got.tgz:261508.got - 2010.06.03 11:33:40.
