data_PCOD9101842
_publ_section_title
;
Structure prediction by ZEFSAII (Michael W. Deem and Ramdas Pophale) SiO2 
 PCOD9101842
Probable space group: P -1
;
_chemical_formula_sum "Si O2"
_cell_formula_units_Z 16
_cell_length_a 19.138508
_cell_length_b 8.707571
_cell_length_c 11.614259
_cell_angle_alpha 33.566518
_cell_angle_beta 42.268647
_cell_angle_gamma 62.214935
_cell_volume 658.266387
_symmetry_space_group_name_H-M "P -1"
_symmetry_group_IT_number 2
_symmetry_cell_setting 'triclinic'
loop_
_space_group_symop_operation_xyz
x,y,z
-x,-y,-z
loop_
_atom_site_type_symbol
_atom_site_label
_atom_site_fract_x
_atom_site_fract_y
_atom_site_fract_z
Si Si1 0.436465 0.410979 0.772154
Si Si2 0.406617 0.522337 0.261440
Si Si3 0.016095 0.694166 0.185334
Si Si4 0.612962 0.996202 0.559722
Si Si5 0.922813 0.178639 0.455338
Si Si6 0.700316 0.052642 0.939723
Si Si7 0.233216 0.058292 0.410372
Si Si8 0.813680 0.363733 0.817214
O O1 0.549281 0.449338 0.679836
O O2 0.411775 0.712089 0.620055
O O3 0.337276 0.169135 0.124421
O O4 0.407657 0.236552 0.793842
O O5 0.381775 0.199900 0.434512
O O6 0.308053 0.642540 0.290889
O O7 0.508785 0.763539 0.908604
O O8 0.134158 0.733495 0.075526
O O9 0.991116 0.516906 0.206630
O O10 0.917187 0.491906 0.519966
O O11 0.000000 0.000000 0.000000
O O12 0.725800 0.083698 0.444781
O O13 0.810868 0.030126 0.764985
O O14 0.876929 0.140235 0.405381
O O15 0.000000 0.000000 0.500000
O O16 0.716083 0.107789 0.022304
O O17 0.220775 0.361238 0.280370
#
# Coordination Sequence:
#
# PCOD9101842 Si02
#       8
#     2   2   2   2   2   2   2   2
#     4  10  22  37  60  89 116 152 198 238 286 344
#     4  10  20  39  59  84 122 153 192 237 297 339
#     4  10  22  38  60  87 112 152 200 239 292 345
#     4  10  21  37  61  89 115 155 195 239 286 348
#     4  10  20  39  61  84 118 155 190 239 297 339
#     4  10  21  38  60  85 118 157 189 242 294 343
#     4  10  20  38  61  83 119 156 190 237 289 342
#     4  10  20  39  59  80 121 153 186 244 293 335
#
# _framework density 24.306270000000001
#
# number of rings (size 3 to 8) (size 9 to 14) (size 15 to 20)
#    0.000    2.000    2.500    0.750    0.000    2.500 
#    0.000    0.625    0.000    0.000    0.000    0.000 
#    0.000    0.000    0.000    0.000    0.000    0.000 
#
# Total GULP energy -89574.577212 kJ/mol
# GULP energy per Si atom -5598.411076 kJ/mol
# Density = 2.425095 g / cm^3
# Si number density = 24.306270 Si / 1000 Ang^3
#
#
#
# Elastic Constant Matrix: (Units=GPa)
#
#
# Indices 1 2 3 4 5 6 
#
# 1 184.8569 49.1976 37.9793 -11.5881 -12.9010 12.3997
# 2 49.1976 109.6862 16.6279 -21.7029 -12.8582 2.8897
# 3 37.9793 16.6279 61.8785 -10.8095 -1.2500 13.7624
# 4 -11.5881 -21.7029 -10.8095 39.7636 8.9438 -2.1969
# 5 -12.9010 -12.8582 -1.2500 8.9438 30.0939 -10.5085
# 6 12.3997 2.8897 13.7624 -2.1969 -10.5085 54.4404
#
#
#
# Elastic Compliance Matrix: (Units=1/GPa)
#
#
# Indices 1 2 3 4 5 6 
#
# 1 0.006912 -0.002471 -0.003632 -0.000763 0.001919 -0.000186
# 2 -0.002471 0.011612 -0.000910 0.004801 0.002752 0.000901
# 3 -0.003632 -0.000910 0.020461 0.004681 -0.004205 -0.004920
# 4 -0.000763 0.004801 0.004681 0.030459 -0.007662 -0.001514
# 5 0.001919 0.002752 -0.004205 -0.007662 0.040092 0.007910
# 6 -0.000186 0.000901 -0.004920 -0.001514 0.007910 0.021073
#
#
# Mechanical properties :
#
#
# Convention : Reuss Voigt Hill
#
# Bulk Modulus (GPa) = 40.06405 62.67015 51.36710
# Shear Modulus (GPa) = 32.68962 41.70071 37.19516
#
# Velocity S-wave (km/s) = 3.67127 4.14652 3.91611
# Velocity P-wave (km/s) = 5.87280 6.98314 6.45190
#
# Compressibility (1/GPa) = 0.02496003
#
# Stress axis : x y z
#
# Youngs Moduli (GPa) = 144.68016 86.11794 48.87287
#
# Poissons Ratio (x) = 0.21279 0.17749
# Poissons Ratio (y) = 0.35748 0.04447
# Poissons Ratio (z) = 0.52542 0.07837
#
# Static dielectric constant tensor:
#      x y z
#    x 1.948380 0.030890 -0.036320 
#    y 0.030890 1.900700 0.077710 
#    z -0.036320 0.077710 2.001950 
# 
# From -- ./inp_files/99756.got.cif
#   From: 2010.05.17/outbox.cif.g08.bks.cpg/sg2_50_cif.got.tgz:99756.got - 2010.06.03 11:33:40.
