data_PCOD9101752
_publ_section_title
;
Structure prediction by ZEFSAII (Michael W. Deem and Ramdas Pophale) SiO2 
 PCOD9101752
Probable space group: P -1
;
_chemical_formula_sum "Si O2"
_cell_formula_units_Z 16
_cell_length_a 18.688591
_cell_length_b 10.726493
_cell_length_c 11.710157
_cell_angle_alpha 126.415183
_cell_angle_beta 158.947257
_cell_angle_gamma 49.482684
_cell_volume 640.369999
_symmetry_space_group_name_H-M "P -1"
_symmetry_group_IT_number 2
_symmetry_cell_setting 'triclinic'
loop_
_space_group_symop_operation_xyz
x,y,z
-x,-y,-z
loop_
_atom_site_type_symbol
_atom_site_label
_atom_site_fract_x
_atom_site_fract_y
_atom_site_fract_z
Si Si1 0.417831 0.689706 0.375695
Si Si2 0.815394 0.718128 0.130267
Si Si3 0.748351 0.942018 0.732602
Si Si4 0.740768 0.009068 0.007826
Si Si5 0.539785 0.809594 0.973700
Si Si6 0.632606 0.322346 0.145544
Si Si7 0.271910 0.599831 0.441888
Si Si8 0.963143 0.379417 0.108852
O O1 0.611404 0.702404 0.747618
O O2 0.532828 0.569257 0.377940
O O3 0.254925 0.620114 0.158112
O O4 0.276987 0.871602 0.231173
O O5 0.753582 0.734150 0.180180
O O6 0.998209 0.541036 0.298163
O O7 0.818119 0.885015 0.162543
O O8 0.508845 0.943421 0.365722
O O9 0.836021 0.922366 0.983028
O O10 0.877470 0.804591 0.760966
O O11 0.751086 0.186322 0.155888
O O12 0.515689 0.754698 0.037950
O O13 0.362432 0.744616 0.615262
O O14 0.500000 0.000000 0.000000
O O15 0.779640 0.355717 0.481013
O O16 0.500000 0.500000 0.000000
O O17 0.087667 0.586935 0.082334
#
# Coordination Sequence:
#
# PCOD9101752 Si02
#       8
#     2   2   2   2   2   2   2   2
#     4  10  16  32  54  81 107 135 174 221 270 324
#     4  10  17  32  57  77 106 139 179 222 263 321
#     4  10  23  33  52  78 109 144 176 223 272 320
#     4  10  21  38  50  74 108 147 186 215 264 325
#     4  10  17  31  55  87 102 141 182 217 262 323
#     4  10  19  32  57  79 105 140 180 224 263 319
#     4   9  18  31  57  83 104 135 180 221 268 322
#     4  11  18  33  55  83 109 133 177 229 272 312
#
# _framework density 24.985554
#
# number of rings (size 3 to 8) (size 9 to 14) (size 15 to 20)
#    0.750    1.250    3.750    1.875    0.000    1.500 
#    0.000    0.625    0.000    7.500    0.000    0.000 
#    0.000    0.000    0.000    0.000    0.000    0.000 
#
# Total GULP energy -89233.444844 kJ/mol
# GULP energy per Si atom -5577.090303 kJ/mol
# Density = 2.492869 g / cm^3
# Si number density = 24.985554 Si / 1000 Ang^3
#
#
#
# Elastic Constant Matrix: (Units=GPa)
#
#
# Indices 1 2 3 4 5 6 
#
# 1 55.1597 29.1191 1.0676 -0.0622 0.1662 2.2015
# 2 29.1191 194.7369 13.3746 -7.6061 10.7395 -8.8911
# 3 1.0676 13.3746 35.8363 -3.2245 -3.4418 1.3716
# 4 -0.0622 -7.6061 -3.2245 24.5216 -3.2375 -4.9489
# 5 0.1662 10.7395 -3.4418 -3.2375 23.7439 2.6507
# 6 2.2015 -8.8911 1.3716 -4.9489 2.6507 51.0148
#
#
#
# Elastic Compliance Matrix: (Units=1/GPa)
#
#
# Indices 1 2 3 4 5 6 
#
# 1 0.019870 -0.003213 0.000721 -0.000983 0.001464 -0.001608
# 2 -0.003213 0.006077 -0.002392 0.001476 -0.003046 0.001564
# 3 0.000721 -0.002392 0.029736 0.003724 0.006029 -0.001199
# 4 -0.000983 0.001476 0.003724 0.043259 0.005318 0.004120
# 5 0.001464 -0.003046 0.006029 0.005318 0.045373 -0.002598
# 6 -0.001608 0.001564 -0.001199 0.004120 -0.002598 0.020511
#
#
# Mechanical properties :
#
#
# Convention : Reuss Voigt Hill
#
# Bulk Modulus (GPa) = 21.77947 41.42837 31.60392
# Shear Modulus (GPa) = 26.32985 36.00084 31.16535
#
# Velocity S-wave (km/s) = 3.24976 3.79999 3.53559
# Velocity P-wave (km/s) = 4.77671 5.98917 5.41697
#
# Compressibility (1/GPa) = 0.04591481
#
# Stress axis : x y z
#
# Youngs Moduli (GPa) = 50.32656 164.55724 33.62939
#
# Poissons Ratio (x) = 0.52877 -0.02425
# Poissons Ratio (y) = 0.16171 0.08044
# Poissons Ratio (z) = -0.03629 0.39360
#
# Static dielectric constant tensor:
#      x y z
#    x 2.052690 0.029870 0.029530 
#    y 0.029870 2.035440 0.019040 
#    z 0.029530 0.019040 2.029790 
# 
# From -- ./inp_files/464854.got.cif
#   From: 2010.05.17/outbox.cif.g08.bks.cpg/sg2_233_cif.got.tgz:464854.got - 2010.06.03 11:33:40.
