data_PCOD9101314
_publ_section_title
;
Structure prediction by ZEFSAII (Michael W. Deem and Ramdas Pophale) SiO2 
 PCOD9101314
Probable space group: P -1
;
_chemical_formula_sum "Si O2"
_cell_formula_units_Z 14
_cell_length_a 20.235310
_cell_length_b 7.534178
_cell_length_c 6.424127
_cell_angle_alpha 63.435070
_cell_angle_beta 125.767050
_cell_angle_gamma 125.814380
_cell_volume 636.135003
_symmetry_space_group_name_H-M "P -1"
_symmetry_group_IT_number 2
_symmetry_cell_setting 'triclinic'
loop_
_space_group_symop_operation_xyz
x,y,z
-x,-y,-z
loop_
_atom_site_type_symbol
_atom_site_label
_atom_site_fract_x
_atom_site_fract_y
_atom_site_fract_z
Si Si1 0.585447 0.827876 0.425546
Si Si2 0.860990 0.397581 0.869035
Si Si3 0.915239 0.816381 0.057249
Si Si4 0.997640 0.643202 0.619570
Si Si5 0.320136 0.686398 0.649340
Si Si6 0.724766 0.678129 0.899906
Si Si7 0.421388 0.593969 0.532701
O O1 0.499404 0.776564 0.440311
O O2 0.559068 0.622946 0.323546
O O3 0.631022 0.070613 0.283654
O O4 0.659499 0.797975 0.727267
O O5 0.759521 0.308663 0.644131
O O6 0.926280 0.490573 0.739637
O O7 0.881182 0.598792 0.961934
O O8 0.902504 0.254479 0.146316
O O9 0.824683 0.842530 0.920196
O O10 0.956085 0.793893 0.364958
O O11 0.000000 0.000000 0.000000
O O12 0.000000 0.500000 0.500000
O O13 0.276511 0.470498 0.828712
O O14 0.398939 0.665843 0.671614
O O15 0.673059 0.497408 0.720460
#
# Coordination Sequence:
#
# PCOD9101314 Si02
#       7
#     2   2   2   2   2   2   2
#     4   9  22  43  64  94 132 162 208 263 312 384
#     4  10  20  38  58  87 119 161 213 258 307 384
#     4  11  22  40  60  84 127 166 208 267 315 365
#     4   9  20  37  57  81 116 158 205 258 303 367
#     4  12  21  40  70  89 130 170 205 258 331 364
#     4  10  22  42  61  94 127 162 219 262 303 394
#     4   9  21  46  59  98 134 154 215 265 301 389
#
# _framework density 22.007909000000001
#
# number of rings (size 3 to 8) (size 9 to 14) (size 15 to 20)
#    0.857    1.143    2.857    0.429    0.000    5.143 
#    5.143    0.000    0.000    0.000    0.000    0.000 
#    0.000    0.000    0.000    0.000    0.000    0.000 
#
# Total GULP energy -78002.885288 kJ/mol
# GULP energy per Si atom -5571.634663 kJ/mol
# Density = 2.195782 g / cm^3
# Si number density = 22.007909 Si / 1000 Ang^3
#
#
#
# Elastic Constant Matrix: (Units=GPa)
#
#
# Indices 1 2 3 4 5 6 
#
# 1 89.8816 16.3168 5.9904 3.6098 5.0560 19.8610
# 2 16.3168 72.6786 3.1152 -0.8028 0.9943 10.0577
# 3 5.9904 3.1152 64.8140 -2.5922 7.8592 6.1397
# 4 3.6098 -0.8028 -2.5922 16.0816 2.4757 -7.1969
# 5 5.0560 0.9943 7.8592 2.4757 23.9448 10.7157
# 6 19.8610 10.0577 6.1397 -7.1969 10.7157 32.5611
#
#
#
# Elastic Compliance Matrix: (Units=1/GPa)
#
#
# Indices 1 2 3 4 5 6 
#
# 1 0.014074 -0.001760 -0.000922 -0.008730 0.003155 -0.010835
# 2 -0.001760 0.014727 -0.000420 -0.001155 0.001937 -0.004288
# 3 -0.000922 -0.000420 0.016348 0.003850 -0.005702 0.000337
# 4 -0.008730 -0.001155 0.003850 0.081345 -0.021163 0.029900
# 5 0.003155 0.001937 -0.005702 -0.021163 0.056075 -0.024579
# 6 -0.010835 -0.004288 0.000337 0.029900 -0.024579 0.053279
#
#
# Mechanical properties :
#
#
# Convention : Reuss Voigt Hill
#
# Bulk Modulus (GPa) = 25.67740 30.91322 28.29531
# Shear Modulus (GPa) = 19.60530 27.98094 23.79312
#
# Velocity S-wave (km/s) = 2.98792 3.56954 3.29160
# Velocity P-wave (km/s) = 4.85759 5.57367 5.22790
#
# Compressibility (1/GPa) = 0.03894475
#
# Stress axis : x y z
#
# Youngs Moduli (GPa) = 71.05244 67.90411 61.17097
#
# Poissons Ratio (x) = 0.11954 0.05637
# Poissons Ratio (y) = 0.12508 0.02568
# Poissons Ratio (z) = 0.06548 0.02851
#
# Static dielectric constant tensor:
#      x y z
#    x 1.849040 -0.032150 0.049440 
#    y -0.032150 1.835780 -0.016530 
#    z 0.049440 -0.016530 1.837100 
# 
# From -- ./inp_files/43905.got.cif
#   From: 2010.05.17/outbox.cif.g08.bks.cpg/sg2_22_cif.got.tgz:43905.got - 2010.06.03 11:33:40.
