data_PCOD9101323
_publ_section_title
;
Structure prediction by ZEFSAII (Michael W. Deem and Ramdas Pophale) SiO2 
 PCOD9101323
Probable space group: P -1
;
_chemical_formula_sum "Si O2"
_cell_formula_units_Z 13
_cell_length_a 18.144982
_cell_length_b 14.095096
_cell_length_c 11.591682
_cell_angle_alpha 147.535153
_cell_angle_beta 29.569139
_cell_angle_gamma 158.307454
_cell_volume 530.377338
_symmetry_space_group_name_H-M "P -1"
_symmetry_group_IT_number 2
_symmetry_cell_setting 'triclinic'
loop_
_space_group_symop_operation_xyz
x,y,z
-x,-y,-z
loop_
_atom_site_type_symbol
_atom_site_label
_atom_site_fract_x
_atom_site_fract_y
_atom_site_fract_z
Si Si1 0.749552 0.013592 0.247030
Si Si2 0.780093 0.209976 0.632779
Si Si3 0.931798 0.965703 0.263800
Si Si4 0.133727 0.698382 0.824884
Si Si5 0.745021 0.573570 0.311476
Si Si6 0.672917 0.508087 0.598596
Si Si7 0.500000 0.000000 0.000000
O O1 0.558913 0.719572 0.254196
O O2 0.771088 0.195755 0.493737
O O3 0.702049 0.044898 0.215082
O O4 0.980050 0.108187 0.017856
O O5 0.553612 0.063900 0.852800
O O6 0.959720 0.472959 0.733330
O O7 0.829312 0.047348 0.428894
O O8 0.773275 0.743989 0.348816
O O9 0.153414 0.226971 0.293817
O O10 0.231445 0.608980 0.655763
O O11 0.990737 0.694753 0.101624
O O12 0.674192 0.578571 0.538516
O O13 0.586980 0.277129 0.186004
#
# Coordination Sequence:
#
# PCOD9101323 Si02
#       7
#     2   2   2   2   2   2   1
#     4  11  20  37  58  84 117 149 189 231 279 332
#     4  10  20  38  60  82 117 147 191 230 287 326
#     4  10  23  37  58  84 118 152 184 227 285 346
#     4   9  21  35  59  84 114 150 191 231 279 335
#     4  10  20  38  60  82 117 147 191 230 287 326
#     4  11  20  37  58  84 117 149 189 231 279 332
#     4  10  20  38  58  88 106 144 190 248 260 332
#
# _framework density 24.510850000000001
#
# number of rings (size 3 to 8) (size 9 to 14) (size 15 to 20)
#    0.000    1.846    1.538    2.769    0.000    0.615 
#    0.000    0.000    0.000    0.000    0.000    0.000 
#    0.000    0.000    0.000    0.000    0.000    0.000 
#
# Total GULP energy -72391.186536 kJ/mol
# GULP energy per Si atom -5568.552810 kJ/mol
# Density = 2.445506 g / cm^3
# Si number density = 24.510850 Si / 1000 Ang^3
#
#
#
# Elastic Constant Matrix: (Units=GPa)
#
#
# Indices 1 2 3 4 5 6 
#
# 1 43.4950 16.0912 1.6272 -9.7512 6.2082 -14.3111
# 2 16.0912 108.5562 -3.6378 -6.6219 16.1102 -17.2977
# 3 1.6272 -3.6378 59.1918 -24.2558 18.9566 -2.9062
# 4 -9.7512 -6.6219 -24.2558 35.0409 -6.4060 18.0486
# 5 6.2082 16.1102 18.9566 -6.4060 40.9804 1.8459
# 6 -14.3111 -17.2977 -2.9062 18.0486 1.8459 38.8942
#
#
#
# Elastic Compliance Matrix: (Units=1/GPa)
#
#
# Indices 1 2 3 4 5 6 
#
# 1 0.027750 -0.001868 0.002750 0.004503 -0.004385 0.007703
# 2 -0.001868 0.011170 0.002790 0.000065 -0.005602 0.004725
# 3 0.002750 0.002790 0.029606 0.022488 -0.011449 -0.005427
# 4 0.004503 0.000065 0.022488 0.057027 -0.001158 -0.023042
# 5 -0.004385 -0.005602 -0.011449 -0.001158 0.032652 -0.005972
# 6 0.007703 0.004725 -0.005427 -0.023042 -0.005972 0.041217
#
#
# Mechanical properties :
#
#
# Convention : Reuss Voigt Hill
#
# Bulk Modulus (GPa) = 13.18038 26.60047 19.89042
# Shear Modulus (GPa) = 23.00262 36.12724 29.56493
#
# Velocity S-wave (km/s) = 3.06676 3.84334 3.47680
# Velocity P-wave (km/s) = 4.23428 5.52912 4.92444
#
# Compressibility (1/GPa) = 0.07587036
#
# Stress axis : x y z
#
# Youngs Moduli (GPa) = 36.03668 89.52234 33.77738
#
# Poissons Ratio (x) = 0.16725 -0.09289
# Poissons Ratio (y) = 0.06733 -0.09426
# Poissons Ratio (z) = -0.09911 -0.24981
#
# Static dielectric constant tensor:
#      x y z
#    x 1.985240 0.051450 -0.082280 
#    y 0.051450 2.031980 -0.079670 
#    z -0.082280 -0.079670 2.014760 
# 
# From -- ./inp_files/146902.got.cif
#   From: 2010.05.17/outbox.cif.g08.bks.cpg/sg2_74_cif.got.tgz:146902.got - 2010.06.03 11:33:40.
