data_PCOD9101844
_publ_section_title
;
Structure prediction by ZEFSAII (Michael W. Deem and Ramdas Pophale) SiO2 
 PCOD9101844
Probable space group: P -1
;
_chemical_formula_sum "Si O2"
_cell_formula_units_Z 10
_cell_length_a 9.947799
_cell_length_b 7.682752
_cell_length_c 9.918351
_cell_angle_alpha 82.691243
_cell_angle_beta 141.459090
_cell_angle_gamma 76.750791
_cell_volume 396.715408
_symmetry_space_group_name_H-M "P -1"
_symmetry_group_IT_number 2
_symmetry_cell_setting 'triclinic'
loop_
_space_group_symop_operation_xyz
x,y,z
-x,-y,-z
loop_
_atom_site_type_symbol
_atom_site_label
_atom_site_fract_x
_atom_site_fract_y
_atom_site_fract_z
Si Si1 0.766497 0.140948 0.032578
Si Si2 0.860864 0.717141 0.740323
Si Si3 0.376019 0.131774 0.191052
Si Si4 0.175666 0.495404 0.517699
Si Si5 0.340174 0.726670 0.781411
O O1 0.825315 0.126025 0.240006
O O2 0.907239 0.246795 0.069267
O O3 0.461213 0.296292 0.772493
O O4 0.802832 0.946238 0.998420
O O5 0.755212 0.709145 0.804054
O O6 0.914967 0.539583 0.693295
O O7 0.630893 0.932932 0.473751
O O8 0.474434 0.207499 0.138649
O O9 0.205522 0.687825 0.554467
O O10 0.000000 0.500000 0.500000
O O11 0.500000 0.500000 0.000000
#
# Coordination Sequence:
#
# PCOD9101844 Si02
#       5
#     2   2   2   2   2
#     4  10  20  38  63  85 117 155 199 242 290 352
#     4  10  21  39  62  88 119 155 194 244 295 350
#     4  10  22  39  59  90 121 152 196 243 296 348
#     4  10  20  38  61  83 121 155 196 243 289 350
#     4  10  21  39  60  86 120 156 196 242 293 349
#
# _framework density 25.206987000000002
#
# number of rings (size 3 to 8) (size 9 to 14) (size 15 to 20)
#    0.000    2.000    2.000    1.200    0.000    1.600 
#    7.200    4.000    0.000    0.000    0.000    0.000 
#    0.000    0.000    0.000    0.000    0.000    0.000 
#
# Total GULP energy -55967.905601 kJ/mol
# GULP energy per Si atom -5596.790560 kJ/mol
# Density = 2.514961 g / cm^3
# Si number density = 25.206987 Si / 1000 Ang^3
#
#
#
# Elastic Constant Matrix: (Units=GPa)
#
#
# Indices 1 2 3 4 5 6 
#
# 1 126.5486 35.2206 3.7544 14.6819 -10.3374 -8.9347
# 2 35.2206 145.4170 13.9116 34.8453 -3.5703 -21.7694
# 3 3.7544 13.9116 79.9609 1.2842 -3.4003 4.4502
# 4 14.6819 34.8453 1.2842 50.5815 5.1906 3.8491
# 5 -10.3374 -3.5703 -3.4003 5.1906 38.5749 1.3429
# 6 -8.9347 -21.7694 4.4502 3.8491 1.3429 48.0350
#
#
#
# Elastic Compliance Matrix: (Units=1/GPa)
#
#
# Indices 1 2 3 4 5 6 
#
# 1 0.008802 -0.001452 -0.000086 -0.001883 0.002433 0.001070
# 2 -0.001452 0.009759 -0.001743 -0.006737 0.001099 0.004823
# 3 -0.000086 -0.001743 0.012954 0.000965 0.000901 -0.002109
# 4 -0.001883 -0.006737 0.000965 0.025790 -0.004324 -0.005438
# 5 0.002433 0.001099 0.000901 -0.004324 0.027323 0.000450
# 6 0.001070 0.004823 -0.002109 -0.005438 0.000450 0.023821
#
#
# Mechanical properties :
#
#
# Convention : Reuss Voigt Hill
#
# Bulk Modulus (GPa) = 40.08029 50.85551 45.46790
# Shear Modulus (GPa) = 40.54196 47.37428 43.95812
#
# Velocity S-wave (km/s) = 4.01479 4.33992 4.18052
# Velocity P-wave (km/s) = 6.11771 6.73292 6.43267
#
# Compressibility (1/GPa) = 0.02494992
#
# Stress axis : x y z
#
# Youngs Moduli (GPa) = 113.61539 102.47434 77.19860
#
# Poissons Ratio (x) = 0.14883 0.00667
# Poissons Ratio (y) = 0.16502 0.13456
# Poissons Ratio (z) = 0.00982 0.17862
#
# Static dielectric constant tensor:
#      x y z
#    x 1.881660 -0.047110 0.005360 
#    y -0.047110 2.027630 -0.062970 
#    z 0.005360 -0.062970 2.203800 
# 
# From -- ./inp_files/15680.got.cif
#   From: 2010.05.17/outbox.cif.g08.bks.cpg/sg2_8_cif.got.tgz:15680.got - 2010.06.03 11:33:40.
