data_PCOD9101041
_publ_section_title
;
Structure prediction by ZEFSAII (Michael W. Deem and Ramdas Pophale) SiO2 
 PCOD9101041
Probable space group: P -1
;
_chemical_formula_sum "Si O2"
_cell_formula_units_Z 16
_cell_length_a 18.289550
_cell_length_b 7.813358
_cell_length_c 5.342694
_cell_angle_alpha 86.082830
_cell_angle_beta 113.546353
_cell_angle_gamma 78.646937
_cell_volume 676.986030
_symmetry_space_group_name_H-M "P -1"
_symmetry_group_IT_number 2
_symmetry_cell_setting 'triclinic'
loop_
_space_group_symop_operation_xyz
x,y,z
-x,-y,-z
loop_
_atom_site_type_symbol
_atom_site_label
_atom_site_fract_x
_atom_site_fract_y
_atom_site_fract_z
Si Si1 0.547503 0.426540 0.321383
Si Si2 0.719285 0.329387 0.738516
Si Si3 0.449141 0.979521 0.682749
Si Si4 0.849865 0.567089 0.925623
Si Si5 0.081057 0.610783 0.446716
Si Si6 0.959543 0.946625 0.200901
Si Si7 0.808275 0.130478 0.269235
Si Si8 0.259760 0.064183 0.416028
O O1 0.500000 0.500000 0.500000
O O2 0.638162 0.450408 0.493472
O O3 0.556531 0.220094 0.328994
O O4 0.500000 0.500000 0.000000
O O5 0.786164 0.442672 0.813524
O O6 0.730865 0.137120 0.646593
O O7 0.724613 0.264968 0.043681
O O8 0.500000 0.000000 0.500000
O O9 0.353070 0.088662 0.556695
O O10 0.500000 0.000000 0.000000
O O11 0.902216 0.523211 0.747497
O O12 0.797572 0.770632 0.826043
O O13 0.897325 0.488199 0.250821
O O14 0.140652 0.751573 0.518341
O O15 0.989611 0.735611 0.273614
O O16 0.867012 0.053403 0.119339
O O17 0.000000 0.000000 0.500000
O O18 0.000000 0.000000 0.000000
O O19 0.786993 0.961779 0.387718
#
# Coordination Sequence:
#
# PCOD9101041 Si02
#       8
#     2   2   2   2   2   2   2   2
#     4  11  26  43  70  98 132 173 228 284 347 408
#     4  10  24  44  66  96 135 174 226 280 333 410
#     4  11  27  47  68  96 139 179 228 283 346 418
#     4  11  24  41  68  94 140 172 225 275 335 395
#     4  10  21  42  63 101 134 175 222 275 330 403
#     4  10  20  37  69 100 133 181 223 268 337 402
#     4  10  22  41  70  97 137 175 230 275 332 402
#     4  11  26  43  70  99 133 181 227 279 340 400
#
# _framework density 23.634163999999998
#
# number of rings (size 3 to 8) (size 9 to 14) (size 15 to 20)
#    0.000    1.500    1.250    3.000   14.000    0.000 
#    0.000    1.250    0.000    0.000    0.000    0.000 
#    0.000    0.000    0.000    0.000    0.000    0.000 
#
# Total GULP energy -89252.746600 kJ/mol
# GULP energy per Si atom -5578.296662 kJ/mol
# Density = 2.358037 g / cm^3
# Si number density = 23.634164 Si / 1000 Ang^3
#
#
#
# Elastic Constant Matrix: (Units=GPa)
#
#
# Indices 1 2 3 4 5 6 
#
# 1 90.6533 23.8340 62.8740 -2.6161 -13.2663 3.2874
# 2 23.8340 104.0390 31.6853 -5.9992 -8.3460 -5.3891
# 3 62.8740 31.6853 172.2994 -8.7843 -10.1979 -17.9795
# 4 -2.6161 -5.9992 -8.7843 46.9332 -5.2841 -2.8288
# 5 -13.2663 -8.3460 -10.1979 -5.2841 35.2781 -2.4731
# 6 3.2874 -5.3891 -17.9795 -2.8288 -2.4731 38.3948
#
#
#
# Elastic Compliance Matrix: (Units=1/GPa)
#
#
# Indices 1 2 3 4 5 6 
#
# 1 0.016232 -0.001888 -0.005808 -0.000264 0.003648 -0.004159
# 2 -0.001888 0.010631 -0.000938 0.001372 0.001840 0.001434
# 3 -0.005808 -0.000938 0.008692 0.001534 0.000658 0.004591
# 4 -0.000264 0.001372 0.001534 0.022402 0.004225 0.002856
# 5 0.003648 0.001840 0.000658 0.004225 0.031157 0.002572
# 6 -0.004159 0.001434 0.004591 0.002856 0.002572 0.029129
#
#
# Mechanical properties :
#
#
# Convention : Reuss Voigt Hill
#
# Bulk Modulus (GPa) = 54.67836 67.08648 60.88242
# Shear Modulus (GPa) = 35.30933 40.69446 38.00190
#
# Velocity S-wave (km/s) = 3.86942 4.15402 4.01424
# Velocity P-wave (km/s) = 6.56877 7.17320 6.87763
#
# Compressibility (1/GPa) = 0.01828877
#
# Stress axis : x y z
#
# Youngs Moduli (GPa) = 61.60492 94.06622 115.05004
#
# Poissons Ratio (x) = 0.17759 0.66818
# Poissons Ratio (y) = 0.11630 0.10786
# Poissons Ratio (z) = 0.35779 0.08819
#
# Static dielectric constant tensor:
#      x y z
#    x 1.136680 0.213890 0.452290 
#    y 0.213890 1.829260 -0.117310 
#    z 0.452290 -0.117310 1.758250 
# 
# From -- ./inp_files/115987.got.cif
#   From: 2010.05.17/outbox.cif.g08.bks.cpg/sg2_58_cif.got.tgz:115987.got - 2010.06.03 11:33:40.
