data_PCOD9101786
_publ_section_title
;
Structure prediction by ZEFSAII (Michael W. Deem and Ramdas Pophale) SiO2 
 PCOD9101786
Probable space group: P -1
;
_chemical_formula_sum "Si O2"
_cell_formula_units_Z 14
_cell_length_a 24.749663
_cell_length_b 13.542053
_cell_length_c 9.674746
_cell_angle_alpha 145.321792
_cell_angle_beta 153.952565
_cell_angle_gamma 21.116954
_cell_volume 510.438721
_symmetry_space_group_name_H-M "P -1"
_symmetry_group_IT_number 2
_symmetry_cell_setting 'triclinic'
loop_
_space_group_symop_operation_xyz
x,y,z
-x,-y,-z
loop_
_atom_site_type_symbol
_atom_site_label
_atom_site_fract_x
_atom_site_fract_y
_atom_site_fract_z
Si Si1 0.680492 0.871809 0.398710
Si Si2 0.240811 0.994639 0.032630
Si Si3 0.451030 0.483801 0.519582
Si Si4 0.227371 0.672758 0.796474
Si Si5 0.112630 0.034013 0.475318
Si Si6 0.268669 0.185419 0.850710
Si Si7 0.639364 0.706094 0.556814
O O1 0.798273 0.792518 0.716235
O O2 0.563970 0.179044 0.447649
O O3 0.786848 0.708361 0.312608
O O4 0.508577 0.924287 0.096385
O O5 0.479520 0.739696 0.277351
O O6 0.161797 0.919941 0.853460
O O7 0.174218 0.041627 0.776839
O O8 0.500000 0.500000 0.500000
O O9 0.228459 0.736050 0.348374
O O10 0.550107 0.524483 0.887705
O O11 0.222176 0.524580 0.505209
O O12 0.111283 0.764089 0.774935
O O13 0.171105 0.114428 0.591593
O O14 0.243873 0.346596 0.105492
O O15 0.500000 0.000000 0.500000
#
# Coordination Sequence:
#
# PCOD9101786 Si02
#       7
#     2   2   2   2   2   2   2
#     4   9  21  37  65  90 126 165 209 258 311 374
#     4  10  21  41  63  91 127 166 208 260 317 365
#     4  11  22  42  67  91 123 167 209 261 317 369
#     4  11  25  40  63  99 126 161 212 268 308 371
#     4  12  23  40  67  96 125 163 214 257 317 374
#     4  10  20  38  60  93 124 166 205 254 314 369
#     4  11  20  38  67  88 123 170 210 252 312 373
#
# _framework density 27.427385000000001
#
# number of rings (size 3 to 8) (size 9 to 14) (size 15 to 20)
#    0.000    1.429    4.286    0.857    4.000    1.143 
#    0.000    0.000    0.000    1.714    0.000    0.000 
#    0.000    0.000    0.000    0.000    0.000    0.000 
#
# Total GULP energy -78361.713665 kJ/mol
# GULP energy per Si atom -5597.265262 kJ/mol
# Density = 2.736496 g / cm^3
# Si number density = 27.427385 Si / 1000 Ang^3
#
#
#
# Elastic Constant Matrix: (Units=GPa)
#
#
# Indices 1 2 3 4 5 6 
#
# 1 156.3793 33.8270 34.5320 13.8853 17.7859 -23.5391
# 2 33.8270 109.0679 28.7463 5.8136 4.5411 -25.4362
# 3 34.5320 28.7463 74.9440 24.9139 -3.7415 -6.6458
# 4 13.8853 5.8136 24.9139 28.1815 -17.5422 1.2331
# 5 17.7859 4.5411 -3.7415 -17.5422 69.7322 8.6017
# 6 -23.5391 -25.4362 -6.6458 1.2331 8.6017 50.3036
#
#
#
# Elastic Compliance Matrix: (Units=1/GPa)
#
#
# Indices 1 2 3 4 5 6 
#
# 1 0.008488 -0.000759 -0.001725 -0.005191 -0.004029 0.004176
# 2 -0.000759 0.011683 -0.003820 0.000267 -0.001355 0.005273
# 3 -0.001725 -0.003820 0.022257 -0.020179 -0.003350 0.001269
# 4 -0.005191 0.000267 -0.020179 0.067755 0.018475 -0.009780
# 5 -0.004029 -0.001355 -0.003350 0.018475 0.020791 -0.007021
# 6 0.004176 0.005273 0.001269 -0.009780 -0.007021 0.026108
#
#
# Mechanical properties :
#
#
# Convention : Reuss Voigt Hill
#
# Bulk Modulus (GPa) = 33.53571 59.40021 46.46796
# Shear Modulus (GPa) = 27.83525 45.86250 36.84887
#
# Velocity S-wave (km/s) = 3.18916 4.09362 3.66936
# Velocity P-wave (km/s) = 5.08081 6.63686 5.91027
#
# Compressibility (1/GPa) = 0.02981896
#
# Stress axis : x y z
#
# Youngs Moduli (GPa) = 117.81877 85.59563 44.93007
#
# Poissons Ratio (x) = 0.06501 0.07749
# Poissons Ratio (y) = 0.08948 0.17164
# Poissons Ratio (z) = 0.20319 0.32698
#
# Static dielectric constant tensor:
#      x y z
#    x 2.154980 0.037850 -0.036210 
#    y 0.037850 2.174800 -0.017200 
#    z -0.036210 -0.017200 2.161030 
# 
# From -- ./inp_files/295071.got.cif
#   From: 2010.05.17/outbox.cif.g08.bks.cpg/sg2_148_cif.got.tgz:295071.got - 2010.06.03 11:33:40.
