data_PCOD9101461
_publ_section_title
;
Structure prediction by ZEFSAII (Michael W. Deem and Ramdas Pophale) SiO2 
 PCOD9101461
Probable space group: P -1
;
_chemical_formula_sum "Si O2"
_cell_formula_units_Z 16
_cell_length_a 6.352624
_cell_length_b 12.855089
_cell_length_c 14.451019
_cell_angle_alpha 45.214828
_cell_angle_beta 101.801569
_cell_angle_gamma 81.239051
_cell_volume 741.536764
_symmetry_space_group_name_H-M "P -1"
_symmetry_group_IT_number 2
_symmetry_cell_setting 'triclinic'
loop_
_space_group_symop_operation_xyz
x,y,z
-x,-y,-z
loop_
_atom_site_type_symbol
_atom_site_label
_atom_site_fract_x
_atom_site_fract_y
_atom_site_fract_z
Si Si1 0.887367 0.807901 0.652364
Si Si2 0.316261 0.647523 0.137089
Si Si3 0.413248 0.302162 0.420819
Si Si4 0.673921 0.867821 0.306184
Si Si5 0.056824 0.920455 0.410059
Si Si6 0.206505 0.196375 0.042518
Si Si7 0.379562 0.193349 0.859421
Si Si8 0.666071 0.530773 0.069182
O O1 0.654145 0.783575 0.618625
O O2 0.957134 0.879134 0.522005
O O3 0.092924 0.630432 0.799534
O O4 0.882901 0.927177 0.659557
O O5 0.296258 0.493532 0.276583
O O6 0.420902 0.739229 0.157421
O O7 0.513366 0.571227 0.123525
O O8 0.066647 0.768541 0.994518
O O9 0.320025 0.251221 0.536543
O O10 0.696817 0.230485 0.496808
O O11 0.735826 0.777038 0.270436
O O12 0.857736 0.943228 0.301867
O O13 0.408486 0.014963 0.187240
O O14 0.223820 0.245958 0.905465
O O15 0.271021 0.317048 0.036553
O O16 0.500000 0.000000 0.000000
O O17 0.500000 0.500000 0.000000
#
# Coordination Sequence:
#
# PCOD9101461 Si02
#       8
#     2   2   2   2   2   2   2   2
#     4  10  20  38  59  87 122 168 199 245 306 359
#     4  11  23  41  65  91 124 165 199 256 315 358
#     4  11  22  39  63  92 127 158 205 250 306 370
#     4  10  23  39  62  94 119 159 211 254 301 365
#     4  10  21  38  61  85 127 162 204 248 302 360
#     4  10  22  42  63  90 126 159 206 253 306 366
#     4   9  22  42  64  89 122 164 203 254 312 360
#     4  11  22  38  62  89 126 162 206 248 303 363
#
# _framework density 21.576813000000001
#
# number of rings (size 3 to 8) (size 9 to 14) (size 15 to 20)
#    0.000    1.750    2.500    1.125    0.000    8.000 
#    2.250    1.250    0.000    0.000    0.000    0.000 
#    0.000    0.000    0.000    0.000    0.000    0.000 
#
# Total GULP energy -89391.651355 kJ/mol
# GULP energy per Si atom -5586.978210 kJ/mol
# Density = 2.152770 g / cm^3
# Si number density = 21.576813 Si / 1000 Ang^3
#
#
#
# Elastic Constant Matrix: (Units=GPa)
#
#
# Indices 1 2 3 4 5 6 
#
# 1 46.0995 11.1498 25.3011 -5.4499 11.1220 10.4730
# 2 11.1498 104.2879 26.5801 9.2220 -4.3281 28.2091
# 3 25.3011 26.5801 63.4279 -1.5140 5.4124 13.5959
# 4 -5.4499 9.2220 -1.5140 34.3883 1.6249 3.2373
# 5 11.1220 -4.3281 5.4124 1.6249 30.6313 -11.3504
# 6 10.4730 28.2091 13.5959 3.2373 -11.3504 28.1777
#
#
#
# Elastic Compliance Matrix: (Units=1/GPa)
#
#
# Indices 1 2 3 4 5 6 
#
# 1 0.036210 0.002455 -0.009438 0.007422 -0.018869 -0.019815
# 2 0.002455 0.014223 -0.003543 -0.002033 -0.003576 -0.014649
# 3 -0.009438 -0.003543 0.022376 0.001055 -0.002956 -0.005054
# 4 0.007422 -0.002033 0.001055 0.031978 -0.007855 -0.008070
# 5 -0.018869 -0.003576 -0.002956 -0.007855 0.052566 0.034096
# 6 -0.019815 -0.014649 -0.005054 -0.008070 0.034096 0.074619
#
#
# Mechanical properties :
#
#
# Convention : Reuss Voigt Hill
#
# Bulk Modulus (GPa) = 19.32110 37.76413 28.54261
# Shear Modulus (GPa) = 18.49955 28.69176 23.59565
#
# Velocity S-wave (km/s) = 2.93128 3.65053 3.31050
# Velocity P-wave (km/s) = 4.52002 5.94211 5.27917
#
# Compressibility (1/GPa) = 0.05175690
#
# Stress axis : x y z
#
# Youngs Moduli (GPa) = 27.61676 70.30798 44.69057
#
# Poissons Ratio (x) = -0.17258 0.42178
# Poissons Ratio (y) = -0.06779 0.15834
# Poissons Ratio (z) = 0.26064 0.24910
#
# Static dielectric constant tensor:
#      x y z
#    x 1.798430 0.008060 -0.039020 
#    y 0.008060 1.802020 0.040250 
#    z -0.039020 0.040250 1.792790 
# 
# From -- ./inp_files/56426.got.cif
#   From: 2010.05.17/outbox.cif.g08.bks.cpg/sg2_29_cif.got.tgz:56426.got - 2010.06.03 11:33:40.
