data_PCOD9101297
_publ_section_title
;
Structure prediction by ZEFSAII (Michael W. Deem and Ramdas Pophale) SiO2 
 PCOD9101297
Probable space group: P -1
;
_chemical_formula_sum "Si O2"
_cell_formula_units_Z 16
_cell_length_a 25.683370
_cell_length_b 11.091354
_cell_length_c 25.574570
_cell_angle_alpha 31.426709
_cell_angle_beta 168.332877
_cell_angle_gamma 147.089796
_cell_volume 767.659790
_symmetry_space_group_name_H-M "P -1"
_symmetry_group_IT_number 2
_symmetry_cell_setting 'triclinic'
loop_
_space_group_symop_operation_xyz
x,y,z
-x,-y,-z
loop_
_atom_site_type_symbol
_atom_site_label
_atom_site_fract_x
_atom_site_fract_y
_atom_site_fract_z
Si Si1 0.288362 0.243475 0.728186
Si Si2 0.771214 0.103736 0.292011
Si Si3 0.509388 0.308897 0.293154
Si Si4 0.968343 0.228247 0.849152
Si Si5 0.333611 0.742468 0.139072
Si Si6 0.368138 0.933222 0.216631
Si Si7 0.865699 0.679038 0.840330
Si Si8 0.127496 0.272424 0.381816
O O1 0.250143 0.001910 0.748578
O O2 0.393203 0.433560 0.720332
O O3 0.005731 0.290257 0.453815
O O4 0.496174 0.211671 0.989383
O O5 0.827148 0.896418 0.462532
O O6 0.735268 0.191116 0.591863
O O7 0.456309 0.181857 0.232904
O O8 0.243461 0.293146 0.069163
O O9 0.892958 0.460741 0.719790
O O10 0.000000 0.000000 0.000000
O O11 0.314002 0.892305 0.117383
O O12 0.237525 0.478378 0.155571
O O13 0.626103 0.744978 0.406931
O O14 0.133696 0.812845 0.872340
O O15 0.611853 0.778818 0.527774
O O16 0.106315 0.858443 0.018449
O O17 0.000000 0.500000 0.000000
#
# Coordination Sequence:
#
# PCOD9101297 Si02
#       8
#     2   2   2   2   2   2   2   2
#     4  10  21  39  65  89 118 152 208 265 307 355
#     4  10  21  38  64  91 118 151 205 266 310 358
#     4  12  25  44  65  90 129 167 210 251 306 381
#     4  12  28  43  58  93 137 174 200 238 316 381
#     4  11  23  38  63  88 123 165 211 258 300 354
#     4  11  23  40  62  89 120 165 216 258 296 348
#     4  10  20  38  58  86 117 159 223 257 282 333
#     4  12  24  40  65  91 130 162 205 253 314 380
#
# _framework density 20.842566000000001
#
# number of rings (size 3 to 8) (size 9 to 14) (size 15 to 20)
#    0.000    1.000    1.250    7.125    8.750    0.000 
#    0.000    0.000    0.000    4.500    0.000    0.000 
#    0.000    0.000    0.000    0.000    0.000    0.000 
#
# Total GULP energy -89353.399971 kJ/mol
# GULP energy per Si atom -5584.587498 kJ/mol
# Density = 2.079513 g / cm^3
# Si number density = 20.842566 Si / 1000 Ang^3
#
#
#
# Elastic Constant Matrix: (Units=GPa)
#
#
# Indices 1 2 3 4 5 6 
#
# 1 61.9672 26.9055 28.6428 -0.1641 -0.3612 -0.1210
# 2 26.9055 62.7093 30.5426 14.0738 -0.8593 9.4728
# 3 28.6428 30.5426 137.6649 12.3861 -8.0705 -1.0394
# 4 -0.1641 14.0738 12.3861 29.6103 8.2596 -6.0531
# 5 -0.3612 -0.8593 -8.0705 8.2596 41.0841 3.7766
# 6 -0.1210 9.4728 -1.0394 -6.0531 3.7766 29.1617
#
#
#
# Elastic Compliance Matrix: (Units=1/GPa)
#
#
# Indices 1 2 3 4 5 6 
#
# 1 0.022320 -0.010869 -0.003129 0.008562 -0.002888 0.005663
# 2 -0.010869 0.027265 -0.002187 -0.015974 0.004440 -0.012870
# 3 -0.003129 -0.002187 0.008836 -0.003318 0.002327 0.000022
# 4 0.008562 -0.015974 -0.003318 0.049768 -0.012484 0.017053
# 5 -0.002888 0.004440 0.002327 -0.012484 0.028073 -0.007598
# 6 0.005663 -0.012870 0.000022 0.017053 -0.007598 0.043020
#
#
# Mechanical properties :
#
#
# Convention : Reuss Voigt Hill
#
# Bulk Modulus (GPa) = 38.38825 48.28037 43.33431
# Shear Modulus (GPa) = 22.69245 31.72124 27.20685
#
# Velocity S-wave (km/s) = 3.30321 3.90544 3.61688
# Velocity P-wave (km/s) = 5.74512 6.59934 6.18699
#
# Compressibility (1/GPa) = 0.02604964
#
# Stress axis : x y z
#
# Youngs Moduli (GPa) = 44.80272 36.67669 113.17829
#
# Poissons Ratio (x) = 0.39863 0.35419
# Poissons Ratio (y) = 0.48695 0.24757
# Poissons Ratio (z) = 0.14021 0.08023
#
# Static dielectric constant tensor:
#      x y z
#    x 1.751670 -0.017240 0.000860 
#    y -0.017240 1.766120 0.025240 
#    z 0.000860 0.025240 1.823040 
# 
# From -- ./inp_files/621252.got.cif
#   From: 2010.05.17/outbox.cif.g08.bks.cpg/sg2_311_cif.got.tgz:621252.got - 2010.06.03 11:33:40.
