data_PCOD9101385
_publ_section_title
;
Structure prediction by ZEFSAII (Michael W. Deem and Ramdas Pophale) SiO2 
 PCOD9101385
Probable space group: P -1
;
_chemical_formula_sum "Si O2"
_cell_formula_units_Z 16
_cell_length_a 21.727794
_cell_length_b 6.993427
_cell_length_c 7.018049
_cell_angle_alpha 108.187158
_cell_angle_beta 134.148537
_cell_angle_gamma 90.988605
_cell_volume 682.531537
_symmetry_space_group_name_H-M "P -1"
_symmetry_group_IT_number 2
_symmetry_cell_setting 'triclinic'
loop_
_space_group_symop_operation_xyz
x,y,z
-x,-y,-z
loop_
_atom_site_type_symbol
_atom_site_label
_atom_site_fract_x
_atom_site_fract_y
_atom_site_fract_z
Si Si1 0.081575 0.155612 0.852187
Si Si2 0.960121 0.251064 0.896443
Si Si3 0.637686 0.156028 0.452061
Si Si4 0.541393 0.256234 0.621725
Si Si5 0.147936 0.636965 0.988018
Si Si6 0.588807 0.424460 0.159993
Si Si7 0.638643 0.795748 0.622054
Si Si8 0.819883 0.104562 0.210293
O O1 0.041323 0.166184 0.979495
O O2 0.158392 0.054596 0.945200
O O3 0.112662 0.391108 0.899507
O O4 0.000000 0.000000 0.500000
O O5 0.918995 0.257389 0.018072
O O6 0.876238 0.137013 0.535316
O O7 0.000000 0.500000 0.000000
O O8 0.599898 0.278364 0.568094
O O9 0.746810 0.251066 0.686239
O O10 0.585486 0.195984 0.167374
O O11 0.618906 0.926199 0.437848
O O12 0.447718 0.305408 0.456392
O O13 0.500000 0.000000 0.500000
O O14 0.606315 0.399530 0.969659
O O15 0.151062 0.675477 0.779079
O O16 0.659623 0.602879 0.500663
O O17 0.500000 0.500000 0.000000
O O18 0.712753 0.980327 0.960538
#
# Coordination Sequence:
#
# PCOD9101385 Si02
#       8
#     2   2   2   2   2   2   2   2
#     4   9  19  36  57  82 112 144 183 232 285 344
#     4   9  20  37  58  85 112 146 188 232 287 348
#     4  10  21  38  58  83 116 153 195 238 283 336
#     4   9  20  37  57  83 114 154 195 232 285 336
#     4  10  21  37  58  85 113 151 193 234 288 340
#     4  10  21  37  57  81 114 152 193 239 284 335
#     4   9  20  37  57  84 115 152 194 238 287 335
#     4  10  20  38  59  82 118 151 187 241 287 338
#
# _framework density 23.442140999999999
#
# number of rings (size 3 to 8) (size 9 to 14) (size 15 to 20)
#    0.000    2.500    0.000    0.750    0.000   14.500 
#    0.000   15.000    0.000    0.000    0.000    0.000 
#    0.000    0.000    0.000    0.000    0.000    0.000 
#
# Total GULP energy -89133.567739 kJ/mol
# GULP energy per Si atom -5570.847984 kJ/mol
# Density = 2.338879 g / cm^3
# Si number density = 23.442141 Si / 1000 Ang^3
#
#
#
# Elastic Constant Matrix: (Units=GPa)
#
#
# Indices 1 2 3 4 5 6 
#
# 1 81.4258 10.5954 -2.8935 16.1910 -4.0880 11.0335
# 2 10.5954 82.9057 -4.0550 12.4484 6.4716 2.4296
# 3 -2.8935 -4.0550 46.3383 16.9112 4.7219 13.5916
# 4 16.1910 12.4484 16.9112 33.0409 -1.1159 3.1504
# 5 -4.0880 6.4716 4.7219 -1.1159 32.2887 0.7422
# 6 11.0335 2.4296 13.5916 3.1504 0.7422 35.0842
#
#
#
# Elastic Compliance Matrix: (Units=1/GPa)
#
#
# Indices 1 2 3 4 5 6 
#
# 1 0.015480 0.000017 0.006553 -0.010300 0.000792 -0.006500
# 2 0.000017 0.013817 0.005031 -0.007711 -0.003720 -0.002140
# 3 0.006553 0.005031 0.035106 -0.021942 -0.005751 -0.013917
# 4 -0.010300 -0.007711 -0.021942 0.048874 0.004960 0.007780
# 5 0.000792 -0.003720 -0.005751 0.004960 0.032804 0.001097
# 6 -0.006500 -0.002140 -0.013917 0.007780 0.001097 0.035365
#
#
# Mechanical properties :
#
#
# Convention : Reuss Voigt Hill
#
# Bulk Modulus (GPa) = 11.41489 24.21820 17.81655
# Shear Modulus (GPa) = 26.67460 33.88429 30.27944
#
# Velocity S-wave (km/s) = 3.37692 3.80602 3.59788
# Velocity P-wave (km/s) = 4.48160 5.44682 4.98762
#
# Compressibility (1/GPa) = 0.08760488
#
# Stress axis : x y z
#
# Youngs Moduli (GPa) = 64.59830 72.37669 28.48545
#
# Poissons Ratio (x) = -0.00125 -0.18666
# Poissons Ratio (y) = -0.00112 -0.14331
# Poissons Ratio (z) = -0.42331 -0.36412
#
# Static dielectric constant tensor:
#      x y z
#    x 2.048810 -0.066290 0.094850 
#    y -0.066290 1.967450 -0.031570 
#    z 0.094850 -0.031570 1.928610 
# 
# From -- ./inp_files/117286.got.cif
#   From: 2010.05.17/outbox.cif.g08.bks.cpg/sg2_59_cif.got.tgz:117286.got - 2010.06.03 11:33:40.
