data_PCOD9101277
_publ_section_title
;
Structure prediction by ZEFSAII (Michael W. Deem and Ramdas Pophale) SiO2 
 PCOD9101277
Probable space group: P -1
;
_chemical_formula_sum "Si O2"
_cell_formula_units_Z 12
_cell_length_a 8.777034
_cell_length_b 6.554094
_cell_length_c 13.921082
_cell_angle_alpha 50.561630
_cell_angle_beta 114.111059
_cell_angle_gamma 118.376110
_cell_volume 537.427939
_symmetry_space_group_name_H-M "P -1"
_symmetry_group_IT_number 2
_symmetry_cell_setting 'triclinic'
loop_
_space_group_symop_operation_xyz
x,y,z
-x,-y,-z
loop_
_atom_site_type_symbol
_atom_site_label
_atom_site_fract_x
_atom_site_fract_y
_atom_site_fract_z
Si Si1 0.558200 0.314174 0.842962
Si Si2 0.162488 0.520132 0.968106
Si Si3 0.070097 0.419900 0.443289
Si Si4 0.786626 0.099323 0.316999
Si Si5 0.577913 0.303520 0.640118
Si Si6 0.357104 0.261727 0.974722
O O1 0.590729 0.436948 0.709874
O O2 0.377230 0.307770 0.850937
O O3 0.694219 0.445872 0.921387
O O4 0.591120 0.018503 0.920189
O O5 0.187489 0.770294 0.822535
O O6 0.179942 0.273162 0.976502
O O7 0.000000 0.500000 0.000000
O O8 0.230034 0.661033 0.363263
O O9 0.000000 0.500000 0.500000
O O10 0.910583 0.317377 0.357287
O O11 0.146719 0.167691 0.567797
O O12 0.575730 0.992338 0.312441
O O13 0.500000 0.500000 0.500000
O O14 0.500000 0.500000 0.000000
#
# Coordination Sequence:
#
# PCOD9101277 Si02
#       6
#     2   2   2   2   2   2
#     4  10  20  38  58  84 120 154 201 250 292 357
#     4  11  23  37  60  91 123 158 198 250 308 361
#     4  10  23  41  62  89 122 158 202 254 301 357
#     4  10  22  41  60  88 123 157 203 248 298 366
#     4  10  21  39  63  87 118 161 201 246 303 359
#     4   9  19  35  57  82 112 154 196 242 296 353
#
# _framework density 22.328576000000002
#
# number of rings (size 3 to 8) (size 9 to 14) (size 15 to 20)
#    0.000    2.000    0.000    4.000    0.000    6.667 
#    0.000    6.667    0.000    0.000    0.000    0.000 
#    0.000    0.000    0.000    0.000    0.000    0.000 
#
# Total GULP energy -66818.297669 kJ/mol
# GULP energy per Si atom -5568.191472 kJ/mol
# Density = 2.227776 g / cm^3
# Si number density = 22.328576 Si / 1000 Ang^3
#
#
#
# Elastic Constant Matrix: (Units=GPa)
#
#
# Indices 1 2 3 4 5 6 
#
# 1 179.9415 83.0373 56.9426 27.4887 -49.5804 -5.2053
# 2 83.0373 78.9509 31.4957 24.1067 -20.3007 -4.1640
# 3 56.9426 31.4957 152.8192 36.1878 -30.5451 2.7133
# 4 27.4887 24.1067 36.1878 37.6515 -7.5872 -0.4880
# 5 -49.5804 -20.3007 -30.5451 -7.5872 43.7563 4.4873
# 6 -5.2053 -4.1640 2.7133 -0.4880 4.4873 47.2059
#
#
#
# Elastic Compliance Matrix: (Units=1/GPa)
#
#
# Indices 1 2 3 4 5 6 
#
# 1 0.013994 -0.011947 -0.000833 0.000205 0.009808 -0.000393
# 2 -0.011947 0.027513 0.000696 -0.009977 -0.002137 0.001169
# 3 -0.000833 0.000696 0.009613 -0.008125 0.004796 -0.001123
# 4 0.000205 -0.009977 -0.008125 0.039972 -0.003171 0.000324
# 5 0.009808 -0.002137 0.004796 -0.003171 0.036066 -0.002844
# 6 -0.000393 0.001169 -0.001123 0.000324 -0.002844 0.021582
#
#
# Mechanical properties :
#
#
# Convention : Reuss Voigt Hill
#
# Bulk Modulus (GPa) = 37.10387 83.85141 60.47764
# Shear Modulus (GPa) = 27.48873 41.73847 34.61360
#
# Velocity S-wave (km/s) = 3.51251 4.32821 3.94152
# Velocity P-wave (km/s) = 5.75357 7.91283 6.91796
#
# Compressibility (1/GPa) = 0.02695137
#
# Stress axis : x y z
#
# Youngs Moduli (GPa) = 71.45806 36.34675 104.02336
#
# Poissons Ratio (x) = 0.43425 0.08667
# Poissons Ratio (y) = 0.85374 -0.07242
# Poissons Ratio (z) = 0.05954 -0.02530
#
# Static dielectric constant tensor:
#      x y z
#    x 2.082560 0.060410 -0.040710 
#    y 0.060410 1.846910 -0.048570 
#    z -0.040710 -0.048570 1.864480 
# 
# From -- ./inp_files/23887.got.cif
#   From: 2010.05.17/outbox.cif.g08.bks.cpg/sg2_12_cif.got.tgz:23887.got - 2010.06.03 11:33:40.
