data_PCOD9101437
_publ_section_title
;
Structure prediction by ZEFSAII (Michael W. Deem and Ramdas Pophale) SiO2 
 PCOD9101437
Probable space group: P -1
;
_chemical_formula_sum "Si O2"
_cell_formula_units_Z 16
_cell_length_a 5.232589
_cell_length_b 7.787176
_cell_length_c 18.094335
_cell_angle_alpha 107.380610
_cell_angle_beta 102.160101
_cell_angle_gamma 74.356656
_cell_volume 670.741099
_symmetry_space_group_name_H-M "P -1"
_symmetry_group_IT_number 2
_symmetry_cell_setting 'triclinic'
loop_
_space_group_symop_operation_xyz
x,y,z
-x,-y,-z
loop_
_atom_site_type_symbol
_atom_site_label
_atom_site_fract_x
_atom_site_fract_y
_atom_site_fract_z
Si Si1 0.753480 0.121376 0.666323
Si Si2 0.918107 0.220242 0.536074
Si Si3 0.666908 0.737965 0.547879
Si Si4 0.625932 0.538371 0.251603
Si Si5 0.572452 0.245261 0.104087
Si Si6 0.766459 0.619253 0.697850
Si Si7 0.082434 0.024874 0.198808
Si Si8 0.265225 0.917587 0.051755
O O1 0.862168 0.231387 0.621608
O O2 0.507429 0.250272 0.711552
O O3 0.972690 0.053995 0.735180
O O4 0.663931 0.948833 0.600235
O O5 0.631716 0.284212 0.487395
O O6 0.151487 0.294793 0.518747
O O7 0.000000 0.000000 0.500000
O O8 0.786654 0.617695 0.610352
O O9 0.511279 0.447897 0.161695
O O10 0.499497 0.437859 0.297393
O O11 0.947458 0.485298 0.264232
O O12 0.393170 0.096598 0.087689
O O13 0.590499 0.241532 0.015473
O O14 0.836260 0.145643 0.153775
O O15 0.737852 0.831376 0.749283
O O16 0.213439 0.872239 0.127003
O O17 0.000000 0.000000 0.000000
#
# Coordination Sequence:
#
# PCOD9101437 Si02
#       8
#     2   2   2   2   2   2   2   2
#     4  10  22  37  57  85 118 150 187 238 293 341
#     4  10  20  38  59  86 113 151 196 242 284 334
#     4  10  21  40  64  82 108 154 208 238 273 338
#     4  11  22  38  55  89 122 150 181 240 302 334
#     4   9  18  33  58  85 110 150 187 238 275 335
#     4  10  21  38  59  82 115 154 195 240 280 339
#     4   9  18  36  56  86 109 151 200 231 269 345
#     4   9  16  32  60  83 108 142 201 230 269 327
#
# _framework density 23.854208
#
# number of rings (size 3 to 8) (size 9 to 14) (size 15 to 20)
#    0.000    2.250    1.250    2.250    0.000    4.000 
#    4.500    4.375    0.000    6.750    0.000    0.000 
#    0.000    0.000    0.000    0.000    0.000    0.000 
#
# Total GULP energy -89295.634942 kJ/mol
# GULP energy per Si atom -5580.977184 kJ/mol
# Density = 2.379991 g / cm^3
# Si number density = 23.854208 Si / 1000 Ang^3
#
#
#
# Elastic Constant Matrix: (Units=GPa)
#
#
# Indices 1 2 3 4 5 6 
#
# 1 63.0563 -0.8111 17.8199 3.9277 8.0328 -0.4640
# 2 -0.8111 55.3054 26.9659 15.0883 1.5939 -5.7875
# 3 17.8199 26.9659 156.0627 19.4486 -8.7087 -7.4863
# 4 3.9277 15.0883 19.4486 39.5834 -2.8595 -2.5866
# 5 8.0328 1.5939 -8.7087 -2.8595 37.5117 8.7225
# 6 -0.4640 -5.7875 -7.4863 -2.5866 8.7225 21.8267
#
#
#
# Elastic Compliance Matrix: (Units=1/GPa)
#
#
# Indices 1 2 3 4 5 6 
#
# 1 0.017285 0.002175 -0.002328 -0.001629 -0.004903 0.001912
# 2 0.002175 0.022295 -0.003172 -0.007077 -0.003998 0.005629
# 3 -0.002328 -0.003172 0.007633 -0.002117 0.002095 0.000639
# 4 -0.001629 -0.007077 -0.002117 0.029329 0.002424 -0.000130
# 5 -0.004903 -0.003998 0.002095 0.002424 0.031515 -0.012752
# 6 0.001912 0.005629 0.000639 -0.000130 -0.012752 0.052649
#
#
# Mechanical properties :
#
#
# Convention : Reuss Voigt Hill
#
# Bulk Modulus (GPa) = 24.65378 40.26378 32.45878
# Shear Modulus (GPa) = 27.64320 35.14768 31.39544
#
# Velocity S-wave (km/s) = 3.40787 3.84270 3.63180
# Velocity P-wave (km/s) = 5.08354 6.05014 5.58778
#
# Compressibility (1/GPa) = 0.04056174
#
# Stress axis : x y z
#
# Youngs Moduli (GPa) = 57.85385 44.85377 131.00985
#
# Poissons Ratio (x) = -0.09754 0.30503
# Poissons Ratio (y) = -0.12581 0.41553
# Poissons Ratio (z) = 0.13470 0.14227
#
# Static dielectric constant tensor:
#      x y z
#    x 1.923570 -0.001090 -0.042210 
#    y -0.001090 2.001540 0.066320 
#    z -0.042210 0.066320 2.040860 
# 
# From -- ./inp_files/106517.got.cif
#   From: 2010.05.17/outbox.cif.g08.bks.cpg/sg2_54_cif.got.tgz:106517.got - 2010.06.03 11:33:40.
