data_PCOD9101443
_publ_section_title
;
Structure prediction by ZEFSAII (Michael W. Deem and Ramdas Pophale) SiO2 
 PCOD9101443
Probable space group: P -1
;
_chemical_formula_sum "Si O2"
_cell_formula_units_Z 16
_cell_length_a 18.110168
_cell_length_b 9.409786
_cell_length_c 13.959465
_cell_angle_alpha 91.652209
_cell_angle_beta 20.199008
_cell_angle_gamma 87.358213
_cell_volume 802.386989
_symmetry_space_group_name_H-M "P -1"
_symmetry_group_IT_number 2
_symmetry_cell_setting 'triclinic'
loop_
_space_group_symop_operation_xyz
x,y,z
-x,-y,-z
loop_
_atom_site_type_symbol
_atom_site_label
_atom_site_fract_x
_atom_site_fract_y
_atom_site_fract_z
Si Si1 0.720296 0.878459 0.230676
Si Si2 0.740769 0.522950 0.502824
Si Si3 0.764669 0.450878 0.880509
Si Si4 0.833537 0.237667 0.278150
Si Si5 0.903901 0.362078 0.495977
Si Si6 0.928076 0.092162 0.344455
Si Si7 0.006061 0.753108 0.239466
Si Si8 0.574928 0.328400 0.407881
O O1 0.635219 0.735837 0.357148
O O2 0.500000 0.000000 0.500000
O O3 0.839234 0.889724 0.984469
O O4 0.934467 0.864998 0.036804
O O5 0.866198 0.395950 0.277385
O O6 0.778900 0.454636 0.561719
O O7 0.837710 0.667862 0.391494
O O8 0.486009 0.543487 0.787745
O O9 0.797438 0.413005 0.728101
O O10 0.920332 0.327823 0.751761
O O11 0.856032 0.596866 0.792914
O O12 0.661602 0.265922 0.404422
O O13 0.767938 0.163037 0.453545
O O14 0.897564 0.196224 0.475306
O O15 0.922643 0.924772 0.359434
O O16 0.225152 0.726786 0.908188
O O17 0.500000 0.500000 0.500000
#
# Coordination Sequence:
#
# PCOD9101443 Si02
#       8
#     2   2   2   2   2   2   2   2
#     4  10  21  40  58  82 118 159 200 234 292 352
#     4  10  20  38  59  86 120 148 193 246 297 345
#     4  10  21  38  63  90 110 154 193 246 300 346
#     4   9  22  38  56  85 115 156 201 238 287 346
#     4   9  20  40  65  84 115 147 200 244 292 357
#     4   9  21  42  57  83 122 155 192 248 284 350
#     4  11  23  37  53  89 122 149 197 244 287 350
#     4  12  23  36  61  86 118 160 198 246 290 342
#
# _framework density 19.940501999999999
#
# number of rings (size 3 to 8) (size 9 to 14) (size 15 to 20)
#    0.750    1.250    1.250    1.875    3.500    5.500 
#    2.250    0.625    0.000    0.000    0.000    0.000 
#    0.000    0.000    0.000    0.000    0.000    0.000 
#
# Total GULP energy -89140.461275 kJ/mol
# GULP energy per Si atom -5571.278830 kJ/mol
# Density = 1.989512 g / cm^3
# Si number density = 19.940502 Si / 1000 Ang^3
#
#
#
# Elastic Constant Matrix: (Units=GPa)
#
#
# Indices 1 2 3 4 5 6 
#
# 1 54.7001 6.2125 -0.9975 3.1192 -3.9212 6.3734
# 2 6.2125 135.7788 19.3643 -9.1922 -10.9429 17.2339
# 3 -0.9975 19.3643 62.9124 -5.9985 -19.6205 1.3794
# 4 3.1192 -9.1922 -5.9985 26.6638 -2.1552 -4.4115
# 5 -3.9212 -10.9429 -19.6205 -2.1552 23.0672 -0.9988
# 6 6.3734 17.2339 1.3794 -4.4115 -0.9988 15.4556
#
#
#
# Elastic Compliance Matrix: (Units=1/GPa)
#
#
# Indices 1 2 3 4 5 6 
#
# 1 0.019812 0.000156 0.001396 -0.003138 0.003942 -0.009109
# 2 0.000156 0.009106 -0.001620 0.001402 0.002688 -0.009500
# 3 0.001396 -0.001620 0.023190 0.006484 0.019899 0.002298
# 4 -0.003138 0.001402 0.006484 0.042614 0.010146 0.011971
# 5 0.003942 0.002688 0.019899 0.010146 0.063195 0.000581
# 6 -0.009109 -0.009500 0.002298 0.011971 0.000581 0.082300
#
#
# Mechanical properties :
#
#
# Convention : Reuss Voigt Hill
#
# Bulk Modulus (GPa) = 19.24145 33.61664 26.42904
# Shear Modulus (GPa) = 19.40411 28.29144 23.84777
#
# Velocity S-wave (km/s) = 3.12284 3.77077 3.46200
# Velocity P-wave (km/s) = 4.76164 5.98777 5.40956
#
# Compressibility (1/GPa) = 0.05197114
#
# Stress axis : x y z
#
# Youngs Moduli (GPa) = 50.47410 109.81571 43.12296
#
# Poissons Ratio (x) = -0.01711 -0.06020
# Poissons Ratio (y) = -0.00787 0.06986
# Poissons Ratio (z) = -0.07046 0.17791
#
# Static dielectric constant tensor:
#      x y z
#    x 1.680640 0.026800 -0.011010 
#    y 0.026800 1.724260 0.012040 
#    z -0.011010 0.012040 1.713180 
# 
# From -- ./inp_files/537387.got.cif
#   From: 2010.05.17/outbox.cif.g08.bks.cpg/sg2_269_cif.got.tgz:537387.got - 2010.06.03 11:33:40.
