data_PCOD9101131
_publ_section_title
;
Structure prediction by ZEFSAII (Michael W. Deem and Ramdas Pophale) SiO2 
 PCOD9101131
Probable space group: P -1
;
_chemical_formula_sum "Si O2"
_cell_formula_units_Z 16
_cell_length_a 20.337203
_cell_length_b 7.100108
_cell_length_c 8.339072
_cell_angle_alpha 115.355434
_cell_angle_beta 143.666697
_cell_angle_gamma 58.450705
_cell_volume 607.920486
_symmetry_space_group_name_H-M "P -1"
_symmetry_group_IT_number 2
_symmetry_cell_setting 'triclinic'
loop_
_space_group_symop_operation_xyz
x,y,z
-x,-y,-z
loop_
_atom_site_type_symbol
_atom_site_label
_atom_site_fract_x
_atom_site_fract_y
_atom_site_fract_z
Si Si1 0.912453 0.355478 0.094421
Si Si2 0.180194 0.197858 0.072428
Si Si3 0.562246 0.868483 0.328187
Si Si4 0.312851 0.951178 0.974020
Si Si5 0.510252 0.666577 0.815673
Si Si6 0.247699 0.450948 0.869190
Si Si7 0.850527 0.791056 0.633475
Si Si8 0.280115 0.739238 0.523753
O O1 0.812190 0.587241 0.427393
O O2 0.843949 0.376809 0.133300
O O3 0.833131 0.301626 0.781728
O O4 0.045955 0.203591 0.280938
O O5 0.305094 0.229674 0.381081
O O6 0.095320 0.396010 0.874165
O O7 0.114108 0.202205 0.110746
O O8 0.535796 0.122397 0.315003
O O9 0.545810 0.746825 0.086890
O O10 0.454094 0.875474 0.235058
O O11 0.278252 0.204266 0.924249
O O12 0.289306 0.775556 0.742585
O O13 0.231835 0.986874 0.983849
O O14 0.628692 0.514239 0.908420
O O15 0.399857 0.592557 0.620186
O O16 0.738536 0.009786 0.478154
#
# Coordination Sequence:
#
# PCOD9101131 Si02
#       8
#     2   2   2   2   2   2   2   2
#     4  11  24  35  51  83 115 141 170 224 273 309
#     4  11  19  34  55  83 104 137 185 221 263 302
#     4   9  14  29  56  82 103 133 183 217 256 313
#     4   8  18  31  55  81 107 138 174 221 263 322
#     4   9  15  31  58  83 100 135 179 224 255 314
#     4   9  18  35  58  80 103 138 188 220 256 309
#     4  11  20  38  60  75 103 147 191 214 248 320
#     4  10  20  38  56  77 111 143 176 214 271 322
#
# _framework density 26.319230999999998
#
# number of rings (size 3 to 8) (size 9 to 14) (size 15 to 20)
#    0.000    2.250    2.500    3.000    0.000    0.500 
#    0.000    4.375    0.000    0.000    0.000    0.000 
#    0.000    0.000    0.000    0.000    0.000    0.000 
#
# Total GULP energy -89452.337321 kJ/mol
# GULP energy per Si atom -5590.771083 kJ/mol
# Density = 2.625933 g / cm^3
# Si number density = 26.319231 Si / 1000 Ang^3
#
#
#
# Elastic Constant Matrix: (Units=GPa)
#
#
# Indices 1 2 3 4 5 6 
#
# 1 118.9278 56.2010 17.4523 -5.1169 10.7319 -42.4285
# 2 56.2010 88.0573 14.4590 -6.8012 3.9170 -30.1701
# 3 17.4523 14.4590 65.6046 1.5313 19.2820 -19.1101
# 4 -5.1169 -6.8012 1.5313 19.1326 -5.6454 -0.4881
# 5 10.7319 3.9170 19.2820 -5.6454 42.1450 -9.1746
# 6 -42.4285 -30.1701 -19.1101 -0.4881 -9.1746 54.5336
#
#
#
# Elastic Compliance Matrix: (Units=1/GPa)
#
#
# Indices 1 2 3 4 5 6 
#
# 1 0.014219 -0.006419 0.000126 0.001313 -0.001306 0.007348
# 2 -0.006419 0.017640 -0.001700 0.005554 0.002528 0.004644
# 3 0.000126 -0.001700 0.019477 -0.004493 -0.008401 0.004529
# 4 0.001313 0.005554 -0.004493 0.058025 0.010006 0.004723
# 5 -0.001306 0.002528 -0.008401 0.010006 0.029553 0.002500
# 6 0.007348 0.004644 0.004529 0.004723 0.002500 0.028673
#
#
# Mechanical properties :
#
#
# Convention : Reuss Voigt Hill
#
# Bulk Modulus (GPa) = 28.28830 49.86827 39.07829
# Shear Modulus (GPa) = 25.59415 35.46071 30.52743
#
# Velocity S-wave (km/s) = 3.12180 3.67458 3.40941
# Velocity P-wave (km/s) = 4.87500 6.08211 5.51170
#
# Compressibility (1/GPa) = 0.03535030
#
# Stress axis : x y z
#
# Youngs Moduli (GPa) = 70.32849 56.69007 51.34149
#
# Poissons Ratio (x) = 0.36387 -0.00645
# Poissons Ratio (y) = 0.45142 0.08728
# Poissons Ratio (z) = -0.00884 0.09637
#
# Static dielectric constant tensor:
#      x y z
#    x 2.111630 0.044120 -0.075950 
#    y 0.044120 2.080450 0.030240 
#    z -0.075950 0.030240 2.041190 
# 
# From -- ./inp_files/344816.got.cif
#   From: 2010.05.17/outbox.cif.g08.bks.cpg/sg2_173_cif.got.tgz:344816.got - 2010.06.03 11:33:40.
