data_PCOD9101953
_publ_section_title
;
Structure prediction by ZEFSAII (Michael W. Deem and Ramdas Pophale) SiO2 
 PCOD9101953
Probable space group: P -1
;
_chemical_formula_sum "Si O2"
_cell_formula_units_Z 16
_cell_length_a 12.951659
_cell_length_b 12.186473
_cell_length_c 9.062846
_cell_angle_alpha 66.494875
_cell_angle_beta 109.762884
_cell_angle_gamma 146.565819
_cell_volume 722.703015
_symmetry_space_group_name_H-M "P -1"
_symmetry_group_IT_number 2
_symmetry_cell_setting 'triclinic'
loop_
_space_group_symop_operation_xyz
x,y,z
-x,-y,-z
loop_
_atom_site_type_symbol
_atom_site_label
_atom_site_fract_x
_atom_site_fract_y
_atom_site_fract_z
Si Si1 0.958815 0.303661 0.445835
Si Si2 0.708571 0.976874 0.033203
Si Si3 0.536174 0.152911 0.236611
Si Si4 0.504893 0.546999 0.152918
Si Si5 0.810609 0.278091 0.098348
Si Si6 0.290968 0.738951 0.455186
Si Si7 0.910047 0.797610 0.907370
Si Si8 0.123602 0.239790 0.749374
O O1 0.153915 0.546741 0.388112
O O2 0.016935 0.232196 0.589875
O O3 0.857934 0.228636 0.282117
O O4 0.833976 0.270145 0.518789
O O5 0.588900 0.752009 0.125259
O O6 0.684563 0.087353 0.029785
O O7 0.647272 0.938273 0.853112
O O8 0.922357 0.140270 0.091153
O O9 0.690342 0.278387 0.116114
O O10 0.632258 0.277270 0.367822
O O11 0.460846 0.953449 0.342754
O O12 0.286307 0.362763 0.184336
O O13 0.659524 0.596387 0.273443
O O14 0.500000 0.500000 0.000000
O O15 0.000000 0.500000 0.000000
O O16 0.872111 0.718428 0.098875
O O17 0.007733 0.013689 0.828968
#
# Coordination Sequence:
#
# PCOD9101953 Si02
#       8
#     2   2   2   2   2   2   2   2
#     4  10  20  38  61  88 124 167 205 250 317 365
#     4  11  22  36  62  87 123 166 203 249 309 373
#     4  10  21  38  58  92 123 156 207 261 309 377
#     4   9  20  36  57  91 118 153 207 257 310 362
#     4  11  25  41  60  88 129 175 210 248 300 383
#     4   9  20  36  59  92 123 151 204 266 317 365
#     4   9  19  36  58  91 121 153 201 259 313 363
#     4   9  18  35  60  88 118 153 203 261 313 362
#
# _framework density 22.139106999999999
#
# number of rings (size 3 to 8) (size 9 to 14) (size 15 to 20)
#    0.000    2.250    0.000    2.625    5.250    1.000 
#    4.500    2.500    0.000    1.500    0.000    0.000 
#    0.000    0.000    0.000    0.000    0.000    0.000 
#
# Total GULP energy -89087.705991 kJ/mol
# GULP energy per Si atom -5567.981624 kJ/mol
# Density = 2.208872 g / cm^3
# Si number density = 22.139107 Si / 1000 Ang^3
#
#
#
# Elastic Constant Matrix: (Units=GPa)
#
#
# Indices 1 2 3 4 5 6 
#
# 1 54.8878 31.7882 19.6719 -0.6431 15.4037 8.8667
# 2 31.7882 103.0795 3.5288 7.5116 -1.1992 27.8541
# 3 19.6719 3.5288 70.2043 6.9589 29.6088 13.6822
# 4 -0.6431 7.5116 6.9589 32.1289 8.8810 3.1189
# 5 15.4037 -1.1992 29.6088 8.8810 31.5132 5.2429
# 6 8.8667 27.8541 13.6822 3.1189 5.2429 29.7372
#
#
#
# Elastic Compliance Matrix: (Units=1/GPa)
#
#
# Indices 1 2 3 4 5 6 
#
# 1 0.028990 -0.010806 -0.003099 0.007335 -0.014518 0.004694
# 2 -0.010806 0.017515 0.002332 -0.005515 0.007817 -0.015057
# 3 -0.003099 0.002332 0.025681 0.000583 -0.021124 -0.009413
# 4 0.007335 -0.005515 0.000583 0.036393 -0.014851 0.001512
# 5 -0.014518 0.007817 -0.021124 -0.014851 0.063648 -0.002938
# 6 0.004694 -0.015057 -0.009413 0.001512 -0.002938 0.051022
#
#
# Mechanical properties :
#
#
# Convention : Reuss Voigt Hill
#
# Bulk Modulus (GPa) = 20.39140 37.57217 28.98179
# Shear Modulus (GPa) = 19.03010 30.22137 24.62574
#
# Velocity S-wave (km/s) = 2.93502 3.69869 3.33876
# Velocity P-wave (km/s) = 4.55153 5.93702 5.28983
#
# Compressibility (1/GPa) = 0.04904028
#
# Stress axis : x y z
#
# Youngs Moduli (GPa) = 34.49485 57.09302 38.93930
#
# Poissons Ratio (x) = 0.61693 0.12067
# Poissons Ratio (y) = 0.37274 -0.09080
# Poissons Ratio (z) = 0.10690 -0.13313
#
# Static dielectric constant tensor:
#      x y z
#    x 1.893330 0.013410 0.014480 
#    y 0.013410 1.824410 -0.012290 
#    z 0.014480 -0.012290 1.822230 
# 
# From -- ./inp_files/312852.got.cif
#   From: 2010.05.17/outbox.cif.g08.bks.cpg/sg2_157_cif.got.tgz:312852.got - 2010.06.03 11:33:40.
