data_PCOD9101434
_publ_section_title
;
Structure prediction by ZEFSAII (Michael W. Deem and Ramdas Pophale) SiO2 
 PCOD9101434
Probable space group: P -1
;
_chemical_formula_sum "Si O2"
_cell_formula_units_Z 16
_cell_length_a 11.471429
_cell_length_b 6.314110
_cell_length_c 21.879871
_cell_angle_alpha 103.980324
_cell_angle_beta 32.478467
_cell_angle_gamma 89.258543
_cell_volume 750.973024
_symmetry_space_group_name_H-M "P -1"
_symmetry_group_IT_number 2
_symmetry_cell_setting 'triclinic'
loop_
_space_group_symop_operation_xyz
x,y,z
-x,-y,-z
loop_
_atom_site_type_symbol
_atom_site_label
_atom_site_fract_x
_atom_site_fract_y
_atom_site_fract_z
Si Si1 0.663542 0.101436 0.886289
Si Si2 0.074192 0.865871 0.522863
Si Si3 0.313418 0.268724 0.247585
Si Si4 0.847987 0.900783 0.103547
Si Si5 0.453611 0.606207 0.739834
Si Si6 0.025863 0.711661 0.320565
Si Si7 0.136136 0.334083 0.155188
Si Si8 0.979457 0.528015 0.924291
O O1 0.797849 0.217246 0.793652
O O2 0.593110 0.933981 0.859489
O O3 0.841795 0.919470 0.844660
O O4 0.415143 0.288451 0.036233
O O5 0.301216 0.612627 0.400723
O O6 0.854912 0.810044 0.640480
O O7 0.000000 0.000000 0.500000
O O8 0.126654 0.042362 0.559328
O O9 0.508452 0.313132 0.203578
O O10 0.156710 0.518646 0.301555
O O11 0.991802 0.731319 0.083541
O O12 0.628924 0.138024 0.240551
O O13 0.798702 0.725331 0.064908
O O14 0.000000 0.000000 0.000000
O O15 0.240301 0.524594 0.820712
O O16 0.956333 0.551290 0.291757
O O17 0.081187 0.397231 0.113271
#
# Coordination Sequence:
#
# PCOD9101434 Si02
#       8
#     2   2   2   2   2   2   2   2
#     4   9  20  36  61  88 115 151 196 246 293 356
#     4  11  23  38  59  88 117 154 201 252 293 346
#     4  10  21  36  58  89 117 149 194 250 300 347
#     4   9  21  38  55  85 118 157 194 237 285 351
#     4  11  22  35  59  85 119 156 192 240 297 348
#     4  10  21  36  58  87 117 151 195 249 294 345
#     4  10  20  38  59  85 119 156 193 238 295 352
#     4  10  22  38  59  87 122 156 194 239 292 362
#
# _framework density 21.305693000000002
#
# number of rings (size 3 to 8) (size 9 to 14) (size 15 to 20)
#    0.000    2.000    1.250    1.500    1.750    5.000 
#    0.000    0.625    0.000    7.500    0.000    0.000 
#    0.000    0.000    0.000    0.000    0.000    0.000 
#
# Total GULP energy -89165.141881 kJ/mol
# GULP energy per Si atom -5572.821368 kJ/mol
# Density = 2.125720 g / cm^3
# Si number density = 21.305693 Si / 1000 Ang^3
#
#
#
# Elastic Constant Matrix: (Units=GPa)
#
#
# Indices 1 2 3 4 5 6 
#
# 1 85.1919 51.0141 26.9764 1.1484 12.2079 -24.4598
# 2 51.0141 138.3363 45.3484 8.8577 11.5065 -32.8312
# 3 26.9764 45.3484 95.7637 28.7745 10.1228 -11.2351
# 4 1.1484 8.8577 28.7745 49.9135 2.4822 8.9458
# 5 12.2079 11.5065 10.1228 2.4822 23.5885 -5.4071
# 6 -24.4598 -32.8312 -11.2351 8.9458 -5.4071 27.6812
#
#
#
# Elastic Compliance Matrix: (Units=1/GPa)
#
#
# Indices 1 2 3 4 5 6 
#
# 1 0.017846 -0.003067 -0.001645 -0.000628 -0.004495 0.010788
# 2 -0.003067 0.012138 -0.002777 -0.002495 -0.000287 0.011309
# 3 -0.001645 -0.002777 0.015721 -0.009129 -0.002648 0.004067
# 4 -0.000628 -0.002495 -0.009129 0.028841 -0.001430 -0.016820
# 5 -0.004495 -0.000287 -0.002648 -0.001430 0.047128 0.004282
# 6 0.010788 0.011309 0.004067 -0.016820 0.004282 0.066994
#
#
# Mechanical properties :
#
#
# Convention : Reuss Voigt Hill
#
# Bulk Modulus (GPa) = 32.54582 62.88552 47.71567
# Shear Modulus (GPa) = 23.37680 33.30019 28.33849
#
# Velocity S-wave (km/s) = 3.31601 3.95773 3.65100
# Velocity P-wave (km/s) = 5.47449 7.10386 6.34172
#
# Compressibility (1/GPa) = 0.03072591
#
# Stress axis : x y z
#
# Youngs Moduli (GPa) = 56.03524 82.38785 63.60944
#
# Poissons Ratio (x) = 0.25270 0.10465
# Poissons Ratio (y) = 0.17187 0.17664
# Poissons Ratio (z) = 0.09219 0.22878
#
# Static dielectric constant tensor:
#      x y z
#    x 1.791640 0.014070 0.021590 
#    y 0.014070 1.862790 0.045950 
#    z 0.021590 0.045950 1.803830 
# 
# From -- ./inp_files/441897.got.cif
#   From: 2010.05.17/outbox.cif.g08.bks.cpg/sg2_221_cif.got.tgz:441897.got - 2010.06.03 11:33:40.
