data_PCOD9101428
_publ_section_title
;
Structure prediction by ZEFSAII (Michael W. Deem and Ramdas Pophale) SiO2 
 PCOD9101428
Probable space group: P -1
;
_chemical_formula_sum "Si O2"
_cell_formula_units_Z 16
_cell_length_a 19.525960
_cell_length_b 9.665592
_cell_length_c 8.372582
_cell_angle_alpha 148.760525
_cell_angle_beta 108.445397
_cell_angle_gamma 69.802468
_cell_volume 768.372497
_symmetry_space_group_name_H-M "P -1"
_symmetry_group_IT_number 2
_symmetry_cell_setting 'triclinic'
loop_
_space_group_symop_operation_xyz
x,y,z
-x,-y,-z
loop_
_atom_site_type_symbol
_atom_site_label
_atom_site_fract_x
_atom_site_fract_y
_atom_site_fract_z
Si Si1 0.889185 0.451724 0.135569
Si Si2 0.329596 0.996531 0.100079
Si Si3 0.074296 0.766871 0.733485
Si Si4 0.831497 0.750152 0.678715
Si Si5 0.397375 0.451664 0.751448
Si Si6 0.048120 0.078739 0.468127
Si Si7 0.433580 0.604359 0.276171
Si Si8 0.580070 0.900472 0.035758
O O1 0.944808 0.356578 0.230929
O O2 0.827192 0.625125 0.371445
O O3 0.917344 0.649180 0.224750
O O4 0.887718 0.168271 0.769277
O O5 0.246079 0.121093 0.185856
O O6 0.375874 0.159480 0.415005
O O7 0.360526 0.054016 0.006497
O O8 0.345143 0.681126 0.842382
O O9 0.130068 0.512362 0.455381
O O10 0.008160 0.855747 0.655733
O O11 0.117441 0.016422 0.049074
O O12 0.479533 0.451517 0.748449
O O13 0.395702 0.533112 0.015299
O O14 0.000000 0.000000 0.500000
O O15 0.413366 0.910096 0.620194
O O16 0.416202 0.405662 0.207462
O O17 0.500000 0.000000 0.000000
#
# Coordination Sequence:
#
# PCOD9101428 Si02
#       8
#     2   2   2   2   2   2   2   2
#     4  10  20  38  59  85 115 152 189 236 274 341
#     4  12  23  38  63  85 113 157 209 238 287 358
#     4  10  20  38  62  82 115 151 194 233 279 334
#     4  10  22  37  63  80 113 158 205 228 270 343
#     4  11  22  37  61  85 116 151 196 245 299 364
#     4  12  22  34  62  96 117 144 184 242 296 330
#     4  11  22  38  57  89 119 147 182 258 324 339
#     4  12  21  37  60  90 117 149 193 260 299 344
#
# _framework density 20.823232999999998
#
# number of rings (size 3 to 8) (size 9 to 14) (size 15 to 20)
#    0.750    0.250    3.750    4.500    0.000    2.000 
#    0.000    0.000   16.500    0.000    0.000    0.000 
#    0.000    0.000    0.000    0.000    0.000    0.000 
#
# Total GULP energy -89280.001522 kJ/mol
# GULP energy per Si atom -5580.000095 kJ/mol
# Density = 2.077584 g / cm^3
# Si number density = 20.823233 Si / 1000 Ang^3
#
#
#
# Elastic Constant Matrix: (Units=GPa)
#
#
# Indices 1 2 3 4 5 6 
#
# 1 74.3965 14.4899 3.3493 8.0309 -23.2497 10.5781
# 2 14.4899 46.5142 5.4008 13.7517 1.3553 17.3534
# 3 3.3493 5.4008 81.5860 9.4508 -5.5270 0.9258
# 4 8.0309 13.7517 9.4508 31.3594 0.8823 -1.9079
# 5 -23.2497 1.3553 -5.5270 0.8823 25.4879 1.5982
# 6 10.5781 17.3534 0.9258 -1.9079 1.5982 17.3930
#
#
#
# Elastic Compliance Matrix: (Units=1/GPa)
#
#
# Indices 1 2 3 4 5 6 
#
# 1 0.024432 0.001684 0.001842 -0.009441 0.024171 -0.019894
# 2 0.001684 0.047052 0.000434 -0.024384 0.003168 -0.050958
# 3 0.001842 0.000434 0.013092 -0.004942 0.004871 -0.003239
# 4 -0.009441 -0.024384 -0.004942 0.049079 -0.012397 0.036856
# 5 0.024171 0.003168 0.004871 -0.012397 0.064191 -0.025378
# 6 -0.019894 -0.050958 -0.003239 0.036856 -0.025378 0.126983
#
#
# Mechanical properties :
#
#
# Convention : Reuss Voigt Hill
#
# Bulk Modulus (GPa) = 10.81137 27.66409 19.23773
# Shear Modulus (GPa) = 14.37855 26.79850 20.58853
#
# Velocity S-wave (km/s) = 2.63060 3.59130 3.14782
# Velocity P-wave (km/s) = 3.79868 5.52365 4.74029
#
# Compressibility (1/GPa) = 0.09249526
#
# Stress axis : x y z
#
# Youngs Moduli (GPa) = 40.93012 21.25316 76.38365
#
# Poissons Ratio (x) = -0.03579 -0.14072
# Poissons Ratio (y) = -0.06892 -0.03312
# Poissons Ratio (z) = -0.07541 -0.00922
#
# Static dielectric constant tensor:
#      x y z
#    x 1.749400 0.010490 -0.017710 
#    y 0.010490 1.738540 -0.014450 
#    z -0.017710 -0.014450 1.778150 
# 
# From -- ./inp_files/343986.got.cif
#   From: 2010.05.17/outbox.cif.g08.bks.cpg/sg2_172_cif.got.tgz:343986.got - 2010.06.03 11:33:40.
