data_PCOD9101280
_publ_section_title
;
Structure prediction by ZEFSAII (Michael W. Deem and Ramdas Pophale) SiO2 
 PCOD9101280
Probable space group: P -1
;
_chemical_formula_sum "Si O2"
_cell_formula_units_Z 15
_cell_length_a 9.577434
_cell_length_b 18.852122
_cell_length_c 12.547037
_cell_angle_alpha 32.457125
_cell_angle_beta 72.623800
_cell_angle_gamma 50.218635
_cell_volume 757.770839
_symmetry_space_group_name_H-M "P -1"
_symmetry_group_IT_number 2
_symmetry_cell_setting 'triclinic'
loop_
_space_group_symop_operation_xyz
x,y,z
-x,-y,-z
loop_
_atom_site_type_symbol
_atom_site_label
_atom_site_fract_x
_atom_site_fract_y
_atom_site_fract_z
Si Si1 0.461239 0.611808 0.471979
Si Si2 0.158038 0.996983 0.358985
Si Si3 0.306002 0.797419 0.800966
Si Si4 0.000000 0.000000 0.000000
Si Si5 0.278253 0.627118 0.703812
Si Si6 0.180549 0.066586 0.679520
Si Si7 0.737335 0.669171 0.353299
Si Si8 0.488321 0.985740 0.199836
O O1 0.500000 0.500000 0.500000
O O2 0.419468 0.551229 0.659983
O O3 0.669271 0.563518 0.502480
O O4 0.238394 0.849592 0.200659
O O5 0.222165 0.943601 0.536120
O O6 0.229938 0.805684 0.535456
O O7 0.296823 0.018917 0.245423
O O8 0.888267 0.182425 0.171944
O O9 0.299323 0.887468 0.795868
O O10 0.553648 0.571636 0.010160
O O11 0.908348 0.957845 0.168139
O O12 0.040497 0.730773 0.589964
O O13 0.349564 0.062311 0.687625
O O14 0.638592 0.803628 0.311175
O O15 0.000000 0.500000 0.500000
O O16 0.626689 0.817570 0.089450
#
# Coordination Sequence:
#
# PCOD9101280 Si02
#       8
#     2   2   2   1   2   2   2   2
#     4  11  22  35  60  88 113 153 199 236 288 353
#     4  10  22  41  62  87 117 157 196 250 301 343
#     4  10  22  40  64  88 113 153 209 247 288 348
#     4  10  20  38  58  84 124 152 188 240 292 340
#     4  10  21  38  61  86 117 152 203 245 290 344
#     4  10  22  37  61  87 118 159 195 239 299 346
#     4  11  26  39  58  90 123 160 191 236 302 359
#     4  11  24  42  58  85 130 154 192 244 299 357
#
# _framework density 19.794900999999999
#
# number of rings (size 3 to 8) (size 9 to 14) (size 15 to 20)
#    0.000    1.600    2.667    1.200    5.600    0.533 
#    0.000    0.667    0.000    0.000    0.000    0.000 
#    0.000    0.000    0.000    0.000    0.000    0.000 
#
# Total GULP energy -83501.478438 kJ/mol
# GULP energy per Si atom -5566.765229 kJ/mol
# Density = 1.974985 g / cm^3
# Si number density = 19.794901 Si / 1000 Ang^3
#
#
#
# Elastic Constant Matrix: (Units=GPa)
#
#
# Indices 1 2 3 4 5 6 
#
# 1 103.8471 19.0434 23.7197 -5.0195 29.0936 0.1429
# 2 19.0434 49.5412 3.0295 3.9991 3.0797 -3.6608
# 3 23.7197 3.0295 62.6083 -7.7475 23.3022 3.4248
# 4 -5.0195 3.9991 -7.7475 23.0446 -4.1081 6.7406
# 5 29.0936 3.0797 23.3022 -4.1081 24.8224 -1.6670
# 6 0.1429 -3.6608 3.4248 6.7406 -1.6670 29.0459
#
#
#
# Elastic Compliance Matrix: (Units=1/GPa)
#
#
# Indices 1 2 3 4 5 6 
#
# 1 0.015704 -0.005333 0.001946 0.002317 -0.019364 -0.002628
# 2 -0.005333 0.022948 -0.001753 -0.006383 0.004318 0.004854
# 3 0.001946 -0.001753 0.026154 0.006763 -0.025925 -0.006372
# 4 0.002317 -0.006383 0.006763 0.051104 -0.000723 -0.013514
# 5 -0.019364 0.004318 -0.025925 -0.000723 0.087260 0.008872
# 6 -0.002628 0.004854 -0.006372 -0.013514 0.008872 0.039450
#
#
# Mechanical properties :
#
#
# Convention : Reuss Voigt Hill
#
# Bulk Modulus (GPa) = 18.33955 34.17574 26.25764
# Shear Modulus (GPa) = 18.44518 26.72953 22.58735
#
# Velocity S-wave (km/s) = 3.05588 3.67866 3.38164
# Velocity P-wave (km/s) = 4.66220 5.94523 5.34237
#
# Compressibility (1/GPa) = 0.05452698
#
# Stress axis : x y z
#
# Youngs Moduli (GPa) = 63.67977 43.57704 38.23486
#
# Poissons Ratio (x) = 0.23239 -0.07441
# Poissons Ratio (y) = 0.33960 0.06701
# Poissons Ratio (z) = -0.12393 0.07638
#
# Static dielectric constant tensor:
#      x y z
#    x 1.676310 0.014300 0.005130 
#    y 0.014300 1.691180 0.003550 
#    z 0.005130 0.003550 1.723470 
# 
# From -- ./inp_files/270282.got.cif
#   From: 2010.05.17/outbox.cif.g08.bks.cpg/sg2_136_cif.got.tgz:270282.got - 2010.06.03 11:33:40.
