data_PCOD9101632
_publ_section_title
;
Structure prediction by ZEFSAII (Michael W. Deem and Ramdas Pophale) SiO2 
 PCOD9101632
Probable space group: P -1
;
_chemical_formula_sum "Si O2"
_cell_formula_units_Z 10
_cell_length_a 7.618090
_cell_length_b 7.669656
_cell_length_c 10.635683
_cell_angle_alpha 63.527179
_cell_angle_beta 139.354931
_cell_angle_gamma 116.041844
_cell_volume 356.879825
_symmetry_space_group_name_H-M "P -1"
_symmetry_group_IT_number 2
_symmetry_cell_setting 'triclinic'
loop_
_space_group_symop_operation_xyz
x,y,z
-x,-y,-z
loop_
_atom_site_type_symbol
_atom_site_label
_atom_site_fract_x
_atom_site_fract_y
_atom_site_fract_z
Si Si1 0.476807 0.944963 0.790846
Si Si2 0.324820 0.687107 0.568228
Si Si3 0.466418 0.267774 0.867670
Si Si4 0.868541 0.687427 0.807223
Si Si5 0.906869 0.300955 0.814521
O O1 0.289424 0.814114 0.630549
O O2 0.345887 0.095744 0.759453
O O3 0.722714 0.090612 0.811259
O O4 0.592503 0.800917 0.999291
O O5 0.374912 0.469124 0.708031
O O6 0.605435 0.789212 0.613360
O O7 0.091305 0.673225 0.341610
O O8 0.802371 0.263543 0.049186
O O9 0.786696 0.491647 0.740381
O O10 0.858018 0.682113 0.957121
#
# Coordination Sequence:
#
# PCOD9101632 Si02
#       5
#     2   2   2   2   2
#     4  10  22  36  61  86 116 150 187 237 287 330
#     4  12  20  37  67  82 109 158 195 222 285 345
#     4  10  21  41  57  83 123 149 180 242 290 326
#     4  10  20  38  62  82 117 151 187 236 283 332
#     4  10  20  38  60  86 113 150 192 235 276 338
#
# _framework density 28.020634000000001
#
# number of rings (size 3 to 8) (size 9 to 14) (size 15 to 20)
#    0.000    1.600    6.000    1.800    0.000    3.200 
#    0.000    2.000    4.400    3.600    0.000    0.000 
#    0.000    0.000    0.000    0.000    0.000    0.000 
#
# Total GULP energy -55753.567224 kJ/mol
# GULP energy per Si atom -5575.356722 kJ/mol
# Density = 2.795686 g / cm^3
# Si number density = 28.020634 Si / 1000 Ang^3
#
#
#
# Elastic Constant Matrix: (Units=GPa)
#
#
# Indices 1 2 3 4 5 6 
#
# 1 92.0620 60.9015 78.6514 8.2703 -18.5908 -4.8759
# 2 60.9015 150.7432 91.4700 18.7445 -47.3703 -14.8596
# 3 78.6514 91.4700 194.3691 0.8876 -29.5561 -9.5169
# 4 8.2703 18.7445 0.8876 41.1864 -16.5949 -28.0165
# 5 -18.5908 -47.3703 -29.5561 -16.5949 58.1812 7.6202
# 6 -4.8759 -14.8596 -9.5169 -28.0165 7.6202 38.4298
#
#
#
# Elastic Compliance Matrix: (Units=1/GPa)
#
#
# Indices 1 2 3 4 5 6 
#
# 1 0.018680 -0.004086 -0.006021 -0.005151 -0.001337 -0.004191
# 2 -0.004086 0.012657 -0.003186 -0.001172 0.006867 0.001370
# 3 -0.006021 -0.003186 0.009496 0.006125 0.001460 0.004532
# 4 -0.005151 -0.001172 0.006125 0.057806 0.011731 0.040226
# 5 -0.001337 0.006867 0.001460 0.011731 0.025611 0.006321
# 6 -0.004191 0.001370 0.004532 0.040226 0.006321 0.055215
#
#
# Mechanical properties :
#
#
# Convention : Reuss Voigt Hill
#
# Bulk Modulus (GPa) = 70.19133 99.91333 85.05233
# Shear Modulus (GPa) = 23.71918 41.30291 32.51105
#
# Velocity S-wave (km/s) = 2.91261 3.84346 3.40995
# Velocity P-wave (km/s) = 6.03451 7.44518 6.77665
#
# Compressibility (1/GPa) = 0.01424677
#
# Stress axis : x y z
#
# Youngs Moduli (GPa) = 53.53321 79.00970 105.30205
#
# Poissons Ratio (x) = 0.32285 0.63401
# Poissons Ratio (y) = 0.21875 0.33550
# Poissons Ratio (z) = 0.32232 0.25173
#
# Static dielectric constant tensor:
#      x y z
#    x 2.342850 0.072660 0.024170 
#    y 0.072660 2.260500 -0.048770 
#    z 0.024170 -0.048770 2.077950 
# 
# From -- ./inp_files/378955.got.cif
#   From: 2010.05.17/outbox.cif.g08.bks.cpg/sg2_190_cif.got.tgz:378955.got - 2010.06.03 11:33:40.
