data_PCOD9101183
_publ_section_title
;
Structure prediction by ZEFSAII (Michael W. Deem and Ramdas Pophale) SiO2 
 PCOD9101183
Probable space group: P -1
;
_chemical_formula_sum "Si O2"
_cell_formula_units_Z 16
_cell_length_a 8.361760
_cell_length_b 8.926381
_cell_length_c 19.433576
_cell_angle_alpha 133.511597
_cell_angle_beta 122.881363
_cell_angle_gamma 56.805734
_cell_volume 846.756391
_symmetry_space_group_name_H-M "P -1"
_symmetry_group_IT_number 2
_symmetry_cell_setting 'triclinic'
loop_
_space_group_symop_operation_xyz
x,y,z
-x,-y,-z
loop_
_atom_site_type_symbol
_atom_site_label
_atom_site_fract_x
_atom_site_fract_y
_atom_site_fract_z
Si Si1 0.779325 0.266871 0.214971
Si Si2 0.904776 0.599636 0.580966
Si Si3 0.577759 0.897291 0.912073
Si Si4 0.423848 0.740192 0.087003
Si Si5 0.097994 0.759572 0.419085
Si Si6 0.024579 0.106685 0.966619
Si Si7 0.526124 0.100082 0.464260
Si Si8 0.294830 0.270906 0.724230
O O1 0.579993 0.226060 0.185961
O O2 0.714237 0.494141 0.232291
O O3 0.944822 0.281187 0.313112
O O4 0.881360 0.079040 0.125415
O O5 0.892962 0.412558 0.572594
O O6 0.685969 0.755349 0.566071
O O7 0.000000 0.500000 0.500000
O O8 0.808844 0.770729 0.940178
O O9 0.574722 0.086102 0.917056
O O10 0.500000 0.000000 0.000000
O O11 0.566332 0.774009 0.191420
O O12 0.197759 0.770608 0.068458
O O13 0.500000 0.500000 0.000000
O O14 0.316594 0.760315 0.447266
O O15 0.935242 0.724112 0.315946
O O16 0.000000 0.000000 0.500000
O O17 0.000000 0.000000 0.000000
O O18 0.500000 0.000000 0.500000
O O19 0.615653 0.908431 0.369871
#
# Coordination Sequence:
#
# PCOD9101183 Si02
#       8
#     2   2   2   2   2   2   2   2
#     4  10  20  38  57  81 112 145 186 232 282 339
#     4  11  22  38  60  84 115 156 192 236 291 345
#     4   9  19  36  57  80 110 146 186 231 280 340
#     4  11  21  36  58  83 112 148 187 233 283 337
#     4   9  20  38  59  83 115 150 193 240 287 344
#     4   9  18  35  56  78 106 143 180 221 273 334
#     4  11  22  39  59  86 118 151 192 242 291 345
#     4  10  21  38  58  83 113 147 187 237 285 340
#
# _framework density 18.895634000000001
#
# number of rings (size 3 to 8) (size 9 to 14) (size 15 to 20)
#    0.000    2.000    0.000    5.625    0.000    3.000 
#    0.000   20.625    0.000    0.000    0.000    0.000 
#    0.000    0.000    0.000    0.000    0.000    0.000 
#
# Total GULP energy -89218.814557 kJ/mol
# GULP energy per Si atom -5576.175910 kJ/mol
# Density = 1.885263 g / cm^3
# Si number density = 18.895634 Si / 1000 Ang^3
#
#
#
# Elastic Constant Matrix: (Units=GPa)
#
#
# Indices 1 2 3 4 5 6 
#
# 1 122.7235 44.8281 78.6576 -13.1570 38.1969 -9.2125
# 2 44.8281 92.9993 54.6566 -15.9448 24.1345 -16.2396
# 3 78.6576 54.6566 133.4385 -22.4218 29.8544 -4.4109
# 4 -13.1570 -15.9448 -22.4218 38.6945 -4.0930 2.7454
# 5 38.1969 24.1345 29.8544 -4.0930 49.0144 -1.2554
# 6 -9.2125 -16.2396 -4.4109 2.7454 -1.2554 29.2962
#
#
#
# Elastic Compliance Matrix: (Units=1/GPa)
#
#
# Indices 1 2 3 4 5 6 
#
# 1 0.015463 -0.000950 -0.007041 -0.000190 -0.007233 0.002984
# 2 -0.000950 0.016966 -0.004665 0.002944 -0.004323 0.007942
# 3 -0.007041 -0.004665 0.014292 0.004113 -0.000656 -0.003062
# 4 -0.000190 0.002944 0.004113 0.029273 -0.001378 -0.000611
# 5 -0.007233 -0.004323 -0.000656 -0.001378 0.028365 -0.003425
# 6 0.002984 0.007942 -0.003062 -0.000611 -0.003425 0.038925
#
#
# Mechanical properties :
#
#
# Convention : Reuss Voigt Hill
#
# Bulk Modulus (GPa) = 46.70840 78.38289 62.54565
# Shear Modulus (GPa) = 28.45263 34.80229 31.62746
#
# Velocity S-wave (km/s) = 3.88465 4.29629 4.09565
# Velocity P-wave (km/s) = 6.70026 8.13529 7.45239
#
# Compressibility (1/GPa) = 0.02140942
#
# Stress axis : x y z
#
# Youngs Moduli (GPa) = 64.67010 58.94214 69.96999
#
# Poissons Ratio (x) = 0.05600 0.49265
# Poissons Ratio (y) = 0.06144 0.32639
# Poissons Ratio (z) = 0.45533 0.27495
#
# Static dielectric constant tensor:
#      x y z
#    x 1.715080 -0.001090 0.020350 
#    y -0.001090 1.639400 -0.020160 
#    z 0.020350 -0.020160 1.690370 
# 
# From -- ./inp_files/587547.got.cif
#   From: 2010.05.17/outbox.cif.g08.bks.cpg/sg2_294_cif.got.tgz:587547.got - 2010.06.03 11:33:40.
