data_PCOD9101653
_publ_section_title
;
Structure prediction by ZEFSAII (Michael W. Deem and Ramdas Pophale) SiO2 
 PCOD9101653
Probable space group: P -1
;
_chemical_formula_sum "Si O2"
_cell_formula_units_Z 16
_cell_length_a 7.525140
_cell_length_b 21.327924
_cell_length_c 18.533838
_cell_angle_alpha 19.013947
_cell_angle_beta 46.120127
_cell_angle_gamma 39.205480
_cell_volume 601.234851
_symmetry_space_group_name_H-M "P -1"
_symmetry_group_IT_number 2
_symmetry_cell_setting 'triclinic'
loop_
_space_group_symop_operation_xyz
x,y,z
-x,-y,-z
loop_
_atom_site_type_symbol
_atom_site_label
_atom_site_fract_x
_atom_site_fract_y
_atom_site_fract_z
Si Si1 0.394796 0.874899 0.012225
Si Si2 0.982071 0.104137 0.313945
Si Si3 0.604711 0.397698 0.496864
Si Si4 0.194666 0.667928 0.652468
Si Si5 0.152010 0.281373 0.744100
Si Si6 0.629104 0.768146 0.633735
Si Si7 0.453933 0.188429 0.122645
Si Si8 0.996026 0.439933 0.766093
O O1 0.362686 0.897170 0.910338
O O2 0.217017 0.078813 0.893698
O O3 0.374273 0.662434 0.275467
O O4 0.735451 0.776615 0.037397
O O5 0.649084 0.215106 0.269261
O O6 0.136163 0.243407 0.128796
O O7 0.184364 0.884515 0.450151
O O8 0.000000 0.000000 0.500000
O O9 0.458579 0.254460 0.711528
O O10 0.874046 0.394350 0.462879
O O11 0.691728 0.360144 0.429912
O O12 0.868527 0.725955 0.670987
O O13 0.386443 0.435787 0.892894
O O14 0.967766 0.347037 0.798127
O O15 0.000000 0.500000 0.500000
O O16 0.752027 0.576310 0.745324
O O17 0.560741 0.996630 0.361528
#
# Coordination Sequence:
#
# PCOD9101653 Si02
#       8
#     2   2   2   2   2   2   2   2
#     4   9  20  38  59  79 116 153 189 235 290 336
#     4  10  22  36  62  89 119 153 194 244 289 346
#     4   8  20  37  59  77 115 151 187 235 285 343
#     4  10  20  41  60  85 119 153 193 240 290 348
#     4  12  21  33  61  87 111 152 191 237 293 341
#     4  10  20  38  60  87 115 156 201 237 286 352
#     4  10  20  39  64  83 121 157 187 245 298 331
#     4   9  20  39  56  79 118 153 194 238 281 345
#
# _framework density 26.611896999999999
#
# number of rings (size 3 to 8) (size 9 to 14) (size 15 to 20)
#    0.750    1.500    1.250    2.625    0.000    4.000 
#    0.000    2.500   16.500    0.000    0.000    0.000 
#    0.000    0.000    0.000    0.000    0.000    0.000 
#
# Total GULP energy -89406.393101 kJ/mol
# GULP energy per Si atom -5587.899569 kJ/mol
# Density = 2.655133 g / cm^3
# Si number density = 26.611897 Si / 1000 Ang^3
#
#
#
# Elastic Constant Matrix: (Units=GPa)
#
#
# Indices 1 2 3 4 5 6 
#
# 1 56.1522 -4.8667 9.4116 -11.2791 -10.5144 -7.5955
# 2 -4.8667 75.5064 23.6053 -21.4394 -18.8352 4.8167
# 3 9.4116 23.6053 96.7285 -23.7226 -3.0515 0.5891
# 4 -11.2791 -21.4394 -23.7226 41.4320 5.8444 -6.1541
# 5 -10.5144 -18.8352 -3.0515 5.8444 47.4921 -0.4808
# 6 -7.5955 4.8167 0.5891 -6.1541 -0.4808 48.0436
#
#
#
# Elastic Compliance Matrix: (Units=1/GPa)
#
#
# Indices 1 2 3 4 5 6 
#
# 1 0.021632 0.005172 -0.001355 0.007548 0.005864 0.003944
# 2 0.005172 0.018663 -0.002748 0.008479 0.007328 0.000140
# 3 -0.001355 -0.002748 0.012476 0.005624 -0.001274 0.000616
# 4 0.007548 0.008479 0.005624 0.034322 0.001219 0.004683
# 5 0.005864 0.007328 -0.001274 0.001219 0.025035 0.000615
# 6 0.003944 0.000140 0.000616 0.004683 0.000615 0.022022
#
#
# Mechanical properties :
#
#
# Convention : Reuss Voigt Hill
#
# Bulk Modulus (GPa) = 18.21161 31.63195 24.92178
# Shear Modulus (GPa) = 33.26361 40.74265 37.00313
#
# Velocity S-wave (km/s) = 3.53930 3.91704 3.73295
# Velocity P-wave (km/s) = 4.85391 5.68944 5.28821
#
# Compressibility (1/GPa) = 0.05491003
#
# Stress axis : x y z
#
# Youngs Moduli (GPa) = 46.22822 53.58175 80.15451
#
# Poissons Ratio (x) = -0.27714 0.10860
# Poissons Ratio (y) = -0.23911 0.22026
# Poissons Ratio (z) = 0.06263 0.14724
#
# Static dielectric constant tensor:
#      x y z
#    x 2.103060 -0.120320 0.045360 
#    y -0.120320 2.069900 0.017550 
#    z 0.045360 0.017550 2.035700 
# 
# From -- ./inp_files/591877.got.cif
#   From: 2010.05.17/outbox.cif.g08.bks.cpg/sg2_296_cif.got.tgz:591877.got - 2010.06.03 11:33:40.
