data_PCOD9101213
_publ_section_title
;
Structure prediction by ZEFSAII (Michael W. Deem and Ramdas Pophale) SiO2 
 PCOD9101213
Probable space group: P -1
;
_chemical_formula_sum "Si O2"
_cell_formula_units_Z 16
_cell_length_a 28.681724
_cell_length_b 8.736207
_cell_length_c 5.367882
_cell_angle_alpha 113.973840
_cell_angle_beta 99.021447
_cell_angle_gamma 34.015323
_cell_volume 643.483954
_symmetry_space_group_name_H-M "P -1"
_symmetry_group_IT_number 2
_symmetry_cell_setting 'triclinic'
loop_
_space_group_symop_operation_xyz
x,y,z
-x,-y,-z
loop_
_atom_site_type_symbol
_atom_site_label
_atom_site_fract_x
_atom_site_fract_y
_atom_site_fract_z
Si Si1 0.584739 0.809769 0.720596
Si Si2 0.798745 0.673309 0.275811
Si Si3 0.674053 0.811984 0.499062
Si Si4 0.052939 0.536714 0.780192
Si Si5 0.489622 0.767908 0.673398
Si Si6 0.890166 0.826595 0.912461
Si Si7 0.647222 0.170595 0.102816
Si Si8 0.709291 0.262007 0.872557
O O1 0.658136 0.684768 0.538547
O O2 0.517659 0.861401 0.635944
O O3 0.642890 0.552382 0.822536
O O4 0.520686 0.152320 0.995126
O O5 0.769413 0.599170 0.359258
O O6 0.900123 0.422963 0.149994
O O7 0.740913 0.836577 0.084717
O O8 0.755729 0.966408 0.569699
O O9 0.608325 0.988087 0.329199
O O10 0.631942 0.085515 0.815042
O O11 0.068495 0.416414 0.434219
O O12 0.949547 0.815449 0.940745
O O13 0.100154 0.287005 0.880187
O O14 0.567267 0.420006 0.398851
O O15 0.788251 0.143462 0.954221
O O16 0.663213 0.306835 0.093363
#
# Coordination Sequence:
#
# PCOD9101213 Si02
#       8
#     2   2   2   2   2   2   2   2
#     4  11  25  40  58  83 116 161 204 250 309 362
#     4  10  20  38  57  87 121 152 196 248 309 364
#     4  11  25  39  58  83 116 160 204 254 305 366
#     4   9  17  32  58  92 125 154 196 251 307 363
#     4  11  25  41  59  80 115 158 209 258 299 359
#     4   9  17  32  58  92 124 155 197 250 306 365
#     4  11  22  39  60  84 114 156 201 255 307 356
#     4  10  21  36  59  87 118 156 196 250 306 365
#
# _framework density 24.864647000000001
#
# number of rings (size 3 to 8) (size 9 to 14) (size 15 to 20)
#    0.000    1.750    2.500    1.500    5.250    2.000 
#    0.000    0.000    0.000    0.750    0.000    3.500 
#    0.000    0.000    0.000    0.000    0.000    0.000 
#
# Total GULP energy -89368.040249 kJ/mol
# GULP energy per Si atom -5585.502516 kJ/mol
# Density = 2.480805 g / cm^3
# Si number density = 24.864647 Si / 1000 Ang^3
#
#
#
# Elastic Constant Matrix: (Units=GPa)
#
#
# Indices 1 2 3 4 5 6 
#
# 1 229.5657 30.6242 9.0378 -1.8147 -30.3353 -18.1106
# 2 30.6242 41.4601 -12.5381 -2.4358 -11.8855 -6.4682
# 3 9.0378 -12.5381 60.1667 1.5461 5.3090 2.9666
# 4 -1.8147 -2.4358 1.5461 23.2809 -0.1682 -4.0104
# 5 -30.3353 -11.8855 5.3090 -0.1682 41.6083 -10.4461
# 6 -18.1106 -6.4682 2.9666 -4.0104 -10.4461 48.0356
#
#
#
# Elastic Compliance Matrix: (Units=1/GPa)
#
#
# Indices 1 2 3 4 5 6 
#
# 1 0.005627 -0.003083 -0.002015 0.000763 0.004186 0.002805
# 2 -0.003083 0.031127 0.006022 0.003437 0.007011 0.004469
# 3 -0.002015 0.006022 0.018517 -0.001074 -0.002552 -0.001737
# 4 0.000763 0.003437 -0.001074 0.044364 0.003162 0.005209
# 5 0.004186 0.007011 -0.002552 0.003162 0.031908 0.009883
# 6 0.002805 0.004469 -0.001737 0.005209 0.009883 0.025168
#
#
# Mechanical properties :
#
#
# Convention : Reuss Voigt Hill
#
# Bulk Modulus (GPa) = 17.50729 42.82668 30.16698
# Shear Modulus (GPa) = 28.75160 42.85621 35.80390
#
# Velocity S-wave (km/s) = 3.40417 4.15611 3.79879
# Velocity P-wave (km/s) = 4.74420 6.34762 5.60356
#
# Compressibility (1/GPa) = 0.05711907
#
# Stress axis : x y z
#
# Youngs Moduli (GPa) = 177.70820 32.12620 54.00552
#
# Poissons Ratio (x) = 0.09906 0.10883
# Poissons Ratio (y) = 0.54794 -0.32525
# Poissons Ratio (z) = 0.35810 -0.19348
#
# Static dielectric constant tensor:
#      x y z
#    x 2.010290 0.016110 -0.004270 
#    y 0.016110 1.962690 -0.026510 
#    z -0.004270 -0.026510 2.060470 
# 
# From -- ./inp_files/51011.got.cif
#   From: 2010.05.17/outbox.cif.g08.bks.cpg/sg2_26_cif.got.tgz:51011.got - 2010.06.03 11:33:40.
