data_PCOD9101083
_publ_section_title
;
Structure prediction by ZEFSAII (Michael W. Deem and Ramdas Pophale) SiO2 
 PCOD9101083
Probable space group: P -1
;
_chemical_formula_sum "Si O2"
_cell_formula_units_Z 14
_cell_length_a 24.454585
_cell_length_b 5.490977
_cell_length_c 13.903527
_cell_angle_alpha 56.615656
_cell_angle_beta 22.615836
_cell_angle_gamma 56.718826
_cell_volume 594.617890
_symmetry_space_group_name_H-M "P -1"
_symmetry_group_IT_number 2
_symmetry_cell_setting 'triclinic'
loop_
_space_group_symop_operation_xyz
x,y,z
-x,-y,-z
loop_
_atom_site_type_symbol
_atom_site_label
_atom_site_fract_x
_atom_site_fract_y
_atom_site_fract_z
Si Si1 0.755952 0.758793 0.066364
Si Si2 0.418692 0.126810 0.852313
Si Si3 0.412997 0.369003 0.448756
Si Si4 0.972451 0.707988 0.263932
Si Si5 0.208655 0.738832 0.365813
Si Si6 0.950683 0.193301 0.673465
Si Si7 0.134264 0.675807 0.726433
O O1 0.695816 0.692169 0.073953
O O2 0.636990 0.742969 0.343018
O O3 0.897766 0.544275 0.919131
O O4 0.803682 0.082917 0.906567
O O5 0.491440 0.368193 0.741434
O O6 0.519607 0.907033 0.665365
O O7 0.346341 0.896574 0.086581
O O8 0.270900 0.521386 0.593588
O O9 0.827276 0.565979 0.555345
O O10 0.041270 0.831147 0.219577
O O11 0.917225 0.989417 0.229787
O O12 0.180627 0.691355 0.535065
O O13 0.080740 0.959197 0.478547
O O14 0.000000 0.500000 0.500000
O O15 0.000000 0.500000 0.000000
#
# Coordination Sequence:
#
# PCOD9101083 Si02
#       7
#     2   2   2   2   2   2   2
#     4  11  25  45  73 107 144 190 247 302 364 426
#     4  12  29  48  73 106 154 196 240 292 366 449
#     4  12  30  48  73 107 147 201 243 295 363 438
#     4  10  22  41  75 102 138 180 245 306 360 411
#     4  10  24  43  69 108 140 193 238 301 363 426
#     4  10  20  37  71 105 140 179 240 304 361 420
#     4  11  26  48  77 106 140 185 250 308 362 425
#
# _framework density 23.544530000000002
#
# number of rings (size 3 to 8) (size 9 to 14) (size 15 to 20)
#    0.000    1.143    0.000    5.143   14.000    4.571 
#    0.000    0.000    0.000    0.000    0.000    0.000 
#    0.000    0.000    0.000    0.000    0.000    0.000 
#
# Total GULP energy -78194.305480 kJ/mol
# GULP energy per Si atom -5585.307534 kJ/mol
# Density = 2.349094 g / cm^3
# Si number density = 23.544530 Si / 1000 Ang^3
#
#
#
# Elastic Constant Matrix: (Units=GPa)
#
#
# Indices 1 2 3 4 5 6 
#
# 1 88.0392 -0.0177 19.1021 0.5458 -9.1394 -10.4634
# 2 -0.0177 125.3303 29.0536 -7.5367 -14.4209 -4.8936
# 3 19.1021 29.0536 113.8787 -21.7069 4.2020 -2.1367
# 4 0.5458 -7.5367 -21.7069 31.8139 2.9592 -3.2981
# 5 -9.1394 -14.4209 4.2020 2.9592 46.3202 -4.3115
# 6 -10.4634 -4.8936 -2.1367 -3.2981 -4.3115 40.0137
#
#
#
# Elastic Compliance Matrix: (Units=1/GPa)
#
#
# Indices 1 2 3 4 5 6 
#
# 1 0.012781 0.001099 -0.002845 -0.001863 0.003572 0.003556
# 2 0.001099 0.009037 -0.002538 0.000245 0.003398 0.001643
# 3 -0.002845 -0.002538 0.011441 0.007508 -0.002881 -0.000135
# 4 -0.001863 0.000245 0.007508 0.037211 -0.003101 0.002677
# 5 0.003572 0.003398 -0.002881 -0.003101 0.024141 0.003541
# 6 0.003556 0.001643 -0.000135 0.002677 0.003541 0.026717
#
#
# Mechanical properties :
#
#
# Convention : Reuss Voigt Hill
#
# Bulk Modulus (GPa) = 40.49866 47.05822 43.77844
# Shear Modulus (GPa) = 36.19888 42.23692 39.21790
#
# Velocity S-wave (km/s) = 3.92531 4.24006 4.08571
# Velocity P-wave (km/s) = 6.14673 6.63333 6.39466
#
# Compressibility (1/GPa) = 0.02469218
#
# Stress axis : x y z
#
# Youngs Moduli (GPa) = 78.24119 110.65299 87.40664
#
# Poissons Ratio (x) = -0.12161 0.24863
# Poissons Ratio (y) = -0.08599 0.22183
# Poissons Ratio (z) = 0.22256 0.28083
#
# Static dielectric constant tensor:
#      x y z
#    x 1.910880 0.023200 0.020220 
#    y 0.023200 1.963370 0.019150 
#    z 0.020220 0.019150 1.943860 
# 
# From -- ./inp_files/69295.got.cif
#   From: 2010.05.17/outbox.cif.g08.bks.cpg/sg2_35_cif.got.tgz:69295.got - 2010.06.03 11:33:40.
