data_PCOD9101767
_publ_section_title
;
Structure prediction by ZEFSAII (Michael W. Deem and Ramdas Pophale) SiO2 
 PCOD9101767
Probable space group: P -1
;
_chemical_formula_sum "Si O2"
_cell_formula_units_Z 16
_cell_length_a 18.816140
_cell_length_b 7.713510
_cell_length_c 5.872840
_cell_angle_alpha 85.630205
_cell_angle_beta 67.782036
_cell_angle_gamma 48.590172
_cell_volume 572.946699
_symmetry_space_group_name_H-M "P -1"
_symmetry_group_IT_number 2
_symmetry_cell_setting 'triclinic'
loop_
_space_group_symop_operation_xyz
x,y,z
-x,-y,-z
loop_
_atom_site_type_symbol
_atom_site_label
_atom_site_fract_x
_atom_site_fract_y
_atom_site_fract_z
Si Si1 0.773335 0.915520 0.456908
Si Si2 0.511980 0.271142 0.007053
Si Si3 0.515283 0.267170 0.496525
Si Si4 0.090177 0.795121 0.684714
Si Si5 0.002530 0.707541 0.165354
Si Si6 0.283785 0.504390 0.153855
Si Si7 0.722344 0.347582 0.265246
Si Si8 0.235433 0.230599 0.019342
O O1 0.746374 0.895903 0.746443
O O2 0.898979 0.752819 0.306698
O O3 0.722917 0.183097 0.447062
O O4 0.744885 0.860319 0.259322
O O5 0.564132 0.148698 0.201817
O O6 0.397260 0.355673 0.141133
O O7 0.500000 0.500000 0.000000
O O8 0.554023 0.155587 0.714215
O O9 0.500000 0.500000 0.500000
O O10 0.394324 0.392554 0.610601
O O11 0.181872 0.618979 0.412559
O O12 0.169545 0.724588 0.801420
O O13 0.021835 0.747039 0.878128
O O14 0.023387 0.072120 0.689051
O O15 0.107464 0.453767 0.147121
O O16 0.283934 0.344433 0.996885
O O17 0.266055 0.709381 0.011349
#
# Coordination Sequence:
#
# PCOD9101767 Si02
#       8
#     2   2   2   2   2   2   2   2
#     4  11  27  41  61  84 125 166 207 249 306 361
#     4   9  18  32  56  93 120 144 184 245 300 350
#     4   9  17  31  57  92 120 143 184 246 301 349
#     4  10  20  38  60  92 116 157 205 270 307 342
#     4  10  22  41  60  84 123 161 213 258 306 356
#     4  11  22  37  67  86 126 153 207 253 307 361
#     4  10  21  39  60  91 121 155 206 252 304 363
#     4  12  25  43  58  89 121 166 206 253 302 366
#
# _framework density 27.925806000000001
#
# number of rings (size 3 to 8) (size 9 to 14) (size 15 to 20)
#    0.000    1.750    2.500    1.500    3.500    1.500 
#    2.250    0.000    0.000    0.000    0.000   47.250 
#    0.000    0.000    0.000    0.000    0.000    0.000 
#
# Total GULP energy -89394.191667 kJ/mol
# GULP energy per Si atom -5587.136979 kJ/mol
# Density = 2.786225 g / cm^3
# Si number density = 27.925806 Si / 1000 Ang^3
#
#
#
# Elastic Constant Matrix: (Units=GPa)
#
#
# Indices 1 2 3 4 5 6 
#
# 1 126.2205 2.7146 77.9109 5.0574 6.4406 -11.4573
# 2 2.7146 57.1271 58.4318 -7.3164 22.4530 -9.9152
# 3 77.9109 58.4318 276.4167 6.5564 5.4748 -9.1565
# 4 5.0574 -7.3164 6.5564 41.3812 -7.2823 7.1355
# 5 6.4406 22.4530 5.4748 -7.2823 58.4529 -8.8800
# 6 -11.4573 -9.9152 -9.1565 7.1355 -8.8800 27.8017
#
#
#
# Elastic Compliance Matrix: (Units=1/GPa)
#
#
# Indices 1 2 3 4 5 6 
#
# 1 0.010757 0.004941 -0.003862 -0.000983 -0.002163 0.004485
# 2 0.004941 0.030427 -0.007485 0.003069 -0.010179 0.006384
# 3 -0.003862 -0.007485 0.006233 -0.001223 0.002393 -0.001130
# 4 -0.000983 0.003069 -0.001223 0.026307 0.001407 -0.006016
# 5 -0.002163 -0.010179 0.002393 0.001407 0.021635 0.002816
# 6 0.004485 0.006384 -0.001130 -0.006016 0.002816 0.042165
#
#
# Mechanical properties :
#
#
# Convention : Reuss Voigt Hill
#
# Bulk Modulus (GPa) = 28.89587 81.98654 55.44120
# Shear Modulus (GPa) = 30.88899 46.90762 38.89831
#
# Velocity S-wave (km/s) = 3.32943 4.10289 3.73623
# Velocity P-wave (km/s) = 5.01498 7.20190 6.20554
#
# Compressibility (1/GPa) = 0.03460702
#
# Stress axis : x y z
#
# Youngs Moduli (GPa) = 92.96303 32.86513 160.44774
#
# Poissons Ratio (x) = -0.16240 0.61962
# Poissons Ratio (y) = -0.45937 1.20088
# Poissons Ratio (z) = 0.35900 0.24598
#
# Static dielectric constant tensor:
#      x y z
#    x 2.178660 0.023700 0.023410 
#    y 0.023700 2.233580 0.013860 
#    z 0.023410 0.013860 2.310410 
# 
# From -- ./inp_files/52472.got.cif
#   From: 2010.05.17/outbox.cif.g08.bks.cpg/sg2_27_cif.got.tgz:52472.got - 2010.06.03 11:33:40.
