data_PCOD9101483
_publ_section_title
;
Structure prediction by ZEFSAII (Michael W. Deem and Ramdas Pophale) SiO2 
 PCOD9101483
Probable space group: P -1
;
_chemical_formula_sum "Si O2"
_cell_formula_units_Z 14
_cell_length_a 15.357535
_cell_length_b 8.392890
_cell_length_c 5.800630
_cell_angle_alpha 91.267342
_cell_angle_beta 134.038946
_cell_angle_gamma 90.153217
_cell_volume 537.172510
_symmetry_space_group_name_H-M "P -1"
_symmetry_group_IT_number 2
_symmetry_cell_setting 'triclinic'
loop_
_space_group_symop_operation_xyz
x,y,z
-x,-y,-z
loop_
_atom_site_type_symbol
_atom_site_label
_atom_site_fract_x
_atom_site_fract_y
_atom_site_fract_z
Si Si1 0.740814 0.609758 0.320045
Si Si2 0.375287 0.109011 0.414003
Si Si3 0.879222 0.717386 0.200175
Si Si4 0.915480 0.121226 0.718041
Si Si5 0.337069 0.044047 0.838020
Si Si6 0.883089 0.434029 0.920320
Si Si7 0.466689 0.576476 0.196577
O O1 0.858656 0.702741 0.434460
O O2 0.657443 0.762690 0.168177
O O3 0.771552 0.527947 0.609316
O O4 0.677354 0.461967 0.066823
O O5 0.375006 0.000146 0.642575
O O6 0.472468 0.250171 0.654917
O O7 0.240235 0.193279 0.124349
O O8 0.391786 0.024305 0.193666
O O9 0.998691 0.799638 0.318963
O O10 0.887339 0.526924 0.166763
O O11 0.873924 0.251146 0.834135
O O12 0.796285 0.037086 0.393237
O O13 0.000000 0.000000 0.000000
O O14 0.000000 0.500000 0.000000
O O15 0.500000 0.500000 0.500000
O O16 0.500000 0.500000 0.000000
#
# Coordination Sequence:
#
# PCOD9101483 Si02
#       7
#     2   2   2   2   2   2   2
#     4  11  22  37  64  90 127 156 215 258 322 365
#     4  11  20  37  61  93 124 160 204 266 301 373
#     4  10  20  38  59  88 125 160 209 254 316 365
#     4  11  22  39  61  90 124 169 213 255 320 384
#     4  11  21  38  59  91 127 159 208 251 315 365
#     4  10  21  40  59  85 128 162 213 259 317 373
#     4  12  20  35  64 100 123 163 209 268 316 366
#
# _framework density 26.062389
#
# number of rings (size 3 to 8) (size 9 to 14) (size 15 to 20)
#    0.000    1.143    7.143    0.857    0.000    4.571 
#    7.714    0.000    0.000    1.714    0.000    0.000 
#    0.000    0.000    0.000    0.000    0.000    0.000 
#
# Total GULP energy -77957.636636 kJ/mol
# GULP energy per Si atom -5568.402617 kJ/mol
# Density = 2.600307 g / cm^3
# Si number density = 26.062389 Si / 1000 Ang^3
#
#
#
# Elastic Constant Matrix: (Units=GPa)
#
#
# Indices 1 2 3 4 5 6 
#
# 1 131.4594 47.9121 41.3716 11.6490 -23.5616 34.5899
# 2 47.9121 110.2136 55.9643 22.8375 -0.8379 8.0626
# 3 41.3716 55.9643 183.0853 6.0582 -14.0299 8.9919
# 4 11.6490 22.8375 6.0582 46.7156 13.7160 11.3845
# 5 -23.5616 -0.8379 -14.0299 13.7160 40.8928 8.2120
# 6 34.5899 8.0626 8.9919 11.3845 8.2120 46.1565
#
#
#
# Elastic Compliance Matrix: (Units=1/GPa)
#
#
# Indices 1 2 3 4 5 6 
#
# 1 0.014751 -0.004964 -0.000329 -0.001640 0.011186 -0.011709
# 2 -0.004964 0.013664 -0.003278 -0.005121 -0.002734 0.003721
# 3 -0.000329 -0.003278 0.006733 0.000431 0.002104 -0.000973
# 4 -0.001640 -0.005121 0.000431 0.027846 -0.009616 -0.003118
# 5 0.011186 -0.002734 0.002104 -0.009616 0.037317 -0.012582
# 6 -0.011709 0.003721 -0.000973 -0.003118 -0.012582 0.032987
#
#
# Mechanical properties :
#
#
# Convention : Reuss Voigt Hill
#
# Bulk Modulus (GPa) = 55.53925 79.47270 67.50597
# Shear Modulus (GPa) = 31.96103 45.38698 38.67401
#
# Velocity S-wave (km/s) = 3.50570 4.17762 3.85632
# Velocity P-wave (km/s) = 6.14353 7.33686 6.76655
#
# Compressibility (1/GPa) = 0.01800529
#
# Stress axis : x y z
#
# Youngs Moduli (GPa) = 67.79392 73.18705 148.52082
#
# Poissons Ratio (x) = 0.36328 0.04893
# Poissons Ratio (y) = 0.33651 0.48682
# Poissons Ratio (z) = 0.02233 0.23989
#
# Static dielectric constant tensor:
#      x y z
#    x 2.331800 -0.131300 -0.057790 
#    y -0.131300 2.097670 0.079210 
#    z -0.057790 0.079210 2.297370 
# 
# From -- ./inp_files/105246.got.cif
#   From: 2010.05.17/outbox.cif.g08.bks.cpg/sg2_53_cif.got.tgz:105246.got - 2010.06.03 11:33:40.
