data_PCOD9101496
_publ_section_title
;
Structure prediction by ZEFSAII (Michael W. Deem and Ramdas Pophale) SiO2 
 PCOD9101496
Probable space group: P -1
;
_chemical_formula_sum "Si O2"
_cell_formula_units_Z 16
_cell_length_a 7.563481
_cell_length_b 16.746576
_cell_length_c 9.299903
_cell_angle_alpha 114.347723
_cell_angle_beta 78.079685
_cell_angle_gamma 56.292462
_cell_volume 730.782485
_symmetry_space_group_name_H-M "P -1"
_symmetry_group_IT_number 2
_symmetry_cell_setting 'triclinic'
loop_
_space_group_symop_operation_xyz
x,y,z
-x,-y,-z
loop_
_atom_site_type_symbol
_atom_site_label
_atom_site_fract_x
_atom_site_fract_y
_atom_site_fract_z
Si Si1 0.731022 0.211841 0.730081
Si Si2 0.779538 0.010143 0.885148
Si Si3 0.544771 0.704558 0.885026
Si Si4 0.214926 0.958589 0.583244
Si Si5 0.021310 0.341618 0.114963
Si Si6 0.320258 0.059077 0.867708
Si Si7 0.717478 0.477092 0.535428
Si Si8 0.479001 0.549449 0.195154
O O1 0.643906 0.313497 0.707448
O O2 0.030335 0.082807 0.606864
O O3 0.625789 0.157276 0.639168
O O4 0.653081 0.268140 0.946200
O O5 0.593131 0.007197 0.829732
O O6 0.027104 0.961265 0.717947
O O7 0.598652 0.159415 0.049965
O O8 0.820093 0.945434 0.980981
O O9 0.765019 0.657266 0.927374
O O10 0.638511 0.605015 0.673668
O O11 0.360936 0.973942 0.673710
O O12 0.963463 0.372657 0.319268
O O13 0.761221 0.450904 0.150749
O O14 0.138478 0.205140 0.966217
O O15 0.500000 0.500000 0.500000
O O16 0.717355 0.435997 0.661514
O O17 0.500000 0.500000 0.000000
#
# Coordination Sequence:
#
# PCOD9101496 Si02
#       8
#     2   2   2   2   2   2   2   2
#     4  10  22  38  60  88 117 155 205 234 299 364
#     4   9  21  36  62  88 118 155 197 251 294 360
#     4  10  20  42  59  83 124 150 198 252 295 352
#     4  10  21  39  62  85 119 160 193 250 297 351
#     4  10  23  37  62  88 118 161 194 246 300 352
#     4  10  20  38  59  90 121 150 202 242 304 351
#     4  10  22  36  60  86 115 154 198 240 296 353
#     4  11  21  39  59  87 121 157 198 246 289 358
#
# _framework density 21.89434
#
# number of rings (size 3 to 8) (size 9 to 14) (size 15 to 20)
#    0.000    2.000    1.250    1.500    7.000    2.500 
#    0.000   12.500    0.000    0.000    0.000    0.000 
#    0.000    0.000    0.000    0.000    0.000    0.000 
#
# Total GULP energy -89203.851689 kJ/mol
# GULP energy per Si atom -5575.240731 kJ/mol
# Density = 2.184451 g / cm^3
# Si number density = 21.894340 Si / 1000 Ang^3
#
#
#
# Elastic Constant Matrix: (Units=GPa)
#
#
# Indices 1 2 3 4 5 6 
#
# 1 67.5283 9.0316 17.9062 1.3735 25.2797 -1.8295
# 2 9.0316 76.1205 -14.6738 -1.5451 9.6961 6.4809
# 3 17.9062 -14.6738 82.8738 -9.0282 23.1806 -4.7548
# 4 1.3735 -1.5451 -9.0282 24.1876 1.0807 5.1445
# 5 25.2797 9.6961 23.1806 1.0807 36.5659 -0.4629
# 6 -1.8295 6.4809 -4.7548 5.1445 -0.4629 15.2493
#
#
#
# Elastic Compliance Matrix: (Units=1/GPa)
#
#
# Indices 1 2 3 4 5 6 
#
# 1 0.020176 -0.001202 -0.000969 -0.001597 -0.012933 0.002775
# 2 -0.001202 0.015832 0.005086 0.004795 -0.006823 -0.007112
# 3 -0.000969 0.005086 0.017307 0.007308 -0.011863 0.000293
# 4 -0.001597 0.004795 0.007308 0.048249 -0.006434 -0.016423
# 5 -0.012933 -0.006823 -0.011863 -0.006434 0.045824 0.001211
# 6 0.002775 -0.007112 0.000293 -0.016423 0.001211 0.074601
#
#
# Mechanical properties :
#
#
# Convention : Reuss Voigt Hill
#
# Bulk Modulus (GPa) = 16.90797 27.89450 22.40124
# Shear Modulus (GPa) = 21.19773 29.48448 25.34110
#
# Velocity S-wave (km/s) = 3.11494 3.67368 3.40579
# Velocity P-wave (km/s) = 4.54713 5.54642 5.07145
#
# Compressibility (1/GPa) = 0.05914369
#
# Stress axis : x y z
#
# Youngs Moduli (GPa) = 49.56501 63.16315 57.77851
#
# Poissons Ratio (x) = 0.07592 0.05601
# Poissons Ratio (y) = 0.05958 -0.29385
# Poissons Ratio (z) = 0.04805 -0.32123
#
# Static dielectric constant tensor:
#      x y z
#    x 1.983190 0.028050 -0.098030 
#    y 0.028050 1.815630 -0.005600 
#    z -0.098030 -0.005600 1.957050 
# 
# From -- ./inp_files/208737.got.cif
#   From: 2010.05.17/outbox.cif.g08.bks.cpg/sg2_105_cif.got.tgz:208737.got - 2010.06.03 11:33:40.
