data_PCOD9101288
_publ_section_title
;
Structure prediction by ZEFSAII (Michael W. Deem and Ramdas Pophale) SiO2 
 PCOD9101288
Probable space group: P -1
;
_chemical_formula_sum "Si O2"
_cell_formula_units_Z 15
_cell_length_a 13.886152
_cell_length_b 10.198450
_cell_length_c 12.355546
_cell_angle_alpha 87.288703
_cell_angle_beta 148.639321
_cell_angle_gamma 70.582240
_cell_volume 633.838880
_symmetry_space_group_name_H-M "P -1"
_symmetry_group_IT_number 2
_symmetry_cell_setting 'triclinic'
loop_
_space_group_symop_operation_xyz
x,y,z
-x,-y,-z
loop_
_atom_site_type_symbol
_atom_site_label
_atom_site_fract_x
_atom_site_fract_y
_atom_site_fract_z
Si Si1 0.508372 0.068886 0.719423
Si Si2 0.000000 0.500000 0.500000
Si Si3 0.678220 0.073788 0.299622
Si Si4 0.996142 0.325250 0.889174
Si Si5 0.953952 0.395721 0.078593
Si Si6 0.797536 0.040797 0.176152
Si Si7 0.195988 0.596457 0.527508
Si Si8 0.689219 0.488691 0.042747
O O1 0.269114 0.224140 0.405713
O O2 0.413921 0.004666 0.717843
O O3 0.755921 0.892027 0.894772
O O4 0.606486 0.138183 0.886290
O O5 0.063220 0.530704 0.442141
O O6 0.116758 0.575798 0.669760
O O7 0.629829 0.098672 0.122246
O O8 0.504598 0.285388 0.163465
O O9 0.992069 0.947513 0.613713
O O10 0.882655 0.363759 0.898528
O O11 0.104788 0.419440 0.989357
O O12 0.793400 0.409684 0.592370
O O13 0.829407 0.400042 0.066450
O O14 0.989617 0.817426 0.351404
O O15 0.482074 0.476143 0.859162
#
# Coordination Sequence:
#
# PCOD9101288 Si02
#       8
#     2   1   2   2   2   2   2   2
#     4  11  21  39  65  88 120 163 207 258 304 368
#     4  12  22  38  56  94 126 158 202 258 296 376
#     4  10  20  38  58  85 127 163 202 252 303 373
#     4  10  22  45  64  90 125 164 211 262 308 364
#     4  11  23  40  68  92 121 168 211 255 318 364
#     4   9  21  36  59  87 121 168 204 244 313 369
#     4  10  22  40  64  88 128 167 206 257 310 369
#     4  11  23  39  61  94 127 167 203 254 316 371
#
# _framework density 23.665319
#
# number of rings (size 3 to 8) (size 9 to 14) (size 15 to 20)
#    0.000    1.600    2.667    2.000    3.733    0.533 
#    4.800    0.000    0.000    3.200    0.000    0.000 
#    0.000    0.000    0.000    0.000    0.000    0.000 
#
# Total GULP energy -83738.925237 kJ/mol
# GULP energy per Si atom -5582.595016 kJ/mol
# Density = 2.361146 g / cm^3
# Si number density = 23.665319 Si / 1000 Ang^3
#
#
#
# Elastic Constant Matrix: (Units=GPa)
#
#
# Indices 1 2 3 4 5 6 
#
# 1 84.8865 26.3858 12.2098 17.1493 -9.7905 -26.4259
# 2 26.3858 73.6088 18.7113 10.7404 -4.0109 -21.5747
# 3 12.2098 18.7113 74.4210 11.9803 -13.6334 -8.5569
# 4 17.1493 10.7404 11.9803 37.3706 -1.5781 -2.5652
# 5 -9.7905 -4.0109 -13.6334 -1.5781 32.2744 10.2482
# 6 -26.4259 -21.5747 -8.5569 -2.5652 10.2482 37.3103
#
#
#
# Elastic Compliance Matrix: (Units=1/GPa)
#
#
# Indices 1 2 3 4 5 6 
#
# 1 0.017026 -0.002207 0.000231 -0.006505 0.001502 0.009976
# 2 -0.002207 0.017968 -0.003227 -0.002637 -0.002672 0.008639
# 3 0.000231 -0.003227 0.016002 -0.004047 0.006238 -0.000024
# 4 -0.006505 -0.002637 -0.004047 0.031439 -0.001005 -0.004622
# 5 0.001502 -0.002672 0.006238 -0.001005 0.036607 -0.009174
# 6 0.009976 0.008639 -0.000024 -0.004622 -0.009174 0.041061
#
#
# Mechanical properties :
#
#
# Convention : Reuss Voigt Hill
#
# Bulk Modulus (GPa) = 24.63659 38.61445 31.62552
# Shear Modulus (GPa) = 27.16797 33.09834 30.13316
#
# Velocity S-wave (km/s) = 3.39190 3.74384 3.57221
# Velocity P-wave (km/s) = 5.07671 5.91953 5.51425
#
# Compressibility (1/GPa) = 0.04059003
#
# Stress axis : x y z
#
# Youngs Moduli (GPa) = 58.73256 55.65414 62.49198
#
# Poissons Ratio (x) = 0.12282 -0.01443
# Poissons Ratio (y) = 0.12962 0.20168
# Poissons Ratio (z) = -0.01356 0.17961
#
# Static dielectric constant tensor:
#      x y z
#    x 1.840710 -0.012660 -0.019920 
#    y -0.012660 1.913660 -0.036980 
#    z -0.019920 -0.036980 2.018110 
# 
# From -- ./inp_files/304477.got.cif
#   From: 2010.05.17/outbox.cif.g08.bks.cpg/sg2_153_cif.got.tgz:304477.got - 2010.06.03 11:33:40.
