data_PCOD9101787
_publ_section_title
;
Structure prediction by ZEFSAII (Michael W. Deem and Ramdas Pophale) SiO2 
 PCOD9101787
Probable space group: P -1
;
_chemical_formula_sum "Si O2"
_cell_formula_units_Z 12
_cell_length_a 5.189273
_cell_length_b 12.711110
_cell_length_c 11.549706
_cell_angle_alpha 129.649600
_cell_angle_beta 117.254662
_cell_angle_gamma 81.914804
_cell_volume 508.515949
_symmetry_space_group_name_H-M "P -1"
_symmetry_group_IT_number 2
_symmetry_cell_setting 'triclinic'
loop_
_space_group_symop_operation_xyz
x,y,z
-x,-y,-z
loop_
_atom_site_type_symbol
_atom_site_label
_atom_site_fract_x
_atom_site_fract_y
_atom_site_fract_z
Si Si1 0.861243 0.678565 0.885682
Si Si2 0.456357 0.849857 0.651610
Si Si3 0.600368 0.447110 0.104278
Si Si4 0.876191 0.443146 0.558108
Si Si5 0.808508 0.094321 0.590366
Si Si6 0.923003 0.961687 0.166824
O O1 0.674230 0.610169 0.909485
O O2 0.209836 0.671985 0.961424
O O3 0.756705 0.565370 0.683540
O O4 0.821132 0.835888 0.966861
O O5 0.285755 0.813760 0.466061
O O6 0.349960 0.704614 0.593254
O O7 0.797306 0.921521 0.740455
O O8 0.319659 0.963402 0.775228
O O9 0.834898 0.563541 0.306601
O O10 0.500000 0.500000 0.000000
O O11 0.000000 0.500000 0.500000
O O12 0.973994 0.129067 0.770305
O O13 0.500000 0.000000 0.500000
O O14 0.000000 0.000000 0.500000
#
# Coordination Sequence:
#
# PCOD9101787 Si02
#       6
#     2   2   2   2   2   2
#     4  10  23  41  67  93 136 168 217 270 335 383
#     4  10  21  37  61  91 126 168 216 260 324 387
#     4  10  23  41  68  99 130 172 219 272 331 390
#     4  10  26  46  67  94 134 179 224 269 320 390
#     4   8  16  30  50  82 120 155 190 251 316 372
#     4  10  20  38  60  93 128 163 209 271 328 385
#
# _framework density 23.598078999999998
#
# number of rings (size 3 to 8) (size 9 to 14) (size 15 to 20)
#    1.000    1.333    0.000    1.500    4.667    0.667 
#    6.000    1.667    0.000    0.000    0.000    0.000 
#    0.000    0.000    0.000    0.000    0.000    0.000 
#
# Total GULP energy -66948.243454 kJ/mol
# GULP energy per Si atom -5579.020288 kJ/mol
# Density = 2.354437 g / cm^3
# Si number density = 23.598079 Si / 1000 Ang^3
#
#
#
# Elastic Constant Matrix: (Units=GPa)
#
#
# Indices 1 2 3 4 5 6 
#
# 1 102.9820 38.6221 20.2645 -17.6923 -17.7311 29.1368
# 2 38.6221 121.4108 47.6312 -4.4777 -2.8277 28.6474
# 3 20.2645 47.6312 113.5226 3.8378 0.6091 12.3915
# 4 -17.6923 -4.4777 3.8378 26.0286 3.5686 1.8108
# 5 -17.7311 -2.8277 0.6091 3.5686 32.5368 -4.2715
# 6 29.1368 28.6474 12.3915 1.8108 -4.2715 47.6870
#
#
#
# Elastic Compliance Matrix: (Units=1/GPa)
#
#
# Indices 1 2 3 4 5 6 
#
# 1 0.015882 -0.002078 -0.001485 0.010338 0.006332 -0.007895
# 2 -0.002078 0.011665 -0.004048 0.001644 -0.000857 -0.004825
# 3 -0.001485 -0.004048 0.010824 -0.003212 -0.000937 0.000564
# 4 0.010338 0.001644 -0.003212 0.046832 -0.000387 -0.008282
# 5 0.006332 -0.000857 -0.000937 -0.000387 0.034166 -0.000036
# 6 -0.007895 -0.004825 0.000564 -0.008282 -0.000036 0.028857
#
#
# Mechanical properties :
#
#
# Convention : Reuss Voigt Hill
#
# Bulk Modulus (GPa) = 43.19669 61.21678 52.20673
# Shear Modulus (GPa) = 29.21185 36.67700 32.94443
#
# Velocity S-wave (km/s) = 3.52218 3.94666 3.74045
# Velocity P-wave (km/s) = 5.90643 6.83856 6.38952
#
# Compressibility (1/GPa) = 0.02314992
#
# Stress axis : x y z
#
# Youngs Moduli (GPa) = 62.96435 85.72904 92.38594
#
# Poissons Ratio (x) = 0.17816 0.13717
# Poissons Ratio (y) = 0.13085 0.37394
# Poissons Ratio (z) = 0.09349 0.34699
#
# Static dielectric constant tensor:
#      x y z
#    x 1.892070 -0.087030 0.028060 
#    y -0.087030 1.877160 -0.154380 
#    z 0.028060 -0.154380 1.928560 
# 
# From -- ./inp_files/83930.got.cif
#   From: 2010.05.17/outbox.cif.g08.bks.cpg/sg2_42_cif.got.tgz:83930.got - 2010.06.03 11:33:40.
