data_PCOD9101729
_publ_section_title
;
Structure prediction by ZEFSAII (Michael W. Deem and Ramdas Pophale) SiO2 
 PCOD9101729
Probable space group: P -1
;
_chemical_formula_sum "Si O2"
_cell_formula_units_Z 16
_cell_length_a 11.403694
_cell_length_b 17.434078
_cell_length_c 8.842507
_cell_angle_alpha 60.852279
_cell_angle_beta 97.160350
_cell_angle_gamma 44.699373
_cell_volume 693.640804
_symmetry_space_group_name_H-M "P -1"
_symmetry_group_IT_number 2
_symmetry_cell_setting 'triclinic'
loop_
_space_group_symop_operation_xyz
x,y,z
-x,-y,-z
loop_
_atom_site_type_symbol
_atom_site_label
_atom_site_fract_x
_atom_site_fract_y
_atom_site_fract_z
Si Si1 0.376538 0.706416 0.312512
Si Si2 0.119901 0.039439 0.824780
Si Si3 0.871706 0.802216 0.159863
Si Si4 0.807816 0.315498 0.228982
Si Si5 0.916160 0.490034 0.359096
Si Si6 0.122690 0.271898 0.312421
Si Si7 0.219205 0.663920 0.124488
Si Si8 0.635619 0.825914 0.862084
O O1 0.396699 0.623797 0.257162
O O2 0.606534 0.538985 0.630255
O O3 0.122815 0.839536 0.233342
O O4 0.336469 0.826015 0.112735
O O5 0.233485 0.060448 0.865760
O O6 0.977487 0.150157 0.535862
O O7 0.090929 0.599812 0.474576
O O8 0.978723 0.800038 0.058660
O O9 0.711512 0.839634 0.000627
O O10 0.866513 0.381203 0.185046
O O11 0.500000 0.500000 0.000000
O O12 0.886831 0.239973 0.144870
O O13 0.117008 0.338768 0.395539
O O14 0.000000 0.500000 0.500000
O O15 0.675985 0.699142 0.042474
O O16 0.173258 0.285350 0.145990
O O17 0.352025 0.047483 0.562660
#
# Coordination Sequence:
#
# PCOD9101729 Si02
#       8
#     2   2   2   2   2   2   2   2
#     4   9  20  37  59  87 124 172 218 269 317 399
#     4  10  20  38  60  89 126 168 222 265 331 390
#     4  10  20  39  62  91 129 169 219 277 333 404
#     4  12  23  40  67  95 131 181 215 282 343 402
#     4  10  22  41  68 100 131 175 228 278 343 404
#     4  11  23  44  67  98 139 175 223 286 340 408
#     4  10  20  38  62  88 132 171 218 273 336 397
#     4  10  23  43  68  98 135 179 224 282 343 398
#
# _framework density 23.066693000000001
#
# number of rings (size 3 to 8) (size 9 to 14) (size 15 to 20)
#    0.000    1.750    3.750    0.375    0.000    3.500 
#    4.500    2.500    0.000    0.000    0.000    0.000 
#    0.000    0.000    0.000    0.000    0.000    0.000 
#
# Total GULP energy -89103.168375 kJ/mol
# GULP energy per Si atom -5568.948023 kJ/mol
# Density = 2.301419 g / cm^3
# Si number density = 23.066693 Si / 1000 Ang^3
#
#
#
# Elastic Constant Matrix: (Units=GPa)
#
#
# Indices 1 2 3 4 5 6 
#
# 1 86.7183 32.5067 33.6710 17.6123 -20.6971 -5.5166
# 2 32.5067 82.2159 49.4702 14.5761 -14.4492 4.3089
# 3 33.6710 49.4702 119.2853 21.5633 -32.9484 3.3894
# 4 17.6123 14.5761 21.5633 35.7465 -0.8941 -4.8766
# 5 -20.6971 -14.4492 -32.9484 -0.8941 43.5930 -3.7723
# 6 -5.5166 4.3089 3.3894 -4.8766 -3.7723 32.9847
#
#
#
# Elastic Compliance Matrix: (Units=1/GPa)
#
#
# Indices 1 2 3 4 5 6 
#
# 1 0.016007 -0.004381 -0.000076 -0.005466 0.006252 0.003164
# 2 -0.004381 0.017818 -0.006005 -0.001897 -0.000997 -0.002838
# 3 -0.000076 -0.006005 0.014410 -0.006073 0.008687 -0.000613
# 4 -0.005466 -0.001897 -0.006073 0.035544 -0.006700 0.004446
# 5 0.006252 -0.000997 0.008687 -0.006700 0.032264 0.002983
# 6 0.003164 -0.002838 -0.000613 0.004446 0.002983 0.032278
#
#
# Mechanical properties :
#
#
# Convention : Reuss Voigt Hill
#
# Bulk Modulus (GPa) = 36.61588 57.72393 47.16990
# Shear Modulus (GPa) = 28.03498 33.96960 31.00229
#
# Velocity S-wave (km/s) = 3.49002 3.84170 3.67008
# Velocity P-wave (km/s) = 5.66999 6.69009 6.20105
#
# Compressibility (1/GPa) = 0.02731055
#
# Stress axis : x y z
#
# Youngs Moduli (GPa) = 62.47260 56.12236 69.39704
#
# Poissons Ratio (x) = 0.24587 0.00531
# Poissons Ratio (y) = 0.27369 0.41672
# Poissons Ratio (z) = 0.00478 0.33701
#
# Static dielectric constant tensor:
#      x y z
#    x 1.906910 -0.020730 0.029760 
#    y -0.020730 2.020950 0.000670 
#    z 0.029760 0.000670 1.899470 
# 
# From -- ./inp_files/279226.got.cif
#   From: 2010.05.17/outbox.cif.g08.bks.cpg/sg2_140_cif.got.tgz:279226.got - 2010.06.03 11:33:40.
