data_PCOD9101800
_publ_section_title
;
Structure prediction by ZEFSAII (Michael W. Deem and Ramdas Pophale) SiO2 
 PCOD9101800
Probable space group: P -1
;
_chemical_formula_sum "Si O2"
_cell_formula_units_Z 16
_cell_length_a 16.578911
_cell_length_b 12.575755
_cell_length_c 9.129108
_cell_angle_alpha 139.179109
_cell_angle_beta 135.092500
_cell_angle_gamma 36.849645
_cell_volume 720.126280
_symmetry_space_group_name_H-M "P -1"
_symmetry_group_IT_number 2
_symmetry_cell_setting 'triclinic'
loop_
_space_group_symop_operation_xyz
x,y,z
-x,-y,-z
loop_
_atom_site_type_symbol
_atom_site_label
_atom_site_fract_x
_atom_site_fract_y
_atom_site_fract_z
Si Si1 0.861601 0.410171 0.659389
Si Si2 0.851972 0.427362 0.313641
Si Si3 0.538613 0.135354 0.513546
Si Si4 0.168269 0.212303 0.835432
Si Si5 0.584346 0.567248 0.592361
Si Si6 0.842039 0.789549 0.530989
Si Si7 0.543563 0.131355 0.027926
Si Si8 0.557970 0.596493 0.076963
O O1 0.837740 0.428370 0.472630
O O2 0.743030 0.403896 0.582202
O O3 0.023457 0.238814 0.714982
O O4 0.838320 0.612294 0.901800
O O5 0.841942 0.620973 0.444629
O O6 0.720636 0.442525 0.090177
O O7 0.009166 0.246239 0.287749
O O8 0.496802 0.310418 0.529055
O O9 0.454366 0.236416 0.658131
O O10 0.703271 0.999517 0.612376
O O11 0.495547 0.002745 0.243468
O O12 0.165583 0.239329 0.684147
O O13 0.307152 0.006511 0.848059
O O14 0.500000 0.500000 0.500000
O O15 0.572031 0.732841 0.857648
O O16 0.533591 0.282582 0.053646
O O17 0.500000 0.500000 0.000000
#
# Coordination Sequence:
#
# PCOD9101800 Si02
#       8
#     2   2   2   2   2   2   2   2
#     4  10  21  37  62  89 129 159 203 254 314 363
#     4  10  21  39  61  89 126 162 202 254 317 359
#     4  12  22  41  64  93 122 161 221 254 298 367
#     4  10  20  38  60  96 121 158 208 261 298 361
#     4  12  24  40  61  93 131 165 201 256 321 366
#     4  10  21  37  63  94 119 158 210 262 297 361
#     4  12  23  39  67  94 123 164 216 258 297 366
#     4  12  26  42  61  93 130 165 203 258 322 372
#
# _framework density 22.218325
#
# number of rings (size 3 to 8) (size 9 to 14) (size 15 to 20)
#    0.000    1.000    5.000    2.250    1.750    0.000 
#    0.000    2.500    0.000    0.000    0.000    0.000 
#    0.000    0.000    0.000    0.000    0.000    0.000 
#
# Total GULP energy -89461.355795 kJ/mol
# GULP energy per Si atom -5591.334737 kJ/mol
# Density = 2.216775 g / cm^3
# Si number density = 22.218325 Si / 1000 Ang^3
#
#
#
# Elastic Constant Matrix: (Units=GPa)
#
#
# Indices 1 2 3 4 5 6 
#
# 1 137.8424 52.4829 15.8960 -21.0896 17.2862 -12.3720
# 2 52.4829 84.8490 10.3798 -21.8520 11.2546 -17.5520
# 3 15.8960 10.3798 44.8194 -6.3271 -0.8375 -1.3030
# 4 -21.0896 -21.8520 -6.3271 21.3383 -4.9215 4.3866
# 5 17.2862 11.2546 -0.8375 -4.9215 38.3995 -10.1956
# 6 -12.3720 -17.5520 -1.3030 4.3866 -10.1956 48.3309
#
#
#
# Elastic Compliance Matrix: (Units=1/GPa)
#
#
# Indices 1 2 3 4 5 6 
#
# 1 0.010237 -0.004678 -0.002023 0.004106 -0.002780 -0.000092
# 2 -0.004678 0.019352 -0.000740 0.013923 -0.000626 0.004415
# 3 -0.002023 -0.000740 0.023928 0.004878 0.002245 -0.000111
# 4 0.004106 0.013923 0.004878 0.067157 0.002990 0.000774
# 5 -0.002780 -0.000626 0.002245 0.002990 0.029242 0.005019
# 6 -0.000092 0.004415 -0.000111 0.000774 0.005019 0.023256
#
#
# Mechanical properties :
#
#
# Convention : Reuss Voigt Hill
#
# Bulk Modulus (GPa) = 25.88302 47.22535 36.55419
# Shear Modulus (GPa) = 24.88407 34.19720 29.54063
#
# Velocity S-wave (km/s) = 3.35024 3.92745 3.65027
# Velocity P-wave (km/s) = 5.16141 6.47053 5.85269
#
# Compressibility (1/GPa) = 0.03863537
#
# Stress axis : x y z
#
# Youngs Moduli (GPa) = 97.68011 51.67546 41.79208
#
# Poissons Ratio (x) = 0.24173 0.08453
# Poissons Ratio (y) = 0.45693 0.03095
# Poissons Ratio (z) = 0.19757 0.03826
#
# Static dielectric constant tensor:
#      x y z
#    x 1.817760 -0.007310 0.019840 
#    y -0.007310 1.810700 0.012450 
#    z 0.019840 0.012450 1.906780 
# 
# From -- ./inp_files/281847.got.cif
#   From: 2010.05.17/outbox.cif.g08.bks.cpg/sg2_141_cif.got.tgz:281847.got - 2010.06.03 11:33:40.
