data_PCOD9101823
_publ_section_title
;
Structure prediction by ZEFSAII (Michael W. Deem and Ramdas Pophale) SiO2 
 PCOD9101823
Probable space group: P -1
;
_chemical_formula_sum "Si O2"
_cell_formula_units_Z 12
_cell_length_a 13.896198
_cell_length_b 7.075234
_cell_length_c 12.686421
_cell_angle_alpha 150.770018
_cell_angle_beta 49.688331
_cell_angle_gamma 116.751474
_cell_volume 441.967348
_symmetry_space_group_name_H-M "P -1"
_symmetry_group_IT_number 2
_symmetry_cell_setting 'triclinic'
loop_
_space_group_symop_operation_xyz
x,y,z
-x,-y,-z
loop_
_atom_site_type_symbol
_atom_site_label
_atom_site_fract_x
_atom_site_fract_y
_atom_site_fract_z
Si Si1 0.439175 0.664439 0.734609
Si Si2 0.908821 0.108755 0.220479
Si Si3 0.788513 0.946580 0.643689
Si Si4 0.504737 0.495901 0.150555
Si Si5 0.847933 0.901393 0.809322
Si Si6 0.775416 0.059858 0.477023
O O1 0.500000 0.500000 0.500000
O O2 0.495784 0.430200 0.688111
O O3 0.467909 0.089700 0.947066
O O4 0.280774 0.751026 0.888560
O O5 0.784432 0.491213 0.453261
O O6 0.840554 0.854795 0.221516
O O7 0.023990 0.151940 0.238961
O O8 0.000000 0.000000 0.000000
O O9 0.868530 0.980264 0.709223
O O10 0.160836 0.097076 0.532389
O O11 0.658515 0.343767 0.932133
O O12 0.383508 0.853242 0.362654
O O13 0.800379 0.500181 0.661254
#
# Coordination Sequence:
#
# PCOD9101823 Si02
#       6
#     2   2   2   2   2   2
#     4   9  17  31  60  82 115 154 183 233 292 332
#     4  11  24  36  55  84 117 148 190 231 280 345
#     4  10  20  38  61  81 112 150 187 236 284 333
#     4   9  19  34  56  91 111 144 199 231 282 347
#     4   9  21  36  55  86 106 147 198 229 275 344
#     4  10  20  38  61  81 112 150 187 236 284 333
#
# _framework density 27.151326999999998
#
# number of rings (size 3 to 8) (size 9 to 14) (size 15 to 20)
#    0.000    2.333    0.000    5.500    4.667    3.333 
#    0.000    0.000    0.000    5.000    0.000    0.000 
#    0.000    0.000    0.000    0.000    0.000    0.000 
#
# Total GULP energy -66906.990318 kJ/mol
# GULP energy per Si atom -5575.582526 kJ/mol
# Density = 2.708953 g / cm^3
# Si number density = 27.151327 Si / 1000 Ang^3
#
#
#
# Elastic Constant Matrix: (Units=GPa)
#
#
# Indices 1 2 3 4 5 6 
#
# 1 115.5476 41.7535 68.5921 -19.8852 6.9347 -30.1596
# 2 41.7535 122.4510 57.6998 -29.5065 19.1975 -38.7899
# 3 68.5921 57.6998 137.1472 -37.2354 3.8101 -33.6411
# 4 -19.8852 -29.5065 -37.2354 54.8837 -13.3845 20.3892
# 5 6.9347 19.1975 3.8101 -13.3845 55.6819 -17.6946
# 6 -30.1596 -38.7899 -33.6411 20.3892 -17.6946 47.9847
#
#
#
# Elastic Compliance Matrix: (Units=1/GPa)
#
#
# Indices 1 2 3 4 5 6 
#
# 1 0.013106 -0.000819 -0.005428 -0.000902 0.000141 0.004206
# 2 -0.000819 0.012394 -0.002741 0.001808 -0.001567 0.006237
# 3 -0.005428 -0.002741 0.013072 0.005231 0.002721 0.002318
# 4 -0.000902 0.001808 0.005231 0.025067 0.003649 -0.004743
# 5 0.000141 -0.001567 0.002721 0.003649 0.021422 0.007078
# 6 0.004206 0.006237 0.002318 -0.004743 0.007078 0.034777
#
#
# Mechanical properties :
#
#
# Convention : Reuss Voigt Hill
#
# Bulk Modulus (GPa) = 48.54547 79.02628 63.78587
# Shear Modulus (GPa) = 34.55936 45.51674 40.03805
#
# Velocity S-wave (km/s) = 3.57156 4.09884 3.84425
# Velocity P-wave (km/s) = 5.90986 7.18120 6.57633
#
# Compressibility (1/GPa) = 0.02059925
#
# Stress axis : x y z
#
# Youngs Moduli (GPa) = 76.29872 80.68243 76.49726
#
# Poissons Ratio (x) = 0.06604 0.41520
# Poissons Ratio (y) = 0.06245 0.20965
# Poissons Ratio (z) = 0.41412 0.22113
#
# Static dielectric constant tensor:
#      x y z
#    x 2.118160 0.110020 -0.001640 
#    y 0.110020 2.165310 0.044600 
#    z -0.001640 0.044600 2.422890 
# 
# From -- ./inp_files/530785.got.cif
#   From: 2010.05.17/outbox.cif.g08.bks.cpg/sg2_266_cif.got.tgz:530785.got - 2010.06.03 11:33:40.
