data_PCOD9101863
_publ_section_title
;
Structure prediction by ZEFSAII (Michael W. Deem and Ramdas Pophale) SiO2 
 PCOD9101863
Probable space group: P -1
;
_chemical_formula_sum "Si O2"
_cell_formula_units_Z 16
_cell_length_a 12.780375
_cell_length_b 18.131804
_cell_length_c 9.461262
_cell_angle_alpha 141.363887
_cell_angle_beta 42.243419
_cell_angle_gamma 137.523095
_cell_volume 851.462713
_symmetry_space_group_name_H-M "P -1"
_symmetry_group_IT_number 2
_symmetry_cell_setting 'triclinic'
loop_
_space_group_symop_operation_xyz
x,y,z
-x,-y,-z
loop_
_atom_site_type_symbol
_atom_site_label
_atom_site_fract_x
_atom_site_fract_y
_atom_site_fract_z
Si Si1 0.742658 0.857319 0.200727
Si Si2 0.123406 0.621584 0.643759
Si Si3 0.121998 0.619268 0.968412
Si Si4 0.244738 0.864134 0.393321
Si Si5 0.501820 0.378416 0.731014
Si Si6 0.114663 0.857318 0.828721
Si Si7 0.502730 0.380732 0.406859
Si Si8 0.380604 0.135866 0.981338
O O1 0.625467 0.749293 0.259968
O O2 0.755556 0.998454 0.441458
O O3 0.664560 0.834254 0.086608
O O4 0.927276 0.854548 0.006341
O O5 0.069576 0.614111 0.850036
O O6 0.311133 0.622265 0.451954
O O7 0.123829 0.749293 0.761602
O O8 0.000000 0.500000 0.500000
O O9 0.307325 0.614651 0.778533
O O10 0.141050 0.751171 0.222506
O O11 0.000000 0.500000 0.000000
O O12 0.169696 0.834257 0.581474
O O13 0.436582 0.873166 0.218258
O O14 0.455465 0.385890 0.624923
O O15 0.500000 0.500000 0.000000
O O16 0.242898 0.998454 0.954116
O O17 0.500000 0.500000 0.500000
O O18 0.389879 0.248829 0.246565
#
# Coordination Sequence:
#
# PCOD9101863 Si02
#       8
#     2   2   2   2   2   2   2   2
#     4  11  22  37  58  87 117 150 188 232 280 335
#     4  11  23  40  59  84 115 150 189 234 282 336
#     4  10  23  39  59  84 113 147 188 234 283 334
#     4  10  20  38  61  85 113 151 190 232 282 335
#     4  11  23  40  59  84 115 150 189 234 282 336
#     4  11  22  37  58  87 117 150 188 232 280 335
#     4  10  23  39  59  84 113 147 188 234 283 334
#     4  10  20  38  61  85 113 151 190 232 282 335
#
# _framework density 18.791191000000001
#
# number of rings (size 3 to 8) (size 9 to 14) (size 15 to 20)
#    0.000    1.500    0.000    6.750    0.000    9.000 
#    0.000    5.000    0.000    0.000    0.000    0.000 
#    0.000    0.000    0.000    0.000    0.000    0.000 
#
# Total GULP energy -89461.061347 kJ/mol
# GULP energy per Si atom -5591.316334 kJ/mol
# Density = 1.874842 g / cm^3
# Si number density = 18.791191 Si / 1000 Ang^3
#
#
#
# Elastic Constant Matrix: (Units=GPa)
#
#
# Indices 1 2 3 4 5 6 
#
# 1 118.2896 89.1112 72.2563 20.2435 18.5351 -15.7191
# 2 89.1112 167.4688 78.9968 6.7206 36.9486 -21.8473
# 3 72.2563 78.9968 128.5115 22.4501 24.8203 -8.6604
# 4 20.2435 6.7206 22.4501 32.2878 10.3935 -4.5226
# 5 18.5351 36.9486 24.8203 10.3935 37.6787 1.3096
# 6 -15.7191 -21.8473 -8.6604 -4.5226 1.3096 41.4609
#
#
#
# Elastic Compliance Matrix: (Units=1/GPa)
#
#
# Indices 1 2 3 4 5 6 
#
# 1 0.018000 -0.007837 -0.004700 -0.007563 0.003987 0.000762
# 2 -0.007837 0.014499 -0.003615 0.008518 -0.010511 0.005175
# 3 -0.004700 -0.003615 0.013856 -0.005582 -0.001683 -0.001349
# 4 -0.007563 0.008518 -0.005582 0.042762 -0.012944 0.005529
# 5 0.003987 -0.010511 -0.001683 -0.012944 0.039810 -0.007048
# 6 0.000762 0.005175 -0.001349 0.005529 -0.007048 0.027679
#
#
# Mechanical properties :
#
#
# Convention : Reuss Voigt Hill
#
# Bulk Modulus (GPa) = 71.18119 99.44425 85.31272
# Shear Modulus (GPa) = 25.82702 33.87919 29.85311
#
# Velocity S-wave (km/s) = 3.71134 4.25070 3.99014
# Velocity P-wave (km/s) = 7.50518 8.78219 8.16868
#
# Compressibility (1/GPa) = 0.01404866
#
# Stress axis : x y z
#
# Youngs Moduli (GPa) = 55.55578 68.96884 72.17094
#
# Poissons Ratio (x) = 0.54054 0.33923
# Poissons Ratio (y) = 0.43541 0.26093
# Poissons Ratio (z) = 0.26114 0.24936
#
# Static dielectric constant tensor:
#      x y z
#    x 1.631200 0.011160 0.001410 
#    y 0.011160 1.619280 0.001170 
#    z 0.001410 0.001170 1.638390 
# 
# From -- ./inp_files/280046.got.cif
#   From: 2010.05.17/outbox.cif.g08.bks.cpg/sg2_141_cif.got.tgz:280046.got - 2010.06.03 11:33:40.
