data_PCOD9101805
_publ_section_title
;
Structure prediction by ZEFSAII (Michael W. Deem and Ramdas Pophale) SiO2 
 PCOD9101805
Probable space group: P -1
;
_chemical_formula_sum "Si O2"
_cell_formula_units_Z 16
_cell_length_a 11.723780
_cell_length_b 12.852363
_cell_length_c 13.206385
_cell_angle_alpha 147.357954
_cell_angle_beta 109.791601
_cell_angle_gamma 47.709344
_cell_volume 651.579073
_symmetry_space_group_name_H-M "P -1"
_symmetry_group_IT_number 2
_symmetry_cell_setting 'triclinic'
loop_
_space_group_symop_operation_xyz
x,y,z
-x,-y,-z
loop_
_atom_site_type_symbol
_atom_site_label
_atom_site_fract_x
_atom_site_fract_y
_atom_site_fract_z
Si Si1 0.438749 0.209573 0.058141
Si Si2 0.121587 0.373014 0.170983
Si Si3 0.034128 0.829664 0.268928
Si Si4 0.549612 0.864309 0.215714
Si Si5 0.630922 0.307353 0.284152
Si Si6 0.932823 0.212315 0.361223
Si Si7 0.687230 0.152709 0.771020
Si Si8 0.205499 0.123576 0.630737
O O1 0.527723 0.034002 0.837545
O O2 0.224426 0.397895 0.146103
O O3 0.482684 0.383289 0.224883
O O4 0.500000 0.000000 0.000000
O O5 0.105566 0.526297 0.391564
O O6 0.926394 0.567272 0.217384
O O7 0.230372 0.044365 0.950694
O O8 0.896949 0.820708 0.253157
O O9 0.248653 0.498996 0.034032
O O10 0.000000 0.000000 0.500000
O O11 0.942280 0.052232 0.328064
O O12 0.391157 0.960327 0.314885
O O13 0.603712 0.007024 0.388697
O O14 0.500000 0.500000 0.500000
O O15 0.771863 0.319037 0.328164
O O16 0.154493 0.963256 0.198566
O O17 0.762585 0.063972 0.605671
O O18 0.500000 0.500000 0.000000
#
# Coordination Sequence:
#
# PCOD9101805 Si02
#       8
#     2   2   2   2   2   2   2   2
#     4  10  22  39  60  93 129 168 224 283 325 382
#     4  10  20  38  60  97 131 162 214 282 335 394
#     4  12  20  36  63  98 134 167 217 280 348 395
#     4  12  23  40  64  95 138 177 223 279 337 416
#     4  11  23  39  65  94 126 178 225 280 341 382
#     4  11  22  39  64  97 136 174 217 277 341 402
#     4  11  23  43  62  96 142 180 214 270 349 424
#     4  11  23  38  66 101 132 175 220 278 353 406
#
# _framework density 24.555730000000001
#
# number of rings (size 3 to 8) (size 9 to 14) (size 15 to 20)
#    0.000    1.000    6.250    1.500    3.500    0.000 
#    0.000    0.625    0.000   12.000    0.000    0.000 
#    0.000    0.000    0.000    0.000    0.000    0.000 
#
# Total GULP energy -89186.680840 kJ/mol
# GULP energy per Si atom -5574.167553 kJ/mol
# Density = 2.449984 g / cm^3
# Si number density = 24.555730 Si / 1000 Ang^3
#
#
#
# Elastic Constant Matrix: (Units=GPa)
#
#
# Indices 1 2 3 4 5 6 
#
# 1 122.6152 18.3919 -3.4314 -10.9058 -7.3545 -38.7814
# 2 18.3919 60.8642 9.3584 -10.5582 4.5338 -19.9156
# 3 -3.4314 9.3584 71.0996 10.4469 4.8568 -2.2447
# 4 -10.9058 -10.5582 10.4469 37.1554 -10.8193 10.7473
# 5 -7.3545 4.5338 4.8568 -10.8193 42.1076 -7.4384
# 6 -38.7814 -19.9156 -2.2447 10.7473 -7.4384 48.4649
#
#
#
# Elastic Compliance Matrix: (Units=1/GPa)
#
#
# Indices 1 2 3 4 5 6 
#
# 1 0.011594 -0.000530 0.000404 0.001631 0.004106 0.009347
# 2 -0.000530 0.020040 -0.003165 0.004630 0.000490 0.006713
# 3 0.000404 -0.003165 0.015630 -0.006208 -0.002866 0.000684
# 4 0.001631 0.004630 -0.006208 0.033916 0.008638 -0.003275
# 5 0.004106 0.000490 -0.002866 0.008638 0.027976 0.005732
# 6 0.009347 0.006713 0.000684 -0.003275 0.005732 0.032509
#
#
# Mechanical properties :
#
#
# Convention : Reuss Voigt Hill
#
# Bulk Modulus (GPa) = 24.58067 33.69076 29.13572
# Shear Modulus (GPa) = 30.90076 40.89626 35.89851
#
# Velocity S-wave (km/s) = 3.55123 4.08542 3.82765
# Velocity P-wave (km/s) = 5.18140 6.00034 5.60584
#
# Compressibility (1/GPa) = 0.04068237
#
# Stress axis : x y z
#
# Youngs Moduli (GPa) = 86.25162 49.90004 63.97802
#
# Poissons Ratio (x) = 0.02646 -0.02587
# Poissons Ratio (y) = 0.04573 0.20250
# Poissons Ratio (z) = -0.03488 0.15794
#
# Static dielectric constant tensor:
#      x y z
#    x 2.117750 -0.092230 0.046660 
#    y -0.092230 2.079020 0.076020 
#    z 0.046660 0.076020 2.027220 
# 
# From -- ./inp_files/522645.got.cif
#   From: 2010.05.17/outbox.cif.g08.bks.cpg/sg2_262_cif.got.tgz:522645.got - 2010.06.03 11:33:40.
