data_PCOD9101147
_publ_section_title
;
Structure prediction by ZEFSAII (Michael W. Deem and Ramdas Pophale) SiO2 
 PCOD9101147
Probable space group: P -1
;
_chemical_formula_sum "Si O2"
_cell_formula_units_Z 14
_cell_length_a 5.606447
_cell_length_b 14.852409
_cell_length_c 11.308782
_cell_angle_alpha 140.942954
_cell_angle_beta 85.018418
_cell_angle_gamma 83.756456
_cell_volume 567.340768
_symmetry_space_group_name_H-M "P -1"
_symmetry_group_IT_number 2
_symmetry_cell_setting 'triclinic'
loop_
_space_group_symop_operation_xyz
x,y,z
-x,-y,-z
loop_
_atom_site_type_symbol
_atom_site_label
_atom_site_fract_x
_atom_site_fract_y
_atom_site_fract_z
Si Si1 0.064507 0.047601 0.302608
Si Si2 0.090773 0.736925 0.087205
Si Si3 0.038426 0.254508 0.301011
Si Si4 0.471984 0.661807 0.724078
Si Si5 0.662716 0.859909 0.423282
Si Si6 0.681927 0.305797 0.729639
Si Si7 0.187910 0.475478 0.231270
O O1 0.302583 0.073936 0.384410
O O2 0.052771 0.113548 0.240610
O O3 0.845462 0.152632 0.501577
O O4 0.082977 0.877834 0.150342
O O5 0.890087 0.802101 0.266095
O O6 0.313994 0.686592 0.120872
O O7 0.997367 0.617985 0.896183
O O8 0.812892 0.259746 0.223851
O O9 0.943226 0.400984 0.538846
O O10 0.310780 0.263356 0.253083
O O11 0.500000 0.500000 0.500000
O O12 0.558995 0.624953 0.818918
O O13 0.588200 0.710178 0.302360
O O14 0.500000 0.000000 0.500000
O O15 0.759102 0.433917 0.790436
#
# Coordination Sequence:
#
# PCOD9101147 Si02
#       7
#     2   2   2   2   2   2   2
#     4  10  21  35  63  83 118 160 203 245 298 364
#     4  11  21  38  53  92 124 153 197 250 304 361
#     4  10  23  42  67  90 116 161 213 251 301 368
#     4  10  21  43  64  91 119 158 208 257 301 366
#     4  11  19  35  60  84 119 164 202 240 291 369
#     4  10  20  38  56  84 119 159 201 236 298 373
#     4  10  22  38  60  87 122 154 196 256 313 351
#
# _framework density 24.676525999999999
#
# number of rings (size 3 to 8) (size 9 to 14) (size 15 to 20)
#    0.000    1.714    2.857    3.000    6.000    0.571 
#   10.286    1.429    0.000    0.000    0.000    0.000 
#    0.000    0.000    0.000    0.000    0.000    0.000 
#
# Total GULP energy -78156.238982 kJ/mol
# GULP energy per Si atom -5582.588499 kJ/mol
# Density = 2.462036 g / cm^3
# Si number density = 24.676526 Si / 1000 Ang^3
#
#
#
# Elastic Constant Matrix: (Units=GPa)
#
#
# Indices 1 2 3 4 5 6 
#
# 1 83.9069 54.0662 36.9656 6.4848 33.3316 9.3001
# 2 54.0662 204.6097 74.6940 1.4920 39.3481 14.4432
# 3 36.9656 74.6940 108.0838 6.8093 20.4896 7.6107
# 4 6.4848 1.4920 6.8093 36.4862 12.4615 6.4548
# 5 33.3316 39.3481 20.4896 12.4615 36.5444 7.1098
# 6 9.3001 14.4432 7.6107 6.4548 7.1098 34.9633
#
#
#
# Elastic Compliance Matrix: (Units=1/GPa)
#
#
# Indices 1 2 3 4 5 6 
#
# 1 0.020484 -0.000947 -0.003298 0.002923 -0.016516 -0.001521
# 2 -0.000947 0.007855 -0.004042 0.002918 -0.006046 -0.001422
# 3 -0.003298 -0.004042 0.013179 -0.001910 0.000641 -0.000100
# 4 0.002923 0.002918 -0.001910 0.033107 -0.015132 -0.004603
# 5 -0.016516 -0.006046 0.000641 -0.015132 0.054018 -0.001440
# 6 -0.001521 -0.001422 -0.000100 -0.004603 -0.001440 0.030758
#
#
# Mechanical properties :
#
#
# Convention : Reuss Voigt Hill
#
# Bulk Modulus (GPa) = 40.08747 80.89467 60.49107
# Shear Modulus (GPa) = 27.13111 36.99042 32.06076
#
# Velocity S-wave (km/s) = 3.31942 3.87591 3.60841
# Velocity P-wave (km/s) = 5.56524 7.27210 6.47516
#
# Compressibility (1/GPa) = 0.02494545
#
# Stress axis : x y z
#
# Youngs Moduli (GPa) = 48.81754 127.30834 75.87803
#
# Poissons Ratio (x) = 0.12053 0.25022
# Poissons Ratio (y) = 0.04622 0.30671
# Poissons Ratio (z) = 0.16098 0.51459
#
# Static dielectric constant tensor:
#      x y z
#    x 2.121170 0.183010 -0.097030 
#    y 0.183010 1.369600 0.162020 
#    z -0.097030 0.162020 1.876720 
# 
# From -- ./inp_files/33305.got.cif
#   From: 2010.05.17/outbox.cif.g08.bks.cpg/sg2_17_cif.got.tgz:33305.got - 2010.06.03 11:33:40.
