data_PCOD9101613
_publ_section_title
;
Structure prediction by ZEFSAII (Michael W. Deem and Ramdas Pophale) SiO2 
 PCOD9101613
Probable space group: P -1
;
_chemical_formula_sum "Si O2"
_cell_formula_units_Z 16
_cell_length_a 16.911834
_cell_length_b 12.743558
_cell_length_c 5.004541
_cell_angle_alpha 76.832527
_cell_angle_beta 86.755094
_cell_angle_gamma 46.839175
_cell_volume 758.546980
_symmetry_space_group_name_H-M "P -1"
_symmetry_group_IT_number 2
_symmetry_cell_setting 'triclinic'
loop_
_space_group_symop_operation_xyz
x,y,z
-x,-y,-z
loop_
_atom_site_type_symbol
_atom_site_label
_atom_site_fract_x
_atom_site_fract_y
_atom_site_fract_z
Si Si1 0.179423 0.273898 0.103285
Si Si2 0.214315 0.535384 0.399288
Si Si3 0.607432 0.304082 0.387677
Si Si4 0.459154 0.918120 0.099267
Si Si5 0.327195 0.989377 0.585513
Si Si6 0.637447 0.416555 0.816392
Si Si7 0.018885 0.581705 0.248728
Si Si8 0.685588 0.657407 0.012650
O O1 0.099811 0.447402 0.102081
O O2 0.227058 0.155533 0.399148
O O3 0.278033 0.253774 0.981556
O O4 0.099183 0.279955 0.929759
O O5 0.257318 0.611664 0.261598
O O6 0.089883 0.613911 0.328310
O O7 0.241989 0.486532 0.729093
O O8 0.289164 0.388491 0.275975
O O9 0.676539 0.134074 0.398786
O O10 0.627168 0.324747 0.672375
O O11 0.476405 0.411161 0.308953
O O12 0.637650 0.372896 0.142053
O O13 0.426858 0.932416 0.403807
O O14 0.561982 0.752491 0.070790
O O15 0.358707 0.980808 0.889629
O O16 0.500000 0.000000 0.000000
O O17 0.000000 0.500000 0.500000
#
# Coordination Sequence:
#
# PCOD9101613 Si02
#       8
#     2   2   2   2   2   2   2   2
#     4  10  23  37  58  84 121 158 196 239 295 354
#     4  11  22  36  64  86 116 154 203 249 300 341
#     4  10  21  38  60  84 118 154 201 237 295 349
#     4  12  24  35  54  86 129 162 190 226 283 366
#     4  12  25  39  59  87 124 168 193 238 297 358
#     4  10  20  38  60  85 114 154 197 252 286 347
#     4  10  21  40  60  86 116 156 201 250 295 356
#     4  11  21  35  55  87 122 158 189 233 291 364
#
# _framework density 21.092959
#
# number of rings (size 3 to 8) (size 9 to 14) (size 15 to 20)
#    0.000    1.250    2.500    4.125    5.250    2.000 
#    0.000    0.000    0.000    1.500    0.000    0.000 
#    0.000    0.000    0.000    0.000    0.000    0.000 
#
# Total GULP energy -89331.326771 kJ/mol
# GULP energy per Si atom -5583.207923 kJ/mol
# Density = 2.104495 g / cm^3
# Si number density = 21.092959 Si / 1000 Ang^3
#
#
#
# Elastic Constant Matrix: (Units=GPa)
#
#
# Indices 1 2 3 4 5 6 
#
# 1 98.5592 1.3163 10.8582 -15.2025 -1.0216 -7.5294
# 2 1.3163 41.1086 -3.8333 -1.7279 8.0304 3.1858
# 3 10.8582 -3.8333 48.2539 -3.0304 0.2153 -6.8133
# 4 -15.2025 -1.7279 -3.0304 31.8106 -7.5923 0.3766
# 5 -1.0216 8.0304 0.2153 -7.5923 32.7134 0.0710
# 6 -7.5294 3.1858 -6.8133 0.3766 0.0710 28.6263
#
#
#
# Elastic Compliance Matrix: (Units=1/GPa)
#
#
# Indices 1 2 3 4 5 6 
#
# 1 0.011462 -0.000879 -0.001938 0.005667 0.001896 0.002572
# 2 -0.000879 0.025990 0.001895 -0.000347 -0.006495 -0.002652
# 3 -0.001938 0.001895 0.022019 0.001121 -0.000420 0.004506
# 4 0.005667 -0.000347 0.001121 0.036287 0.008674 0.001297
# 5 0.001896 -0.006495 -0.000420 0.008674 0.034236 0.000922
# 6 0.002572 -0.002652 0.004506 0.001297 0.000922 0.036958
#
#
# Mechanical properties :
#
#
# Convention : Reuss Voigt Hill
#
# Bulk Modulus (GPa) = 17.35315 22.73377 20.04346
# Shear Modulus (GPa) = 26.59498 30.60210 28.59854
#
# Velocity S-wave (km/s) = 3.55469 3.81310 3.68616
# Velocity P-wave (km/s) = 5.00925 5.49432 5.25738
#
# Compressibility (1/GPa) = 0.05762642
#
# Stress axis : x y z
#
# Youngs Moduli (GPa) = 87.24630 38.47577 45.41539
#
# Poissons Ratio (x) = 0.03383 0.08803
# Poissons Ratio (y) = 0.07671 -0.08608
# Poissons Ratio (z) = 0.16912 -0.07292
#
# Static dielectric constant tensor:
#      x y z
#    x 1.840700 -0.054300 0.006700 
#    y -0.054300 1.870510 0.020670 
#    z 0.006700 0.020670 1.770060 
# 
# From -- ./inp_files/81207.got.cif
#   From: 2010.05.17/outbox.cif.g08.bks.cpg/sg2_41_cif.got.tgz:81207.got - 2010.06.03 11:33:40.
