data_PCOD9101433
_publ_section_title
;
Structure prediction by ZEFSAII (Michael W. Deem and Ramdas Pophale) SiO2 
 PCOD9101433
Probable space group: P -1
;
_chemical_formula_sum "Si O2"
_cell_formula_units_Z 16
_cell_length_a 12.746727
_cell_length_b 8.117428
_cell_length_c 17.214598
_cell_angle_alpha 97.345539
_cell_angle_beta 158.690241
_cell_angle_gamma 84.308316
_cell_volume 641.012516
_symmetry_space_group_name_H-M "P -1"
_symmetry_group_IT_number 2
_symmetry_cell_setting 'triclinic'
loop_
_space_group_symop_operation_xyz
x,y,z
-x,-y,-z
loop_
_atom_site_type_symbol
_atom_site_label
_atom_site_fract_x
_atom_site_fract_y
_atom_site_fract_z
Si Si1 0.210799 0.266466 0.483953
Si Si2 0.215029 0.699218 0.273178
Si Si3 0.313427 0.924020 0.486541
Si Si4 0.244758 0.196521 0.810124
Si Si5 0.888415 0.624338 0.734232
Si Si6 0.140586 0.584560 0.525817
Si Si7 0.263086 0.858773 0.734773
Si Si8 0.090299 0.194238 0.081703
O O1 0.003320 0.303057 0.269107
O O2 0.324967 0.449837 0.601244
O O3 0.041176 0.193066 0.437446
O O4 0.398457 0.116521 0.575166
O O5 0.246966 0.878030 0.348442
O O6 0.540191 0.639314 0.483456
O O7 0.066813 0.565757 0.223442
O O8 0.037309 0.707957 0.072249
O O9 0.560626 0.805139 0.676415
O O10 0.020054 0.883021 0.326966
O O11 0.130921 0.364993 0.709367
O O12 0.300088 0.058591 0.773353
O O13 0.509678 0.207121 0.051428
O O14 0.989138 0.732010 0.884817
O O15 0.292041 0.759284 0.669004
O O16 0.000000 0.500000 0.500000
O O17 0.000000 0.000000 0.000000
#
# Coordination Sequence:
#
# PCOD9101433 Si02
#       8
#     2   2   2   2   2   2   2   2
#     4  10  20  38  59  85 119 154 192 239 290 340
#     4  10  21  39  61  87 118 152 191 236 290 344
#     4  10  22  39  59  84 117 154 194 238 285 342
#     4  10  20  40  62  85 116 153 195 239 287 341
#     4  10  21  39  61  87 120 151 188 241 288 342
#     4  10  21  37  58  86 118 151 191 241 290 339
#     4   9  21  39  62  85 114 154 195 239 289 342
#     4  11  22  38  61  87 117 153 192 236 289 347
#
# _framework density 24.960511
#
# number of rings (size 3 to 8) (size 9 to 14) (size 15 to 20)
#    0.000    2.000    0.000    3.000    0.000    5.000 
#    0.000   22.500    0.000    0.000    0.000    0.000 
#    0.000    0.000    0.000    0.000    0.000    0.000 
#
# Total GULP energy -89429.507670 kJ/mol
# GULP energy per Si atom -5589.344229 kJ/mol
# Density = 2.490370 g / cm^3
# Si number density = 24.960511 Si / 1000 Ang^3
#
#
#
# Elastic Constant Matrix: (Units=GPa)
#
#
# Indices 1 2 3 4 5 6 
#
# 1 64.6499 27.1096 14.5965 0.0386 -29.3271 -18.8777
# 2 27.1096 115.1624 23.1002 -5.4469 -21.5685 -38.7805
# 3 14.5965 23.1002 81.7857 -9.4238 -27.8799 -14.6477
# 4 0.0386 -5.4469 -9.4238 33.8332 2.9521 -19.8089
# 5 -29.3271 -21.5685 -27.8799 2.9521 35.5739 6.6032
# 6 -18.8777 -38.7805 -14.6477 -19.8089 6.6032 51.4874
#
#
#
# Elastic Compliance Matrix: (Units=1/GPa)
#
#
# Indices 1 2 3 4 5 6 
#
# 1 0.029838 0.001796 0.007085 0.007813 0.028046 0.013718
# 2 0.001796 0.015637 0.002758 0.012349 0.008976 0.016821
# 3 0.007085 0.002758 0.020751 0.011724 0.020490 0.012462
# 4 0.007813 0.012349 0.011724 0.054083 0.012179 0.034747
# 5 0.028046 0.008976 0.020490 0.012179 0.068231 0.018809
# 6 0.013718 0.016821 0.012462 0.034747 0.018809 0.051623
#
#
# Mechanical properties :
#
#
# Convention : Reuss Voigt Hill
#
# Bulk Modulus (GPa) = 11.17243 43.46785 27.32014
# Shear Modulus (GPa) = 20.26597 37.29833 28.78215
#
# Velocity S-wave (km/s) = 2.85251 3.86980 3.39943
# Velocity P-wave (km/s) = 3.91598 6.11716 5.13588
#
# Compressibility (1/GPa) = 0.08950603
#
# Stress axis : x y z
#
# Youngs Moduli (GPa) = 33.51386 63.95151 48.18973
#
# Poissons Ratio (x) = -0.11489 -0.34142
# Poissons Ratio (y) = -0.06021 -0.13292
# Poissons Ratio (z) = -0.23745 -0.17639
#
# Static dielectric constant tensor:
#      x y z
#    x 2.048270 -0.007970 0.002860 
#    y -0.007970 2.029000 0.032570 
#    z 0.002860 0.032570 1.954740 
# 
# From -- ./inp_files/572698.got.cif
#   From: 2010.05.17/outbox.cif.g08.bks.cpg/sg2_287_cif.got.tgz:572698.got - 2010.06.03 11:33:40.
