data_PCOD9101187
_publ_section_title
;
Structure prediction by ZEFSAII (Michael W. Deem and Ramdas Pophale) SiO2 
 PCOD9101187
Probable space group: P -1
;
_chemical_formula_sum "Si O2"
_cell_formula_units_Z 16
_cell_length_a 12.390366
_cell_length_b 8.944845
_cell_length_c 12.797782
_cell_angle_alpha 36.701563
_cell_angle_beta 72.997918
_cell_angle_gamma 60.898466
_cell_volume 727.641315
_symmetry_space_group_name_H-M "P -1"
_symmetry_group_IT_number 2
_symmetry_cell_setting 'triclinic'
loop_
_space_group_symop_operation_xyz
x,y,z
-x,-y,-z
loop_
_atom_site_type_symbol
_atom_site_label
_atom_site_fract_x
_atom_site_fract_y
_atom_site_fract_z
Si Si1 0.879204 0.523561 0.710797
Si Si2 0.801404 0.166978 0.402203
Si Si3 0.653041 0.198724 0.227604
Si Si4 0.110372 0.422175 0.788918
Si Si5 0.367318 0.502301 0.544147
Si Si6 0.611164 0.990450 0.047655
Si Si7 0.821179 0.560807 0.482659
Si Si8 0.381679 0.477533 0.155271
O O1 0.905435 0.431282 0.633436
O O2 0.743137 0.540941 0.763666
O O3 0.991645 0.353120 0.855362
O O4 0.863694 0.836943 0.556895
O O5 0.704912 0.281562 0.269379
O O6 0.897983 0.304759 0.302069
O O7 0.717822 0.276519 0.468933
O O8 0.515557 0.209458 0.275843
O O9 0.752420 0.889481 0.342073
O O10 0.639791 0.410816 0.019850
O O11 0.241576 0.182435 0.928771
O O12 0.125198 0.471400 0.632121
O O13 0.500000 0.500000 0.500000
O O14 0.393293 0.195278 0.749232
O O15 0.285346 0.549706 0.436693
O O16 0.500000 0.000000 0.000000
O O17 0.595260 0.290281 0.917080
#
# Coordination Sequence:
#
# PCOD9101187 Si02
#       8
#     2   2   2   2   2   2   2   2
#     4  11  23  34  64  87 117 152 200 237 288 351
#     4   9  21  38  59  82 112 157 192 240 293 333
#     4  10  20  38  57  81 120 154 190 238 294 340
#     4  10  20  42  59  84 118 155 197 237 290 348
#     4  10  21  35  61  87 117 144 198 245 281 344
#     4  10  21  39  58  82 119 155 188 236 304 334
#     4   9  20  38  57  87 114 156 189 244 288 336
#     4  11  22  35  58  89 118 153 192 240 293 342
#
# _framework density 21.988855000000001
#
# number of rings (size 3 to 8) (size 9 to 14) (size 15 to 20)
#    0.000    2.250    2.500    2.250    5.250    1.500 
#    0.000    0.625    0.000    0.000    0.000    0.000 
#    0.000    0.000    0.000    0.000    0.000    0.000 
#
# Total GULP energy -89236.715037 kJ/mol
# GULP energy per Si atom -5577.294690 kJ/mol
# Density = 2.193881 g / cm^3
# Si number density = 21.988855 Si / 1000 Ang^3
#
#
#
# Elastic Constant Matrix: (Units=GPa)
#
#
# Indices 1 2 3 4 5 6 
#
# 1 170.4734 37.0784 15.2772 9.7605 20.1963 32.3514
# 2 37.0784 76.8804 9.8646 -4.8752 0.8403 25.3080
# 3 15.2772 9.8646 22.8186 -2.8936 9.1560 5.5624
# 4 9.7605 -4.8752 -2.8936 22.3244 5.0211 0.7023
# 5 20.1963 0.8403 9.1560 5.0211 29.0586 9.4459
# 6 32.3514 25.3080 5.5624 0.7023 9.4459 36.5044
#
#
#
# Elastic Compliance Matrix: (Units=1/GPa)
#
#
# Indices 1 2 3 4 5 6 
#
# 1 0.007928 -0.002256 -0.002707 -0.003596 -0.002568 -0.004317
# 2 -0.002256 0.018890 -0.005796 0.003356 0.006124 -0.011863
# 3 -0.002707 -0.005796 0.056397 0.011302 -0.018448 0.002379
# 4 -0.003596 0.003356 0.011302 0.050834 -0.010202 0.000801
# 5 -0.002568 0.006124 -0.018448 -0.010202 0.047232 -0.011185
# 6 -0.004317 -0.011863 0.002379 0.000801 -0.011185 0.041960
#
#
# Mechanical properties :
#
#
# Convention : Reuss Voigt Hill
#
# Bulk Modulus (GPa) = 16.20771 43.84588 30.02679
# Shear Modulus (GPa) = 18.84491 31.44095 25.14293
#
# Velocity S-wave (km/s) = 2.93067 3.78545 3.38515
# Velocity P-wave (km/s) = 4.34035 6.25216 5.38183
#
# Compressibility (1/GPa) = 0.06169903
#
# Stress axis : x y z
#
# Youngs Moduli (GPa) = 126.12765 52.93867 17.73148
#
# Poissons Ratio (x) = 0.11940 0.04799
# Poissons Ratio (y) = 0.28448 0.10277
# Poissons Ratio (z) = 0.34137 0.30683
#
# Static dielectric constant tensor:
#      x y z
#    x 1.941230 -0.050760 0.028400 
#    y -0.050760 1.839960 0.005020 
#    z 0.028400 0.005020 1.840330 
# 
# From -- ./inp_files/464369.got.cif
#   From: 2010.05.17/outbox.cif.g08.bks.cpg/sg2_233_cif.got.tgz:464369.got - 2010.06.03 11:33:40.
