data_PCOD9101771
_publ_section_title
;
Structure prediction by ZEFSAII (Michael W. Deem and Ramdas Pophale) SiO2 
 PCOD9101771
Probable space group: P -1
;
_chemical_formula_sum "Si O2"
_cell_formula_units_Z 16
_cell_length_a 17.144435
_cell_length_b 7.527312
_cell_length_c 7.934442
_cell_angle_alpha 120.085702
_cell_angle_beta 62.111745
_cell_angle_gamma 126.032274
_cell_volume 694.288200
_symmetry_space_group_name_H-M "P -1"
_symmetry_group_IT_number 2
_symmetry_cell_setting 'triclinic'
loop_
_space_group_symop_operation_xyz
x,y,z
-x,-y,-z
loop_
_atom_site_type_symbol
_atom_site_label
_atom_site_fract_x
_atom_site_fract_y
_atom_site_fract_z
Si Si1 0.169308 0.967906 0.920543
Si Si2 0.015470 0.099401 0.718232
Si Si3 0.617917 0.990778 0.217902
Si Si4 0.017728 0.675279 0.709681
Si Si5 0.595863 0.379433 0.619013
Si Si6 0.438359 0.197885 0.190320
Si Si7 0.357932 0.701840 0.098509
Si Si8 0.833188 0.593874 0.054054
O O1 0.174652 0.194104 0.930989
O O2 0.278794 0.015220 0.871698
O O3 0.121212 0.758069 0.737281
O O4 0.085284 0.891837 0.115790
O O5 0.123236 0.318258 0.758941
O O6 0.000000 0.000000 0.500000
O O7 0.015931 0.900610 0.742808
O O8 0.629864 0.235769 0.390817
O O9 0.522296 0.790000 0.313296
O O10 0.590484 0.924960 0.020841
O O11 0.000000 0.500000 0.500000
O O12 0.926576 0.568041 0.877265
O O13 0.603553 0.619894 0.656937
O O14 0.648452 0.418602 0.769957
O O15 0.396444 0.971957 0.242313
O O16 0.557617 0.321783 0.109931
O O17 0.263599 0.616351 0.028977
#
# Coordination Sequence:
#
# PCOD9101771 Si02
#       8
#     2   2   2   2   2   2   2   2
#     4   9  18  36  60  84 117 162 198 254 309 371
#     4   9  19  39  60  87 117 152 202 260 318 364
#     4  10  20  38  60  92 123 163 214 248 315 367
#     4   9  19  35  57  84 117 150 197 250 303 375
#     4  10  21  38  64  90 126 169 209 257 303 373
#     4  10  21  40  60  91 132 161 207 264 301 364
#     4  10  20  38  64  88 122 170 205 247 320 365
#     4   9  18  36  61  84 118 160 205 247 311 377
#
# _framework density 23.045182
#
# number of rings (size 3 to 8) (size 9 to 14) (size 15 to 20)
#    0.000    2.500    0.000    4.500    1.750    0.000 
#    4.500   13.750    0.000    0.000    0.000    2.625 
#    0.000    0.000    0.000    0.000    0.000    0.000 
#
# Total GULP energy -89239.898494 kJ/mol
# GULP energy per Si atom -5577.493656 kJ/mol
# Density = 2.299273 g / cm^3
# Si number density = 23.045182 Si / 1000 Ang^3
#
#
#
# Elastic Constant Matrix: (Units=GPa)
#
#
# Indices 1 2 3 4 5 6 
#
# 1 87.9365 18.2484 18.7508 -6.3505 2.6802 16.1399
# 2 18.2484 48.8863 4.6227 17.3820 -4.3851 -2.4835
# 3 18.7508 4.6227 80.7058 19.1189 8.4667 4.5879
# 4 -6.3505 17.3820 19.1189 22.1463 -3.6003 -5.1228
# 5 2.6802 -4.3851 8.4667 -3.6003 32.9091 16.9517
# 6 16.1399 -2.4835 4.5879 -5.1228 16.9517 43.8097
#
#
#
# Elastic Compliance Matrix: (Units=1/GPa)
#
#
# Indices 1 2 3 4 5 6 
#
# 1 0.019371 -0.015194 -0.009798 0.025355 0.004691 -0.005822
# 2 -0.015194 0.041925 0.012728 -0.048224 -0.002801 0.002086
# 3 -0.009798 0.012728 0.022539 -0.033244 -0.007437 0.000961
# 4 0.025355 -0.048224 -0.033244 0.121219 0.013050 0.000532
# 5 0.004691 -0.002801 -0.007437 0.013050 0.040912 -0.015413
# 6 -0.005822 0.002086 0.000961 0.000532 -0.015413 0.031014
#
#
# Mechanical properties :
#
#
# Convention : Reuss Voigt Hill
#
# Bulk Modulus (GPa) = 16.86150 33.41916 25.14033
# Shear Modulus (GPa) = 15.56290 31.50014 23.53152
#
# Velocity S-wave (km/s) = 2.60151 3.70115 3.19894
# Velocity P-wave (km/s) = 4.04431 5.72693 4.95753
#
# Compressibility (1/GPa) = 0.05930669
#
# Stress axis : x y z
#
# Youngs Moduli (GPa) = 51.62400 23.85203 44.36751
#
# Poissons Ratio (x) = 0.36242 0.43471
# Poissons Ratio (y) = 0.78440 -0.56472
# Poissons Ratio (z) = 0.50581 -0.30359
#
# Static dielectric constant tensor:
#      x y z
#    x 1.886650 -0.001070 0.015900 
#    y -0.001070 2.012480 0.004790 
#    z 0.015900 0.004790 1.851820 
# 
# From -- ./inp_files/329548.got.cif
#   From: 2010.05.17/outbox.cif.g08.bks.cpg/sg2_165_cif.got.tgz:329548.got - 2010.06.03 11:33:40.
