data_PCOD9101350
_publ_section_title
;
Structure prediction by ZEFSAII (Michael W. Deem and Ramdas Pophale) SiO2 
 PCOD9101350
Probable space group: P -1
;
_chemical_formula_sum "Si O2"
_cell_formula_units_Z 12
_cell_length_a 8.019886
_cell_length_b 10.674476
_cell_length_c 6.689781
_cell_angle_alpha 108.707696
_cell_angle_beta 99.161318
_cell_angle_gamma 54.435757
_cell_volume 440.979247
_symmetry_space_group_name_H-M "P -1"
_symmetry_group_IT_number 2
_symmetry_cell_setting 'triclinic'
loop_
_space_group_symop_operation_xyz
x,y,z
-x,-y,-z
loop_
_atom_site_type_symbol
_atom_site_label
_atom_site_fract_x
_atom_site_fract_y
_atom_site_fract_z
Si Si1 0.989526 0.999840 0.761534
Si Si2 0.339361 0.756978 0.415970
Si Si3 0.698581 0.506943 0.913980
Si Si4 0.420496 0.224471 0.217058
Si Si5 0.904332 0.573616 0.306291
Si Si6 0.230644 0.144088 0.828083
O O1 0.165783 0.833427 0.602691
O O2 0.042343 0.128086 0.777753
O O3 0.763443 0.085951 0.667911
O O4 0.000000 0.000000 0.000000
O O5 0.366531 0.609304 0.223861
O O6 0.551036 0.701417 0.539445
O O7 0.531563 0.690735 0.906542
O O8 0.891980 0.464954 0.792619
O O9 0.790034 0.500816 0.143574
O O10 0.580209 0.038628 0.204213
O O11 0.235951 0.225570 0.077886
O O12 0.763535 0.762948 0.313830
O O13 0.000000 0.500000 0.500000
#
# Coordination Sequence:
#
# PCOD9101350 Si02
#       6
#     2   2   2   2   2   2
#     4  10  21  38  62  89 121 162 204 248 300 358
#     4  10  20  38  58  91 123 157 201 249 303 359
#     4  10  20  38  58  91 123 157 201 249 303 359
#     4   9  19  36  63  84 124 163 191 253 310 349
#     4  10  21  38  62  89 121 162 204 248 300 358
#     4   9  18  40  62  89 120 158 208 249 292 366
#
# _framework density 27.212167000000001
#
# number of rings (size 3 to 8) (size 9 to 14) (size 15 to 20)
#    0.000    2.333    1.667    0.500    0.000    1.333 
#    0.000   10.000    0.000   10.000    0.000    0.000 
#    0.000    0.000    0.000    0.000    0.000    0.000 
#
# Total GULP energy -66944.177596 kJ/mol
# GULP energy per Si atom -5578.681466 kJ/mol
# Density = 2.715023 g / cm^3
# Si number density = 27.212167 Si / 1000 Ang^3
#
#
#
# Elastic Constant Matrix: (Units=GPa)
#
#
# Indices 1 2 3 4 5 6 
#
# 1 76.6960 28.6256 57.3107 -3.6835 20.8045 3.5609
# 2 28.6256 153.4657 72.8385 -11.8326 18.9050 -1.7864
# 3 57.3107 72.8385 268.7773 -19.2303 30.1716 8.5767
# 4 -3.6835 -11.8326 -19.2303 60.3709 1.2333 18.3771
# 5 20.8045 18.9050 30.1716 1.2333 59.0993 5.4819
# 6 3.5609 -1.7864 8.5767 18.3771 5.4819 30.7804
#
#
#
# Elastic Compliance Matrix: (Units=1/GPa)
#
#
# Indices 1 2 3 4 5 6 
#
# 1 0.016688 -0.001324 -0.002717 0.000169 -0.004008 -0.000637
# 2 -0.001324 0.007770 -0.001662 0.000666 -0.001268 0.000895
# 3 -0.002717 -0.001662 0.005048 0.001768 -0.000933 -0.002078
# 4 0.000169 0.000666 0.001768 0.021263 -0.000404 -0.013097
# 5 -0.004008 -0.001268 -0.000933 -0.000404 0.019461 -0.002575
# 6 -0.000637 0.000895 -0.002078 -0.013097 -0.002575 0.041471
#
#
# Mechanical properties :
#
#
# Convention : Reuss Voigt Hill
#
# Bulk Modulus (GPa) = 55.24880 90.72094 72.98487
# Shear Modulus (GPa) = 38.71785 52.72775 45.72280
#
# Velocity S-wave (km/s) = 3.77611 4.40665 4.10351
# Velocity P-wave (km/s) = 6.27368 7.70079 7.02358
#
# Compressibility (1/GPa) = 0.01809994
#
# Stress axis : x y z
#
# Youngs Moduli (GPa) = 59.92330 128.70359 198.10353
#
# Poissons Ratio (x) = 0.17037 0.53829
# Poissons Ratio (y) = 0.07932 0.32924
# Poissons Ratio (z) = 0.16282 0.21390
#
# Static dielectric constant tensor:
#      x y z
#    x 2.242070 -0.139390 -0.054700 
#    y -0.139390 2.265420 0.054260 
#    z -0.054700 0.054260 2.221960 
# 
# From -- ./inp_files/67702.got.cif
#   From: 2010.05.17/outbox.cif.g08.bks.cpg/sg2_34_cif.got.tgz:67702.got - 2010.06.03 11:33:40.
