data_PCOD9101598
_publ_section_title
;
Structure prediction by ZEFSAII (Michael W. Deem and Ramdas Pophale) SiO2 
 PCOD9101598
Probable space group: P -1
;
_chemical_formula_sum "Si O2"
_cell_formula_units_Z 14
_cell_length_a 9.127787
_cell_length_b 11.450653
_cell_length_c 9.329283
_cell_angle_alpha 127.856990
_cell_angle_beta 95.134404
_cell_angle_gamma 51.152894
_cell_volume 525.856158
_symmetry_space_group_name_H-M "P -1"
_symmetry_group_IT_number 2
_symmetry_cell_setting 'triclinic'
loop_
_space_group_symop_operation_xyz
x,y,z
-x,-y,-z
loop_
_atom_site_type_symbol
_atom_site_label
_atom_site_fract_x
_atom_site_fract_y
_atom_site_fract_z
Si Si1 0.246373 0.349085 0.444544
Si Si2 0.803463 0.781286 0.356485
Si Si3 0.825129 0.047652 0.420430
Si Si4 0.732084 0.116647 0.960532
Si Si5 0.267915 0.388200 0.039468
Si Si6 0.196538 0.728262 0.643517
Si Si7 0.276809 0.079059 0.934926
O O1 0.249341 0.257966 0.529473
O O2 0.249341 0.522165 0.529478
O O3 0.480086 0.131882 0.243851
O O4 0.000000 0.500000 0.500000
O O5 0.702181 0.015934 0.486148
O O6 0.752591 0.692062 0.167455
O O7 0.056389 0.635219 0.242532
O O8 0.702183 0.268035 0.486148
O O9 0.871282 0.903008 0.177298
O O10 0.000000 0.000000 0.500000
O O11 0.752588 0.222803 0.167454
O O12 0.756922 0.949903 0.930551
O O13 0.499999 0.291734 0.999999
O O14 0.943610 0.949076 0.757469
O O15 0.243075 0.276276 0.069450
#
# Coordination Sequence:
#
# PCOD9101598 Si02
#       7
#     2   2   2   2   2   2   2
#     4  12  23  38  62  90 118 154 197 242 290 346
#     4  10  23  39  61  89 117 154 199 238 289 353
#     4  10  22  40  59  86 125 156 187 242 299 344
#     4  10  20  38  60  84 119 156 193 242 292 341
#     4  10  20  38  60  84 119 156 193 242 292 341
#     4  10  23  39  61  89 117 154 199 238 289 353
#     4  10  22  36  60  90 118 154 198 240 290 350
#
# _framework density 26.623249999999999
#
# number of rings (size 3 to 8) (size 9 to 14) (size 15 to 20)
#    0.000    1.714    0.000    3.857    0.000   10.286 
#    0.000    1.429    0.000    1.714    0.000    0.000 
#    0.000    0.000    0.000    0.000    0.000    0.000 
#
# Total GULP energy -78166.765919 kJ/mol
# GULP energy per Si atom -5583.340423 kJ/mol
# Density = 2.656265 g / cm^3
# Si number density = 26.623250 Si / 1000 Ang^3
#
#
#
# Elastic Constant Matrix: (Units=GPa)
#
#
# Indices 1 2 3 4 5 6 
#
# 1 112.7576 78.8306 50.8518 16.6248 6.5914 -6.4645
# 2 78.8306 121.9517 38.8598 -11.9631 -8.0609 16.2936
# 3 50.8518 38.8598 81.3363 14.2416 -8.1809 -4.9425
# 4 16.6248 -11.9631 14.2416 42.3754 0.8966 2.0122
# 5 6.5914 -8.0609 -8.1809 0.8966 49.9730 8.7230
# 6 -6.4645 16.2936 -4.9425 2.0122 8.7230 79.9787
#
#
#
# Elastic Compliance Matrix: (Units=1/GPa)
#
#
# Indices 1 2 3 4 5 6 
#
# 1 0.028190 -0.019131 -0.006409 -0.014457 -0.008835 0.007107
# 2 -0.019131 0.024222 -0.002031 0.015244 0.007182 -0.007773
# 3 -0.006409 -0.002031 0.018433 -0.004364 0.003480 0.000765
# 4 -0.014457 0.015244 -0.004364 0.035234 0.004044 -0.005871
# 5 -0.008835 0.007182 0.003480 0.004044 0.023642 -0.004642
# 6 0.007107 -0.007773 0.000765 -0.005871 -0.004642 0.015363
#
#
# Mechanical properties :
#
#
# Convention : Reuss Voigt Hill
#
# Bulk Modulus (GPa) = 63.68747 72.57000 68.12873
# Shear Modulus (GPa) = 24.33572 44.29897 34.31734
#
# Velocity S-wave (km/s) = 3.02665 4.08354 3.59416
# Velocity P-wave (km/s) = 6.01563 7.03925 6.54748
#
# Compressibility (1/GPa) = 0.01570168
#
# Stress axis : x y z
#
# Youngs Moduli (GPa) = 35.47419 41.28423 54.25194
#
# Poissons Ratio (x) = 0.78982 0.34772
# Poissons Ratio (y) = 0.67867 0.11017
# Poissons Ratio (z) = 0.22736 0.08384
#
# Static dielectric constant tensor:
#      x y z
#    x 2.172540 -0.031260 0.068880 
#    y -0.031260 2.181910 -0.051750 
#    z 0.068880 -0.051750 2.090450 
# 
# From -- ./inp_files/199081.got.cif
#   From: 2010.05.17/outbox.cif.g08.bks.cpg/sg2_100_cif.got.tgz:199081.got - 2010.06.03 11:33:40.
