data_PCOD9101718
_publ_section_title
;
Structure prediction by ZEFSAII (Michael W. Deem and Ramdas Pophale) SiO2 
 PCOD9101718
Probable space group: P -1
;
_chemical_formula_sum "Si O2"
_cell_formula_units_Z 14
_cell_length_a 5.134177
_cell_length_b 5.395625
_cell_length_c 22.126623
_cell_angle_alpha 87.609093
_cell_angle_beta 123.107877
_cell_angle_gamma 95.233374
_cell_volume 511.272406
_symmetry_space_group_name_H-M "P -1"
_symmetry_group_IT_number 2
_symmetry_cell_setting 'triclinic'
loop_
_space_group_symop_operation_xyz
x,y,z
-x,-y,-z
loop_
_atom_site_type_symbol
_atom_site_label
_atom_site_fract_x
_atom_site_fract_y
_atom_site_fract_z
Si Si1 0.061178 0.101257 0.315507
Si Si2 0.266385 0.997022 0.085129
Si Si3 0.479876 0.182413 0.553281
Si Si4 0.996879 0.623402 0.580552
Si Si5 0.625278 0.491516 0.948216
Si Si6 0.832906 0.025167 0.792374
Si Si7 0.391742 0.481380 0.285200
O O1 0.950486 0.141771 0.368595
O O2 0.945765 0.969418 0.239851
O O3 0.109072 0.385845 0.294492
O O4 0.383972 0.970183 0.372388
O O5 0.093731 0.975189 0.127620
O O6 0.461503 0.262643 0.099892
O O7 0.458564 0.763327 0.095278
O O8 0.000000 0.000000 0.000000
O O9 0.721557 0.423034 0.569872
O O10 0.129978 0.271665 0.499391
O O11 0.500000 0.000000 0.500000
O O12 0.314585 0.497902 0.633387
O O13 0.500000 0.500000 0.000000
O O14 0.000000 0.500000 0.000000
O O15 0.626673 0.760999 0.758539
O O16 0.649042 0.269262 0.757439
#
# Coordination Sequence:
#
# PCOD9101718 Si02
#       7
#     2   2   2   2   2   2   2
#     4   9  21  38  61  86 127 165 212 268 316 387
#     4  10  21  41  71  94 133 170 220 280 341 407
#     4   9  19  35  60  89 123 163 217 272 310 392
#     4  10  20  38  60  89 122 169 216 263 330 373
#     4  10  21  40  69 101 137 176 219 281 345 406
#     4  10  22  42  61  94 128 165 214 266 318 402
#     4  10  23  38  63  85 130 161 209 258 320 383
#
# _framework density 27.382663999999998
#
# number of rings (size 3 to 8) (size 9 to 14) (size 15 to 20)
#    0.857    1.429    0.000    2.143    4.000    0.571 
#    0.000   15.714    3.143    0.000    0.000    0.000 
#    0.000    0.000    0.000    0.000    0.000    0.000 
#
# Total GULP energy -78116.186326 kJ/mol
# GULP energy per Si atom -5579.727595 kJ/mol
# Density = 2.732034 g / cm^3
# Si number density = 27.382664 Si / 1000 Ang^3
#
#
#
# Elastic Constant Matrix: (Units=GPa)
#
#
# Indices 1 2 3 4 5 6 
#
# 1 68.7657 20.9836 5.9634 5.5908 -15.2232 14.0624
# 2 20.9836 198.4677 40.8749 0.3240 -18.5371 -17.1249
# 3 5.9634 40.8749 181.6924 5.2366 -33.1338 3.6249
# 4 5.5908 0.3240 5.2366 39.3104 -0.9772 -7.3409
# 5 -15.2232 -18.5371 -33.1338 -0.9772 32.6293 -1.5143
# 6 14.0624 -17.1249 3.6249 -7.3409 -1.5143 28.0796
#
#
#
# Elastic Compliance Matrix: (Units=1/GPa)
#
#
# Indices 1 2 3 4 5 6 
#
# 1 0.020395 -0.002844 0.002071 -0.005374 0.009232 -0.013123
# 2 -0.002844 0.006217 -0.001238 0.001647 0.001270 0.005875
# 3 0.002071 -0.001238 0.007155 -0.001564 0.007355 -0.002728
# 4 -0.005374 0.001647 -0.001564 0.028452 -0.001786 0.011239
# 5 0.009232 0.001270 0.007355 -0.001786 0.042954 -0.002949
# 6 -0.013123 0.005875 -0.002728 0.011239 -0.002949 0.048899
#
#
# Mechanical properties :
#
#
# Convention : Reuss Voigt Hill
#
# Bulk Modulus (GPa) = 33.62075 64.95219 49.28647
# Shear Modulus (GPa) = 29.76006 45.41077 37.58542
#
# Velocity S-wave (km/s) = 3.30027 4.07674 3.70888
# Velocity P-wave (km/s) = 5.17950 6.77727 6.03152
#
# Compressibility (1/GPa) = 0.02974354
#
# Stress axis : x y z
#
# Youngs Moduli (GPa) = 49.03257 160.84518 139.75795
#
# Poissons Ratio (x) = 0.45744 -0.28940
# Poissons Ratio (y) = 0.13945 0.17309
# Poissons Ratio (z) = -0.10153 0.19920
#
# Static dielectric constant tensor:
#      x y z
#    x 2.304920 -0.070380 0.043780 
#    y -0.070380 2.255330 0.045400 
#    z 0.043780 0.045400 2.081040 
# 
# From -- ./inp_files/581120.got.cif
#   From: 2010.05.17/outbox.cif.g08.bks.cpg/sg2_291_cif.got.tgz:581120.got - 2010.06.03 11:33:40.
