data_PCOD9101903
_publ_section_title
;
Structure prediction by ZEFSAII (Michael W. Deem and Ramdas Pophale) SiO2 
 PCOD9101903
Probable space group: P -1
;
_chemical_formula_sum "Si O2"
_cell_formula_units_Z 14
_cell_length_a 13.115663
_cell_length_b 5.046267
_cell_length_c 11.653560
_cell_angle_alpha 76.812284
_cell_angle_beta 55.382576
_cell_angle_gamma 98.366741
_cell_volume 580.435308
_symmetry_space_group_name_H-M "P -1"
_symmetry_group_IT_number 2
_symmetry_cell_setting 'triclinic'
loop_
_space_group_symop_operation_xyz
x,y,z
-x,-y,-z
loop_
_atom_site_type_symbol
_atom_site_label
_atom_site_fract_x
_atom_site_fract_y
_atom_site_fract_z
Si Si1 0.243299 0.104979 0.554553
Si Si2 0.280216 0.913042 0.178775
Si Si3 0.687705 0.418048 0.196354
Si Si4 0.458478 0.962395 0.845802
Si Si5 0.403394 0.702825 0.484303
Si Si6 0.141189 0.255496 0.370708
Si Si7 0.862663 0.019775 0.127102
O O1 0.354277 0.362605 0.523333
O O2 0.206593 0.244016 0.452736
O O3 0.135131 0.997293 0.733549
O O4 0.292551 0.846453 0.511062
O O5 0.168157 0.593801 0.295119
O O6 0.404769 0.953158 0.180589
O O7 0.217599 0.148974 0.233599
O O8 0.346305 0.961425 0.007023
O O9 0.594459 0.352715 0.150970
O O10 0.599604 0.268556 0.378862
O O11 0.761724 0.740705 0.157018
O O12 0.802727 0.275607 0.117763
O O13 0.485399 0.161287 0.695191
O O14 0.000000 0.000000 0.500000
O O15 0.000000 0.000000 0.000000
#
# Coordination Sequence:
#
# PCOD9101903 Si02
#       7
#     2   2   2   2   2   2   2
#     4  10  20  38  61  86 122 159 205 252 308 367
#     4  11  27  41  65  97 125 173 203 264 329 351
#     4  10  23  37  64  95 120 164 210 250 315 383
#     4  11  23  43  66  94 138 155 211 268 313 386
#     4  10  20  39  62  90 122 161 194 253 318 368
#     4  12  24  45  65  91 124 171 223 252 304 382
#     4  10  22  40  61  90 125 164 207 257 315 361
#
# _framework density 24.119824999999999
#
# number of rings (size 3 to 8) (size 9 to 14) (size 15 to 20)
#    0.000    1.429    2.857    1.286    0.000    9.143 
#    0.000    4.286    0.000    0.000    0.000    0.000 
#    0.000    0.000    0.000    0.000    0.000    0.000 
#
# Total GULP energy -78217.847204 kJ/mol
# GULP energy per Si atom -5586.989086 kJ/mol
# Density = 2.406493 g / cm^3
# Si number density = 24.119825 Si / 1000 Ang^3
#
#
#
# Elastic Constant Matrix: (Units=GPa)
#
#
# Indices 1 2 3 4 5 6 
#
# 1 43.9574 25.9223 44.1099 10.6200 -2.7055 3.9861
# 2 25.9223 103.3057 10.7918 15.0207 -3.9539 -0.3203
# 3 44.1099 10.7918 141.9608 25.4636 -11.3027 14.5479
# 4 10.6200 15.0207 25.4636 38.5879 3.3342 2.6310
# 5 -2.7055 -3.9539 -11.3027 3.3342 38.6711 10.4357
# 6 3.9861 -0.3203 14.5479 2.6310 10.4357 40.0371
#
#
#
# Elastic Compliance Matrix: (Units=1/GPa)
#
#
# Indices 1 2 3 4 5 6 
#
# 1 0.039677 -0.008853 -0.011985 0.000545 -0.001893 0.000791
# 2 -0.008853 0.012313 0.002765 -0.004328 0.001883 -0.000231
# 3 -0.011985 0.002765 0.012458 -0.006125 0.004731 -0.004142
# 4 0.000545 -0.004328 -0.006125 0.031854 -0.005327 0.001432
# 5 -0.001893 0.001883 0.004731 -0.005327 0.030200 -0.009037
# 6 0.000791 -0.000231 -0.004142 0.001432 -0.009037 0.028663
#
#
# Mechanical properties :
#
#
# Convention : Reuss Voigt Hill
#
# Bulk Modulus (GPa) = 35.33420 50.09688 42.71554
# Shear Modulus (GPa) = 24.90731 37.35257 31.12994
#
# Velocity S-wave (km/s) = 3.21697 3.93953 3.59644
# Velocity P-wave (km/s) = 5.33665 6.44269 5.91557
#
# Compressibility (1/GPa) = 0.02830119
#
# Stress axis : x y z
#
# Youngs Moduli (GPa) = 25.20381 81.21282 80.27192
#
# Poissons Ratio (x) = 0.71899 0.96204
# Poissons Ratio (y) = 0.22313 -0.22193
# Poissons Ratio (z) = 0.30206 -0.22453
#
# Static dielectric constant tensor:
#      x y z
#    x 2.038120 0.070720 0.005890 
#    y 0.070720 2.005480 -0.040140 
#    z 0.005890 -0.040140 1.936020 
# 
# From -- ./inp_files/131788.got.cif
#   From: 2010.05.17/outbox.cif.g08.bks.cpg/sg2_66_cif.got.tgz:131788.got - 2010.06.03 11:33:40.
