data_PCOD9101237
_publ_section_title
;
Structure prediction by ZEFSAII (Michael W. Deem and Ramdas Pophale) SiO2 
 PCOD9101237
Probable space group: P -1
;
_chemical_formula_sum "Si O2"
_cell_formula_units_Z 16
_cell_length_a 30.229962
_cell_length_b 5.197323
_cell_length_c 12.316398
_cell_angle_alpha 88.182556
_cell_angle_beta 24.980646
_cell_angle_gamma 89.475213
_cell_volume 815.920477
_symmetry_space_group_name_H-M "P -1"
_symmetry_group_IT_number 2
_symmetry_cell_setting 'triclinic'
loop_
_space_group_symop_operation_xyz
x,y,z
-x,-y,-z
loop_
_atom_site_type_symbol
_atom_site_label
_atom_site_fract_x
_atom_site_fract_y
_atom_site_fract_z
Si Si1 0.574496 0.144619 0.742837
Si Si2 0.738365 0.251670 0.751019
Si Si3 0.695047 0.678212 0.531326
Si Si4 0.926567 0.745161 0.666012
Si Si5 0.068003 0.973946 0.742000
Si Si6 0.628835 0.750946 0.921971
Si Si7 0.115771 0.390791 0.465600
Si Si8 0.910139 0.670949 0.942189
O O1 0.624813 0.414819 0.671867
O O2 0.658006 0.925023 0.541054
O O3 0.494304 0.214382 0.825493
O O4 0.500000 0.000000 0.000000
O O5 0.659025 0.472268 0.899159
O O6 0.807186 0.355447 0.698957
O O7 0.836689 0.216416 0.449636
O O8 0.672909 0.982597 0.896576
O O9 0.683724 0.765243 0.680216
O O10 0.811702 0.615303 0.238323
O O11 0.862970 0.738855 0.695133
O O12 0.872118 0.737533 0.904877
O O13 0.000000 0.500000 0.500000
O O14 0.000000 0.000000 0.500000
O O15 0.126321 0.222194 0.553154
O O16 0.986040 0.878842 0.832533
O O17 0.000000 0.000000 0.000000
O O18 0.993238 0.451821 0.743026
#
# Coordination Sequence:
#
# PCOD9101237 Si02
#       8
#     2   2   2   2   2   2   2   2
#     4  10  21  38  55  80 111 149 186 235 282 338
#     4  11  22  34  53  80 108 149 192 212 274 332
#     4  11  22  35  57  83 114 143 193 228 285 340
#     4  10  20  38  58  77 108 153 198 236 273 319
#     4  11  22  35  51  83 124 154 184 224 273 337
#     4  11  20  36  55  78 112 149 180 228 279 338
#     4  10  22  38  55  80 120 151 195 229 270 328
#     4  10  23  34  58  84 113 157 186 234 282 328
#
# _framework density 19.609753000000001
#
# number of rings (size 3 to 8) (size 9 to 14) (size 15 to 20)
#    0.000    1.500    2.500    4.500    3.500    1.000 
#    0.000    0.000    0.000    0.000    0.000    5.250 
#    0.000    0.000    0.000    0.000    0.000    0.000 
#
# Total GULP energy -89093.884980 kJ/mol
# GULP energy per Si atom -5568.367811 kJ/mol
# Density = 1.956512 g / cm^3
# Si number density = 19.609753 Si / 1000 Ang^3
#
#
#
# Elastic Constant Matrix: (Units=GPa)
#
#
# Indices 1 2 3 4 5 6 
#
# 1 58.9261 28.7352 6.1074 3.9935 1.6674 9.0575
# 2 28.7352 122.6405 9.3235 -0.1699 -10.8144 8.4405
# 3 6.1074 9.3235 21.7735 3.6200 -12.5617 1.1337
# 4 3.9935 -0.1699 3.6200 23.1488 -0.6653 -11.8149
# 5 1.6674 -10.8144 -12.5617 -0.6653 29.4795 1.2266
# 6 9.0575 8.4405 1.1337 -11.8149 1.2266 34.5382
#
#
#
# Elastic Compliance Matrix: (Units=1/GPa)
#
#
# Indices 1 2 3 4 5 6 
#
# 1 0.021317 -0.004604 -0.005657 -0.006137 -0.005186 -0.006195
# 2 -0.004604 0.009681 -0.000875 0.000560 0.003496 -0.001062
# 3 -0.005657 -0.000875 0.066340 -0.011328 0.028235 -0.005358
# 4 -0.006137 0.000560 -0.011328 0.056861 -0.003883 0.021433
# 5 -0.005186 0.003496 0.028235 -0.003883 0.047584 -0.003439
# 6 -0.006195 -0.001062 -0.005358 0.021433 -0.003439 0.038468
#
#
# Mechanical properties :
#
#
# Convention : Reuss Voigt Hill
#
# Bulk Modulus (GPa) = 13.32150 32.40803 22.86476
# Shear Modulus (GPa) = 17.38857 28.04490 22.71674
#
# Velocity S-wave (km/s) = 2.98103 3.78584 3.40728
# Velocity P-wave (km/s) = 4.31935 5.97264 5.21197
#
# Compressibility (1/GPa) = 0.07506664
#
# Stress axis : x y z
#
# Youngs Moduli (GPa) = 46.91155 103.29150 15.07377
#
# Poissons Ratio (x) = 0.47555 0.08527
# Poissons Ratio (y) = 0.21598 0.01319
# Poissons Ratio (z) = 0.26537 0.09040
#
# Static dielectric constant tensor:
#      x y z
#    x 1.792140 -0.025710 -0.039650 
#    y -0.025710 1.772560 0.014350 
#    z -0.039650 0.014350 1.665220 
# 
# From -- ./inp_files/364782.got.cif
#   From: 2010.05.17/outbox.cif.g08.bks.cpg/sg2_183_cif.got.tgz:364782.got - 2010.06.03 11:33:40.
