data_PCOD9101400
_publ_section_title
;
Structure prediction by ZEFSAII (Michael W. Deem and Ramdas Pophale) SiO2 
 PCOD9101400
Probable space group: P -1
;
_chemical_formula_sum "Si O2"
_cell_formula_units_Z 12
_cell_length_a 12.765659
_cell_length_b 9.500342
_cell_length_c 8.339728
_cell_angle_alpha 46.292524
_cell_angle_beta 124.030824
_cell_angle_gamma 137.723358
_cell_volume 489.403534
_symmetry_space_group_name_H-M "P -1"
_symmetry_group_IT_number 2
_symmetry_cell_setting 'triclinic'
loop_
_space_group_symop_operation_xyz
x,y,z
-x,-y,-z
loop_
_atom_site_type_symbol
_atom_site_label
_atom_site_fract_x
_atom_site_fract_y
_atom_site_fract_z
Si Si1 0.375351 0.115924 0.792148
Si Si2 0.100093 0.556247 0.382383
Si Si3 0.430803 0.872777 0.301196
Si Si4 0.427344 0.597839 0.972783
Si Si5 0.977738 0.247968 0.230424
Si Si6 0.063598 0.210221 0.018625
O O1 0.441752 0.158192 0.635970
O O2 0.194515 0.999558 0.727276
O O3 0.490608 0.341473 0.828496
O O4 0.366585 0.898314 0.052934
O O5 0.284033 0.680068 0.432816
O O6 0.000000 0.500000 0.500000
O O7 0.026328 0.317768 0.401750
O O8 0.070504 0.744402 0.136535
O O9 0.514160 0.135668 0.240452
O O10 0.240071 0.424255 0.950797
O O11 0.500000 0.500000 0.000000
O O12 0.000000 0.500000 0.000000
O O13 0.077783 0.208728 0.224740
O O14 0.000000 0.000000 0.000000
#
# Coordination Sequence:
#
# PCOD9101400 Si02
#       6
#     2   2   2   2   2   2
#     4   9  16  28  51  76 100 129 184 222 257 295
#     4  11  22  35  52  81 115 143 174 218 271 318
#     4   9  16  30  48  72 104 131 173 214 263 298
#     4  10  17  28  49  79 104 128 169 228 263 296
#     4  10  16  32  53  77 101 140 182 218 254 313
#     4  11  20  34  57  83 104 140 185 223 259 318
#
# _framework density 24.519641
#
# number of rings (size 3 to 8) (size 9 to 14) (size 15 to 20)
#    1.000    1.000    3.333    5.000    0.000    0.000 
#    0.000    4.167    0.000    0.000    0.000    7.000 
#    0.000    0.000    0.000    0.000    0.000    0.000 
#
# Total GULP energy -66823.690093 kJ/mol
# GULP energy per Si atom -5568.640841 kJ/mol
# Density = 2.446383 g / cm^3
# Si number density = 24.519641 Si / 1000 Ang^3
#
#
#
# Elastic Constant Matrix: (Units=GPa)
#
#
# Indices 1 2 3 4 5 6 
#
# 1 154.0538 69.3733 35.6041 -1.3877 -63.2799 -0.8768
# 2 69.3733 175.7324 22.5904 13.4369 -32.7498 -4.9202
# 3 35.6041 22.5904 51.0398 -0.9646 -22.0355 -4.9777
# 4 -1.3877 13.4369 -0.9646 21.0367 -7.2257 -11.3414
# 5 -63.2799 -32.7498 -22.0355 -7.2257 46.4139 -1.3488
# 6 -0.8768 -4.9202 -4.9777 -11.3414 -1.3488 66.4998
#
#
#
# Elastic Compliance Matrix: (Units=1/GPa)
#
#
# Indices 1 2 3 4 5 6 
#
# 1 0.018429 -0.003614 -0.000050 0.013517 0.024737 0.002779
# 2 -0.003614 0.007506 -0.001534 -0.005892 -0.001296 -0.000638
# 3 -0.000050 -0.001534 0.026330 0.008494 0.012777 0.003565
# 4 0.013517 -0.005892 0.008494 0.069651 0.029521 0.012856
# 5 0.024737 -0.001296 0.012777 0.029521 0.065238 0.007545
# 6 0.002779 -0.000638 0.003565 0.012856 0.007545 0.017639
#
#
# Mechanical properties :
#
#
# Convention : Reuss Voigt Hill
#
# Bulk Modulus (GPa) = 23.88397 70.66242 47.27320
# Shear Modulus (GPa) = 21.82020 43.67395 32.74708
#
# Velocity S-wave (km/s) = 2.98637 4.22498 3.65848
# Velocity P-wave (km/s) = 4.65329 7.25823 6.09652
#
# Compressibility (1/GPa) = 0.04186909
#
# Stress axis : x y z
#
# Youngs Moduli (GPa) = 54.26225 133.23269 37.97911
#
# Poissons Ratio (x) = 0.48157 0.00189
# Poissons Ratio (y) = 0.19613 0.05825
# Poissons Ratio (z) = 0.00270 0.20435
#
# Static dielectric constant tensor:
#      x y z
#    x 1.894340 -0.023280 0.007710 
#    y -0.023280 1.915580 0.081140 
#    z 0.007710 0.081140 2.415990 
# 
# From -- ./inp_files/147085.got.cif
#   From: 2010.05.17/outbox.cif.g08.bks.cpg/sg2_74_cif.got.tgz:147085.got - 2010.06.03 11:33:40.
