data_PCOD9101331
_publ_section_title
;
Structure prediction by ZEFSAII (Michael W. Deem and Ramdas Pophale) SiO2 
 PCOD9101331
Probable space group: P -1
;
_chemical_formula_sum "Si O2"
_cell_formula_units_Z 15
_cell_length_a 10.910646
_cell_length_b 4.984694
_cell_length_c 11.832604
_cell_angle_alpha 82.590995
_cell_angle_beta 111.346665
_cell_angle_gamma 85.260651
_cell_volume 588.500036
_symmetry_space_group_name_H-M "P -1"
_symmetry_group_IT_number 2
_symmetry_cell_setting 'triclinic'
loop_
_space_group_symop_operation_xyz
x,y,z
-x,-y,-z
loop_
_atom_site_type_symbol
_atom_site_label
_atom_site_fract_x
_atom_site_fract_y
_atom_site_fract_z
Si Si1 0.000000 0.000000 0.500000
Si Si2 0.665457 0.646286 0.045272
Si Si3 0.781433 0.842928 0.282346
Si Si4 0.736670 0.971970 0.568414
Si Si5 0.152712 0.786659 0.998874
Si Si6 0.865145 0.761598 0.851100
Si Si7 0.633413 0.542873 0.420356
Si Si8 0.463963 0.674436 0.802786
O O1 0.078370 0.086127 0.634584
O O2 0.869522 0.936691 0.536676
O O3 0.771409 0.775965 0.150221
O O4 0.566661 0.574141 0.114545
O O5 0.731578 0.358273 0.032602
O O6 0.580201 0.787750 0.905109
O O7 0.745426 0.586450 0.359470
O O8 0.662525 0.089306 0.255435
O O9 0.684560 0.291058 0.530494
O O10 0.774305 0.858505 0.710216
O O11 0.628278 0.810788 0.479361
O O12 0.138461 0.552543 0.101509
O O13 0.169828 0.055982 0.058568
O O14 0.017184 0.808812 0.881216
O O15 0.515996 0.456662 0.307775
#
# Coordination Sequence:
#
# PCOD9101331 Si02
#       8
#     1   2   2   2   2   2   2   2
#     4  10  22  34  60  96 124 160 200 248 322 384
#     4  10  23  36  68  89 130 166 217 253 317 367
#     4  10  21  37  58  95 134 163 203 252 318 385
#     4  11  22  37  62  91 123 166 194 260 314 386
#     4  10  23  43  61  93 118 168 212 263 302 369
#     4  10  23  41  64  87 128 158 213 257 315 362
#     4  10  20  38  58  88 124 158 202 244 320 370
#     4  10  20  41  58 100 125 169 203 267 305 384
#
# _framework density 25.488526
#
# number of rings (size 3 to 8) (size 9 to 14) (size 15 to 20)
#    0.000    1.867    2.667    1.200    3.733    5.333 
#    0.000    0.000    0.000    4.800    0.000    0.000 
#    0.000    0.000    0.000    0.000    0.000    0.000 
#
# Total GULP energy -83632.504330 kJ/mol
# GULP energy per Si atom -5575.500289 kJ/mol
# Density = 2.543051 g / cm^3
# Si number density = 25.488526 Si / 1000 Ang^3
#
#
#
# Elastic Constant Matrix: (Units=GPa)
#
#
# Indices 1 2 3 4 5 6 
#
# 1 63.0522 4.4219 20.1263 8.1610 9.0771 5.0570
# 2 4.4219 77.5976 21.2912 -0.5626 1.3320 -3.9806
# 3 20.1263 21.2912 169.6799 6.1673 14.4717 14.4057
# 4 8.1610 -0.5626 6.1673 29.8155 3.2148 -7.6855
# 5 9.0771 1.3320 14.4717 3.2148 32.4816 5.6800
# 6 5.0570 -3.9806 14.4057 -7.6855 5.6800 24.0762
#
#
#
# Elastic Compliance Matrix: (Units=1/GPa)
#
#
# Indices 1 2 3 4 5 6 
#
# 1 0.017780 -0.000886 -0.001182 -0.005367 -0.003150 -0.004144
# 2 -0.000886 0.013748 -0.002041 0.002113 -0.000394 0.004447
# 3 -0.001182 -0.002041 0.006890 -0.002120 -0.001659 -0.004497
# 4 -0.005367 0.002113 -0.002120 0.040275 -0.004544 0.016674
# 5 -0.003150 -0.000394 -0.001659 -0.004544 0.034261 -0.007944
# 6 -0.004144 0.004447 -0.004497 0.016674 -0.007944 0.053028
#
#
# Mechanical properties :
#
#
# Convention : Reuss Voigt Hill
#
# Bulk Modulus (GPa) = 33.11321 44.66759 38.89040
# Shear Modulus (GPa) = 27.13458 34.90736 31.02097
#
# Velocity S-wave (km/s) = 3.26633 3.70473 3.49242
# Velocity P-wave (km/s) = 5.21966 5.98855 5.61727
#
# Compressibility (1/GPa) = 0.03019943
#
# Stress axis : x y z
#
# Youngs Moduli (GPa) = 56.24322 72.73971 145.13489
#
# Poissons Ratio (x) = 0.06446 0.17158
# Poissons Ratio (y) = 0.04984 0.29618
# Poissons Ratio (z) = 0.06649 0.14844
#
# Static dielectric constant tensor:
#      x y z
#    x 2.091330 0.050350 -0.015760 
#    y 0.050350 2.006880 -0.010970 
#    z -0.015760 -0.010970 2.027280 
# 
# From -- ./inp_files/409371.got.cif
#   From: 2010.05.17/outbox.cif.g08.bks.cpg/sg2_205_cif.got.tgz:409371.got - 2010.06.03 11:33:40.
