data_PCOD9101893
_publ_section_title
;
Structure prediction by ZEFSAII (Michael W. Deem and Ramdas Pophale) SiO2 
 PCOD9101893
Probable space group: P -1
;
_chemical_formula_sum "Si O2"
_cell_formula_units_Z 16
_cell_length_a 11.332314
_cell_length_b 17.049615
_cell_length_c 12.553103
_cell_angle_alpha 25.802743
_cell_angle_beta 134.077946
_cell_angle_gamma 120.727370
_cell_volume 704.955297
_symmetry_space_group_name_H-M "P -1"
_symmetry_group_IT_number 2
_symmetry_cell_setting 'triclinic'
loop_
_space_group_symop_operation_xyz
x,y,z
-x,-y,-z
loop_
_atom_site_type_symbol
_atom_site_label
_atom_site_fract_x
_atom_site_fract_y
_atom_site_fract_z
Si Si1 0.662012 0.857896 0.706635
Si Si2 0.667562 0.498871 0.257993
Si Si3 0.037804 0.575171 0.293111
Si Si4 0.529017 0.992447 0.795410
Si Si5 0.196820 0.900980 0.286334
Si Si6 0.916518 0.335934 0.351820
Si Si7 0.616627 0.594417 0.695948
Si Si8 0.263407 0.372828 0.500668
O O1 0.633788 0.945780 0.464026
O O2 0.500000 0.000000 0.500000
O O3 0.619272 0.663738 0.936832
O O4 0.872368 0.775136 0.965022
O O5 0.834147 0.489095 0.447189
O O6 0.703118 0.296208 0.472606
O O7 0.509038 0.521396 0.211506
O O8 0.165460 0.554741 0.295508
O O9 0.951189 0.424111 0.379249
O O10 0.693369 0.972147 0.842428
O O11 0.483145 0.176793 0.619932
O O12 0.583558 0.793561 0.136363
O O13 0.167525 0.824318 0.478558
O O14 0.000000 0.000000 0.000000
O O15 0.113410 0.277832 0.499262
O O16 0.784208 0.502870 0.991603
O O17 0.673985 0.571018 0.638661
#
# Coordination Sequence:
#
# PCOD9101893 Si02
#       8
#     2   2   2   2   2   2   2   2
#     4  12  24  37  64  89 123 154 197 252 302 363
#     4  11  23  39  60  90 124 158 197 242 306 357
#     4  10  22  40  59  85 117 162 201 237 296 366
#     4  11  21  37  57  96 120 155 198 250 300 354
#     4  11  20  34  60  88 122 150 190 248 299 356
#     4  10  20  38  61  86 118 156 203 240 301 349
#     4  11  22  39  61  90 122 157 205 252 287 346
#     4  10  21  38  65  83 121 165 204 241 295 352
#
# _framework density 22.696476000000001
#
# number of rings (size 3 to 8) (size 9 to 14) (size 15 to 20)
#    0.750    0.500    3.750    2.625    1.750    2.500 
#    0.000    0.000    0.000    1.500    0.000    0.000 
#    0.000    0.000    0.000    0.000    0.000    0.000 
#
# Total GULP energy -89175.248197 kJ/mol
# GULP energy per Si atom -5573.453012 kJ/mol
# Density = 2.264482 g / cm^3
# Si number density = 22.696476 Si / 1000 Ang^3
#
#
#
# Elastic Constant Matrix: (Units=GPa)
#
#
# Indices 1 2 3 4 5 6 
#
# 1 94.1288 4.2981 35.2991 12.7965 -12.4218 -21.6203
# 2 4.2981 50.6209 31.1503 14.0346 0.6096 -7.4955
# 3 35.2991 31.1503 141.0546 16.4511 2.8562 -10.7679
# 4 12.7965 14.0346 16.4511 40.1439 -3.6474 7.8244
# 5 -12.4218 0.6096 2.8562 -3.6474 34.8021 1.2429
# 6 -21.6203 -7.4955 -10.7679 7.8244 1.2429 22.8741
#
#
#
# Elastic Compliance Matrix: (Units=1/GPa)
#
#
# Indices 1 2 3 4 5 6 
#
# 1 0.018602 0.006528 -0.003318 -0.010600 0.004918 0.021519
# 2 0.006528 0.028675 -0.005037 -0.013493 0.000191 0.017800
# 3 -0.003318 -0.005037 0.009209 -0.001144 -0.001973 0.000047
# 4 -0.010600 -0.013493 -0.001144 0.039176 0.001670 -0.028470
# 5 0.004918 0.000191 -0.001973 0.001670 0.030768 0.001539
# 6 0.021519 0.017800 0.000047 -0.028470 0.001539 0.079566
#
#
# Mechanical properties :
#
#
# Convention : Reuss Voigt Hill
#
# Bulk Modulus (GPa) = 18.92793 47.47769 33.20281
# Shear Modulus (GPa) = 22.00111 33.90115 27.95113
#
# Velocity S-wave (km/s) = 3.11684 3.86900 3.51311
# Velocity P-wave (km/s) = 4.61634 6.39710 5.57824
#
# Compressibility (1/GPa) = 0.05283198
#
# Stress axis : x y z
#
# Youngs Moduli (GPa) = 53.75665 34.87396 108.58853
#
# Poissons Ratio (x) = -0.22765 0.36024
# Poissons Ratio (y) = -0.35091 0.54700
# Poissons Ratio (z) = 0.17834 0.17567
#
# Static dielectric constant tensor:
#      x y z
#    x 2.158520 0.016410 0.022060 
#    y 0.016410 1.969060 0.008450 
#    z 0.022060 0.008450 1.837900 
# 
# From -- ./inp_files/436420.got.cif
#   From: 2010.05.17/outbox.cif.g08.bks.cpg/sg2_219_cif.got.tgz:436420.got - 2010.06.03 11:33:40.
