data_PCOD9101986
_publ_section_title
;
Structure prediction by ZEFSAII (Michael W. Deem and Ramdas Pophale) SiO2 
 PCOD9101986
Probable space group: P -1
;
_chemical_formula_sum "Si O2"
_cell_formula_units_Z 16
_cell_length_a 12.309909
_cell_length_b 8.445068
_cell_length_c 8.683384
_cell_angle_alpha 59.347581
_cell_angle_beta 97.493478
_cell_angle_gamma 111.622973
_cell_volume 720.063180
_symmetry_space_group_name_H-M "P -1"
_symmetry_group_IT_number 2
_symmetry_cell_setting 'triclinic'
loop_
_space_group_symop_operation_xyz
x,y,z
-x,-y,-z
loop_
_atom_site_type_symbol
_atom_site_label
_atom_site_fract_x
_atom_site_fract_y
_atom_site_fract_z
Si Si1 0.695216 0.533332 0.033887
Si Si2 0.094336 0.622190 0.831768
Si Si3 0.686873 0.896531 0.461651
Si Si4 0.897023 0.942620 0.296596
Si Si5 0.886814 0.188631 0.556731
Si Si6 0.188959 0.031665 0.056326
Si Si7 0.506073 0.509846 0.754479
Si Si8 0.410454 0.079606 0.864031
O O1 0.790038 0.429626 0.093378
O O2 0.614248 0.488784 0.193053
O O3 0.768873 0.769009 0.932898
O O4 0.596980 0.477206 0.911463
O O5 0.077497 0.618035 0.642732
O O6 0.099004 0.841117 0.764323
O O7 0.000000 0.500000 0.000000
O O8 0.776125 0.815209 0.422828
O O9 0.580563 0.719433 0.597220
O O10 0.634146 0.001992 0.271726
O O11 0.765185 0.044564 0.529859
O O12 0.006768 0.892950 0.398821
O O13 0.889948 0.935797 0.113662
O O14 0.861903 0.159590 0.749748
O O15 0.301462 0.028773 0.984818
O O16 0.467681 0.315752 0.739698
O O17 0.500000 0.000000 0.000000
#
# Coordination Sequence:
#
# PCOD9101986 Si02
#       8
#     2   2   2   2   2   2   2   2
#     4  10  22  39  62  93 124 162 206 253 308 366
#     4  11  24  39  63  94 124 157 210 263 308 364
#     4  10  20  38  61  90 119 161 209 246 308 368
#     4  10  23  41  65  92 124 164 207 256 311 367
#     4  11  22  40  64  90 122 168 205 251 316 374
#     4  10  21  43  62  88 124 166 202 251 313 369
#     4  10  21  38  64  86 126 169 202 249 310 367
#     4  10  23  38  60  94 125 157 204 262 306 358
#
# _framework density 22.220272000000001
#
# number of rings (size 3 to 8) (size 9 to 14) (size 15 to 20)
#    0.000    1.750    1.250    3.000    7.000    1.000 
#    0.000    5.625    0.000    0.000    0.000    0.000 
#    0.000    0.000    0.000    0.000    0.000    0.000 
#
# Total GULP energy -89241.863404 kJ/mol
# GULP energy per Si atom -5577.616463 kJ/mol
# Density = 2.216970 g / cm^3
# Si number density = 22.220272 Si / 1000 Ang^3
#
#
#
# Elastic Constant Matrix: (Units=GPa)
#
#
# Indices 1 2 3 4 5 6 
#
# 1 116.6443 2.9084 50.6314 -19.6309 21.7517 -5.0595
# 2 2.9084 26.4389 9.2906 -0.4853 3.4593 11.3103
# 3 50.6314 9.2906 110.9184 -6.3611 -1.2005 8.2255
# 4 -19.6309 -0.4853 -6.3611 29.2138 13.9036 3.2588
# 5 21.7517 3.4593 -1.2005 13.9036 49.3658 -5.0934
# 6 -5.0595 11.3103 8.2255 3.2588 -5.0934 17.1099
#
#
#
# Elastic Compliance Matrix: (Units=1/GPa)
#
#
# Indices 1 2 3 4 5 6 
#
# 1 0.016198 0.002331 -0.006876 0.014945 -0.011652 0.000239
# 2 0.002331 0.059148 -0.002133 0.013436 -0.013545 -0.043976
# 3 -0.006876 -0.002133 0.012552 -0.003229 0.003890 -0.004885
# 4 0.014945 0.013436 -0.003229 0.058831 -0.026443 -0.021987
# 5 -0.011652 -0.013545 0.003890 -0.026443 0.035880 0.019356
# 6 0.000239 -0.043976 -0.004885 -0.021987 0.019356 0.099884
#
#
# Mechanical properties :
#
#
# Convention : Reuss Voigt Hill
#
# Bulk Modulus (GPa) = 13.41538 42.18471 27.80004
# Shear Modulus (GPa) = 15.59106 31.88263 23.73684
#
# Velocity S-wave (km/s) = 2.65176 3.79204 3.27196
# Velocity P-wave (km/s) = 3.92764 6.18052 5.17808
#
# Compressibility (1/GPa) = 0.07454131
#
# Stress axis : x y z
#
# Youngs Moduli (GPa) = 61.73545 16.90688 79.66746
#
# Poissons Ratio (x) = -0.03941 0.54780
# Poissons Ratio (y) = -0.14390 0.16994
# Poissons Ratio (z) = 0.42450 0.03606
#
# Static dielectric constant tensor:
#      x y z
#    x 1.822370 0.034130 -0.051630 
#    y 0.034130 1.874920 0.033410 
#    z -0.051630 0.033410 1.889910 
# 
# From -- ./inp_files/187081.got.cif
#   From: 2010.05.17/outbox.cif.g08.bks.cpg/sg2_94_cif.got.tgz:187081.got - 2010.06.03 11:33:40.
