data_PCOD9101485
_publ_section_title
;
Structure prediction by ZEFSAII (Michael W. Deem and Ramdas Pophale) SiO2 
 PCOD9101485
Probable space group: P -1
;
_chemical_formula_sum "Si O2"
_cell_formula_units_Z 16
_cell_length_a 12.389046
_cell_length_b 9.245932
_cell_length_c 10.644437
_cell_angle_alpha 66.439485
_cell_angle_beta 133.568646
_cell_angle_gamma 89.957243
_cell_volume 736.427762
_symmetry_space_group_name_H-M "P -1"
_symmetry_group_IT_number 2
_symmetry_cell_setting 'triclinic'
loop_
_space_group_symop_operation_xyz
x,y,z
-x,-y,-z
loop_
_atom_site_type_symbol
_atom_site_label
_atom_site_fract_x
_atom_site_fract_y
_atom_site_fract_z
Si Si1 0.238851 0.499735 0.019432
Si Si2 0.911645 0.871578 0.958770
Si Si3 0.473052 0.737911 0.840212
Si Si4 0.210338 0.271507 0.290690
Si Si5 0.453316 0.953322 0.277447
Si Si6 0.696369 0.470864 0.313921
Si Si7 0.535144 0.392786 0.695699
Si Si8 0.939268 0.506058 0.665148
O O1 0.103133 0.542535 0.787648
O O2 0.402094 0.354464 0.141500
O O3 0.173838 0.424937 0.108650
O O4 0.301017 0.628693 0.091341
O O5 0.889228 0.832646 0.807846
O O6 0.728121 0.949162 0.844464
O O7 0.010375 0.687739 0.170929
O O8 0.000000 0.000000 0.000000
O O9 0.313008 0.699993 0.697100
O O10 0.474287 0.925401 0.777601
O O11 0.565558 0.627834 0.073469
O O12 0.402609 0.149794 0.473122
O O13 0.171674 0.351459 0.370681
O O14 0.451365 0.798304 0.245951
O O15 0.616714 0.491413 0.380369
O O16 0.855462 0.502226 0.466740
O O17 0.500000 0.500000 0.500000
#
# Coordination Sequence:
#
# PCOD9101485 Si02
#       8
#     2   2   2   2   2   2   2   2
#     4  10  20  38  59  88 127 160 208 247 313 377
#     4  11  26  35  58  96 134 156 200 260 321 365
#     4  10  23  42  63  90 122 166 217 260 298 373
#     4  11  22  38  61  90 126 167 201 251 315 370
#     4  12  23  39  63  94 124 167 201 269 304 360
#     4  10  23  43  65  87 122 171 215 249 310 381
#     4  11  22  37  64  93 123 168 204 248 317 380
#     4  11  22  41  59  91 122 171 199 258 312 376
#
# _framework density 21.726505
#
# number of rings (size 3 to 8) (size 9 to 14) (size 15 to 20)
#    0.000    1.250    5.000    1.875    7.000    1.000 
#    0.000    0.000    0.000    0.750    0.000    0.000 
#    0.000    0.000    0.000    0.000    0.000    0.000 
#
# Total GULP energy -89195.469204 kJ/mol
# GULP energy per Si atom -5574.716825 kJ/mol
# Density = 2.167705 g / cm^3
# Si number density = 21.726505 Si / 1000 Ang^3
#
#
#
# Elastic Constant Matrix: (Units=GPa)
#
#
# Indices 1 2 3 4 5 6 
#
# 1 40.7438 15.3450 14.5115 3.1228 8.4973 9.6643
# 2 15.3450 179.1253 66.3359 42.2355 8.2239 31.3032
# 3 14.5115 66.3359 96.9827 35.6434 13.3559 7.6334
# 4 3.1228 42.2355 35.6434 47.3788 3.5356 19.0092
# 5 8.4973 8.2239 13.3559 3.5356 32.3013 3.0414
# 6 9.6643 31.3032 7.6334 19.0092 3.0414 24.2192
#
#
#
# Elastic Compliance Matrix: (Units=1/GPa)
#
#
# Indices 1 2 3 4 5 6 
#
# 1 0.031447 0.001053 -0.007038 0.010355 -0.004957 -0.019196
# 2 0.001053 0.009593 -0.006114 0.000480 0.000827 -0.011373
# 3 -0.007038 -0.006114 0.020952 -0.016599 -0.005112 0.017778
# 4 0.010355 0.000480 -0.016599 0.047052 0.002326 -0.036743
# 5 -0.004957 0.000827 -0.005112 0.002326 0.034251 -0.003607
# 6 -0.019196 -0.011373 0.017778 -0.036743 -0.003607 0.087338
#
#
# Mechanical properties :
#
#
# Convention : Reuss Voigt Hill
#
# Bulk Modulus (GPa) = 26.45971 56.58183 41.52077
# Shear Modulus (GPa) = 18.69658 35.49048 27.09353
#
# Velocity S-wave (km/s) = 2.93668 4.04606 3.53516
# Velocity P-wave (km/s) = 4.86865 6.92291 5.98459
#
# Compressibility (1/GPa) = 0.03779330
#
# Stress axis : x y z
#
# Youngs Moduli (GPa) = 31.79945 104.24101 47.72892
#
# Poissons Ratio (x) = -0.10977 0.33591
# Poissons Ratio (y) = -0.03349 0.29184
# Poissons Ratio (z) = 0.22380 0.63738
#
# Static dielectric constant tensor:
#      x y z
#    x 1.853810 0.037810 0.053650 
#    y 0.037810 1.866930 0.063420 
#    z 0.053650 0.063420 1.877410 
# 
# From -- ./inp_files/447235.got.cif
#   From: 2010.05.17/outbox.cif.g08.bks.cpg/sg2_224_cif.got.tgz:447235.got - 2010.06.03 11:33:40.
