data_PCOD9101996
_publ_section_title
;
Structure prediction by ZEFSAII (Michael W. Deem and Ramdas Pophale) SiO2 
 PCOD9101996
Probable space group: P -1
;
_chemical_formula_sum "Si O2"
_cell_formula_units_Z 14
_cell_length_a 6.791020
_cell_length_b 9.037378
_cell_length_c 11.294963
_cell_angle_alpha 86.802280
_cell_angle_beta 57.920943
_cell_angle_gamma 71.386702
_cell_volume 551.030693
_symmetry_space_group_name_H-M "P -1"
_symmetry_group_IT_number 2
_symmetry_cell_setting 'triclinic'
loop_
_space_group_symop_operation_xyz
x,y,z
-x,-y,-z
loop_
_atom_site_type_symbol
_atom_site_label
_atom_site_fract_x
_atom_site_fract_y
_atom_site_fract_z
Si Si1 0.688199 0.658027 0.146169
Si Si2 0.327247 0.169238 0.092083
Si Si3 0.090012 0.403891 0.669304
Si Si4 0.431582 0.139147 0.416098
Si Si5 0.517336 0.575686 0.863823
Si Si6 0.724238 0.106702 0.617071
Si Si7 0.792238 0.283728 0.360401
O O1 0.838409 0.668063 0.217063
O O2 0.670162 0.484254 0.148872
O O3 0.401671 0.775478 0.243502
O O4 0.773657 0.716702 0.996071
O O5 0.492943 0.249538 0.109611
O O6 0.074421 0.183326 0.241067
O O7 0.500000 0.000000 0.000000
O O8 0.192506 0.272754 0.541009
O O9 0.211850 0.540803 0.622457
O O10 0.800932 0.491058 0.736424
O O11 0.619426 0.231002 0.326782
O O12 0.500000 0.000000 0.500000
O O13 0.403179 0.026707 0.326998
O O14 0.500000 0.500000 0.000000
O O15 0.682625 0.228872 0.515497
O O16 0.000000 0.000000 0.500000
#
# Coordination Sequence:
#
# PCOD9101996 Si02
#       7
#     2   2   2   2   2   2   2
#     4  11  22  41  66  91 120 171 210 246 314 378
#     4  10  22  43  62  90 129 160 204 263 314 362
#     4  11  21  41  66  91 129 160 214 258 304 378
#     4  10  20  38  61  90 125 162 196 257 320 350
#     4   9  22  40  63  89 124 167 201 255 317 362
#     4  11  22  40  64  91 126 164 211 253 310 379
#     4  10  22  40  63  89 126 163 199 264 312 358
#
# _framework density 25.406931
#
# number of rings (size 3 to 8) (size 9 to 14) (size 15 to 20)
#    0.000    1.714    2.857    2.143    0.000    8.571 
#    7.714    4.286    0.000    0.000    0.000    0.000 
#    0.000    0.000    0.000    0.000    0.000    0.000 
#
# Total GULP energy -78142.235599 kJ/mol
# GULP energy per Si atom -5581.588257 kJ/mol
# Density = 2.534910 g / cm^3
# Si number density = 25.406931 Si / 1000 Ang^3
#
#
#
# Elastic Constant Matrix: (Units=GPa)
#
#
# Indices 1 2 3 4 5 6 
#
# 1 40.7033 24.7006 10.2013 8.2766 1.6134 3.7705
# 2 24.7006 174.6280 40.6636 19.6965 -13.1355 20.5666
# 3 10.2013 40.6636 89.9465 1.3189 -9.6516 4.4301
# 4 8.2766 19.6965 1.3189 58.9940 -5.9592 -4.1094
# 5 1.6134 -13.1355 -9.6516 -5.9592 36.7520 3.7311
# 6 3.7705 20.5666 4.4301 -4.1094 3.7311 37.8421
#
#
#
# Elastic Compliance Matrix: (Units=1/GPa)
#
#
# Indices 1 2 3 4 5 6 
#
# 1 0.027905 -0.003297 -0.001949 -0.003163 -0.003350 -0.000773
# 2 -0.003297 0.007681 -0.002628 -0.002092 0.002266 -0.003989
# 3 -0.001949 -0.002628 0.012800 0.001136 0.002694 -0.000018
# 4 -0.003163 -0.002092 0.001136 0.018524 0.002379 0.003096
# 5 -0.003350 0.002266 0.002694 0.002379 0.029653 -0.003878
# 6 -0.000773 -0.003989 -0.000018 0.003096 -0.003878 0.029391
#
#
# Mechanical properties :
#
#
# Convention : Reuss Voigt Hill
#
# Bulk Modulus (GPa) = 30.64025 50.71210 40.67618
# Shear Modulus (GPa) = 32.76907 42.03176 37.40041
#
# Velocity S-wave (km/s) = 3.59523 4.07177 3.84090
# Velocity P-wave (km/s) = 5.41482 6.48915 5.97617
#
# Compressibility (1/GPa) = 0.03263680
#
# Stress axis : x y z
#
# Youngs Moduli (GPa) = 35.83575 130.19051 78.12334
#
# Poissons Ratio (x) = 0.42929 0.15227
# Poissons Ratio (y) = 0.11816 0.20533
# Poissons Ratio (z) = 0.06985 0.34218
#
# Static dielectric constant tensor:
#      x y z
#    x 2.266380 -0.049890 0.146340 
#    y -0.049890 1.989730 0.004830 
#    z 0.146340 0.004830 2.094360 
# 
# From -- ./inp_files/171528.got.cif
#   From: 2010.05.17/outbox.cif.g08.bks.cpg/sg2_86_cif.got.tgz:171528.got - 2010.06.03 11:33:40.
