data_PCOD9101795
_publ_section_title
;
Structure prediction by ZEFSAII (Michael W. Deem and Ramdas Pophale) SiO2 
 PCOD9101795
Probable space group: P -1
;
_chemical_formula_sum "Si O2"
_cell_formula_units_Z 16
_cell_length_a 10.086240
_cell_length_b 13.844179
_cell_length_c 13.119259
_cell_angle_alpha 45.438617
_cell_angle_beta 99.741489
_cell_angle_gamma 64.937443
_cell_volume 817.199612
_symmetry_space_group_name_H-M "P -1"
_symmetry_group_IT_number 2
_symmetry_cell_setting 'triclinic'
loop_
_space_group_symop_operation_xyz
x,y,z
-x,-y,-z
loop_
_atom_site_type_symbol
_atom_site_label
_atom_site_fract_x
_atom_site_fract_y
_atom_site_fract_z
Si Si1 0.289535 0.064420 0.049398
Si Si2 0.569945 0.601017 0.434752
Si Si3 0.384378 0.420108 0.776753
Si Si4 0.066591 0.279199 0.434386
Si Si5 0.784307 0.128066 0.318653
Si Si6 0.687621 0.936785 0.181954
Si Si7 0.837869 0.490480 0.748763
Si Si8 0.594813 0.489282 0.869520
O O1 0.083738 0.260033 0.940135
O O2 0.253375 0.131436 0.876899
O O3 0.502246 0.981401 0.162748
O O4 0.357026 0.856765 0.222658
O O5 0.500000 0.500000 0.500000
O O6 0.665363 0.553156 0.369782
O O7 0.719675 0.531520 0.598949
O O8 0.462682 0.506956 0.755264
O O9 0.188194 0.532625 0.740495
O O10 0.581147 0.166461 0.006510
O O11 0.159710 0.348775 0.356161
O O12 0.177472 0.057909 0.569834
O O13 0.117161 0.236310 0.592434
O O14 0.578206 0.307376 0.229953
O O15 0.735449 0.271330 0.113566
O O16 0.000000 0.000000 0.500000
O O17 0.733033 0.492440 0.826847
#
# Coordination Sequence:
#
# PCOD9101795 Si02
#       8
#     2   2   2   2   2   2   2   2
#     4  10  22  37  60  91 138 173 213 253 308 374
#     4  11  23  38  60  96 140 171 209 252 310 387
#     4  11  21  39  66  96 128 175 214 255 312 389
#     4  12  23  39  71  95 124 171 221 264 321 380
#     4  11  25  47  71  93 118 170 226 271 325 390
#     4  10  20  38  60  94 129 175 216 258 295 380
#     4  12  25  41  64 103 135 169 207 267 325 378
#     4  11  25  45  68  94 131 162 216 276 329 379
#
# _framework density 19.579059999999998
#
# number of rings (size 3 to 8) (size 9 to 14) (size 15 to 20)
#    0.000    1.000    6.250    0.750    0.000    4.000 
#    0.000    0.625    0.000    0.000    0.000    0.000 
#    0.000    0.000    0.000    0.000    0.000    0.000 
#
# Total GULP energy -89303.283939 kJ/mol
# GULP energy per Si atom -5581.455246 kJ/mol
# Density = 1.953450 g / cm^3
# Si number density = 19.579060 Si / 1000 Ang^3
#
#
#
# Elastic Constant Matrix: (Units=GPa)
#
#
# Indices 1 2 3 4 5 6 
#
# 1 135.3968 50.6484 47.7544 -17.5518 -20.9794 -3.7157
# 2 50.6484 73.0336 40.1703 -11.4509 -11.2369 -6.1613
# 3 47.7544 40.1703 73.5486 -6.4628 -7.9154 -5.9333
# 4 -17.5518 -11.4509 -6.4628 23.5685 7.0395 -0.2685
# 5 -20.9794 -11.2369 -7.9154 7.0395 29.0197 -3.3518
# 6 -3.7157 -6.1613 -5.9333 -0.2685 -3.3518 33.3665
#
#
#
# Elastic Compliance Matrix: (Units=1/GPa)
#
#
# Indices 1 2 3 4 5 6 
#
# 1 0.011853 -0.004419 -0.004401 0.004073 0.004695 0.000226
# 2 -0.004419 0.022899 -0.008763 0.004738 0.002417 0.002459
# 3 -0.004401 -0.008763 0.021205 -0.001640 -0.000205 0.001629
# 4 0.004073 0.004738 -0.001640 0.049599 -0.007622 0.000670
# 5 0.004695 0.002417 -0.000205 -0.007622 0.041161 0.005006
# 6 0.000226 0.002459 0.001629 0.000670 0.005006 0.031247
#
#
# Mechanical properties :
#
#
# Convention : Reuss Voigt Hill
#
# Bulk Modulus (GPa) = 48.09689 62.12503 55.11096
# Shear Modulus (GPa) = 22.72114 26.75132 24.73623
#
# Velocity S-wave (km/s) = 3.41028 3.70039 3.55829
# Velocity P-wave (km/s) = 6.33447 7.07506 6.71498
#
# Compressibility (1/GPa) = 0.02079137
#
# Stress axis : x y z
#
# Youngs Moduli (GPa) = 84.36928 43.67060 47.15874
#
# Poissons Ratio (x) = 0.19299 0.20754
# Poissons Ratio (y) = 0.37284 0.41323
# Poissons Ratio (z) = 0.37129 0.38267
#
# Static dielectric constant tensor:
#      x y z
#    x 1.700790 0.032030 -0.011030 
#    y 0.032030 1.698000 0.018230 
#    z -0.011030 0.018230 1.696670 
# 
# From -- ./inp_files/112500.got.cif
#   From: 2010.05.17/outbox.cif.g08.bks.cpg/sg2_57_cif.got.tgz:112500.got - 2010.06.03 11:33:40.
