data_PCOD9101674
_publ_section_title
;
Structure prediction by ZEFSAII (Michael W. Deem and Ramdas Pophale) SiO2 
 PCOD9101674
Probable space group: P -1
;
_chemical_formula_sum "Si O2"
_cell_formula_units_Z 14
_cell_length_a 7.878328
_cell_length_b 7.138840
_cell_length_c 14.700255
_cell_angle_alpha 83.380188
_cell_angle_beta 65.493264
_cell_angle_gamma 122.380208
_cell_volume 570.795027
_symmetry_space_group_name_H-M "P -1"
_symmetry_group_IT_number 2
_symmetry_cell_setting 'triclinic'
loop_
_space_group_symop_operation_xyz
x,y,z
-x,-y,-z
loop_
_atom_site_type_symbol
_atom_site_label
_atom_site_fract_x
_atom_site_fract_y
_atom_site_fract_z
Si Si1 0.997849 0.552383 0.845585
Si Si2 0.179921 0.839039 0.970617
Si Si3 0.319472 0.307977 0.838085
Si Si4 0.251125 0.414390 0.666154
Si Si5 0.132021 0.709502 0.381280
Si Si6 0.661045 0.951439 0.522102
Si Si7 0.162750 0.349534 0.288522
O O1 0.908902 0.667468 0.798749
O O2 0.156554 0.723856 0.885394
O O3 0.150450 0.520989 0.745240
O O4 0.776367 0.285115 0.953452
O O5 0.332558 0.125483 0.903865
O O6 0.907876 0.733028 0.064682
O O7 0.265931 0.254230 0.744161
O O8 0.577914 0.582648 0.768307
O O9 0.057566 0.288726 0.634683
O O10 0.516720 0.661175 0.563240
O O11 0.312567 0.955589 0.385991
O O12 0.220004 0.597352 0.303038
O O13 0.000000 0.500000 0.500000
O O14 0.931725 0.122736 0.408755
O O15 0.500000 0.000000 0.500000
#
# Coordination Sequence:
#
# PCOD9101674 Si02
#       7
#     2   2   2   2   2   2   2
#     4   9  18  37  63  86 102 158 208 232 281 354
#     4   9  20  39  61  78 117 157 195 248 297 335
#     4  10  22  38  55  87 124 151 184 253 304 343
#     4  10  20  38  60  87 124 153 193 238 295 348
#     4   9  18  35  58  85 111 154 204 232 274 346
#     4  11  19  36  63  87 119 155 195 246 275 348
#     4  10  21  34  58  91 117 148 202 239 290 354
#
# _framework density 24.527194999999999
#
# number of rings (size 3 to 8) (size 9 to 14) (size 15 to 20)
#    0.000    2.286    4.286    0.000    2.000    1.714 
#    2.571    2.857    0.000    0.000    0.000    0.000 
#    0.000    0.000    0.000    0.000    0.000    0.000 
#
# Total GULP energy -78172.571837 kJ/mol
# GULP energy per Si atom -5583.755131 kJ/mol
# Density = 2.447137 g / cm^3
# Si number density = 24.527195 Si / 1000 Ang^3
#
#
#
# Elastic Constant Matrix: (Units=GPa)
#
#
# Indices 1 2 3 4 5 6 
#
# 1 49.7430 20.8639 47.2156 -2.4369 4.3775 19.0136
# 2 20.8639 96.3076 31.2746 0.5284 0.8477 11.0019
# 3 47.2156 31.2746 119.4981 -7.8378 -2.8925 14.9139
# 4 -2.4369 0.5284 -7.8378 21.9736 10.0005 4.7549
# 5 4.3775 0.8477 -2.8925 10.0005 38.0929 -4.5688
# 6 19.0136 11.0019 14.9139 4.7549 -4.5688 32.2833
#
#
#
# Elastic Compliance Matrix: (Units=1/GPa)
#
#
# Indices 1 2 3 4 5 6 
#
# 1 0.043813 -0.002566 -0.013553 0.009884 -0.011206 -0.021710
# 2 -0.002566 0.011741 -0.001937 -0.000919 -0.000048 -0.001467
# 3 -0.013553 -0.001937 0.014155 0.002038 0.002397 0.002143
# 4 0.009884 -0.000919 0.002038 0.059790 -0.018806 -0.017917
# 5 -0.011206 -0.000048 0.002397 -0.018806 0.034234 0.013123
# 6 -0.021710 -0.001467 0.002143 -0.017917 0.013123 0.047768
#
#
# Mechanical properties :
#
#
# Convention : Reuss Voigt Hill
#
# Bulk Modulus (GPa) = 29.76540 51.58411 40.67476
# Shear Modulus (GPa) = 19.31902 29.54960 24.43431
#
# Velocity S-wave (km/s) = 2.80957 3.47474 3.15971
# Velocity P-wave (km/s) = 4.76308 6.09717 5.47094
#
# Compressibility (1/GPa) = 0.03359605
#
# Stress axis : x y z
#
# Youngs Moduli (GPa) = 22.82447 85.16832 70.64803
#
# Poissons Ratio (x) = 0.21853 0.95749
# Poissons Ratio (y) = 0.05856 0.13688
# Poissons Ratio (z) = 0.30934 0.16501
#
# Static dielectric constant tensor:
#      x y z
#    x 2.039210 -0.031420 0.032750 
#    y -0.031420 1.993920 -0.031560 
#    z 0.032750 -0.031560 1.975990 
# 
# From -- ./inp_files/202708.got.cif
#   From: 2010.05.17/outbox.cif.g08.bks.cpg/sg2_102_cif.got.tgz:202708.got - 2010.06.03 11:33:40.
