data_PCOD9101728
_publ_section_title
;
Structure prediction by ZEFSAII (Michael W. Deem and Ramdas Pophale) SiO2 
 PCOD9101728
Probable space group: P -1
;
_chemical_formula_sum "Si O2"
_cell_formula_units_Z 16
_cell_length_a 9.177784
_cell_length_b 13.859167
_cell_length_c 10.980902
_cell_angle_alpha 30.378854
_cell_angle_beta 79.071412
_cell_angle_gamma 81.964785
_cell_volume 692.743178
_symmetry_space_group_name_H-M "P -1"
_symmetry_group_IT_number 2
_symmetry_cell_setting 'triclinic'
loop_
_space_group_symop_operation_xyz
x,y,z
-x,-y,-z
loop_
_atom_site_type_symbol
_atom_site_label
_atom_site_fract_x
_atom_site_fract_y
_atom_site_fract_z
Si Si1 0.648743 0.527856 0.299612
Si Si2 0.330324 0.635845 0.177706
Si Si3 0.928902 0.110868 0.066634
Si Si4 0.653913 0.408016 0.046398
Si Si5 0.864717 0.810367 0.838388
Si Si6 0.760727 0.220637 0.470813
Si Si7 0.861653 0.636223 0.372130
Si Si8 0.091740 0.260730 0.370042
O O1 0.485410 0.605194 0.252418
O O2 0.657182 0.308081 0.495224
O O3 0.749835 0.573275 0.350252
O O4 0.735488 0.646631 0.050059
O O5 0.363957 0.689087 0.975674
O O6 0.236566 0.431759 0.423421
O O7 0.217702 0.794307 0.064414
O O8 0.994641 0.220044 0.060847
O O9 0.892439 0.900354 0.353397
O O10 0.062814 0.157882 0.897730
O O11 0.785437 0.570006 0.837609
O O12 0.500000 0.500000 0.000000
O O13 0.693294 0.267511 0.300461
O O14 0.905585 0.828697 0.670101
O O15 0.795986 0.999050 0.702492
O O16 0.924293 0.325590 0.343966
O O17 0.000000 0.500000 0.500000
#
# Coordination Sequence:
#
# PCOD9101728 Si02
#       8
#     2   2   2   2   2   2   2   2
#     4  11  22  39  63  91 123 160 201 247 310 365
#     4  11  21  39  61  86 125 164 200 248 307 361
#     4   9  20  37  60  88 112 154 212 246 298 353
#     4  12  23  36  56  95 126 158 200 243 305 372
#     4  10  20  38  60  89 126 160 203 254 297 360
#     4  11  22  37  61  93 125 157 206 247 302 364
#     4   9  21  39  67  86 113 160 211 255 294 361
#     4  11  21  36  61  87 124 168 197 256 305 347
#
# _framework density 23.096584
#
# number of rings (size 3 to 8) (size 9 to 14) (size 15 to 20)
#    0.000    1.500    2.500    3.750    5.250    1.000 
#    0.000    3.125    8.250    7.500    0.000    0.000 
#    0.000    0.000    0.000    0.000    0.000    0.000 
#
# Total GULP energy -89340.645262 kJ/mol
# GULP energy per Si atom -5583.790329 kJ/mol
# Density = 2.304401 g / cm^3
# Si number density = 23.096584 Si / 1000 Ang^3
#
#
#
# Elastic Constant Matrix: (Units=GPa)
#
#
# Indices 1 2 3 4 5 6 
#
# 1 137.7955 16.1315 24.4983 -8.5774 34.4136 -15.1483
# 2 16.1315 35.7959 12.3616 -1.9664 12.6861 2.0456
# 3 24.4983 12.3616 71.8553 2.7914 12.9405 -9.2825
# 4 -8.5774 -1.9664 2.7914 28.8403 0.4294 -0.0687
# 5 34.4136 12.6861 12.9405 0.4294 31.7672 -0.2265
# 6 -15.1483 2.0456 -9.2825 -0.0687 -0.2265 33.8243
#
#
#
# Elastic Compliance Matrix: (Units=1/GPa)
#
#
# Indices 1 2 3 4 5 6 
#
# 1 0.011090 -0.000661 -0.001176 0.003546 -0.011286 0.004616
# 2 -0.000661 0.034003 -0.004167 0.002684 -0.011227 -0.003566
# 3 -0.001176 -0.004167 0.016315 -0.002149 -0.003648 0.004174
# 4 0.003546 0.002684 -0.002149 0.036189 -0.004521 0.000879
# 5 -0.011286 -0.011227 -0.003648 -0.004521 0.049700 -0.005053
# 6 0.004616 -0.003566 0.004174 0.000879 -0.005053 0.032961
#
#
# Mechanical properties :
#
#
# Convention : Reuss Voigt Hill
#
# Bulk Modulus (GPa) = 20.24328 39.04773 29.64550
# Shear Modulus (GPa) = 23.95395 31.71672 27.83534
#
# Velocity S-wave (km/s) = 3.22393 3.70972 3.47532
# Velocity P-wave (km/s) = 4.75836 5.94074 5.38211
#
# Compressibility (1/GPa) = 0.04939912
#
# Stress axis : x y z
#
# Youngs Moduli (GPa) = 90.16732 29.40888 61.29491
#
# Poissons Ratio (x) = 0.01943 0.07211
# Poissons Ratio (y) = 0.05958 0.25544
# Poissons Ratio (z) = 0.10608 0.12256
#
# Static dielectric constant tensor:
#      x y z
#    x 1.854750 0.026170 -0.009100 
#    y 0.026170 1.887600 0.014130 
#    z -0.009100 0.014130 1.937290 
# 
# From -- ./inp_files/257811.got.cif
#   From: 2010.05.17/outbox.cif.g08.bks.cpg/sg2_129_cif.got.tgz:257811.got - 2010.06.03 11:33:40.
