data_PCOD9101947
_publ_section_title
;
Structure prediction by ZEFSAII (Michael W. Deem and Ramdas Pophale) SiO2 
 PCOD9101947
Probable space group: P -1
;
_chemical_formula_sum "Si O2"
_cell_formula_units_Z 14
_cell_length_a 5.572580
_cell_length_b 15.960207
_cell_length_c 22.266936
_cell_angle_alpha 21.040225
_cell_angle_beta 117.988600
_cell_angle_gamma 104.781929
_cell_volume 512.881773
_symmetry_space_group_name_H-M "P -1"
_symmetry_group_IT_number 2
_symmetry_cell_setting 'triclinic'
loop_
_space_group_symop_operation_xyz
x,y,z
-x,-y,-z
loop_
_atom_site_type_symbol
_atom_site_label
_atom_site_fract_x
_atom_site_fract_y
_atom_site_fract_z
Si Si1 0.299405 0.584149 0.001639
Si Si2 0.765748 0.905164 0.148403
Si Si3 0.591361 0.479645 0.319381
Si Si4 0.654665 0.953666 0.614208
Si Si5 0.316736 0.149953 0.155426
Si Si6 0.682870 0.056996 0.836376
Si Si7 0.822039 0.554481 0.629139
O O1 0.574307 0.649336 0.989768
O O2 0.054023 0.746687 0.807910
O O3 0.028018 0.715081 0.938252
O O4 0.440168 0.256109 0.230830
O O5 0.658089 0.798332 0.262697
O O6 0.125368 0.787529 0.240474
O O7 0.658259 0.221688 0.942838
O O8 0.500000 0.000000 0.000000
O O9 0.476136 0.479121 0.373641
O O10 0.940945 0.435241 0.396600
O O11 0.585198 0.247928 0.434483
O O12 0.500000 0.000000 0.500000
O O13 0.346560 0.978504 0.213492
O O14 0.621885 0.885377 0.406258
O O15 0.909918 0.732783 0.108260
#
# Coordination Sequence:
#
# PCOD9101947 Si02
#       7
#     2   2   2   2   2   2   2
#     4  11  27  40  60  96 126 172 219 259 309 366
#     4  10  21  41  69  98 126 160 212 263 317 383
#     4  10  21  40  62  89 122 169 203 254 323 363
#     4  11  25  43  64  92 132 169 219 261 313 372
#     4  12  22  41  66  90 132 168 213 262 305 378
#     4  10  23  36  69  96 124 168 210 249 331 374
#     4  10  20  38  61  88 122 162 211 245 318 358
#
# _framework density 27.296741999999998
#
# number of rings (size 3 to 8) (size 9 to 14) (size 15 to 20)
#    0.000    1.429    2.857    1.286    8.000    3.429 
#    0.000    3.571    0.000   20.571    0.000    0.000 
#    0.000    0.000    0.000    0.000    0.000    0.000 
#
# Total GULP energy -77939.475822 kJ/mol
# GULP energy per Si atom -5567.105416 kJ/mol
# Density = 2.723461 g / cm^3
# Si number density = 27.296742 Si / 1000 Ang^3
#
#
#
# Elastic Constant Matrix: (Units=GPa)
#
#
# Indices 1 2 3 4 5 6 
#
# 1 324.3123 60.9930 15.0580 -1.7737 -31.2139 -3.9549
# 2 60.9930 128.8668 21.5462 4.9444 -5.4062 7.8280
# 3 15.0580 21.5462 78.3491 -9.4119 -4.0733 -2.7991
# 4 -1.7737 4.9444 -9.4119 37.2148 -1.6716 -4.4831
# 5 -31.2139 -5.4062 -4.0733 -1.6716 29.6031 -14.1594
# 6 -3.9549 7.8280 -2.7991 -4.4831 -14.1594 43.8039
#
#
#
# Elastic Compliance Matrix: (Units=1/GPa)
#
#
# Indices 1 2 3 4 5 6 
#
# 1 0.003952 -0.001885 0.000234 0.001023 0.005089 0.002458
# 2 -0.001885 0.009287 -0.002710 -0.002468 -0.002227 -0.002975
# 3 0.000234 -0.002710 0.014287 0.004495 0.003395 0.002976
# 4 0.001023 -0.002468 0.004495 0.029314 0.005594 0.005629
# 5 0.005089 -0.002227 0.003395 0.005594 0.047682 0.017060
# 6 0.002458 -0.002975 0.002976 0.005629 0.017060 0.029863
#
#
# Mechanical properties :
#
#
# Convention : Reuss Voigt Hill
#
# Bulk Modulus (GPa) = 53.18046 80.74697 66.96371
# Shear Modulus (GPa) = 33.47253 51.05311 42.26282
#
# Velocity S-wave (km/s) = 3.50558 4.32939 3.93908
# Velocity P-wave (km/s) = 5.99250 7.39168 6.72856
#
# Compressibility (1/GPa) = 0.01880390
#
# Stress axis : x y z
#
# Youngs Moduli (GPa) = 253.00756 107.67480 69.99587
#
# Poissons Ratio (x) = 0.20296 -0.01638
# Poissons Ratio (y) = 0.47689 0.18971
# Poissons Ratio (z) = -0.05920 0.29183
#
# Static dielectric constant tensor:
#      x y z
#    x 2.275790 -0.114620 0.021150 
#    y -0.114620 2.303400 -0.015450 
#    z 0.021150 -0.015450 2.233560 
# 
# From -- ./inp_files/604885.got.cif
#   From: 2010.05.17/outbox.cif.g08.bks.cpg/sg2_303_cif.got.tgz:604885.got - 2010.06.03 11:33:40.
