data_PCOD9101626
_publ_section_title
;
Structure prediction by ZEFSAII (Michael W. Deem and Ramdas Pophale) SiO2 
 PCOD9101626
Probable space group: P -1
;
_chemical_formula_sum "Si O2"
_cell_formula_units_Z 16
_cell_length_a 9.549068
_cell_length_b 15.242396
_cell_length_c 11.645794
_cell_angle_alpha 66.345684
_cell_angle_beta 69.008399
_cell_angle_gamma 26.288917
_cell_volume 687.655960
_symmetry_space_group_name_H-M "P -1"
_symmetry_group_IT_number 2
_symmetry_cell_setting 'triclinic'
loop_
_space_group_symop_operation_xyz
x,y,z
-x,-y,-z
loop_
_atom_site_type_symbol
_atom_site_label
_atom_site_fract_x
_atom_site_fract_y
_atom_site_fract_z
Si Si1 0.080250 0.888556 0.423807
Si Si2 0.316336 0.039597 0.444381
Si Si3 0.631560 0.676372 0.021770
Si Si4 0.122943 0.122149 0.017773
Si Si5 0.641293 0.243910 0.182538
Si Si6 0.579418 0.898392 0.194488
Si Si7 0.768991 0.632451 0.606114
Si Si8 0.292534 0.401773 0.713256
O O1 0.452001 0.694431 0.391967
O O2 0.000000 0.000000 0.500000
O O3 0.033742 0.800641 0.512143
O O4 0.916718 0.025603 0.281466
O O5 0.435389 0.000562 0.306017
O O6 0.463417 0.852407 0.526957
O O7 0.500000 0.000000 0.500000
O O8 0.508689 0.708838 0.918159
O O9 0.371457 0.903063 0.013003
O O10 0.644368 0.604098 0.171041
O O11 0.000000 0.500000 0.000000
O O12 0.129773 0.198224 0.877367
O O13 0.812546 0.245349 0.092821
O O14 0.289368 0.079611 0.098491
O O15 0.359587 0.389864 0.281650
O O16 0.660603 0.740571 0.239794
O O17 0.000000 0.500000 0.500000
O O18 0.934734 0.609619 0.663188
#
# Coordination Sequence:
#
# PCOD9101626 Si02
#       8
#     2   2   2   2   2   2   2   2
#     4  11  20  39  64  91 119 167 214 253 300 389
#     4  11  24  37  63  95 126 160 209 262 315 365
#     4  11  22  36  59  88 125 157 201 264 314 361
#     4  10  22  37  62  87 121 163 208 255 302 379
#     4  11  21  36  62  94 115 160 214 253 309 374
#     4  10  20  38  60  85 125 161 205 255 312 370
#     4  11  22  39  65  90 121 167 210 258 309 379
#     4  11  20  39  62  87 120 161 215 250 310 374
#
# _framework density 23.26745
#
# number of rings (size 3 to 8) (size 9 to 14) (size 15 to 20)
#    0.000    1.250    6.250    1.125    3.500    0.000 
#    0.000    1.250    0.000    0.000    0.000    0.000 
#    0.000    0.000    0.000    0.000    0.000    0.000 
#
# Total GULP energy -89118.303352 kJ/mol
# GULP energy per Si atom -5569.893959 kJ/mol
# Density = 2.321449 g / cm^3
# Si number density = 23.267450 Si / 1000 Ang^3
#
#
#
# Elastic Constant Matrix: (Units=GPa)
#
#
# Indices 1 2 3 4 5 6 
#
# 1 117.4960 5.2855 81.7361 22.9227 -4.9980 -31.0338
# 2 5.2855 35.7771 28.8022 4.7163 -3.8766 -14.1548
# 3 81.7361 28.8022 176.5984 39.0772 -8.3210 -21.0501
# 4 22.9227 4.7163 39.0772 40.9775 -23.4957 -3.2307
# 5 -4.9980 -3.8766 -8.3210 -23.4957 53.6289 8.7251
# 6 -31.0338 -14.1548 -21.0501 -3.2307 8.7251 26.4914
#
#
#
# Elastic Compliance Matrix: (Units=1/GPa)
#
#
# Indices 1 2 3 4 5 6 
#
# 1 0.022090 0.014673 -0.007724 -0.008003 -0.006248 0.028662
# 2 0.014673 0.047837 -0.009550 -0.004288 -0.004406 0.036089
# 3 -0.007724 -0.009550 0.011701 -0.007255 -0.001944 -0.005098
# 4 -0.008003 -0.004288 -0.007255 0.047160 0.021534 -0.018772
# 5 -0.006248 -0.004406 -0.001944 0.021534 0.029878 -0.018433
# 6 0.028662 0.036089 -0.005098 -0.018772 -0.018433 0.090338
#
#
# Mechanical properties :
#
#
# Convention : Reuss Voigt Hill
#
# Bulk Modulus (GPa) = 13.08469 62.39099 37.73784
# Shear Modulus (GPa) = 17.87740 38.48943 28.18341
#
# Velocity S-wave (km/s) = 2.77491 4.07162 3.48412
# Velocity P-wave (km/s) = 3.98781 6.99836 5.69560
#
# Compressibility (1/GPa) = 0.07642520
#
# Stress axis : x y z
#
# Youngs Moduli (GPa) = 45.26890 20.90420 85.46064
#
# Poissons Ratio (x) = -0.30672 0.66012
# Poissons Ratio (y) = -0.66422 0.81617
# Poissons Ratio (z) = 0.34967 0.19964
#
# Static dielectric constant tensor:
#      x y z
#    x 0.133410 1.192110 0.873880 
#    y 1.192110 1.204100 -0.683630 
#    z 0.873880 -0.683630 1.479440 
# 
# From -- ./inp_files/398924.got.cif
#   From: 2010.05.17/outbox.cif.g08.bks.cpg/sg2_200_cif.got.tgz:398924.got - 2010.06.03 11:33:40.
