data_PCOD9101029
_publ_section_title
;
Structure prediction by ZEFSAII (Michael W. Deem and Ramdas Pophale) SiO2 
 PCOD9101029
Probable space group: P -1
;
_chemical_formula_sum "Si O2"
_cell_formula_units_Z 12
_cell_length_a 14.173297
_cell_length_b 8.982806
_cell_length_c 7.832543
_cell_angle_alpha 124.050571
_cell_angle_beta 43.450407
_cell_angle_gamma 101.490131
_cell_volume 529.287526
_symmetry_space_group_name_H-M "P -1"
_symmetry_group_IT_number 2
_symmetry_cell_setting 'triclinic'
loop_
_space_group_symop_operation_xyz
x,y,z
-x,-y,-z
loop_
_atom_site_type_symbol
_atom_site_label
_atom_site_fract_x
_atom_site_fract_y
_atom_site_fract_z
Si Si1 0.241898 0.893952 0.659951
Si Si2 0.052933 0.770057 0.624668
Si Si3 0.128541 0.374628 0.431279
Si Si4 0.536859 0.450541 0.719124
Si Si5 0.673670 0.767595 0.254183
Si Si6 0.372447 0.213961 0.297857
O O1 0.197540 0.824040 0.492376
O O2 0.302607 0.714615 0.589769
O O3 0.359377 0.001272 0.568561
O O4 0.089965 0.044281 0.026437
O O5 0.073646 0.605887 0.637873
O O6 0.011190 0.691160 0.452067
O O7 0.249229 0.265361 0.343224
O O8 0.213158 0.317071 0.101826
O O9 0.438222 0.342252 0.698013
O O10 0.542745 0.638138 0.742481
O O11 0.500000 0.500000 0.000000
O O12 0.715951 0.739231 0.378182
O O13 0.500000 0.000000 0.000000
#
# Coordination Sequence:
#
# PCOD9101029 Si02
#       6
#     2   2   2   2   2   2
#     4  10  20  37  68  95 121 172 217 253 323 377
#     4   9  19  39  69  88 124 177 212 256 312 379
#     4  10  21  43  66  92 129 170 214 260 317 375
#     4  12  22  41  66  93 133 167 211 266 322 379
#     4  11  24  40  66  96 129 168 210 266 323 374
#     4  12  26  40  63 100 132 164 212 265 322 383
#
# _framework density 22.671984999999999
#
# number of rings (size 3 to 8) (size 9 to 14) (size 15 to 20)
#    0.000    1.333    3.333    2.000    4.667    0.000 
#    0.000    8.333    0.000    0.000    0.000    0.000 
#    0.000    0.000    0.000    0.000    0.000    0.000 
#
# Total GULP energy -66846.111162 kJ/mol
# GULP energy per Si atom -5570.509263 kJ/mol
# Density = 2.262038 g / cm^3
# Si number density = 22.671985 Si / 1000 Ang^3
#
#
#
# Elastic Constant Matrix: (Units=GPa)
#
#
# Indices 1 2 3 4 5 6 
#
# 1 154.5960 47.2170 32.9862 12.9299 -14.6946 15.4747
# 2 47.2170 130.2473 32.2681 33.9827 -7.3465 10.9676
# 3 32.9862 32.2681 55.8735 23.2686 4.9931 -23.4580
# 4 12.9299 33.9827 23.2686 39.0947 -14.2442 1.2716
# 5 -14.6946 -7.3465 4.9931 -14.2442 28.4782 -7.4722
# 6 15.4747 10.9676 -23.4580 1.2716 -7.4722 58.0083
#
#
#
# Elastic Compliance Matrix: (Units=1/GPa)
#
#
# Indices 1 2 3 4 5 6 
#
# 1 0.010726 -0.002161 -0.013031 0.010172 0.010624 -0.006577
# 2 -0.002161 0.011448 -0.002783 -0.008455 -0.002656 -0.002870
# 3 -0.013031 -0.002783 0.055585 -0.038078 -0.030083 0.023440
# 4 0.010172 -0.008455 -0.038078 0.067218 0.039997 -0.012835
# 5 0.010624 -0.002656 -0.030083 0.039997 0.063297 -0.007221
# 6 -0.006577 -0.002870 0.023440 -0.012835 -0.007221 0.028366
#
#
# Mechanical properties :
#
#
# Convention : Reuss Voigt Hill
#
# Bulk Modulus (GPa) = 23.91767 62.85106 43.38437
# Shear Modulus (GPa) = 17.45037 40.33260 28.89148
#
# Velocity S-wave (km/s) = 2.77734 4.22235 3.57364
# Velocity P-wave (km/s) = 4.56696 7.18005 6.01707
#
# Compressibility (1/GPa) = 0.04181008
#
# Stress axis : x y z
#
# Youngs Moduli (GPa) = 93.22783 87.35005 17.99050
#
# Poissons Ratio (x) = 0.18875 0.23444
# Poissons Ratio (y) = 0.20145 0.05006
# Poissons Ratio (z) = 1.21488 0.24305
#
# Static dielectric constant tensor:
#      x y z
#    x 1.949700 0.102200 0.001950 
#    y 0.102200 1.906880 0.029850 
#    z 0.001950 0.029850 1.883850 
# 
# From -- ./inp_files/200401.got.cif
#   From: 2010.05.17/outbox.cif.g08.bks.cpg/sg2_101_cif.got.tgz:200401.got - 2010.06.03 11:33:40.
