data_PCOD9101547
_publ_section_title
;
Structure prediction by ZEFSAII (Michael W. Deem and Ramdas Pophale) SiO2 
 PCOD9101547
Probable space group: P -1
;
_chemical_formula_sum "Si O2"
_cell_formula_units_Z 16
_cell_length_a 9.236110
_cell_length_b 14.410456
_cell_length_c 17.312030
_cell_angle_alpha 23.627779
_cell_angle_beta 129.943202
_cell_angle_gamma 121.355641
_cell_volume 690.547721
_symmetry_space_group_name_H-M "P -1"
_symmetry_group_IT_number 2
_symmetry_cell_setting 'triclinic'
loop_
_space_group_symop_operation_xyz
x,y,z
-x,-y,-z
loop_
_atom_site_type_symbol
_atom_site_label
_atom_site_fract_x
_atom_site_fract_y
_atom_site_fract_z
Si Si1 0.236002 0.804431 0.140205
Si Si2 0.090886 0.292348 0.629978
Si Si3 0.303986 0.812321 0.455179
Si Si4 0.594841 0.440571 0.477777
Si Si5 0.087801 0.180610 0.444707
Si Si6 0.290426 0.298760 0.277536
Si Si7 0.925166 0.699992 0.028556
Si Si8 0.073334 0.818452 0.831585
O O1 0.384134 0.595331 0.305347
O O2 0.331836 0.789999 0.268014
O O3 0.027681 0.734165 0.118025
O O4 0.193515 0.061455 0.890617
O O5 0.907210 0.241721 0.557762
O O6 0.000000 0.500000 0.500000
O O7 0.263162 0.388433 0.577401
O O8 0.373646 0.640463 0.537305
O O9 0.481967 0.761855 0.613577
O O10 0.262771 0.089895 0.204720
O O11 0.251362 0.239161 0.399459
O O12 0.934562 0.426189 0.223166
O O13 0.145691 0.038001 0.652596
O O14 0.000000 0.000000 0.500000
O O15 0.150608 0.168094 0.280506
O O16 0.200113 0.577547 0.022083
O O17 0.067607 0.768313 0.958422
#
# Coordination Sequence:
#
# PCOD9101547 Si02
#       8
#     2   2   2   2   2   2   2   2
#     4  10  21  37  60  83 108 146 192 229 270 324
#     4   9  20  36  55  80 112 143 176 224 276 326
#     4  10  21  37  54  81 118 148 181 226 279 332
#     4  10  20  38  60  81 109 149 188 231 272 318
#     4   9  18  36  59  80 104 142 188 228 270 322
#     4   9  18  36  58  80 108 142 183 228 272 326
#     4  10  21  35  54  83 116 146 179 227 277 331
#     4   9  18  35  58  79 106 143 183 229 273 318
#
# _framework density 23.170013999999998
#
# number of rings (size 3 to 8) (size 9 to 14) (size 15 to 20)
#    0.000    2.500    0.000    2.625    0.000    7.000 
#    0.000   16.250    0.000    0.000    0.000    0.000 
#    0.000    0.000    0.000    0.000    0.000    0.000 
#
# Total GULP energy -89188.189360 kJ/mol
# GULP energy per Si atom -5574.261835 kJ/mol
# Density = 2.311728 g / cm^3
# Si number density = 23.170014 Si / 1000 Ang^3
#
#
#
# Elastic Constant Matrix: (Units=GPa)
#
#
# Indices 1 2 3 4 5 6 
#
# 1 33.3606 14.9308 16.3149 5.7715 2.8024 14.1017
# 2 14.9308 49.7815 38.2346 1.4723 6.2971 11.3743
# 3 16.3149 38.2346 129.1579 -3.1148 7.6028 21.2376
# 4 5.7715 1.4723 -3.1148 48.6959 3.3641 8.6168
# 5 2.8024 6.2971 7.6028 3.3641 38.9734 6.7429
# 6 14.1017 11.3743 21.2376 8.6168 6.7429 27.2916
#
#
#
# Elastic Compliance Matrix: (Units=1/GPa)
#
#
# Indices 1 2 3 4 5 6 
#
# 1 0.041439 -0.008598 0.000104 -0.001606 0.001607 -0.017800
# 2 -0.008598 0.028701 -0.007018 0.000135 -0.002401 -0.001507
# 3 0.000104 -0.007018 0.010881 0.002000 -0.000095 -0.006204
# 4 -0.001606 0.000135 0.002000 0.022255 -0.000905 -0.007586
# 5 0.001607 -0.002401 -0.000095 -0.000905 0.027094 -0.006164
# 6 -0.017800 -0.001507 -0.006204 -0.007586 -0.006164 0.055213
#
#
# Mechanical properties :
#
#
# Convention : Reuss Voigt Hill
#
# Bulk Modulus (GPa) = 20.00072 39.02896 29.51484
# Shear Modulus (GPa) = 21.43435 32.51351 26.97393
#
# Velocity S-wave (km/s) = 3.04483 3.75007 3.41570
# Velocity P-wave (km/s) = 4.58391 5.96925 5.32185
#
# Compressibility (1/GPa) = 0.04999821
#
# Stress axis : x y z
#
# Youngs Moduli (GPa) = 24.13165 34.84258 91.90530
#
# Poissons Ratio (x) = 0.29956 -0.00957
# Poissons Ratio (y) = 0.20747 0.64497
# Poissons Ratio (z) = -0.00251 0.24452
#
# Static dielectric constant tensor:
#      x y z
#    x 1.930730 -0.008360 -0.025730 
#    y -0.008360 1.982180 0.062090 
#    z -0.025730 0.062090 1.955640 
# 
# From -- ./inp_files/595832.got.cif
#   From: 2010.05.17/outbox.cif.g08.bks.cpg/sg2_298_cif.got.tgz:595832.got - 2010.06.03 11:33:40.
