data_PCOD9101153
_publ_section_title
;
Structure prediction by ZEFSAII (Michael W. Deem and Ramdas Pophale) SiO2 
 PCOD9101153
Probable space group: P -1
;
_chemical_formula_sum "Si O2"
_cell_formula_units_Z 14
_cell_length_a 13.377413
_cell_length_b 12.794161
_cell_length_c 13.389027
_cell_angle_alpha 159.545389
_cell_angle_beta 57.469600
_cell_angle_gamma 123.303301
_cell_volume 667.176824
_symmetry_space_group_name_H-M "P -1"
_symmetry_group_IT_number 2
_symmetry_cell_setting 'triclinic'
loop_
_space_group_symop_operation_xyz
x,y,z
-x,-y,-z
loop_
_atom_site_type_symbol
_atom_site_label
_atom_site_fract_x
_atom_site_fract_y
_atom_site_fract_z
Si Si1 0.398897 0.352151 0.346062
Si Si2 0.754563 0.271444 0.130452
Si Si3 0.608301 0.063734 0.419320
Si Si4 0.720427 0.771452 0.263684
Si Si5 0.865441 0.262131 0.742520
Si Si6 0.894496 0.903172 0.603064
Si Si7 0.466341 0.378424 0.105132
O O1 0.500000 0.500000 0.500000
O O2 0.298939 0.583478 0.612323
O O3 0.446912 0.338046 0.196192
O O4 0.348778 0.004434 0.094222
O O5 0.799588 0.601995 0.353355
O O6 0.862339 0.075350 0.875454
O O7 0.707154 0.904493 0.279288
O O8 0.500000 0.000000 0.500000
O O9 0.628554 0.418451 0.707100
O O10 0.560183 0.922965 0.214614
O O11 0.598823 0.554583 0.166660
O O12 0.748435 0.052852 0.574583
O O13 0.832119 0.593265 0.055383
O O14 0.979041 0.215383 0.572845
O O15 0.891111 0.147819 0.736558
#
# Coordination Sequence:
#
# PCOD9101153 Si02
#       7
#     2   2   2   2   2   2   2
#     4  11  24  38  58  90 116 156 210 234 279 358
#     4  10  22  39  57  76 118 158 196 237 291 330
#     4  10  20  38  56  86 120 157 196 234 298 357
#     4  11  21  34  60  88 118 153 192 240 295 360
#     4  11  22  35  58  88 116 149 203 233 309 350
#     4  10  22  39  56  83 119 158 190 250 293 361
#     4  11  22  37  59  84 128 158 185 245 292 345
#
# _framework density 20.983944000000001
#
# number of rings (size 3 to 8) (size 9 to 14) (size 15 to 20)
#    0.000    1.429    0.000    7.286    6.000    2.286 
#    0.000    0.000    0.000    0.000    0.000   70.000 
#    0.000    0.000    0.000    0.000    0.000    0.000 
#
# Total GULP energy -77967.805450 kJ/mol
# GULP energy per Si atom -5569.128961 kJ/mol
# Density = 2.093618 g / cm^3
# Si number density = 20.983944 Si / 1000 Ang^3
#
#
#
# Elastic Constant Matrix: (Units=GPa)
#
#
# Indices 1 2 3 4 5 6 
#
# 1 47.3932 36.3045 16.0521 -1.1020 -5.1826 -1.0477
# 2 36.3045 20.0563 27.1342 -6.0524 -42.7306 -4.3817
# 3 16.0521 27.1342 134.2874 -4.9533 -9.8598 3.7536
# 4 -1.1020 -6.0524 -4.9533 40.0902 1.4045 1.5321
# 5 -5.1826 -42.7306 -9.8598 1.4045 10.9793 -2.9155
# 6 -1.0477 -4.3817 3.7536 1.5321 -2.9155 16.7630
#
#
#
# Elastic Compliance Matrix: (Units=1/GPa)
#
#
# Indices 1 2 3 4 5 6 
#
# 1 0.022304 0.002014 -0.001901 -0.000164 0.018145 0.005517
# 2 0.002014 -0.005970 -0.000664 0.000137 -0.024366 -0.005536
# 3 -0.001901 -0.000664 0.008124 0.000798 0.003284 -0.001613
# 4 -0.000164 0.000137 0.000798 0.025271 -0.002845 -0.002958
# 5 0.018145 -0.024366 0.003284 -0.002845 0.006930 -0.004505
# 6 0.005517 -0.005536 -0.001613 -0.002958 -0.004505 0.058401
#
#
# Mechanical properties :
#
#
# Convention : Reuss Voigt Hill
#
# Bulk Modulus (GPa) = 42.81544 40.07985 41.44764
# Shear Modulus (GPa) = 40.33991 21.71622 31.02807
#
# Velocity S-wave (km/s) = 4.38930 3.22047 3.84950
# Velocity P-wave (km/s) = 6.79235 5.74198 6.28913
#
# Compressibility (1/GPa) = 0.02335606
#
# Stress axis : x y z
#
# Youngs Moduli (GPa) = 44.83585 -167.51571 123.09605
#
# Poissons Ratio (x) = 0.33737 0.23401
# Poissons Ratio (y) = -0.09030 0.08171
# Poissons Ratio (z) = 0.08523 -0.11119
#
# Static dielectric constant tensor:
#      x y z
#    x 1.816890 0.045080 -0.035230 
#    y 0.045080 1.793820 -0.014700 
#    z -0.035230 -0.014700 1.806060 
# 
# From -- ./inp_files/433755.got.cif
#   From: 2010.05.17/outbox.cif.g08.bks.cpg/sg2_217_cif.got.tgz:433755.got - 2010.06.03 11:33:40.
