data_PCOD9101446
_publ_section_title
;
Structure prediction by ZEFSAII (Michael W. Deem and Ramdas Pophale) SiO2 
 PCOD9101446
Probable space group: P -1
;
_chemical_formula_sum "Si O2"
_cell_formula_units_Z 16
_cell_length_a 26.485457
_cell_length_b 17.314206
_cell_length_c 15.273753
_cell_angle_alpha 149.793746
_cell_angle_beta 157.433088
_cell_angle_gamma 16.650656
_cell_volume 756.695069
_symmetry_space_group_name_H-M "P -1"
_symmetry_group_IT_number 2
_symmetry_cell_setting 'triclinic'
loop_
_space_group_symop_operation_xyz
x,y,z
-x,-y,-z
loop_
_atom_site_type_symbol
_atom_site_label
_atom_site_fract_x
_atom_site_fract_y
_atom_site_fract_z
Si Si1 0.263350 0.785181 0.744816
Si Si2 0.725269 0.017885 0.197813
Si Si3 0.263990 0.444352 0.457691
Si Si4 0.583708 0.688867 0.238604
Si Si5 0.463706 0.014878 0.693579
Si Si6 0.306315 0.668938 0.428915
Si Si7 0.300482 0.869851 0.364409
Si Si8 0.920657 0.109724 0.126993
O O1 0.348275 0.538374 0.670418
O O2 0.374253 0.765029 0.820060
O O3 0.324662 0.857624 0.984722
O O4 0.000000 0.000000 0.500000
O O5 0.983569 0.718609 0.287870
O O6 0.739202 0.114055 0.396858
O O7 0.566982 0.021494 0.942518
O O8 0.366723 0.297894 0.572406
O O9 0.342082 0.268585 0.328331
O O10 0.759536 0.380124 0.190568
O O11 0.623641 0.782876 0.322788
O O12 0.299292 0.046498 0.504091
O O13 0.500000 0.500000 0.500000
O O14 0.436689 0.434105 0.478566
O O15 0.064435 0.860932 0.180905
O O16 0.114963 0.014250 0.286445
O O17 0.219955 0.848932 0.131026
#
# Coordination Sequence:
#
# PCOD9101446 Si02
#       8
#     2   2   2   2   2   2   2   2
#     4   9  20  35  60  88 113 164 208 247 303 357
#     4  10  20  38  59  86 123 159 200 252 307 369
#     4  11  20  36  58  87 123 158 207 247 299 369
#     4  11  21  37  59  86 129 158 203 256 305 364
#     4  11  23  38  57  88 127 167 193 244 320 375
#     4  10  20  40  66  90 114 156 211 260 302 353
#     4  10  22  41  64  90 124 158 210 259 308 365
#     4  10  21  41  66  89 116 163 212 264 299 354
#
# _framework density 21.144580999999999
#
# number of rings (size 3 to 8) (size 9 to 14) (size 15 to 20)
#    0.000    1.750    1.250    4.125    0.000    0.500 
#    2.250    2.500    0.000    0.000    0.000    0.000 
#    0.000    0.000    0.000    0.000    0.000    0.000 
#
# Total GULP energy -89138.571947 kJ/mol
# GULP energy per Si atom -5571.160747 kJ/mol
# Density = 2.109646 g / cm^3
# Si number density = 21.144581 Si / 1000 Ang^3
#
#
#
# Elastic Constant Matrix: (Units=GPa)
#
#
# Indices 1 2 3 4 5 6 
#
# 1 58.3798 12.4299 34.3797 -4.5971 1.1381 16.8338
# 2 12.4299 41.2894 14.7810 -8.6800 2.8624 17.9297
# 3 34.3797 14.7810 72.0947 -5.7019 7.2920 23.2255
# 4 -4.5971 -8.6800 -5.7019 27.6496 6.4981 -4.7940
# 5 1.1381 2.8624 7.2920 6.4981 38.9854 3.5551
# 6 16.8338 17.9297 23.2255 -4.7940 3.5551 38.6963
#
#
#
# Elastic Compliance Matrix: (Units=1/GPa)
#
#
# Indices 1 2 3 4 5 6 
#
# 1 0.024709 -0.002224 -0.010295 0.000263 0.001657 -0.003659
# 2 -0.002224 0.032386 -0.000706 0.008065 -0.002395 -0.012395
# 3 -0.010295 -0.000706 0.021940 0.002033 -0.003379 -0.007801
# 4 0.000263 0.008065 0.002033 0.041151 -0.007908 0.000753
# 5 0.001657 -0.002395 -0.003379 -0.007908 0.027830 -0.001120
# 6 -0.003659 -0.012395 -0.007801 0.000753 -0.001120 0.038056
#
#
# Mechanical properties :
#
#
# Convention : Reuss Voigt Hill
#
# Bulk Modulus (GPa) = 19.01675 32.77169 25.89422
# Shear Modulus (GPa) = 21.73451 28.41114 25.07283
#
# Velocity S-wave (km/s) = 3.20957 3.66957 3.44725
# Velocity P-wave (km/s) = 4.76952 5.78678 5.30260
#
# Compressibility (1/GPa) = 0.05258522
#
# Stress axis : x y z
#
# Youngs Moduli (GPa) = 40.47132 30.87801 45.57839
#
# Poissons Ratio (x) = 0.06866 0.46923
# Poissons Ratio (y) = 0.08999 0.03219
# Poissons Ratio (z) = 0.41665 0.02181
#
# Static dielectric constant tensor:
#      x y z
#    x 1.889790 0.017200 -0.131160 
#    y 0.017200 1.825630 -0.055840 
#    z -0.131160 -0.055840 1.896570 
# 
# From -- ./inp_files/544337.got.cif
#   From: 2010.05.17/outbox.cif.g08.bks.cpg/sg2_273_cif.got.tgz:544337.got - 2010.06.03 11:33:40.
