data_PCOD9101918
_publ_section_title
;
Structure prediction by ZEFSAII (Michael W. Deem and Ramdas Pophale) SiO2 
 PCOD9101918
Probable space group: P -1
;
_chemical_formula_sum "Si O2"
_cell_formula_units_Z 16
_cell_length_a 15.802775
_cell_length_b 18.043370
_cell_length_c 11.425778
_cell_angle_alpha 30.994145
_cell_angle_beta 135.038533
_cell_angle_gamma 155.391368
_cell_volume 658.303094
_symmetry_space_group_name_H-M "P -1"
_symmetry_group_IT_number 2
_symmetry_cell_setting 'triclinic'
loop_
_space_group_symop_operation_xyz
x,y,z
-x,-y,-z
loop_
_atom_site_type_symbol
_atom_site_label
_atom_site_fract_x
_atom_site_fract_y
_atom_site_fract_z
Si Si1 0.256060 0.907068 0.993260
Si Si2 0.547531 0.662972 0.546154
Si Si3 0.730720 0.383191 0.537994
Si Si4 0.735527 0.800987 0.789307
Si Si5 0.110827 0.531528 0.957655
Si Si6 0.122146 0.351041 0.899938
Si Si7 0.583465 0.368991 0.962355
Si Si8 0.218311 0.885552 0.417698
O O1 0.382187 0.174045 0.716875
O O2 0.372153 0.871565 0.180472
O O3 0.094864 0.719870 0.980334
O O4 0.100510 0.791207 0.105216
O O5 0.358698 0.569420 0.544639
O O6 0.717871 0.830144 0.596476
O O7 0.509381 0.459343 0.750950
O O8 0.719754 0.403715 0.362276
O O9 0.983520 0.627353 0.482366
O O10 0.782775 0.976782 0.685056
O O11 0.500000 0.500000 0.000000
O O12 0.899366 0.831971 0.921995
O O13 0.279795 0.570008 0.089674
O O14 0.245896 0.777420 0.676347
O O15 0.000000 0.500000 0.000000
O O16 0.240778 0.450896 0.004252
O O17 0.390512 0.085021 0.214742
#
# Coordination Sequence:
#
# PCOD9101918 Si02
#       8
#     2   2   2   2   2   2   2   2
#     4  10  23  38  59  89 120 164 201 243 296 353
#     4  11  21  39  63  87 121 159 205 247 286 357
#     4  11  22  38  60  89 125 161 198 243 298 353
#     4  11  19  37  63  92 113 155 199 245 296 349
#     4  10  22  38  59  90 122 156 194 253 306 348
#     4  10  20  38  61  87 119 156 207 243 288 356
#     4  10  21  39  63  90 116 155 206 246 297 347
#     4  11  21  37  60  91 124 153 197 247 300 354
#
# _framework density 24.304915000000001
#
# number of rings (size 3 to 8) (size 9 to 14) (size 15 to 20)
#    0.000    1.500    3.750    1.875    0.000    7.500 
#    0.000    3.750    0.000    4.500    0.000    0.000 
#    0.000    0.000    0.000    0.000    0.000    0.000 
#
# Total GULP energy -89492.356363 kJ/mol
# GULP energy per Si atom -5593.272273 kJ/mol
# Density = 2.424960 g / cm^3
# Si number density = 24.304915 Si / 1000 Ang^3
#
#
#
# Elastic Constant Matrix: (Units=GPa)
#
#
# Indices 1 2 3 4 5 6 
#
# 1 136.5240 32.5098 56.5129 6.3328 22.9297 39.0650
# 2 32.5098 24.0175 11.7820 15.6205 -4.4684 -6.8669
# 3 56.5129 11.7820 138.7531 20.6428 -1.1135 14.2569
# 4 6.3328 15.6205 20.6428 18.8997 14.6184 12.2378
# 5 22.9297 -4.4684 -1.1135 14.6184 12.2531 -5.0891
# 6 39.0650 -6.8669 14.2569 12.2378 -5.0891 29.1410
#
#
#
# Elastic Compliance Matrix: (Units=1/GPa)
#
#
# Indices 1 2 3 4 5 6 
#
# 1 0.004916 0.004652 -0.000534 -0.013425 0.009310 0.002031
# 2 0.004652 0.018587 -0.005048 0.016865 -0.027164 -0.011214
# 3 -0.000534 -0.005048 0.008354 -0.000120 -0.001954 -0.004852
# 4 -0.013425 0.016865 -0.000120 0.016048 0.019912 0.018768
# 5 0.009310 -0.027164 -0.001954 0.019912 0.020952 -0.022628
# 6 0.002031 -0.011214 -0.004852 0.018768 -0.022628 0.019490
#
#
# Mechanical properties :
#
#
# Convention : Reuss Voigt Hill
#
# Bulk Modulus (GPa) = 33.33637 55.65599 44.49618
# Shear Modulus (GPa) = 49.89784 25.29144 37.59464
#
# Velocity S-wave (km/s) = 4.53591 3.22932 3.93719
# Velocity P-wave (km/s) = 6.41704 6.07070 6.24627
#
# Compressibility (1/GPa) = 0.02999727
#
# Stress axis : x y z
#
# Youngs Moduli (GPa) = 203.42795 53.80204 119.70544
#
# Poissons Ratio (x) = -0.25031 0.06391
# Poissons Ratio (y) = -0.94642 0.60427
# Poissons Ratio (z) = 0.10861 0.27159
#
# Static dielectric constant tensor:
#      x y z
#    x 1.977120 0.002830 0.013410 
#    y 0.002830 1.951330 0.020930 
#    z 0.013410 0.020930 1.958000 
# 
# From -- ./inp_files/419751.got.cif
#   From: 2010.05.17/outbox.cif.g08.bks.cpg/sg2_210_cif.got.tgz:419751.got - 2010.06.03 11:33:40.
