data_PCOD9101311
_publ_section_title
;
Structure prediction by ZEFSAII (Michael W. Deem and Ramdas Pophale) SiO2 
 PCOD9101311
Probable space group: P -1
;
_chemical_formula_sum "Si O2"
_cell_formula_units_Z 16
_cell_length_a 8.663404
_cell_length_b 14.155027
_cell_length_c 14.955340
_cell_angle_alpha 137.380102
_cell_angle_beta 61.694349
_cell_angle_gamma 86.152675
_cell_volume 783.131274
_symmetry_space_group_name_H-M "P -1"
_symmetry_group_IT_number 2
_symmetry_cell_setting 'triclinic'
loop_
_space_group_symop_operation_xyz
x,y,z
-x,-y,-z
loop_
_atom_site_type_symbol
_atom_site_label
_atom_site_fract_x
_atom_site_fract_y
_atom_site_fract_z
Si Si1 0.460294 0.849775 0.314606
Si Si2 0.222289 0.639498 0.571509
Si Si3 0.115649 0.202933 0.777432
Si Si4 0.973144 0.014614 0.239201
Si Si5 0.309245 0.108595 0.047218
Si Si6 0.319809 0.786881 0.815391
Si Si7 0.449789 0.795031 0.069821
Si Si8 0.543287 0.510455 0.100079
O O1 0.735226 0.749616 0.191081
O O2 0.431573 0.840671 0.211197
O O3 0.267934 0.069255 0.555852
O O4 0.414711 0.730991 0.298132
O O5 0.268301 0.708650 0.695352
O O6 0.427683 0.407962 0.346824
O O7 0.956432 0.722922 0.719595
O O8 0.207010 0.759027 0.578463
O O9 0.137253 0.065493 0.747476
O O10 0.830363 0.373802 0.950099
O O11 0.183258 0.948478 0.203914
O O12 0.117741 0.899133 0.026970
O O13 0.378397 0.190095 0.016056
O O14 0.500000 0.000000 0.000000
O O15 0.326863 0.941828 0.886639
O O16 0.535691 0.585822 0.894200
O O17 0.500000 0.500000 0.000000
#
# Coordination Sequence:
#
# PCOD9101311 Si02
#       8
#     2   2   2   2   2   2   2   2
#     4  10  22  40  61  88 120 148 200 247 291 351
#     4  10  22  39  60  86 120 156 196 239 291 348
#     4  10  22  38  63  89 116 154 193 246 298 343
#     4  10  20  38  58  87 118 159 192 238 296 346
#     4  11  20  39  61  87 124 152 191 244 290 343
#     4  10  22  39  59  86 119 157 198 239 289 350
#     4  10  21  37  60  88 116 159 196 231 297 347
#     4   9  20  39  60  83 117 152 193 240 288 344
#
# _framework density 20.430803000000001
#
# number of rings (size 3 to 8) (size 9 to 14) (size 15 to 20)
#    0.000    2.000    2.500    1.875    3.500    7.000 
#    0.000    5.000    0.000    0.000    0.000    0.000 
#    0.000    0.000    0.000    0.000    0.000    0.000 
#
# Total GULP energy -89317.815552 kJ/mol
# GULP energy per Si atom -5582.363472 kJ/mol
# Density = 2.038430 g / cm^3
# Si number density = 20.430803 Si / 1000 Ang^3
#
#
#
# Elastic Constant Matrix: (Units=GPa)
#
#
# Indices 1 2 3 4 5 6 
#
# 1 62.5958 28.0071 3.3544 -2.9065 9.6655 2.0264
# 2 28.0071 128.3524 15.9794 7.9303 2.2900 15.0214
# 3 3.3544 15.9794 44.4140 13.4197 3.1382 -1.9750
# 4 -2.9065 7.9303 13.4197 26.9253 -6.6013 -1.5420
# 5 9.6655 2.2900 3.1382 -6.6013 23.5333 0.9137
# 6 2.0264 15.0214 -1.9750 -1.5420 0.9137 41.3290
#
#
#
# Elastic Compliance Matrix: (Units=1/GPa)
#
#
# Indices 1 2 3 4 5 6 
#
# 1 0.018986 -0.004229 0.000151 0.001550 -0.007004 0.000826
# 2 -0.004229 0.009570 -0.002756 -0.001912 0.000772 -0.003491
# 3 0.000151 -0.002756 0.028797 -0.015379 -0.008025 0.001974
# 4 0.001550 -0.001912 -0.015379 0.049390 0.015401 0.001386
# 5 -0.007004 0.000772 -0.008025 0.015401 0.050718 -0.000867
# 6 0.000826 -0.003491 0.001974 0.001386 -0.000867 0.025590
#
#
# Mechanical properties :
#
#
# Convention : Reuss Voigt Hill
#
# Bulk Modulus (GPa) = 22.89099 36.67155 29.78127
# Shear Modulus (GPa) = 23.66511 30.89228 27.27869
#
# Velocity S-wave (km/s) = 3.40708 3.89272 3.65797
# Velocity P-wave (km/s) = 5.16779 6.18001 5.69643
#
# Compressibility (1/GPa) = 0.04368531
#
# Stress axis : x y z
#
# Youngs Moduli (GPa) = 52.66929 104.49447 34.72578
#
# Poissons Ratio (x) = 0.44193 -0.00524
# Poissons Ratio (y) = 0.22275 0.09569
# Poissons Ratio (z) = -0.00795 0.28796
#
# Static dielectric constant tensor:
#      x y z
#    x 1.752610 -0.005200 0.014930 
#    y -0.005200 1.730690 0.021200 
#    z 0.014930 0.021200 1.719650 
# 
# From -- ./inp_files/353745.got.cif
#   From: 2010.05.17/outbox.cif.g08.bks.cpg/sg2_177_cif.got.tgz:353745.got - 2010.06.03 11:33:40.
