data_PCOD9101419
_publ_section_title
;
Structure prediction by ZEFSAII (Michael W. Deem and Ramdas Pophale) SiO2 
 PCOD9101419
Probable space group: P -1
;
_chemical_formula_sum "Si O2"
_cell_formula_units_Z 16
_cell_length_a 21.519148
_cell_length_b 9.538325
_cell_length_c 11.250877
_cell_angle_alpha 89.719314
_cell_angle_beta 130.074096
_cell_angle_gamma 132.257922
_cell_volume 856.483091
_symmetry_space_group_name_H-M "P -1"
_symmetry_group_IT_number 2
_symmetry_cell_setting 'triclinic'
loop_
_space_group_symop_operation_xyz
x,y,z
-x,-y,-z
loop_
_atom_site_type_symbol
_atom_site_label
_atom_site_fract_x
_atom_site_fract_y
_atom_site_fract_z
Si Si1 0.396891 0.118358 0.085807
Si Si2 0.950028 0.088085 0.083120
Si Si3 0.167222 0.838887 0.600471
Si Si4 0.352922 0.182539 0.374372
Si Si5 0.064803 0.759300 0.720298
Si Si6 0.632503 0.097795 0.723775
Si Si7 0.082411 0.270776 0.996894
Si Si8 0.711141 0.789810 0.460782
O O1 0.572704 0.459786 0.283397
O O2 0.408177 0.006258 0.190189
O O3 0.302933 0.956314 0.845017
O O4 0.261756 0.021264 0.981235
O O5 0.995459 0.205917 0.271132
O O6 0.865714 0.807387 0.977272
O O7 0.088552 0.290169 0.148319
O O8 0.821291 0.011722 0.881017
O O9 0.061941 0.764187 0.572735
O O10 0.043794 0.543783 0.385470
O O11 0.257562 0.080055 0.622403
O O12 0.500000 0.500000 0.500000
O O13 0.352005 0.199278 0.515145
O O14 0.366659 0.045331 0.348000
O O15 0.500000 0.000000 0.500000
O O16 0.808285 0.443622 0.928463
O O17 0.889426 0.997285 0.721467
#
# Coordination Sequence:
#
# PCOD9101419 Si02
#       8
#     2   2   2   2   2   2   2   2
#     4  10  20  38  59  84 119 155 195 245 291 347
#     4  10  20  39  58  85 123 156 194 246 295 357
#     4   9  20  36  61  92 110 157 209 246 285 347
#     4  11  20  36  60  90 118 155 198 241 303 358
#     4   9  18  36  65  82 118 151 207 239 291 341
#     4  12  24  38  61  88 123 155 192 247 305 355
#     4  10  25  35  59  90 125 152 195 243 310 349
#     4  11  21  35  63  87 123 152 201 247 293 354
#
# _framework density 18.681045999999998
#
# number of rings (size 3 to 8) (size 9 to 14) (size 15 to 20)
#    0.750    1.000    2.500    1.875    5.250    1.000 
#    0.000    0.625    0.000    1.500    0.000    0.000 
#    0.000    0.000    0.000    0.000    0.000    0.000 
#
# Total GULP energy -89140.275363 kJ/mol
# GULP energy per Si atom -5571.267210 kJ/mol
# Density = 1.863853 g / cm^3
# Si number density = 18.681046 Si / 1000 Ang^3
#
#
#
# Elastic Constant Matrix: (Units=GPa)
#
#
# Indices 1 2 3 4 5 6 
#
# 1 94.9938 43.4015 16.6851 2.2145 -15.3665 -13.8301
# 2 43.4015 152.6004 34.0077 16.5556 -3.8931 7.2321
# 3 16.6851 34.0077 64.9673 15.7262 6.5658 -0.6756
# 4 2.2145 16.5556 15.7262 39.1251 -1.3541 0.8746
# 5 -15.3665 -3.8931 6.5658 -1.3541 20.4150 -3.6432
# 6 -13.8301 7.2321 -0.6756 0.8746 -3.6432 29.6813
#
#
#
# Elastic Compliance Matrix: (Units=1/GPa)
#
#
# Indices 1 2 3 4 5 6 
#
# 1 0.017379 -0.004407 -0.004347 0.002931 0.015783 0.010924
# 2 -0.004407 0.008853 -0.002818 -0.002323 -0.001664 -0.004411
# 3 -0.004347 -0.002818 0.020880 -0.007302 -0.011374 -0.002045
# 4 0.002931 -0.002323 -0.007302 0.029494 0.006367 0.001678
# 5 0.015783 -0.001664 -0.011374 0.006367 0.067408 0.015587
# 6 0.010924 -0.004411 -0.002045 0.001678 0.015587 0.041673
#
#
# Mechanical properties :
#
#
# Convention : Reuss Voigt Hill
#
# Bulk Modulus (GPa) = 41.72290 55.63889 48.68089
# Shear Modulus (GPa) = 23.06050 32.40878 27.73464
#
# Velocity S-wave (km/s) = 3.51726 4.16967 3.85728
# Velocity P-wave (km/s) = 6.23520 7.28216 6.77892
#
# Compressibility (1/GPa) = 0.02396765
#
# Stress axis : x y z
#
# Youngs Moduli (GPa) = 57.53967 112.95555 47.89355
#
# Poissons Ratio (x) = 0.49780 0.20821
# Poissons Ratio (y) = 0.25358 0.13495
# Poissons Ratio (z) = 0.25015 0.31828
#
# Static dielectric constant tensor:
#      x y z
#    x 1.672450 0.031460 -0.019730 
#    y 0.031460 1.638250 -0.015850 
#    z -0.019730 -0.015850 1.698010 
# 
# From -- ./inp_files/469416.got.cif
#   From: 2010.05.17/outbox.cif.g08.bks.cpg/sg2_235_cif.got.tgz:469416.got - 2010.06.03 11:33:40.
