data_PCOD9101307
_publ_section_title
;
Structure prediction by ZEFSAII (Michael W. Deem and Ramdas Pophale) SiO2 
 PCOD9101307
Probable space group: P -1
;
_chemical_formula_sum "Si O2"
_cell_formula_units_Z 15
_cell_length_a 16.168782
_cell_length_b 16.008706
_cell_length_c 7.723247
_cell_angle_alpha 110.506951
_cell_angle_beta 124.422000
_cell_angle_gamma 25.197164
_cell_volume 623.752517
_symmetry_space_group_name_H-M "P -1"
_symmetry_group_IT_number 2
_symmetry_cell_setting 'triclinic'
loop_
_space_group_symop_operation_xyz
x,y,z
-x,-y,-z
loop_
_atom_site_type_symbol
_atom_site_label
_atom_site_fract_x
_atom_site_fract_y
_atom_site_fract_z
Si Si1 0.050947 0.990264 0.860775
Si Si2 0.500000 0.500000 0.500000
Si Si3 0.864823 0.426532 0.385059
Si Si4 0.235873 0.671203 0.652196
Si Si5 0.636007 0.763102 0.598665
Si Si6 0.823468 0.940216 0.104430
Si Si7 0.572651 0.042993 0.150288
Si Si8 0.899035 0.728436 0.801777
O O1 0.778943 0.228399 0.629614
O O2 0.192733 0.969550 0.992363
O O3 0.200211 0.792745 0.794692
O O4 0.000000 0.000000 0.000000
O O5 0.447810 0.501983 0.636094
O O6 0.744334 0.427118 0.261724
O O7 0.725767 0.608570 0.477058
O O8 0.909543 0.420687 0.236989
O O9 0.145861 0.191591 0.619151
O O10 0.979825 0.858033 0.382596
O O11 0.592408 0.781666 0.764357
O O12 0.833849 0.682216 0.751074
O O13 0.368937 0.014894 0.394717
O O14 0.586870 0.088142 0.023544
O O15 0.971141 0.737443 0.046628
O O16 0.500000 0.000000 0.000000
#
# Coordination Sequence:
#
# PCOD9101307 Si02
#       8
#     2   1   2   2   2   2   2   2
#     4  11  24  44  71  99 135 175 220 284 337 394
#     4  10  22  42  70  92 134 170 220 268 344 388
#     4  10  22  37  59  87 121 166 212 258 330 392
#     4  10  23  42  63  94 131 168 219 280 328 398
#     4  10  21  37  61  85 124 173 210 267 324 391
#     4  10  20  39  64  89 126 173 211 269 334 386
#     4  10  20  38  58  86 126 161 210 264 320 390
#     4  10  20  38  58  86 127 162 217 269 323 386
#
# _framework density 24.047999999999998
#
# number of rings (size 3 to 8) (size 9 to 14) (size 15 to 20)
#    0.000    1.867    1.333    2.800    0.000    6.400 
#    0.000    6.667    0.000    0.000    0.000    0.000 
#    0.000    0.000    0.000    0.000    0.000    0.000 
#
# Total GULP energy -83669.804602 kJ/mol
# GULP energy per Si atom -5577.986973 kJ/mol
# Density = 2.399327 g / cm^3
# Si number density = 24.048000 Si / 1000 Ang^3
#
#
#
# Elastic Constant Matrix: (Units=GPa)
#
#
# Indices 1 2 3 4 5 6 
#
# 1 224.1197 79.8284 31.7160 39.4652 -4.6428 -32.1306
# 2 79.8284 148.3405 23.1399 20.5500 10.7950 -17.6509
# 3 31.7160 23.1399 58.7337 11.6347 5.0362 -2.5684
# 4 39.4652 20.5500 11.6347 42.5528 1.1754 -6.4184
# 5 -4.6428 10.7950 5.0362 1.1754 35.7346 16.1701
# 6 -32.1306 -17.6509 -2.5684 -6.4184 16.1701 36.3379
#
#
#
# Elastic Compliance Matrix: (Units=1/GPa)
#
#
# Indices 1 2 3 4 5 6 
#
# 1 0.006866 -0.002386 -0.001793 -0.004133 0.000209 0.003962
# 2 -0.002386 0.009263 -0.001557 -0.001069 -0.004758 0.004208
# 3 -0.001793 -0.001557 0.019343 -0.002893 -0.002155 -0.000527
# 4 -0.004133 -0.001069 -0.002893 0.028878 -0.001356 0.001326
# 5 0.000209 -0.004758 -0.002155 -0.001356 0.038736 -0.019756
# 6 0.003962 0.004208 -0.000527 0.001326 -0.019756 0.042055
#
#
# Mechanical properties :
#
#
# Convention : Reuss Voigt Hill
#
# Bulk Modulus (GPa) = 41.66983 77.84028 59.75505
# Shear Modulus (GPa) = 30.37401 42.69239 36.53320
#
# Velocity S-wave (km/s) = 3.55781 4.21800 3.90189
# Velocity P-wave (km/s) = 5.85173 7.49407 6.72323
#
# Compressibility (1/GPa) = 0.02399818
#
# Stress axis : x y z
#
# Youngs Moduli (GPa) = 145.65113 107.95322 51.69881
#
# Poissons Ratio (x) = 0.25760 0.09271
# Poissons Ratio (y) = 0.34755 0.08051
# Poissons Ratio (z) = 0.26119 0.16812
#
# Static dielectric constant tensor:
#      x y z
#    x 1.950070 0.047200 -0.069480 
#    y 0.047200 1.938100 -0.000750 
#    z -0.069480 -0.000750 1.993790 
# 
# From -- ./inp_files/138203.got.cif
#   From: 2010.05.17/outbox.cif.g08.bks.cpg/sg2_70_cif.got.tgz:138203.got - 2010.06.03 11:33:40.
