data_PCOD9101474
_publ_section_title
;
Structure prediction by ZEFSAII (Michael W. Deem and Ramdas Pophale) SiO2 
 PCOD9101474
Probable space group: P -1
;
_chemical_formula_sum "Si O2"
_cell_formula_units_Z 16
_cell_length_a 20.642454
_cell_length_b 17.870592
_cell_length_c 6.967735
_cell_angle_alpha 87.598933
_cell_angle_beta 91.421327
_cell_angle_gamma 159.960782
_cell_volume 879.195050
_symmetry_space_group_name_H-M "P -1"
_symmetry_group_IT_number 2
_symmetry_cell_setting 'triclinic'
loop_
_space_group_symop_operation_xyz
x,y,z
-x,-y,-z
loop_
_atom_site_type_symbol
_atom_site_label
_atom_site_fract_x
_atom_site_fract_y
_atom_site_fract_z
Si Si1 0.558181 0.149907 0.954258
Si Si2 0.588137 0.762603 0.672148
Si Si3 0.350027 0.890915 0.601995
Si Si4 0.549712 0.634869 0.076974
Si Si5 0.074791 0.505765 0.902966
Si Si6 0.296774 0.946620 0.260999
Si Si7 0.171693 0.085823 0.592105
Si Si8 0.736432 0.646529 0.573407
O O1 0.463254 0.062285 0.751877
O O2 0.783544 0.389215 0.966229
O O3 0.500000 0.000000 0.000000
O O4 0.461686 0.094854 0.116727
O O5 0.738710 0.875749 0.554167
O O6 0.390100 0.535005 0.571026
O O7 0.648870 0.914333 0.667686
O O8 0.573781 0.716503 0.892357
O O9 0.197046 0.671802 0.717568
O O10 0.267828 0.855870 0.439386
O O11 0.500000 0.000000 0.500000
O O12 0.735518 0.829670 0.203294
O O13 0.382689 0.478430 0.225528
O O14 0.500000 0.500000 0.000000
O O15 0.896917 0.264614 0.849832
O O16 0.000000 0.500000 0.000000
O O17 0.239346 0.242151 0.514674
O O18 0.945040 0.840145 0.598898
#
# Coordination Sequence:
#
# PCOD9101474 Si02
#       8
#     2   2   2   2   2   2   2   2
#     4  10  20  38  59  88 118 146 201 250 289 359
#     4  11  24  40  59  89 131 153 200 258 308 345
#     4  11  20  40  68  86 113 160 204 244 299 366
#     4  11  19  38  65  89 119 168 200 241 295 362
#     4  11  20  40  65  87 116 153 205 249 292 366
#     4  12  24  39  62  93 120 159 198 258 311 349
#     4  10  21  39  63  93 119 158 211 249 283 367
#     4  10  21  39  65  90 121 161 206 249 291 357
#
# _framework density 18.198463
#
# number of rings (size 3 to 8) (size 9 to 14) (size 15 to 20)
#    0.000    1.250    7.500    1.125    0.000    4.500 
#    0.000    1.250    0.000    0.000    0.000    0.000 
#    0.000    0.000    0.000    0.000    0.000    0.000 
#
# Total GULP energy -89315.963227 kJ/mol
# GULP energy per Si atom -5582.247702 kJ/mol
# Density = 1.815704 g / cm^3
# Si number density = 18.198463 Si / 1000 Ang^3
#
#
#
# Elastic Constant Matrix: (Units=GPa)
#
#
# Indices 1 2 3 4 5 6 
#
# 1 43.3590 53.8635 15.5689 11.0769 -16.2874 2.6207
# 2 53.8635 111.9278 35.5308 21.8416 -19.4929 24.9912
# 3 15.5689 35.5308 92.8162 9.2389 -7.3393 13.3649
# 4 11.0769 21.8416 9.2389 31.2825 -0.9950 2.6501
# 5 -16.2874 -19.4929 -7.3393 -0.9950 25.6174 5.0681
# 6 2.6207 24.9912 13.3649 2.6501 5.0681 34.5356
#
#
#
# Elastic Compliance Matrix: (Units=1/GPa)
#
#
# Indices 1 2 3 4 5 6 
#
# 1 0.073549 -0.036764 0.000388 -0.001598 0.015121 0.018776
# 2 -0.036764 0.035282 -0.002778 -0.008721 0.006686 -0.021978
# 3 0.000388 -0.002778 0.012554 -0.001571 0.002280 -0.003092
# 4 -0.001598 -0.008721 -0.001571 0.038401 -0.007643 0.005215
# 5 0.015121 0.006686 0.002280 -0.007643 0.056991 -0.014645
# 6 0.018776 -0.021978 -0.003092 0.005215 -0.014645 0.046380
#
#
# Mechanical properties :
#
#
# Convention : Reuss Voigt Hill
#
# Bulk Modulus (GPa) = 23.21468 50.89216 37.05342
# Shear Modulus (GPa) = 14.05185 27.82976 20.94080
#
# Velocity S-wave (km/s) = 2.78176 3.91479 3.39586
# Velocity P-wave (km/s) = 4.80642 6.96131 5.98170
#
# Compressibility (1/GPa) = 0.04307619
#
# Stress axis : x y z
#
# Youngs Moduli (GPa) = 13.59641 28.34312 79.65474
#
# Poissons Ratio (x) = 1.04201 -0.03089
# Poissons Ratio (y) = 0.49986 0.22127
# Poissons Ratio (z) = -0.00527 0.07873
#
# Static dielectric constant tensor:
#      x y z
#    x 1.650270 0.042090 0.052570 
#    y 0.042090 1.652090 0.025390 
#    z 0.052570 0.025390 1.664850 
# 
# From -- ./inp_files/120021.got.cif
#   From: 2010.05.17/outbox.cif.g08.bks.cpg/sg2_61_cif.got.tgz:120021.got - 2010.06.03 11:33:40.
