data_PCOD9101097
_publ_section_title
;
Structure prediction by ZEFSAII (Michael W. Deem and Ramdas Pophale) SiO2 
 PCOD9101097
Probable space group: P -1
;
_chemical_formula_sum "Si O2"
_cell_formula_units_Z 16
_cell_length_a 14.221012
_cell_length_b 13.962425
_cell_length_c 5.309760
_cell_angle_alpha 76.023354
_cell_angle_beta 66.596169
_cell_angle_gamma 40.700238
_cell_volume 627.812939
_symmetry_space_group_name_H-M "P -1"
_symmetry_group_IT_number 2
_symmetry_cell_setting 'triclinic'
loop_
_space_group_symop_operation_xyz
x,y,z
-x,-y,-z
loop_
_atom_site_type_symbol
_atom_site_label
_atom_site_fract_x
_atom_site_fract_y
_atom_site_fract_z
Si Si1 0.897551 0.569890 0.317122
Si Si2 0.543261 0.386508 0.731123
Si Si3 0.784192 0.873594 0.230422
Si Si4 0.358666 0.368143 0.266787
Si Si5 0.498819 0.900281 0.921819
Si Si6 0.007141 0.126974 0.181131
Si Si7 0.644840 0.136704 0.493028
Si Si8 0.166915 0.802132 0.173345
O O1 0.816234 0.736140 0.309220
O O2 0.791546 0.545179 0.458526
O O3 0.000000 0.500000 0.500000
O O4 0.000000 0.500000 0.000000
O O5 0.500000 0.500000 0.500000
O O6 0.661107 0.230853 0.545809
O O7 0.653408 0.341917 0.869774
O O8 0.404634 0.420043 0.982056
O O9 0.606051 0.005677 0.265461
O O10 0.784308 0.966733 0.365301
O O11 0.900571 0.836678 0.930858
O O12 0.351167 0.268515 0.189823
O O13 0.509132 0.254404 0.358950
O O14 0.415644 0.884029 0.200477
O O15 0.500000 0.000000 0.000000
O O16 0.922514 0.175242 0.504713
O O17 0.890466 0.205247 0.019692
O O18 0.121352 0.951268 0.124635
#
# Coordination Sequence:
#
# PCOD9101097 Si02
#       8
#     2   2   2   2   2   2   2   2
#     4  12  31  51  75 108 158 204 249 306 386 473
#     4  11  26  46  74 111 153 202 254 327 388 463
#     4  11  25  44  73 110 143 201 253 316 378 451
#     4  10  24  47  72 109 142 200 253 314 382 452
#     4  10  20  37  76 107 142 185 255 324 373 439
#     4  10  23  41  72 102 149 193 252 309 368 452
#     4  10  22  41  76 104 147 183 261 314 379 437
#     4  10  23  43  68 108 145 196 248 311 376 439
#
# _framework density 25.485296999999999
#
# number of rings (size 3 to 8) (size 9 to 14) (size 15 to 20)
#    0.000    1.500    0.000    3.750   15.750    3.500 
#    2.250    0.000    0.000    0.000    0.000    0.000 
#    0.000    0.000    0.000    0.000    0.000    0.000 
#
# Total GULP energy -89284.775690 kJ/mol
# GULP energy per Si atom -5580.298481 kJ/mol
# Density = 2.542729 g / cm^3
# Si number density = 25.485297 Si / 1000 Ang^3
#
#
#
# Elastic Constant Matrix: (Units=GPa)
#
#
# Indices 1 2 3 4 5 6 
#
# 1 100.4756 33.4066 45.9373 -17.3322 -11.2268 -2.5429
# 2 33.4066 100.8982 52.0414 -23.4955 -6.6997 8.5572
# 3 45.9373 52.0414 156.8314 -16.4528 -25.9237 0.0658
# 4 -17.3322 -23.4955 -16.4528 35.3378 0.7535 7.1983
# 5 -11.2268 -6.6997 -25.9237 0.7535 55.1962 -6.1357
# 6 -2.5429 8.5572 0.0658 7.1983 -6.1357 44.2451
#
#
#
# Elastic Compliance Matrix: (Units=1/GPa)
#
#
# Indices 1 2 3 4 5 6 
#
# 1 0.012491 -0.002069 -0.002414 0.003454 0.001189 0.000725
# 2 -0.002069 0.014583 -0.003549 0.007934 -0.000910 -0.004351
# 3 -0.002414 -0.003549 0.008844 0.000310 0.003333 0.000946
# 4 0.003454 0.007934 0.000310 0.036882 0.000500 -0.007268
# 5 0.001189 -0.000910 0.003333 0.000500 0.020135 0.002950
# 6 0.000725 -0.004351 0.000946 -0.007268 0.002950 0.025075
#
#
# Mechanical properties :
#
#
# Convention : Reuss Voigt Hill
#
# Bulk Modulus (GPa) = 50.36612 68.99732 59.68172
# Shear Modulus (GPa) = 35.53878 42.07715 38.80796
#
# Velocity S-wave (km/s) = 3.73833 4.06770 3.90649
# Velocity P-wave (km/s) = 6.19993 7.01383 6.61940
#
# Compressibility (1/GPa) = 0.01985462
#
# Stress axis : x y z
#
# Youngs Moduli (GPa) = 80.05673 68.57396 113.07070
#
# Poissons Ratio (x) = 0.14188 0.27290
# Poissons Ratio (y) = 0.16563 0.40131
# Poissons Ratio (z) = 0.19322 0.24338
#
# Static dielectric constant tensor:
#      x y z
#    x 2.270780 0.081190 0.069170 
#    y 0.081190 2.204490 0.173400 
#    z 0.069170 0.173400 2.170810 
# 
# From -- ./inp_files/97663.got.cif
#   From: 2010.05.17/outbox.cif.g08.bks.cpg/sg2_49_cif.got.tgz:97663.got - 2010.06.03 11:33:40.
