data_PCOD9101048
_publ_section_title
;
Structure prediction by ZEFSAII (Michael W. Deem and Ramdas Pophale) SiO2 
 PCOD9101048
Probable space group: P -1
;
_chemical_formula_sum "Si O2"
_cell_formula_units_Z 14
_cell_length_a 15.692789
_cell_length_b 14.257170
_cell_length_c 6.876210
_cell_angle_alpha 101.952514
_cell_angle_beta 94.531396
_cell_angle_gamma 152.941742
_cell_volume 551.819394
_symmetry_space_group_name_H-M "P -1"
_symmetry_group_IT_number 2
_symmetry_cell_setting 'triclinic'
loop_
_space_group_symop_operation_xyz
x,y,z
-x,-y,-z
loop_
_atom_site_type_symbol
_atom_site_label
_atom_site_fract_x
_atom_site_fract_y
_atom_site_fract_z
Si Si1 0.070645 0.269337 0.880017
Si Si2 0.499577 0.184091 0.922782
Si Si3 0.793464 0.582819 0.571790
Si Si4 0.343266 0.029309 0.390304
Si Si5 0.248458 0.717537 0.184727
Si Si6 0.800294 0.801173 0.691673
Si Si7 0.992599 0.385025 0.354843
O O1 0.909565 0.193935 0.792412
O O2 0.303353 0.528224 0.903646
O O3 0.139866 0.340385 0.151655
O O4 0.908087 0.007601 0.699818
O O5 0.634824 0.225258 0.931890
O O6 0.393537 0.099145 0.655986
O O7 0.270142 0.915378 0.885504
O O8 0.835727 0.734450 0.572898
O O9 0.923945 0.625677 0.529309
O O10 0.522714 0.274050 0.394400
O O11 0.376368 0.950194 0.345131
O O12 0.178910 0.585638 0.304473
O O13 0.000000 0.500000 0.000000
O O14 0.500000 0.500000 0.500000
O O15 0.000000 0.000000 0.000000
O O16 0.000000 0.500000 0.500000
#
# Coordination Sequence:
#
# PCOD9101048 Si02
#       7
#     2   2   2   2   2   2   2
#     4  10  20  38  62  94 124 167 218 277 336 399
#     4  11  23  38  61  90 129 168 220 270 331 404
#     4  10  21  38  62  95 128 168 224 277 335 408
#     4  11  18  36  60  83 123 164 207 268 325 391
#     4  12  22  39  60  89 127 173 219 268 336 402
#     4  10  20  37  69 105 128 176 236 285 347 416
#     4  12  23  40  64  95 133 177 223 275 340 410
#
# _framework density 25.370619000000001
#
# number of rings (size 3 to 8) (size 9 to 14) (size 15 to 20)
#    0.000    1.143    7.143    1.286    0.000    0.571 
#    0.000    3.571    0.000    0.857    0.000    0.000 
#    0.000    0.000    0.000    0.000    0.000    0.000 
#
# Total GULP energy -77954.624456 kJ/mol
# GULP energy per Si atom -5568.187461 kJ/mol
# Density = 2.531287 g / cm^3
# Si number density = 25.370619 Si / 1000 Ang^3
#
#
#
# Elastic Constant Matrix: (Units=GPa)
#
#
# Indices 1 2 3 4 5 6 
#
# 1 164.1396 49.5603 45.3522 23.5982 -24.4311 -27.7348
# 2 49.5603 132.1222 52.8482 51.0045 -8.8054 -10.0001
# 3 45.3522 52.8482 132.7610 45.0383 -10.3781 -1.5377
# 4 23.5982 51.0045 45.0383 47.7670 -3.1467 -4.9009
# 5 -24.4311 -8.8054 -10.3781 -3.1467 50.7482 23.5674
# 6 -27.7348 -10.0001 -1.5377 -4.9009 23.5674 41.0514
#
#
#
# Elastic Compliance Matrix: (Units=1/GPa)
#
#
# Indices 1 2 3 4 5 6 
#
# 1 0.008079 -0.002067 -0.002008 0.000625 0.001170 0.004283
# 2 -0.002067 0.013570 -0.000147 -0.013294 0.000488 0.000037
# 3 -0.002008 -0.000147 0.011923 -0.010298 0.002478 -0.003598
# 4 0.000625 -0.013294 -0.010298 0.044728 -0.003178 0.003963
# 5 0.001170 0.000488 0.002478 -0.003178 0.027780 -0.015326
# 6 0.004283 0.000037 -0.003598 0.003963 -0.015326 0.036399
#
#
# Mechanical properties :
#
#
# Convention : Reuss Voigt Hill
#
# Bulk Modulus (GPa) = 39.79711 80.50490 60.15101
# Shear Modulus (GPa) = 31.38746 46.66414 39.02580
#
# Velocity S-wave (km/s) = 3.52114 4.29336 3.92628
# Velocity P-wave (km/s) = 5.67905 7.50851 6.65692
#
# Compressibility (1/GPa) = 0.02512745
#
# Stress axis : x y z
#
# Youngs Moduli (GPa) = 123.77540 73.69032 83.87414
#
# Poissons Ratio (x) = 0.15228 0.16845
# Poissons Ratio (y) = 0.25579 0.01236
# Poissons Ratio (z) = 0.24859 0.01086
#
# Static dielectric constant tensor:
#      x y z
#    x 1.798770 0.488840 -0.318330 
#    y 0.488840 1.028010 0.666440 
#    z -0.318330 0.666440 1.807430 
# 
# From -- ./inp_files/315627.got.cif
#   From: 2010.05.17/outbox.cif.g08.bks.cpg/sg2_158_cif.got.tgz:315627.got - 2010.06.03 11:33:40.
