data_PCOD9101699
_publ_section_title
;
Structure prediction by ZEFSAII (Michael W. Deem and Ramdas Pophale) SiO2 
 PCOD9101699
Probable space group: P -1
;
_chemical_formula_sum "Si O2"
_cell_formula_units_Z 16
_cell_length_a 11.346791
_cell_length_b 12.288215
_cell_length_c 9.534496
_cell_angle_alpha 55.038863
_cell_angle_beta 126.156594
_cell_angle_gamma 139.606104
_cell_volume 675.879021
_symmetry_space_group_name_H-M "P -1"
_symmetry_group_IT_number 2
_symmetry_cell_setting 'triclinic'
loop_
_space_group_symop_operation_xyz
x,y,z
-x,-y,-z
loop_
_atom_site_type_symbol
_atom_site_label
_atom_site_fract_x
_atom_site_fract_y
_atom_site_fract_z
Si Si1 0.769207 0.316509 0.705696
Si Si2 0.833790 0.820333 0.633590
Si Si3 0.333705 0.985680 0.692466
Si Si4 0.461987 0.407023 0.188009
Si Si5 0.200788 0.042604 0.135156
Si Si6 0.184902 0.905092 0.949600
Si Si7 0.277657 0.832620 0.493441
Si Si8 0.692616 0.567436 0.500388
O O1 0.557773 0.137256 0.719052
O O2 0.781527 0.318962 0.542146
O O3 0.767394 0.462387 0.657911
O O4 0.893729 0.276325 0.899671
O O5 0.749981 0.918092 0.481601
O O6 0.703984 0.656685 0.769709
O O7 0.839480 0.754285 0.534293
O O8 0.031629 0.920516 0.774178
O O9 0.293472 0.932459 0.864484
O O10 0.258321 0.827900 0.650364
O O11 0.368640 0.215345 0.207803
O O12 0.641005 0.531470 0.325776
O O13 0.500000 0.500000 0.000000
O O14 0.158758 0.887280 0.309969
O O15 0.282618 0.041308 0.044419
O O16 0.000000 0.000000 0.000000
O O17 0.500000 0.000000 0.500000
O O18 0.500000 0.500000 0.500000
#
# Coordination Sequence:
#
# PCOD9101699 Si02
#       8
#     2   2   2   2   2   2   2   2
#     4  10  20  38  60  88 125 166 206 254 319 370
#     4  11  22  41  61  92 129 167 207 259 314 365
#     4  11  19  38  60  92 124 166 209 254 314 377
#     4  11  22  38  63  91 120 168 217 250 304 378
#     4  11  20  38  60  91 129 155 203 267 315 354
#     4  11  24  34  63 100 125 160 207 271 318 357
#     4   9  18  34  59  83 119 163 197 252 308 362
#     4  10  21  41  64  81 123 169 205 251 310 383
#
# _framework density 23.672875999999999
#
# number of rings (size 3 to 8) (size 9 to 14) (size 15 to 20)
#    0.000    1.500    5.000    1.500    1.750    0.500 
#    0.000    2.500    0.000    1.500    0.000    0.000 
#    0.000    0.000    0.000    0.000    0.000    0.000 
#
# Total GULP energy -89112.928442 kJ/mol
# GULP energy per Si atom -5569.558028 kJ/mol
# Density = 2.361900 g / cm^3
# Si number density = 23.672876 Si / 1000 Ang^3
#
#
#
# Elastic Constant Matrix: (Units=GPa)
#
#
# Indices 1 2 3 4 5 6 
#
# 1 73.3797 26.2915 46.2327 8.6180 -11.3804 -30.5906
# 2 26.2915 56.5784 34.8848 16.5762 -15.0570 -36.7536
# 3 46.2327 34.8848 126.1661 24.9358 -15.9557 -19.5702
# 4 8.6180 16.5762 24.9358 36.0965 -13.9806 -11.1731
# 5 -11.3804 -15.0570 -15.9557 -13.9806 63.0582 6.3576
# 6 -30.5906 -36.7536 -19.5702 -11.1731 6.3576 44.7154
#
#
#
# Elastic Compliance Matrix: (Units=1/GPa)
#
#
# Indices 1 2 3 4 5 6 
#
# 1 0.024145 0.004370 -0.007836 0.003992 0.002558 0.017314
# 2 0.004370 0.046075 -0.007305 -0.003930 0.005451 0.035907
# 3 -0.007836 -0.007305 0.012835 -0.006073 -0.000532 -0.007190
# 4 0.003992 -0.003930 -0.006073 0.036610 0.005842 0.005160
# 5 0.002558 0.005451 -0.000532 0.005842 0.018292 0.004856
# 6 0.017314 0.035907 -0.007190 0.005160 0.004856 0.061174
#
#
# Mechanical properties :
#
#
# Convention : Reuss Voigt Hill
#
# Bulk Modulus (GPa) = 16.25681 52.32692 34.29187
# Shear Modulus (GPa) = 20.73153 38.68837 29.70995
#
# Velocity S-wave (km/s) = 2.96252 4.04702 3.54647
# Velocity P-wave (km/s) = 4.31094 6.63250 5.59349
#
# Compressibility (1/GPa) = 0.06151268
#
# Stress axis : x y z
#
# Youngs Moduli (GPa) = 41.41705 21.70353 77.91182
#
# Poissons Ratio (x) = -0.09484 0.61050
# Poissons Ratio (y) = -0.18099 0.56918
# Poissons Ratio (z) = 0.32453 0.15855
#
# Static dielectric constant tensor:
#      x y z
#    x 1.947550 0.024170 -0.038380 
#    y 0.024170 1.962500 0.035980 
#    z -0.038380 0.035980 1.912270 
# 
# From -- ./inp_files/257035.got.cif
#   From: 2010.05.17/outbox.cif.g08.bks.cpg/sg2_129_cif.got.tgz:257035.got - 2010.06.03 11:33:40.
