data_PCOD9101439
_publ_section_title
;
Structure prediction by ZEFSAII (Michael W. Deem and Ramdas Pophale) SiO2 
 PCOD9101439
Probable space group: P -1
;
_chemical_formula_sum "Si O2"
_cell_formula_units_Z 14
_cell_length_a 7.187473
_cell_length_b 8.445587
_cell_length_c 11.919568
_cell_angle_alpha 90.621341
_cell_angle_beta 106.841996
_cell_angle_gamma 122.950848
_cell_volume 568.189572
_symmetry_space_group_name_H-M "P -1"
_symmetry_group_IT_number 2
_symmetry_cell_setting 'triclinic'
loop_
_space_group_symop_operation_xyz
x,y,z
-x,-y,-z
loop_
_atom_site_type_symbol
_atom_site_label
_atom_site_fract_x
_atom_site_fract_y
_atom_site_fract_z
Si Si1 0.321782 0.104134 0.213610
Si Si2 0.724154 0.142887 0.152316
Si Si3 0.560616 0.710332 0.525301
Si Si4 0.833195 0.754120 0.227934
Si Si5 0.884095 0.322676 0.563580
Si Si6 0.098843 0.921177 0.616574
Si Si7 0.430245 0.243568 0.005584
O O1 0.495594 0.049917 0.194950
O O2 0.438394 0.236213 0.343924
O O3 0.070748 0.919162 0.205077
O O4 0.312481 0.217556 0.106260
O O5 0.929143 0.208563 0.278828
O O6 0.695547 0.977153 0.067119
O O7 0.691776 0.292465 0.079450
O O8 0.500000 0.500000 0.500000
O O9 0.355773 0.715770 0.429701
O O10 0.833323 0.851235 0.539541
O O11 0.920065 0.645610 0.313963
O O12 0.627888 0.655183 0.098687
O O13 0.772063 0.868175 0.303971
O O14 0.000000 0.500000 0.500000
O O15 0.809711 0.141621 0.469704
#
# Coordination Sequence:
#
# PCOD9101439 Si02
#       7
#     2   2   2   2   2   2   2
#     4   9  17  32  57  86 119 143 187 241 282 333
#     4   8  15  30  57  89 117 148 178 236 299 341
#     4  11  22  37  58  85 110 162 199 231 290 345
#     4  10  21  33  58  95 114 148 197 239 287 351
#     4  12  23  40  57  79 123 160 193 241 289 339
#     4  10  20  38  59  86 116 148 197 242 288 344
#     4   8  15  32  55  88 121 145 182 235 302 339
#
# _framework density 24.639664
#
# number of rings (size 3 to 8) (size 9 to 14) (size 15 to 20)
#    0.857    1.429    2.857    0.857    0.000    2.286 
#    5.143    0.000    0.000    4.286    0.000    0.000 
#    0.000    0.000    0.000    0.000    0.000    0.000 
#
# Total GULP energy -78128.832948 kJ/mol
# GULP energy per Si atom -5580.630925 kJ/mol
# Density = 2.458358 g / cm^3
# Si number density = 24.639664 Si / 1000 Ang^3
#
#
#
# Elastic Constant Matrix: (Units=GPa)
#
#
# Indices 1 2 3 4 5 6 
#
# 1 98.4606 30.9624 15.7549 -7.3922 9.3782 -19.0829
# 2 30.9624 70.5342 29.3106 -6.3407 10.6075 -3.1059
# 3 15.7549 29.3106 164.5841 -21.9753 23.8499 -17.3396
# 4 -7.3922 -6.3407 -21.9753 50.0612 -17.3173 2.9211
# 5 9.3782 10.6075 23.8499 -17.3173 47.1730 -8.8654
# 6 -19.0829 -3.1059 -17.3396 2.9211 -8.8654 30.0974
#
#
#
# Elastic Compliance Matrix: (Units=1/GPa)
#
#
# Indices 1 2 3 4 5 6 
#
# 1 0.013558 -0.005823 0.000745 0.001189 0.000249 0.008383
# 2 -0.005823 0.018039 -0.002792 -0.000392 -0.002403 -0.004109
# 3 0.000745 -0.002792 0.007446 0.002192 -0.001778 0.003737
# 4 0.001189 -0.000392 0.002192 0.023645 0.007795 0.001977
# 5 0.000249 -0.002403 -0.001778 0.007795 0.026569 0.005955
# 6 0.008383 -0.004109 0.003737 0.001977 0.005955 0.041832
#
#
# Mechanical properties :
#
#
# Convention : Reuss Voigt Hill
#
# Bulk Modulus (GPa) = 42.91247 53.95942 48.43595
# Shear Modulus (GPa) = 32.34214 42.63639 37.48926
#
# Velocity S-wave (km/s) = 3.62692 4.16432 3.90487
# Velocity P-wave (km/s) = 5.91551 6.71334 6.32701
#
# Compressibility (1/GPa) = 0.02330325
#
# Stress axis : x y z
#
# Youngs Moduli (GPa) = 73.75499 55.43527 134.30221
#
# Poissons Ratio (x) = 0.32279 -0.10004
# Poissons Ratio (y) = 0.42946 0.37499
# Poissons Ratio (z) = -0.05494 0.15478
#
# Static dielectric constant tensor:
#      x y z
#    x 1.958780 -0.021240 0.051100 
#    y -0.021240 2.091070 -0.131020 
#    z 0.051100 -0.131020 2.116080 
# 
# From -- ./inp_files/374139.got.cif
#   From: 2010.05.17/outbox.cif.g08.bks.cpg/sg2_188_cif.got.tgz:374139.got - 2010.06.03 11:33:40.
