data_PCOD9101130
_publ_section_title
;
Structure prediction by ZEFSAII (Michael W. Deem and Ramdas Pophale) SiO2 
 PCOD9101130
Probable space group: P -1
;
_chemical_formula_sum "Si O2"
_cell_formula_units_Z 12
_cell_length_a 5.050410
_cell_length_b 8.408169
_cell_length_c 11.185938
_cell_angle_alpha 82.171732
_cell_angle_beta 88.190456
_cell_angle_gamma 97.324604
_cell_volume 466.161429
_symmetry_space_group_name_H-M "P -1"
_symmetry_group_IT_number 2
_symmetry_cell_setting 'triclinic'
loop_
_space_group_symop_operation_xyz
x,y,z
-x,-y,-z
loop_
_atom_site_type_symbol
_atom_site_label
_atom_site_fract_x
_atom_site_fract_y
_atom_site_fract_z
Si Si1 0.846266 0.349892 0.947199
Si Si2 0.051392 0.664503 0.604682
Si Si3 0.340144 0.646558 0.305812
Si Si4 0.407921 0.159076 0.429214
Si Si5 0.107952 0.178482 0.763452
Si Si6 0.699874 0.170256 0.195426
O O1 0.675031 0.398211 0.832137
O O2 0.675474 0.236639 0.057278
O O3 0.000000 0.500000 0.000000
O O4 0.055040 0.246876 0.889077
O O5 0.850862 0.500167 0.615662
O O6 0.884803 0.802344 0.543968
O O7 0.104224 0.701553 0.741228
O O8 0.356447 0.695881 0.551114
O O9 0.650711 0.704101 0.315073
O O10 0.170514 0.798071 0.297969
O O11 0.441091 0.153730 0.285677
O O12 0.500000 0.000000 0.500000
O O13 0.188498 0.001060 0.786431
#
# Coordination Sequence:
#
# PCOD9101130 Si02
#       6
#     2   2   2   2   2   2
#     4  10  20  38  55  89 117 159 192 227 278 348
#     4  10  21  38  64  85 114 151 197 233 289 342
#     4  10  22  38  58  84 124 155 188 231 281 351
#     4  10  22  38  64  89 110 145 199 247 285 335
#     4  10  23  36  55  86 126 151 190 231 287 335
#     4  10  22  37  61  87 117 154 191 242 284 336
#
# _framework density 25.742156000000001
#
# number of rings (size 3 to 8) (size 9 to 14) (size 15 to 20)
#    2.000    0.000    1.667    2.000    4.667    2.667 
#    0.000    0.000    0.000    6.000    0.000    0.000 
#    0.000    0.000    0.000    0.000    0.000    0.000 
#
# Total GULP energy -67046.673972 kJ/mol
# GULP energy per Si atom -5587.222831 kJ/mol
# Density = 2.568357 g / cm^3
# Si number density = 25.742156 Si / 1000 Ang^3
#
#
#
# Elastic Constant Matrix: (Units=GPa)
#
#
# Indices 1 2 3 4 5 6 
#
# 1 94.4065 -12.5346 6.6348 11.2827 -13.3876 6.5770
# 2 -12.5346 70.8983 5.2526 7.6941 -10.2547 22.3594
# 3 6.6348 5.2526 132.1692 10.9389 -20.9837 7.6885
# 4 11.2827 7.6941 10.9389 44.4371 -2.8341 -7.1405
# 5 -13.3876 -10.2547 -20.9837 -2.8341 31.3290 -4.8483
# 6 6.5770 22.3594 7.6885 -7.1405 -4.8483 31.4435
#
#
#
# Elastic Compliance Matrix: (Units=1/GPa)
#
#
# Indices 1 2 3 4 5 6 
#
# 1 0.013571 0.006417 0.001085 -0.005651 0.006894 -0.007887
# 2 0.006417 0.023174 0.001821 -0.008648 0.007821 -0.019024
# 3 0.001085 0.001821 0.008864 -0.002923 0.006207 -0.003396
# 4 -0.005651 -0.008648 -0.002923 0.028261 -0.002467 0.014084
# 5 0.006894 0.007821 0.006207 -0.002467 0.040931 -0.002770
# 6 -0.007887 -0.019024 -0.003396 0.014084 -0.002770 0.050582
#
#
# Mechanical properties :
#
#
# Convention : Reuss Voigt Hill
#
# Bulk Modulus (GPa) = 15.56329 32.90886 24.23608
# Shear Modulus (GPa) = 29.73440 41.31667 35.52553
#
# Velocity S-wave (km/s) = 3.40234 4.01062 3.71894
# Velocity P-wave (km/s) = 4.63611 5.85308 5.27978
#
# Compressibility (1/GPa) = 0.06425376
#
# Stress axis : x y z
#
# Youngs Moduli (GPa) = 73.68778 43.15239 112.81492
#
# Poissons Ratio (x) = -0.27690 -0.12239
# Poissons Ratio (y) = -0.47284 -0.20543
# Poissons Ratio (z) = -0.07994 -0.07858
#
# Static dielectric constant tensor:
#      x y z
#    x 1.951760 0.010560 0.021910 
#    y 0.010560 2.070910 0.051620 
#    z 0.021910 0.051620 2.103060 
# 
# From -- ./inp_files/90128.got.cif
#   From: 2010.05.17/outbox.cif.g08.bks.cpg/sg2_46_cif.got.tgz:90128.got - 2010.06.03 11:33:40.
