data_PCOD9101495
_publ_section_title
;
Structure prediction by ZEFSAII (Michael W. Deem and Ramdas Pophale) SiO2 
 PCOD9101495
Probable space group: P -1
;
_chemical_formula_sum "Si O2"
_cell_formula_units_Z 14
_cell_length_a 9.196250
_cell_length_b 12.635078
_cell_length_c 5.212135
_cell_angle_alpha 80.054614
_cell_angle_beta 106.258542
_cell_angle_gamma 110.029651
_cell_volume 544.254905
_symmetry_space_group_name_H-M "P -1"
_symmetry_group_IT_number 2
_symmetry_cell_setting 'triclinic'
loop_
_space_group_symop_operation_xyz
x,y,z
-x,-y,-z
loop_
_atom_site_type_symbol
_atom_site_label
_atom_site_fract_x
_atom_site_fract_y
_atom_site_fract_z
Si Si1 0.119328 0.257068 0.855277
Si Si2 0.275906 0.078239 0.920590
Si Si3 0.311063 0.951172 0.478845
Si Si4 0.113629 0.657823 0.099106
Si Si5 0.572655 0.592747 0.775319
Si Si6 0.831557 0.544911 0.612651
Si Si7 0.388537 0.748118 0.798624
O O1 0.135963 0.361430 0.628066
O O2 0.945874 0.236878 0.897516
O O3 0.155588 0.151051 0.792883
O O4 0.265948 0.308042 0.099728
O O5 0.454895 0.166466 0.018558
O O6 0.236973 0.002847 0.189148
O O7 0.275186 0.002222 0.706416
O O8 0.295395 0.820408 0.569720
O O9 0.500000 0.000000 0.500000
O O10 0.140275 0.575166 0.369444
O O11 0.267654 0.683704 0.985749
O O12 0.958579 0.592347 0.881123
O O13 0.652505 0.534124 0.622969
O O14 0.452516 0.667137 0.681763
O O15 0.500000 0.500000 0.000000
#
# Coordination Sequence:
#
# PCOD9101495 Si02
#       7
#     2   2   2   2   2   2   2
#     4  10  23  38  60  86 122 170 204 252 319 372
#     4  10  23  42  67  93 125 164 213 266 321 367
#     4  10  21  41  65  95 127 160 208 270 324 365
#     4  10  21  40  57  88 123 164 208 245 315 378
#     4  10  20  38  59  90 120 155 205 259 309 374
#     4  10  21  39  60  80 130 165 198 253 309 380
#     4  10  20  39  62  94 119 159 209 261 311 373
#
# _framework density 25.723241000000002
#
# number of rings (size 3 to 8) (size 9 to 14) (size 15 to 20)
#    0.000    2.000    1.429    2.143    8.000    0.571 
#    7.714    1.429    0.000    0.000    0.000    0.000 
#    0.000    0.000    0.000    0.000    0.000    0.000 
#
# Total GULP energy -78272.229547 kJ/mol
# GULP energy per Si atom -5590.873539 kJ/mol
# Density = 2.566469 g / cm^3
# Si number density = 25.723241 Si / 1000 Ang^3
#
#
#
# Elastic Constant Matrix: (Units=GPa)
#
#
# Indices 1 2 3 4 5 6 
#
# 1 147.8162 72.5479 43.7222 7.1816 9.1510 -46.7257
# 2 72.5479 129.7017 24.0839 -13.1403 5.7340 -51.4194
# 3 43.7222 24.0839 84.4045 -16.7171 5.2302 -26.0994
# 4 7.1816 -13.1403 -16.7171 32.8696 -1.0176 5.9615
# 5 9.1510 5.7340 5.2302 -1.0176 39.5748 3.9378
# 6 -46.7257 -51.4194 -26.0994 5.9615 3.9378 63.4729
#
#
#
# Elastic Compliance Matrix: (Units=1/GPa)
#
#
# Indices 1 2 3 4 5 6 
#
# 1 0.012738 -0.005431 -0.005472 -0.008461 -0.002016 0.003647
# 2 -0.005431 0.014224 0.002708 0.006722 -0.001798 0.008118
# 3 -0.005472 0.002708 0.017426 0.010281 -0.001610 0.004465
# 4 -0.008461 0.006722 0.010281 0.040279 0.000697 -0.000382
# 5 -0.002016 -0.001798 -0.001610 0.000697 0.026756 -0.005328
# 6 0.003647 0.008118 0.004465 -0.000382 -0.005328 0.027219
#
#
# Mechanical properties :
#
#
# Convention : Reuss Voigt Hill
#
# Bulk Modulus (GPa) = 35.71657 71.40336 53.55997
# Shear Modulus (GPa) = 30.42013 41.95470 36.18741
#
# Velocity S-wave (km/s) = 3.44262 4.04295 3.75480
# Velocity P-wave (km/s) = 5.45135 7.04361 6.29800
#
# Compressibility (1/GPa) = 0.02799821
#
# Stress axis : x y z
#
# Youngs Moduli (GPa) = 78.50554 70.30361 57.38461
#
# Poissons Ratio (x) = 0.38182 0.31400
# Poissons Ratio (y) = 0.42637 -0.15539
# Poissons Ratio (z) = 0.42956 -0.19037
#
# Static dielectric constant tensor:
#      x y z
#    x 2.025490 0.006550 0.013780 
#    y 0.006550 2.163510 0.136410 
#    z 0.013780 0.136410 2.160260 
# 
# From -- ./inp_files/27292.got.cif
#   From: 2010.05.17/outbox.cif.g08.bks.cpg/sg2_14_cif.got.tgz:27292.got - 2010.06.03 11:33:40.
