data_PCOD9101386
_publ_section_title
;
Structure prediction by ZEFSAII (Michael W. Deem and Ramdas Pophale) SiO2 
 PCOD9101386
Probable space group: P -1
;
_chemical_formula_sum "Si O2"
_cell_formula_units_Z 16
_cell_length_a 20.922205
_cell_length_b 18.414996
_cell_length_c 5.459596
_cell_angle_alpha 104.307462
_cell_angle_beta 79.342477
_cell_angle_gamma 161.895151
_cell_volume 624.622122
_symmetry_space_group_name_H-M "P -1"
_symmetry_group_IT_number 2
_symmetry_cell_setting 'triclinic'
loop_
_space_group_symop_operation_xyz
x,y,z
-x,-y,-z
loop_
_atom_site_type_symbol
_atom_site_label
_atom_site_fract_x
_atom_site_fract_y
_atom_site_fract_z
Si Si1 0.729550 0.077676 0.350591
Si Si2 0.189843 0.701292 0.838513
Si Si3 0.210814 0.334176 0.105819
Si Si4 0.429564 0.665046 0.841428
Si Si5 0.058412 0.838030 0.771955
Si Si6 0.834085 0.847564 0.694384
Si Si7 0.271886 0.114956 0.370415
Si Si8 0.587896 0.207606 0.256295
O O1 0.843912 0.276759 0.337102
O O2 0.904601 0.205976 0.380596
O O3 0.557425 0.918782 0.530431
O O4 0.594731 0.884650 0.086738
O O5 0.252784 0.685246 0.714194
O O6 0.000000 0.500000 0.000000
O O7 0.406690 0.972256 0.020647
O O8 0.281888 0.348633 0.256216
O O9 0.168228 0.372126 0.257066
O O10 0.336394 0.491062 0.903628
O O11 0.986598 0.055785 0.953141
O O12 0.555785 0.760947 0.620974
O O13 0.306607 0.604176 0.790823
O O14 0.173675 0.010795 0.621558
O O15 0.134589 0.934266 0.081153
O O16 0.691239 0.758481 0.623617
O O17 0.000000 0.000000 0.500000
#
# Coordination Sequence:
#
# PCOD9101386 Si02
#       8
#     2   2   2   2   2   2   2   2
#     4  10  21  40  61  84 124 163 202 261 320 377
#     4  10  23  40  62  93 123 165 210 257 323 385
#     4  10  22  37  59  88 120 160 213 262 317 379
#     4  10  22  39  58  90 120 161 208 263 320 375
#     4  10  20  38  62  88 121 165 207 258 314 380
#     4  10  20  38  59  82 122 163 206 262 315 381
#     4  10  20  39  61  85 125 162 205 258 323 375
#     4  10  21  42  62  85 132 160 206 269 316 380
#
# _framework density 25.615486000000001
#
# number of rings (size 3 to 8) (size 9 to 14) (size 15 to 20)
#    0.000    2.000    2.500    0.375    1.750    2.000 
#    2.250    0.625    0.000    0.000    0.000    0.000 
#    0.000    0.000    0.000    0.000    0.000    0.000 
#
# Total GULP energy -89206.624140 kJ/mol
# GULP energy per Si atom -5575.414009 kJ/mol
# Density = 2.555718 g / cm^3
# Si number density = 25.615486 Si / 1000 Ang^3
#
#
#
# Elastic Constant Matrix: (Units=GPa)
#
#
# Indices 1 2 3 4 5 6 
#
# 1 256.5050 43.6456 37.0657 -21.2108 4.8789 -5.7656
# 2 43.6456 73.2628 28.3801 0.1593 9.5989 -27.3116
# 3 37.0657 28.3801 78.3230 -6.7991 -16.4113 -10.1715
# 4 -21.2108 0.1593 -6.7991 58.1867 -2.1251 -0.0692
# 5 4.8789 9.5989 -16.4113 -2.1251 41.7932 -14.4242
# 6 -5.7656 -27.3116 -10.1715 -0.0692 -14.4242 39.5949
#
#
#
# Elastic Compliance Matrix: (Units=1/GPa)
#
#
# Indices 1 2 3 4 5 6 
#
# 1 0.004707 -0.002815 -0.001596 0.001492 -0.001176 -0.002092
# 2 -0.002815 0.022799 -0.006086 -0.001895 -0.003030 0.012646
# 3 -0.001596 -0.006086 0.018629 0.001998 0.010437 0.004161
# 4 0.001492 -0.001895 0.001998 0.018043 0.002030 0.000194
# 5 -0.001176 -0.003030 0.010437 0.002030 0.033294 0.012553
# 6 -0.002092 0.012646 0.004161 0.000194 0.012553 0.039316
#
#
# Mechanical properties :
#
#
# Convention : Reuss Voigt Hill
#
# Bulk Modulus (GPa) = 39.77581 69.58594 54.68087
# Shear Modulus (GPa) = 30.09088 47.84826 38.96957
#
# Velocity S-wave (km/s) = 3.43113 4.32666 3.90465
# Velocity P-wave (km/s) = 5.59094 7.22389 6.45922
#
# Compressibility (1/GPa) = 0.02514091
#
# Stress axis : x y z
#
# Youngs Moduli (GPa) = 212.45671 43.86072 53.67990
#
# Poissons Ratio (x) = 0.12346 0.08568
# Poissons Ratio (y) = 0.59802 0.32671
# Poissons Ratio (z) = 0.33911 0.26695
#
# Static dielectric constant tensor:
#      x y z
#    x 2.084090 -0.001540 0.076070 
#    y -0.001540 2.056880 0.010830 
#    z 0.076070 0.010830 2.115590 
# 
# From -- ./inp_files/53338.got.cif
#   From: 2010.05.17/outbox.cif.g08.bks.cpg/sg2_27_cif.got.tgz:53338.got - 2010.06.03 11:33:40.
