data_PCOD9101896
_publ_section_title
;
Structure prediction by ZEFSAII (Michael W. Deem and Ramdas Pophale) SiO2 
 PCOD9101896
Probable space group: P -1
;
_chemical_formula_sum "Si O2"
_cell_formula_units_Z 15
_cell_length_a 9.862108
_cell_length_b 8.448274
_cell_length_c 13.171393
_cell_angle_alpha 74.925358
_cell_angle_beta 147.850680
_cell_angle_gamma 108.342914
_cell_volume 554.247627
_symmetry_space_group_name_H-M "P -1"
_symmetry_group_IT_number 2
_symmetry_cell_setting 'triclinic'
loop_
_space_group_symop_operation_xyz
x,y,z
-x,-y,-z
loop_
_atom_site_type_symbol
_atom_site_label
_atom_site_fract_x
_atom_site_fract_y
_atom_site_fract_z
Si Si1 0.543536 0.241576 0.891369
Si Si2 0.400007 0.744283 0.846662
Si Si3 0.204649 0.830315 0.251204
Si Si4 0.548080 0.614221 0.771176
Si Si5 0.000000 0.000000 0.500000
Si Si6 0.055540 0.521684 0.351174
Si Si7 0.053958 0.168057 0.132748
Si Si8 0.262670 0.190293 0.507641
O O1 0.607775 0.438195 0.874661
O O2 0.323386 0.175863 0.675001
O O3 0.477940 0.208424 0.973092
O O4 0.811526 0.179107 0.048911
O O5 0.582023 0.742971 0.864904
O O6 0.190719 0.856056 0.666260
O O7 0.234196 0.556760 0.786799
O O8 0.083640 0.671024 0.266033
O O9 0.493229 0.813370 0.404832
O O10 0.174664 0.004437 0.252339
O O11 0.074852 0.833142 0.058971
O O12 0.246787 0.583564 0.554509
O O13 0.711366 0.676320 0.763382
O O14 0.926804 0.984450 0.580848
O O15 0.166848 0.362762 0.403055
#
# Coordination Sequence:
#
# PCOD9101896 Si02
#       8
#     2   2   2   2   1   2   2   2
#     4  10  22  39  60  87 119 155 199 238 291 350
#     4  11  23  40  61  86 119 159 193 241 297 348
#     4  10  20  38  61  86 119 154 195 240 293 349
#     4  11  22  39  61  87 118 153 200 245 289 350
#     4  10  22  38  58  86 122 150 190 240 292 348
#     4  10  22  37  60  86 117 155 196 242 293 348
#     4  10  22  38  60  89 118 153 195 245 290 343
#     4   9  20  39  60  89 119 154 194 242 292 347
#
# _framework density 27.063715999999999
#
# number of rings (size 3 to 8) (size 9 to 14) (size 15 to 20)
#    0.000    1.867    0.000    3.200    0.000    6.400 
#    0.000    0.000    0.000    0.000    0.000    0.000 
#    0.000    0.000    0.000    0.000    0.000    0.000 
#
# Total GULP energy -83835.071459 kJ/mol
# GULP energy per Si atom -5589.004764 kJ/mol
# Density = 2.700212 g / cm^3
# Si number density = 27.063716 Si / 1000 Ang^3
#
#
#
# Elastic Constant Matrix: (Units=GPa)
#
#
# Indices 1 2 3 4 5 6 
#
# 1 108.1639 32.7669 59.5506 -15.7230 -9.4519 0.5477
# 2 32.7669 128.0956 43.3122 -45.8894 -8.6715 23.0681
# 3 59.5506 43.3122 129.4261 -5.2923 -25.9503 -9.9491
# 4 -15.7230 -45.8894 -5.2923 51.7624 -2.3549 -0.0313
# 5 -9.4519 -8.6715 -25.9503 -2.3549 46.8200 -2.8851
# 6 0.5477 23.0681 -9.9491 -0.0313 -2.8851 34.6479
#
#
#
# Elastic Compliance Matrix: (Units=1/GPa)
#
#
# Indices 1 2 3 4 5 6 
#
# 1 0.013096 0.000571 -0.006406 0.003793 -0.000763 -0.002487
# 2 0.000571 0.017935 -0.006789 0.015352 -0.000412 -0.013920
# 3 -0.006406 -0.006789 0.014565 -0.006207 0.005782 0.009280
# 4 0.003793 0.015352 -0.006207 0.033490 0.001117 -0.011940
# 5 -0.000763 -0.000412 0.005782 0.001117 0.024635 0.003999
# 6 -0.002487 -0.013920 0.009280 -0.011940 0.003999 0.041156
#
#
# Mechanical properties :
#
#
# Convention : Reuss Voigt Hill
#
# Bulk Modulus (GPa) = 49.14708 70.77166 59.95937
# Shear Modulus (GPa) = 28.26317 41.98315 35.12316
#
# Velocity S-wave (km/s) = 3.23510 3.94289 3.60640
# Velocity P-wave (km/s) = 5.67042 6.85093 6.28844
#
# Compressibility (1/GPa) = 0.02034709
#
# Stress axis : x y z
#
# Youngs Moduli (GPa) = 76.35678 55.75686 68.65904
#
# Poissons Ratio (x) = -0.03183 0.43983
# Poissons Ratio (y) = -0.04360 0.46616
# Poissons Ratio (z) = 0.48914 0.37856
#
# Static dielectric constant tensor:
#      x y z
#    x 2.317540 0.259440 0.198270 
#    y 0.259440 2.555160 0.424130 
#    z 0.198270 0.424130 2.446210 
# 
# From -- ./inp_files/237930.got.cif
#   From: 2010.05.17/outbox.cif.g08.bks.cpg/sg2_119_cif.got.tgz:237930.got - 2010.06.03 11:33:40.
