data_PCOD9101062
_publ_section_title
;
Structure prediction by ZEFSAII (Michael W. Deem and Ramdas Pophale) SiO2 
 PCOD9101062
Probable space group: P -1
;
_chemical_formula_sum "Si O2"
_cell_formula_units_Z 12
_cell_length_a 8.252287
_cell_length_b 9.214902
_cell_length_c 9.662287
_cell_angle_alpha 66.464834
_cell_angle_beta 45.762386
_cell_angle_gamma 68.800819
_cell_volume 478.758021
_symmetry_space_group_name_H-M "P -1"
_symmetry_group_IT_number 2
_symmetry_cell_setting 'triclinic'
loop_
_space_group_symop_operation_xyz
x,y,z
-x,-y,-z
loop_
_atom_site_type_symbol
_atom_site_label
_atom_site_fract_x
_atom_site_fract_y
_atom_site_fract_z
Si Si1 0.845067 0.465389 0.739586
Si Si2 0.587261 0.837783 0.585058
Si Si3 0.134416 0.633746 0.697530
Si Si4 0.516307 0.495442 0.689893
Si Si5 0.000033 0.004738 0.335105
Si Si6 0.186244 0.876528 0.019524
O O1 0.599842 0.463977 0.809661
O O2 0.897391 0.295567 0.847303
O O3 0.000000 0.500000 0.500000
O O4 0.909928 0.588874 0.770186
O O5 0.571911 0.678252 0.569853
O O6 0.500000 0.000000 0.500000
O O7 0.841034 0.867416 0.453540
O O8 0.424755 0.841969 0.812549
O O9 0.255383 0.511812 0.787653
O O10 0.325231 0.617565 0.466195
O O11 0.093217 0.812001 0.714152
O O12 0.000000 0.000000 0.500000
O O13 0.209288 0.952656 0.128628
O O14 0.000000 0.000000 0.000000
#
# Coordination Sequence:
#
# PCOD9101062 Si02
#       6
#     2   2   2   2   2   2
#     4  10  22  42  68  99 141 186 231 297 353 423
#     4  12  24  45  74  97 144 194 234 295 359 422
#     4  10  20  37  69  97 134 189 227 289 362 417
#     4  10  20  39  65  98 134 183 237 280 358 426
#     4  12  24  45  71 106 149 186 238 303 362 429
#     4  12  26  45  75 109 139 196 247 282 368 446
#
# _framework density 25.064854
#
# number of rings (size 3 to 8) (size 9 to 14) (size 15 to 20)
#    0.000    1.000    3.333    5.000    0.000    1.333 
#    0.000    6.667    0.000    0.000    0.000    0.000 
#    0.000    0.000    0.000    0.000    0.000    0.000 
#
# Total GULP energy -67016.447966 kJ/mol
# GULP energy per Si atom -5584.703997 kJ/mol
# Density = 2.500780 g / cm^3
# Si number density = 25.064854 Si / 1000 Ang^3
#
#
#
# Elastic Constant Matrix: (Units=GPa)
#
#
# Indices 1 2 3 4 5 6 
#
# 1 119.7706 -4.1305 11.9845 -1.2990 10.4613 7.6768
# 2 -4.1305 132.4804 30.0703 -1.2524 -2.9385 9.9989
# 3 11.9845 30.0703 116.7155 13.3016 3.1565 7.5922
# 4 -1.2990 -1.2524 13.3016 45.3476 -5.6023 17.7366
# 5 10.4613 -2.9385 3.1565 -5.6023 32.6030 -1.4917
# 6 7.6768 9.9989 7.5922 17.7366 -1.4917 40.5664
#
#
#
# Elastic Compliance Matrix: (Units=1/GPa)
#
#
# Indices 1 2 3 4 5 6 
#
# 1 0.008850 0.000619 -0.000979 0.001106 -0.002601 -0.002223
# 2 0.000619 0.008329 -0.002303 0.002067 0.001011 -0.002606
# 3 -0.000979 -0.002303 0.009645 -0.003206 -0.001364 0.000300
# 4 0.001106 0.002067 -0.003206 0.028487 0.004469 -0.012410
# 5 -0.002601 0.001011 -0.001364 0.004469 0.032486 -0.000261
# 6 -0.002223 -0.002606 0.000300 -0.012410 -0.000261 0.031074
#
#
# Mechanical properties :
#
#
# Convention : Reuss Voigt Hill
#
# Bulk Modulus (GPa) = 46.51795 49.42391 47.97093
# Shear Modulus (GPa) = 38.06250 45.77289 41.91770
#
# Velocity S-wave (km/s) = 3.90110 4.27802 4.09390
# Velocity P-wave (km/s) = 6.23625 6.64553 6.44414
#
# Compressibility (1/GPa) = 0.02149708
#
# Stress axis : x y z
#
# Youngs Moduli (GPa) = 112.99053 120.06382 103.68598
#
# Poissons Ratio (x) = -0.07429 0.10154
# Poissons Ratio (y) = -0.06992 0.23877
# Poissons Ratio (z) = 0.11065 0.27649
#
# Static dielectric constant tensor:
#      x y z
#    x 2.054650 -0.096250 -0.059350 
#    y -0.096250 2.045250 -0.110150 
#    z -0.059350 -0.110150 2.075210 
# 
# From -- ./inp_files/157031.got.cif
#   From: 2010.05.17/outbox.cif.g08.bks.cpg/sg2_79_cif.got.tgz:157031.got - 2010.06.03 11:33:40.
