data_PCOD9101973
_publ_section_title
;
Structure prediction by ZEFSAII (Michael W. Deem and Ramdas Pophale) SiO2 
 PCOD9101973
Probable space group: P -1
;
_chemical_formula_sum "Si O2"
_cell_formula_units_Z 14
_cell_length_a 25.920476
_cell_length_b 10.771888
_cell_length_c 11.618775
_cell_angle_alpha 155.092387
_cell_angle_beta 31.773751
_cell_angle_gamma 150.317780
_cell_volume 645.818095
_symmetry_space_group_name_H-M "P -1"
_symmetry_group_IT_number 2
_symmetry_cell_setting 'triclinic'
loop_
_space_group_symop_operation_xyz
x,y,z
-x,-y,-z
loop_
_atom_site_type_symbol
_atom_site_label
_atom_site_fract_x
_atom_site_fract_y
_atom_site_fract_z
Si Si1 0.607034 0.137452 0.632266
Si Si2 0.276123 0.302597 0.538161
Si Si3 0.844235 0.266454 0.863715
Si Si4 0.485574 0.519330 0.180329
Si Si5 0.583316 0.861127 0.681116
Si Si6 0.062520 0.567835 0.816563
Si Si7 0.196089 0.162660 0.193101
O O1 0.695355 0.498068 0.731833
O O2 0.568452 0.857279 0.371357
O O3 0.643168 0.035264 0.596195
O O4 0.504784 0.208666 0.922290
O O5 0.367116 0.462761 0.400027
O O6 0.333667 0.174873 0.416474
O O7 0.173425 0.000976 0.424002
O O8 0.233059 0.562684 0.875983
O O9 0.969994 0.518859 0.858047
O O10 0.804340 0.059703 0.884951
O O11 0.500000 0.500000 0.000000
O O12 0.500000 0.500000 0.500000
O O13 0.500000 0.000000 0.000000
O O14 0.104196 0.292187 0.489032
O O15 0.000000 0.500000 0.000000
O O16 0.164066 0.924395 0.942148
#
# Coordination Sequence:
#
# PCOD9101973 Si02
#       7
#     2   2   2   2   2   2   2
#     4  12  24  43  63  91 125 169 213 259 302 378
#     4  12  23  39  63  91 125 166 213 259 303 369
#     4  11  22  38  62  94 126 160 206 258 320 372
#     4  12  25  39  59  93 134 163 197 257 327 376
#     4  12  23  45  67  84 122 173 228 254 296 364
#     4  10  20  38  61  89 125 164 203 251 311 387
#     4  11  22  38  63  92 126 162 205 254 320 379
#
# _framework density 21.677931999999998
#
# number of rings (size 3 to 8) (size 9 to 14) (size 15 to 20)
#    0.000    0.571    2.857    8.143    0.000    3.429 
#    0.000    0.000    0.000    5.143    0.000    0.000 
#    0.000    0.000    0.000    0.000    0.000    0.000 
#
# Total GULP energy -78216.180859 kJ/mol
# GULP energy per Si atom -5586.870061 kJ/mol
# Density = 2.162859 g / cm^3
# Si number density = 21.677932 Si / 1000 Ang^3
#
#
#
# Elastic Constant Matrix: (Units=GPa)
#
#
# Indices 1 2 3 4 5 6 
#
# 1 122.9382 45.3641 16.4006 18.6013 -0.8457 5.0346
# 2 45.3641 50.3726 23.7601 20.7676 13.3533 14.7222
# 3 16.4006 23.7601 118.4342 24.3022 -6.9777 2.2079
# 4 18.6013 20.7676 24.3022 33.6354 15.1216 4.3465
# 5 -0.8457 13.3533 -6.9777 15.1216 39.3542 6.6033
# 6 5.0346 14.7222 2.2079 4.3465 6.6033 34.9741
#
#
#
# Elastic Compliance Matrix: (Units=1/GPa)
#
#
# Indices 1 2 3 4 5 6 
#
# 1 0.013606 -0.014444 0.001997 -0.003283 0.006269 0.003220
# 2 -0.014444 0.046615 -0.005701 -0.009941 -0.010991 -0.013873
# 3 0.001997 -0.005701 0.011698 -0.009573 0.007538 0.001140
# 4 -0.003283 -0.009941 -0.009573 0.052892 -0.019103 0.002295
# 5 0.006269 -0.010991 0.007538 -0.019103 0.038218 -0.001593
# 6 0.003220 -0.013873 0.001140 0.002295 -0.001593 0.033912
#
#
# Mechanical properties :
#
#
# Convention : Reuss Voigt Hill
#
# Bulk Modulus (GPa) = 28.07197 51.42161 39.74679
# Shear Modulus (GPa) = 20.39882 35.34073 27.86978
#
# Velocity S-wave (km/s) = 3.07089 4.04203 3.58946
# Velocity P-wave (km/s) = 5.05485 6.74954 5.96271
#
# Compressibility (1/GPa) = 0.03562273
#
# Stress axis : x y z
#
# Youngs Moduli (GPa) = 73.49930 21.45215 85.48617
#
# Poissons Ratio (x) = 0.30985 -0.17068
# Poissons Ratio (y) = 1.06161 0.48734
# Poissons Ratio (z) = -0.14675 0.12229
#
# Static dielectric constant tensor:
#      x y z
#    x 1.814950 0.018690 0.013500 
#    y 0.018690 1.868290 -0.021400 
#    z 0.013500 -0.021400 1.783090 
# 
# From -- ./inp_files/476665.got.cif
#   From: 2010.05.17/outbox.cif.g08.bks.cpg/sg2_239_cif.got.tgz:476665.got - 2010.06.03 11:33:40.
