data_PCOD9101521
_publ_section_title
;
Structure prediction by ZEFSAII (Michael W. Deem and Ramdas Pophale) SiO2 
 PCOD9101521
Probable space group: P -1
;
_chemical_formula_sum "Si O2"
_cell_formula_units_Z 16
_cell_length_a 11.905967
_cell_length_b 8.127184
_cell_length_c 11.788247
_cell_angle_alpha 41.222671
_cell_angle_beta 78.618166
_cell_angle_gamma 83.893631
_cell_volume 735.330353
_symmetry_space_group_name_H-M "P -1"
_symmetry_group_IT_number 2
_symmetry_cell_setting 'triclinic'
loop_
_space_group_symop_operation_xyz
x,y,z
-x,-y,-z
loop_
_atom_site_type_symbol
_atom_site_label
_atom_site_fract_x
_atom_site_fract_y
_atom_site_fract_z
Si Si1 0.437721 0.730681 0.036197
Si Si2 0.676487 0.840513 0.018250
Si Si3 0.905107 0.770640 0.147919
Si Si4 0.145077 0.301813 0.543356
Si Si5 0.348151 0.221256 0.407109
Si Si6 0.268120 0.777537 0.368918
Si Si7 0.951819 0.241545 0.441347
Si Si8 0.514291 0.094047 0.629665
O O1 0.562604 0.669986 0.095316
O O2 0.360240 0.475598 0.199038
O O3 0.460015 0.870538 0.838120
O O4 0.378490 0.936748 0.016474
O O5 0.787125 0.763900 0.103474
O O6 0.723144 0.956256 0.831339
O O7 0.864282 0.779335 0.282684
O O8 0.965093 0.513813 0.239467
O O9 0.000000 0.000000 0.000000
O O10 0.221555 0.157634 0.513956
O O11 0.212011 0.574431 0.398398
O O12 0.019984 0.286944 0.522256
O O13 0.403217 0.022194 0.419150
O O14 0.421919 0.230368 0.504587
O O15 0.181725 0.787587 0.485241
O O16 0.397774 0.731271 0.403039
O O17 0.000000 0.000000 0.500000
#
# Coordination Sequence:
#
# PCOD9101521 Si02
#       8
#     2   2   2   2   2   2   2   2
#     4  10  21  37  62  88 130 162 210 261 312 374
#     4  10  20  38  59  94 117 160 213 259 309 367
#     4  11  23  40  67  93 125 162 215 268 311 383
#     4  11  22  39  63  91 117 167 211 256 315 378
#     4  11  22  38  62  88 130 166 209 260 317 386
#     4  10  20  40  63  85 124 160 210 262 309 381
#     4  11  24  42  65  90 126 164 207 264 328 380
#     4  10  23  38  58  95 125 168 208 255 323 376
#
# _framework density 21.758928999999998
#
# number of rings (size 3 to 8) (size 9 to 14) (size 15 to 20)
#    0.000    1.500    1.250    4.875    3.500    0.500 
#    0.000    2.500    0.000    0.000    0.000    0.000 
#    0.000    0.000    0.000    0.000    0.000    0.000 
#
# Total GULP energy -89243.469724 kJ/mol
# GULP energy per Si atom -5577.716858 kJ/mol
# Density = 2.170940 g / cm^3
# Si number density = 21.758929 Si / 1000 Ang^3
#
#
#
# Elastic Constant Matrix: (Units=GPa)
#
#
# Indices 1 2 3 4 5 6 
#
# 1 73.0739 5.0867 38.3317 5.2114 1.8279 3.4928
# 2 5.0867 71.9660 12.6295 -8.1458 -0.5372 -8.4611
# 3 38.3317 12.6295 80.9733 4.8168 -11.6632 -1.8838
# 4 5.2114 -8.1458 4.8168 18.6837 -3.2649 7.0738
# 5 1.8279 -0.5372 -11.6632 -3.2649 27.2539 9.5748
# 6 3.4928 -8.4611 -1.8838 7.0738 9.5748 30.6607
#
#
#
# Elastic Compliance Matrix: (Units=1/GPa)
#
#
# Indices 1 2 3 4 5 6 
#
# 1 0.019205 -0.000156 -0.009682 -0.003923 -0.005874 -0.000087
# 2 -0.000156 0.015444 -0.002805 0.006118 -0.001235 0.003082
# 3 -0.009682 -0.002805 0.018695 -0.001470 0.008739 -0.000912
# 4 -0.003923 0.006118 -0.001470 0.066826 0.013994 -0.017743
# 5 -0.005874 -0.001235 0.008739 0.013994 0.048645 -0.017554
# 6 -0.000087 0.003082 -0.000912 -0.017743 -0.017554 0.042995
#
#
# Mechanical properties :
#
#
# Convention : Reuss Voigt Hill
#
# Bulk Modulus (GPa) = 35.63973 37.56765 36.60369
# Shear Modulus (GPa) = 20.28809 26.65065 23.46937
#
# Velocity S-wave (km/s) = 3.05684 3.50353 3.28778
# Velocity P-wave (km/s) = 5.37345 5.80252 5.59210
#
# Compressibility (1/GPa) = 0.02805858
#
# Stress axis : x y z
#
# Youngs Moduli (GPa) = 52.06920 64.74873 53.48886
#
# Poissons Ratio (x) = 0.01013 0.51787
# Poissons Ratio (y) = 0.00814 0.15004
# Poissons Ratio (z) = 0.50413 0.18162
#
# Static dielectric constant tensor:
#      x y z
#    x 1.888590 -0.005310 0.027870 
#    y -0.005310 1.860050 -0.036240 
#    z 0.027870 -0.036240 1.829350 
# 
# From -- ./inp_files/257819.got.cif
#   From: 2010.05.17/outbox.cif.g08.bks.cpg/sg2_129_cif.got.tgz:257819.got - 2010.06.03 11:33:40.
