data_PCOD9101055
_publ_section_title
;
Structure prediction by ZEFSAII (Michael W. Deem and Ramdas Pophale) SiO2 
 PCOD9101055
Probable space group: P -1
;
_chemical_formula_sum "Si O2"
_cell_formula_units_Z 14
_cell_length_a 20.377353
_cell_length_b 9.538785
_cell_length_c 9.734758
_cell_angle_alpha 129.666820
_cell_angle_beta 137.047667
_cell_angle_gamma 28.593385
_cell_volume 617.002997
_symmetry_space_group_name_H-M "P -1"
_symmetry_group_IT_number 2
_symmetry_cell_setting 'triclinic'
loop_
_space_group_symop_operation_xyz
x,y,z
-x,-y,-z
loop_
_atom_site_type_symbol
_atom_site_label
_atom_site_fract_x
_atom_site_fract_y
_atom_site_fract_z
Si Si1 0.513962 0.276667 0.829180
Si Si2 0.425903 0.074471 0.080295
Si Si3 0.864357 0.400457 0.155673
Si Si4 0.837173 0.841523 0.931355
Si Si5 0.317927 0.538300 0.416565
Si Si6 0.200013 0.918438 0.248077
Si Si7 0.973776 0.026339 0.316193
O O1 0.408658 0.410257 0.617920
O O2 0.476152 0.213399 0.864140
O O3 0.500000 0.500000 0.000000
O O4 0.692840 0.970599 0.871740
O O5 0.399331 0.272780 0.275340
O O6 0.253405 0.282908 0.892456
O O7 0.500000 0.000000 0.000000
O O8 0.808267 0.278060 0.948019
O O9 0.027687 0.202399 0.215943
O O10 0.893899 0.323656 0.313866
O O11 0.871142 0.998961 0.123919
O O12 0.000000 0.500000 0.000000
O O13 0.777319 0.962399 0.758198
O O14 0.309992 0.734518 0.434506
O O15 0.137823 0.759836 0.318456
O O16 0.000000 0.000000 0.500000
#
# Coordination Sequence:
#
# PCOD9101055 Si02
#       7
#     2   2   2   2   2   2   2
#     4  12  27  42  63 100 141 165 210 283 340 382
#     4  11  24  41  66  91 129 180 224 260 315 400
#     4   8  16  34  58  88 115 156 218 261 299 371
#     4  11  22  39  63  92 131 169 210 267 340 380
#     4  10  22  43  68  95 128 173 227 263 317 401
#     4   8  16  34  63  86 116 163 209 263 315 379
#     4  10  20  37  69  93 122 167 223 264 315 393
#
# _framework density 22.690325999999999
#
# number of rings (size 3 to 8) (size 9 to 14) (size 15 to 20)
#    0.000    2.000    0.000    5.571    8.000    0.571 
#    0.000    0.000    0.000    5.143    0.000    0.000 
#    0.000    0.000    0.000    0.000    0.000    0.000 
#
# Total GULP energy -78052.060478 kJ/mol
# GULP energy per Si atom -5575.147177 kJ/mol
# Density = 2.263868 g / cm^3
# Si number density = 22.690326 Si / 1000 Ang^3
#
#
#
# Elastic Constant Matrix: (Units=GPa)
#
#
# Indices 1 2 3 4 5 6 
#
# 1 93.0141 18.0963 40.4981 -10.5014 -37.5367 5.4015
# 2 18.0963 72.9150 32.2336 -24.0665 -19.2099 7.9820
# 3 40.4981 32.2336 102.7440 -27.7965 -42.5772 13.6773
# 4 -10.5014 -24.0665 -27.7965 33.3399 5.7024 -9.5771
# 5 -37.5367 -19.2099 -42.5772 5.7024 44.0605 -17.0336
# 6 5.4015 7.9820 13.6773 -9.5771 -17.0336 33.1885
#
#
#
# Elastic Compliance Matrix: (Units=1/GPa)
#
#
# Indices 1 2 3 4 5 6 
#
# 1 0.018108 0.001455 0.001273 0.006821 0.019576 0.008194
# 2 0.001455 0.020372 0.001227 0.015599 0.011037 0.004524
# 3 0.001273 0.001227 0.022925 0.018498 0.024446 0.007935
# 4 0.006821 0.015599 0.018498 0.059441 0.030687 0.020418
# 5 0.019576 0.011037 0.024446 0.030687 0.076234 0.032066
# 6 0.008194 0.004524 0.007935 0.020418 0.032066 0.046789
#
#
# Mechanical properties :
#
#
# Convention : Reuss Voigt Hill
#
# Bulk Modulus (GPa) = 14.42693 50.03656 32.23175
# Shear Modulus (GPa) = 19.30018 33.97412 26.63715
#
# Velocity S-wave (km/s) = 2.91965 3.87369 3.43000
# Velocity P-wave (km/s) = 4.21163 6.48900 5.47014
#
# Compressibility (1/GPa) = 0.06931482
#
# Stress axis : x y z
#
# Youngs Moduli (GPa) = 55.22347 49.08629 43.62076
#
# Poissons Ratio (x) = -0.07141 -0.05552
# Poissons Ratio (y) = -0.08034 -0.05352
# Poissons Ratio (z) = -0.07029 -0.06023
#
# Static dielectric constant tensor:
#      x y z
#    x 1.841340 -0.029870 -0.067620 
#    y -0.029870 1.952110 -0.049350 
#    z -0.067620 -0.049350 1.886370 
# 
# From -- ./inp_files/159568.got.cif
#   From: 2010.05.17/outbox.cif.g08.bks.cpg/sg2_80_cif.got.tgz:159568.got - 2010.06.03 11:33:40.
