data_PCOD9101315
_publ_section_title
;
Structure prediction by ZEFSAII (Michael W. Deem and Ramdas Pophale) SiO2 
 PCOD9101315
Probable space group: P -1
;
_chemical_formula_sum "Si O2"
_cell_formula_units_Z 16
_cell_length_a 11.839415
_cell_length_b 16.429670
_cell_length_c 8.406051
_cell_angle_alpha 59.776577
_cell_angle_beta 41.639287
_cell_angle_gamma 85.541694
_cell_volume 801.940973
_symmetry_space_group_name_H-M "P -1"
_symmetry_group_IT_number 2
_symmetry_cell_setting 'triclinic'
loop_
_space_group_symop_operation_xyz
x,y,z
-x,-y,-z
loop_
_atom_site_type_symbol
_atom_site_label
_atom_site_fract_x
_atom_site_fract_y
_atom_site_fract_z
Si Si1 0.121264 0.831281 0.089975
Si Si2 0.529788 0.404700 0.773129
Si Si3 0.094157 0.245559 0.273495
Si Si4 0.860713 0.798531 0.077744
Si Si5 0.774691 0.939408 0.230210
Si Si6 0.386686 0.724564 0.962297
Si Si7 0.147976 0.465252 0.938508
Si Si8 0.553001 0.423235 0.203765
O O1 0.991334 0.808269 0.411273
O O2 0.999828 0.806527 0.074586
O O3 0.229662 0.761588 0.055943
O O4 0.270630 0.963147 0.815517
O O5 0.687052 0.502402 0.401987
O O6 0.463121 0.467051 0.907638
O O7 0.331929 0.317533 0.975155
O O8 0.626406 0.336240 0.800591
O O9 0.049530 0.183163 0.212550
O O10 0.034787 0.336901 0.221734
O O11 0.793035 0.886423 0.099350
O O12 0.662923 0.678090 0.418071
O O13 0.606115 0.834516 0.607337
O O14 0.000000 0.000000 0.000000
O O15 0.377421 0.632651 0.944172
O O16 0.277707 0.534961 0.882070
O O17 0.000000 0.500000 0.000000
#
# Coordination Sequence:
#
# PCOD9101315 Si02
#       8
#     2   2   2   2   2   2   2   2
#     4  11  24  40  61  92 125 153 201 263 307 342
#     4  11  20  39  59  87 123 160 202 242 293 367
#     4  11  21  40  63  87 121 166 203 239 299 369
#     4  10  20  40  66  88 116 163 209 240 297 372
#     4   9  20  41  64  86 118 158 203 254 301 358
#     4  11  23  37  63  91 120 158 200 255 305 351
#     4  11  22  36  57  89 129 153 193 257 302 342
#     4  10  20  38  58  87 119 164 204 238 292 370
#
# _framework density 19.951594
#
# number of rings (size 3 to 8) (size 9 to 14) (size 15 to 20)
#    0.000    1.500    2.500    4.500    1.750    1.500 
#    0.000    3.750    0.000    4.500    0.000    0.000 
#    0.000    0.000    0.000    0.000    0.000    0.000 
#
# Total GULP energy -89086.705630 kJ/mol
# GULP energy per Si atom -5567.919102 kJ/mol
# Density = 1.990618 g / cm^3
# Si number density = 19.951594 Si / 1000 Ang^3
#
#
#
# Elastic Constant Matrix: (Units=GPa)
#
#
# Indices 1 2 3 4 5 6 
#
# 1 66.5642 46.2896 21.2462 5.3669 6.3714 -2.3789
# 2 46.2896 108.7623 20.7272 -10.0097 2.0780 -2.0074
# 3 21.2462 20.7272 45.4395 7.7452 7.3922 14.0941
# 4 5.3669 -10.0097 7.7452 27.3553 -0.7183 0.4651
# 5 6.3714 2.0780 7.3922 -0.7183 25.0380 5.1300
# 6 -2.3789 -2.0074 14.0941 0.4651 5.1300 37.2599
#
#
#
# Elastic Compliance Matrix: (Units=1/GPa)
#
#
# Indices 1 2 3 4 5 6 
#
# 1 0.025213 -0.009925 -0.006665 -0.006888 -0.004709 0.004330
# 2 -0.009925 0.015088 -0.004619 0.008819 0.002591 0.001460
# 3 -0.006665 -0.004619 0.033707 -0.009860 -0.005588 -0.012532
# 4 -0.006888 0.008819 -0.009860 0.044005 0.004667 0.002573
# 5 -0.004709 0.002591 -0.005588 0.004667 0.043546 -0.004101
# 6 0.004330 0.001460 -0.012532 0.002573 -0.004101 0.032467
#
#
# Mechanical properties :
#
#
# Convention : Reuss Voigt Hill
#
# Bulk Modulus (GPa) = 31.65458 44.14356 37.89907
# Shear Modulus (GPa) = 20.24506 26.76417 23.50461
#
# Velocity S-wave (km/s) = 3.18891 3.66656 3.43604
# Velocity P-wave (km/s) = 5.42761 6.33232 5.89734
#
# Compressibility (1/GPa) = 0.03159100
#
# Stress axis : x y z
#
# Youngs Moduli (GPa) = 39.66198 66.27903 29.66711
#
# Poissons Ratio (x) = 0.65780 0.19772
# Poissons Ratio (y) = 0.39363 0.13704
# Poissons Ratio (z) = 0.26433 0.30616
#
# Static dielectric constant tensor:
#      x y z
#    x 1.751770 0.006230 0.053990 
#    y 0.006230 1.740410 0.036530 
#    z 0.053990 0.036530 1.742810 
# 
# From -- ./inp_files/258418.got.cif
#   From: 2010.05.17/outbox.cif.g08.bks.cpg/sg2_130_cif.got.tgz:258418.got - 2010.06.03 11:33:40.
