data_PCOD9101650
_publ_section_title
;
Structure prediction by ZEFSAII (Michael W. Deem and Ramdas Pophale) SiO2 
 PCOD9101650
Probable space group: P -1
;
_chemical_formula_sum "Si O2"
_cell_formula_units_Z 13
_cell_length_a 10.598918
_cell_length_b 5.328742
_cell_length_c 11.831314
_cell_angle_alpha 103.118669
_cell_angle_beta 101.219678
_cell_angle_gamma 54.302113
_cell_volume 526.868764
_symmetry_space_group_name_H-M "P -1"
_symmetry_group_IT_number 2
_symmetry_cell_setting 'triclinic'
loop_
_space_group_symop_operation_xyz
x,y,z
-x,-y,-z
loop_
_atom_site_type_symbol
_atom_site_label
_atom_site_fract_x
_atom_site_fract_y
_atom_site_fract_z
Si Si1 0.271555 0.219344 0.276896
Si Si2 0.073902 0.930499 0.246169
Si Si3 0.397819 0.347900 0.770409
Si Si4 0.647720 0.499469 0.483479
Si Si5 0.319155 0.254355 0.970120
Si Si6 0.209412 0.869224 0.942232
Si Si7 0.000000 0.000000 0.500000
O O1 0.329035 0.273009 0.412385
O O2 0.155824 0.113374 0.264021
O O3 0.191122 0.556445 0.239825
O O4 0.425104 0.938370 0.215485
O O5 0.649362 0.331080 0.145072
O O6 0.985554 0.033495 0.362166
O O7 0.949002 0.029070 0.135389
O O8 0.366591 0.402030 0.638913
O O9 0.299718 0.273359 0.830191
O O10 0.500000 0.500000 0.500000
O O11 0.809856 0.165070 0.494395
O O12 0.212940 0.162772 0.000399
O O13 0.500000 0.000000 0.000000
O O14 0.738207 0.390523 0.979975
#
# Coordination Sequence:
#
# PCOD9101650 Si02
#       7
#     2   2   2   2   2   2   1
#     4  11  25  38  60  90 131 166 209 249 308 374
#     4  11  23  40  58  90 123 170 205 255 310 375
#     4  10  23  38  65  90 126 165 210 263 310 367
#     4  11  23  40  61  95 134 174 218 256 310 375
#     4  10  22  39  68  96 116 155 212 267 319 374
#     4  10  22  39  66  89 122 158 207 260 313 372
#     4  10  20  38  60  86 128 168 218 252 304 364
#
# _framework density 24.674077
#
# number of rings (size 3 to 8) (size 9 to 14) (size 15 to 20)
#    0.923    0.615    1.538    3.692    4.308    3.692 
#    2.769    0.000    0.000    5.538    0.000    0.000 
#    0.000    0.000    0.000    0.000    0.000    0.000 
#
# Total GULP energy -72412.916348 kJ/mol
# GULP energy per Si atom -5570.224334 kJ/mol
# Density = 2.461792 g / cm^3
# Si number density = 24.674077 Si / 1000 Ang^3
#
#
#
# Elastic Constant Matrix: (Units=GPa)
#
#
# Indices 1 2 3 4 5 6 
#
# 1 136.6643 60.9326 52.4922 0.2742 18.3629 7.9095
# 2 60.9326 92.8435 39.9317 -27.2426 6.5163 11.5290
# 3 52.4922 39.9317 125.5070 -7.9629 -8.7073 12.3576
# 4 0.2742 -27.2426 -7.9629 39.4396 -5.6347 4.1339
# 5 18.3629 6.5163 -8.7073 -5.6347 46.0305 2.3742
# 6 7.9095 11.5290 12.3576 4.1339 2.3742 58.4527
#
#
#
# Elastic Compliance Matrix: (Units=1/GPa)
#
#
# Indices 1 2 3 4 5 6 
#
# 1 0.013888 -0.009808 -0.003827 -0.008686 -0.006028 0.001723
# 2 -0.009808 0.023069 -0.001604 0.016482 0.002575 -0.004154
# 3 -0.003827 -0.001604 0.010646 0.001830 0.004080 -0.001712
# 4 -0.008686 0.016482 0.001830 0.038670 0.006493 -0.005461
# 5 -0.006028 0.002575 0.004080 0.006493 0.025437 -0.002047
# 6 0.001723 -0.004154 -0.001712 -0.005461 -0.002047 0.018525
#
#
# Mechanical properties :
#
#
# Convention : Reuss Voigt Hill
#
# Bulk Modulus (GPa) = 58.39396 73.52531 65.95963
# Shear Modulus (GPa) = 30.04406 42.22845 36.13626
#
# Velocity S-wave (km/s) = 3.49325 4.14146 3.83109
# Velocity P-wave (km/s) = 6.32360 7.26169 6.80882
#
# Compressibility (1/GPa) = 0.01712506
#
# Stress axis : x y z
#
# Youngs Moduli (GPa) = 72.00653 43.34787 93.92926
#
# Poissons Ratio (x) = 0.42516 0.35945
# Poissons Ratio (y) = 0.70624 0.15068
# Poissons Ratio (z) = 0.27555 0.06954
#
# Static dielectric constant tensor:
#      x y z
#    x 1.928950 0.024640 -0.041500 
#    y 0.024640 2.021430 0.018270 
#    z -0.041500 0.018270 1.988600 
# 
# From -- ./inp_files/487116.got.cif
#   From: 2010.05.17/outbox.cif.g08.bks.cpg/sg2_244_cif.got.tgz:487116.got - 2010.06.03 11:33:40.
