data_PCOD9101239
_publ_section_title
;
Structure prediction by ZEFSAII (Michael W. Deem and Ramdas Pophale) SiO2 
 PCOD9101239
Probable space group: P -1
;
_chemical_formula_sum "Si O2"
_cell_formula_units_Z 16
_cell_length_a 6.380160
_cell_length_b 7.363005
_cell_length_c 22.144329
_cell_angle_alpha 53.530307
_cell_angle_beta 51.606423
_cell_angle_gamma 63.891818
_cell_volume 651.503045
_symmetry_space_group_name_H-M "P -1"
_symmetry_group_IT_number 2
_symmetry_cell_setting 'triclinic'
loop_
_space_group_symop_operation_xyz
x,y,z
-x,-y,-z
loop_
_atom_site_type_symbol
_atom_site_label
_atom_site_fract_x
_atom_site_fract_y
_atom_site_fract_z
Si Si1 0.627544 0.265423 0.274418
Si Si2 0.444306 0.449694 0.089545
Si Si3 0.974655 0.199293 0.050989
Si Si4 0.803612 0.400551 0.694062
Si Si5 0.843061 0.931958 0.836344
Si Si6 0.690525 0.459500 0.567222
Si Si7 0.918766 0.715396 0.125194
Si Si8 0.394780 0.197652 0.583123
O O1 0.316961 0.365678 0.297858
O O2 0.762068 0.500817 0.210030
O O3 0.833000 0.122424 0.219840
O O4 0.625815 0.070481 0.364421
O O5 0.289455 0.225327 0.156637
O O6 0.737606 0.391344 0.076139
O O7 0.220691 0.646479 0.110861
O O8 0.500000 0.500000 0.000000
O O9 0.199106 0.147796 0.072158
O O10 0.065519 0.252672 0.956531
O O11 0.836793 0.964738 0.115858
O O12 0.651547 0.419344 0.652655
O O13 0.117233 0.334413 0.632980
O O14 0.746459 0.189513 0.787285
O O15 0.617838 0.247786 0.582404
O O16 0.545996 0.679305 0.514351
O O17 0.000000 0.500000 0.500000
#
# Coordination Sequence:
#
# PCOD9101239 Si02
#       8
#     2   2   2   2   2   2   2   2
#     4  10  21  36  56  87 119 147 189 237 283 339
#     4   9  19  35  54  78 108 146 192 240 288 332
#     4  10  20  38  58  77 114 157 195 245 287 332
#     4  10  21  38  58  85 119 151 184 232 284 336
#     4  10  22  37  55  82 114 154 198 235 285 342
#     4   9  19  41  66  85 117 151 181 230 284 340
#     4   9  20  37  57  84 113 150 198 241 290 339
#     4   9  20  40  64  90 113 147 190 227 283 346
#
# _framework density 24.558596999999999
#
# number of rings (size 3 to 8) (size 9 to 14) (size 15 to 20)
#    0.000    2.500    0.000    0.750    0.000   10.000 
#    0.000   23.125    0.000    0.000    0.000    0.000 
#    0.000    0.000    0.000    0.000    0.000    0.000 
#
# Total GULP energy -89188.723817 kJ/mol
# GULP energy per Si atom -5574.295239 kJ/mol
# Density = 2.450270 g / cm^3
# Si number density = 24.558597 Si / 1000 Ang^3
#
#
#
# Elastic Constant Matrix: (Units=GPa)
#
#
# Indices 1 2 3 4 5 6 
#
# 1 86.0579 26.1511 40.1824 -0.3795 7.7577 3.5785
# 2 26.1511 132.9396 43.4302 -20.7735 -0.1758 -20.3667
# 3 40.1824 43.4302 115.4486 -32.9641 15.4619 -0.5402
# 4 -0.3795 -20.7735 -32.9641 37.8164 -3.1265 -4.8664
# 5 7.7577 -0.1758 15.4619 -3.1265 21.6074 -0.5410
# 6 3.5785 -20.3667 -0.5402 -4.8664 -0.5410 34.2409
#
#
#
# Elastic Compliance Matrix: (Units=1/GPa)
#
#
# Indices 1 2 3 4 5 6 
#
# 1 0.015859 -0.002997 -0.006312 -0.007795 -0.002446 -0.004686
# 2 -0.002997 0.010731 -0.001853 0.005502 0.003473 0.007504
# 3 -0.006312 -0.001853 0.016150 0.012571 -0.007449 0.001481
# 4 -0.007795 0.005502 0.012571 0.041671 0.000133 0.010210
# 5 -0.002446 0.003473 -0.007449 0.000133 0.052613 0.003054
# 6 -0.004686 0.007504 0.001481 0.010210 0.003054 0.035680
#
#
# Mechanical properties :
#
#
# Convention : Reuss Voigt Hill
#
# Bulk Modulus (GPa) = 48.98015 61.55260 55.26637
# Shear Modulus (GPa) = 24.77277 33.71177 29.24227
#
# Velocity S-wave (km/s) = 3.17948 3.70903 3.45442
# Velocity P-wave (km/s) = 5.78501 6.59246 6.20189
#
# Compressibility (1/GPa) = 0.02041643
#
# Stress axis : x y z
#
# Youngs Moduli (GPa) = 63.05512 93.18812 61.91924
#
# Poissons Ratio (x) = 0.27925 0.39086
# Poissons Ratio (y) = 0.18895 0.11472
# Poissons Ratio (z) = 0.39803 0.17265
#
# Static dielectric constant tensor:
#      x y z
#    x 2.022850 -0.047890 -0.046770 
#    y -0.047890 2.002120 0.048690 
#    z -0.046770 0.048690 2.059430 
# 
# From -- ./inp_files/603769.got.cif
#   From: 2010.05.17/outbox.cif.g08.bks.cpg/sg2_302_cif.got.tgz:603769.got - 2010.06.03 11:33:40.
