data_PCOD9101310
_publ_section_title
;
Structure prediction by ZEFSAII (Michael W. Deem and Ramdas Pophale) SiO2 
 PCOD9101310
Probable space group: P -1
;
_chemical_formula_sum "Si O2"
_cell_formula_units_Z 16
_cell_length_a 13.058571
_cell_length_b 9.507038
_cell_length_c 11.691001
_cell_angle_alpha 78.118299
_cell_angle_beta 50.196351
_cell_angle_gamma 52.125114
_cell_volume 837.208702
_symmetry_space_group_name_H-M "P -1"
_symmetry_group_IT_number 2
_symmetry_cell_setting 'triclinic'
loop_
_space_group_symop_operation_xyz
x,y,z
-x,-y,-z
loop_
_atom_site_type_symbol
_atom_site_label
_atom_site_fract_x
_atom_site_fract_y
_atom_site_fract_z
Si Si1 0.124547 0.441817 0.088736
Si Si2 0.674921 0.960350 0.921063
Si Si3 0.094855 0.950450 0.321728
Si Si4 0.519603 0.667335 0.571137
Si Si5 0.453645 0.733277 0.867955
Si Si6 0.765691 0.598371 0.223142
Si Si7 0.259849 0.595473 0.118608
Si Si8 0.220616 0.721005 0.657657
O O1 0.150448 0.562373 0.127115
O O2 0.930299 0.569431 0.158641
O O3 0.173409 0.262789 0.149939
O O4 0.257326 0.348694 0.901419
O O5 0.745547 0.047397 0.783533
O O6 0.644771 0.058625 0.048769
O O7 0.500000 0.000000 0.000000
O O8 0.162077 0.752977 0.259262
O O9 0.000000 0.000000 0.500000
O O10 0.952527 0.105503 0.306910
O O11 0.518918 0.710330 0.696499
O O12 0.608918 0.712134 0.407261
O O13 0.327596 0.761156 0.648654
O O14 0.639769 0.440291 0.507386
O O15 0.598975 0.597761 0.882474
O O16 0.340615 0.664762 0.968682
O O17 0.817834 0.393345 0.220722
#
# Coordination Sequence:
#
# PCOD9101310 Si02
#       8
#     2   2   2   2   2   2   2   2
#     4  11  20  39  59  86 118 157 196 237 294 350
#     4  11  22  40  61  88 121 155 196 242 301 344
#     4  11  23  41  59  90 120 155 199 246 288 354
#     4   9  18  36  60  84 111 154 194 236 296 341
#     4  10  20  38  58  87 116 153 195 247 282 357
#     4   9  20  36  61  81 118 157 190 240 290 352
#     4  10  22  35  60  86 117 153 200 234 296 349
#     4   9  18  36  60  85 112 149 198 235 292 343
#
# _framework density 19.111124
#
# number of rings (size 3 to 8) (size 9 to 14) (size 15 to 20)
#    0.750    1.250    2.500    1.500    0.000    1.000 
#    6.750    3.750    0.000    0.000    0.000    0.000 
#    0.000    0.000    0.000    0.000    0.000    0.000 
#
# Total GULP energy -89118.636371 kJ/mol
# GULP energy per Si atom -5569.914773 kJ/mol
# Density = 1.906763 g / cm^3
# Si number density = 19.111124 Si / 1000 Ang^3
#
#
#
# Elastic Constant Matrix: (Units=GPa)
#
#
# Indices 1 2 3 4 5 6 
#
# 1 94.9933 11.1275 34.5408 -9.4438 -18.3663 27.2851
# 2 11.1275 40.6599 -0.7650 1.2919 -3.8942 14.8335
# 3 34.5408 -0.7650 96.1859 -8.4090 8.3810 22.0075
# 4 -9.4438 1.2919 -8.4090 15.2711 -2.5931 -3.6677
# 5 -18.3663 -3.8942 8.3810 -2.5931 23.0613 3.9141
# 6 27.2851 14.8335 22.0075 -3.6677 3.9141 26.1663
#
#
#
# Elastic Compliance Matrix: (Units=1/GPa)
#
#
# Indices 1 2 3 4 5 6 
#
# 1 0.027968 0.006790 -0.004282 0.011965 0.031838 -0.032497
# 2 0.006790 0.036794 0.004083 -0.002176 0.015666 -0.034021
# 3 -0.004282 0.004083 0.014753 0.001882 -0.006336 -0.009046
# 4 0.011965 -0.002176 0.001882 0.075969 0.017842 -0.004846
# 5 0.031838 0.015666 -0.006336 0.017842 0.083609 -0.046757
# 6 -0.032497 -0.034021 -0.009046 -0.004846 -0.046757 0.105313
#
#
# Mechanical properties :
#
#
# Convention : Reuss Voigt Hill
#
# Bulk Modulus (GPa) = 10.78792 35.73842 23.26317
# Shear Modulus (GPa) = 13.80747 25.36213 19.58480
#
# Velocity S-wave (km/s) = 2.69082 3.64687 3.20470
# Velocity P-wave (km/s) = 3.91294 6.03936 5.08846
#
# Compressibility (1/GPa) = 0.09269631
#
# Stress axis : x y z
#
# Youngs Moduli (GPa) = 35.75516 27.17839 67.78240
#
# Poissons Ratio (x) = -0.18454 0.29026
# Poissons Ratio (y) = -0.24277 -0.27676
# Poissons Ratio (z) = 0.15311 -0.11097
#
# Static dielectric constant tensor:
#      x y z
#    x 1.653200 -0.012680 -0.018430 
#    y -0.012680 1.665000 -0.008180 
#    z -0.018430 -0.008180 1.683700 
# 
# From -- ./inp_files/417050.got.cif
#   From: 2010.05.17/outbox.cif.g08.bks.cpg/sg2_209_cif.got.tgz:417050.got - 2010.06.03 11:33:40.
