data_PCOD9101240
_publ_section_title
;
Structure prediction by ZEFSAII (Michael W. Deem and Ramdas Pophale) SiO2 
 PCOD9101240
Probable space group: P -1
;
_chemical_formula_sum "Si O2"
_cell_formula_units_Z 16
_cell_length_a 19.066675
_cell_length_b 10.100514
_cell_length_c 18.318394
_cell_angle_alpha 157.371200
_cell_angle_beta 33.604321
_cell_angle_gamma 145.659653
_cell_volume 723.883426
_symmetry_space_group_name_H-M "P -1"
_symmetry_group_IT_number 2
_symmetry_cell_setting 'triclinic'
loop_
_space_group_symop_operation_xyz
x,y,z
-x,-y,-z
loop_
_atom_site_type_symbol
_atom_site_label
_atom_site_fract_x
_atom_site_fract_y
_atom_site_fract_z
Si Si1 0.829359 0.579987 0.299454
Si Si2 0.121045 0.770976 0.154753
Si Si3 0.390656 0.163436 0.594100
Si Si4 0.573797 0.244201 0.767918
Si Si5 0.373893 0.712077 0.995554
Si Si6 0.118177 0.045350 0.707231
Si Si7 0.832246 0.844593 0.841296
Si Si8 0.578210 0.790051 0.665015
O O1 0.844477 0.849569 0.354891
O O2 0.701295 0.616328 0.472016
O O3 0.971791 0.718426 0.286439
O O4 0.809459 0.181527 0.079206
O O5 0.162326 0.064206 0.203861
O O6 0.239708 0.775698 0.109644
O O7 0.102671 0.413474 0.941704
O O8 0.389648 0.327391 0.759120
O O9 0.239057 0.984156 0.615443
O O10 0.451985 0.527818 0.679921
O O11 0.457846 0.886948 0.354911
O O12 0.721938 0.486935 0.767976
O O13 0.549596 0.896401 0.662673
O O14 0.500000 0.500000 0.000000
O O15 0.500000 0.000000 0.000000
O O16 0.379894 0.832903 0.135588
O O17 0.973684 0.792902 0.712986
#
# Coordination Sequence:
#
# PCOD9101240 Si02
#       8
#     2   2   2   2   2   2   2   2
#     4   9  16  32  57  83 108 140 179 230 269 308
#     4   8  16  32  57  83 105 142 185 222 262 319
#     4  10  20  38  58  78 106 149 189 216 268 323
#     4  12  25  33  54  86 114 141 171 236 283 314
#     4   9  20  35  60  77 105 147 191 220 256 323
#     4   8  15  31  57  80 103 142 180 224 260 318
#     4   9  19  33  55  86 115 133 178 226 277 322
#     4  11  22  36  56  83 110 143 185 226 268 323
#
# _framework density 22.103006000000001
#
# number of rings (size 3 to 8) (size 9 to 14) (size 15 to 20)
#    0.000    2.500    1.250    2.625    7.000    1.000 
#    0.000    0.625    2.750    6.750    0.000    0.000 
#    0.000    0.000    0.000    0.000    0.000    0.000 
#
# Total GULP energy -89107.699201 kJ/mol
# GULP energy per Si atom -5569.231200 kJ/mol
# Density = 2.205270 g / cm^3
# Si number density = 22.103006 Si / 1000 Ang^3
#
#
#
# Elastic Constant Matrix: (Units=GPa)
#
#
# Indices 1 2 3 4 5 6 
#
# 1 79.7941 9.4656 19.1455 -3.2444 9.5205 15.8462
# 2 9.4656 76.9964 9.0228 1.6180 -9.9161 15.0777
# 3 19.1455 9.0228 142.7933 -0.4430 20.3903 9.5962
# 4 -3.2444 1.6180 -0.4430 26.9768 3.4695 -0.6237
# 5 9.5205 -9.9161 20.3903 3.4695 27.6890 3.2229
# 6 15.8462 15.0777 9.5962 -0.6237 3.2229 19.1710
#
#
#
# Elastic Compliance Matrix: (Units=1/GPa)
#
#
# Indices 1 2 3 4 5 6 
#
# 1 0.015584 -0.000040 -0.000760 0.002068 -0.003701 -0.011780
# 2 -0.000040 0.017235 -0.001443 -0.002586 0.009253 -0.014440
# 3 -0.000760 -0.001443 0.008174 0.000903 -0.006243 -0.001250
# 4 0.002068 -0.002586 0.000903 0.038494 -0.007402 0.002369
# 5 -0.003701 0.009253 -0.006243 -0.007402 0.047307 -0.009288
# 6 -0.011780 -0.014440 -0.001250 0.002369 -0.009288 0.075520
#
#
# Mechanical properties :
#
#
# Convention : Reuss Voigt Hill
#
# Bulk Modulus (GPa) = 27.39128 41.65017 34.52072
# Shear Modulus (GPa) = 22.83404 32.23069 27.53236
#
# Velocity S-wave (km/s) = 3.21763 3.82279 3.53319
# Velocity P-wave (km/s) = 5.12091 6.19431 5.68301
#
# Compressibility (1/GPa) = 0.03650797
#
# Stress axis : x y z
#
# Youngs Moduli (GPa) = 64.16638 58.02042 122.33224
#
# Poissons Ratio (x) = 0.00232 0.09303
# Poissons Ratio (y) = 0.00257 0.17648
# Poissons Ratio (z) = 0.04880 0.08370
#
# Static dielectric constant tensor:
#      x y z
#    x 1.810960 0.039030 -0.020330 
#    y 0.039030 1.842520 -0.054910 
#    z -0.020330 -0.054910 1.956110 
# 
# From -- ./inp_files/387175.got.cif
#   From: 2010.05.17/outbox.cif.g08.bks.cpg/sg2_194_cif.got.tgz:387175.got - 2010.06.03 11:33:40.
