data_PCOD9101755
_publ_section_title
;
Structure prediction by ZEFSAII (Michael W. Deem and Ramdas Pophale) SiO2 
 PCOD9101755
Probable space group: P -1
;
_chemical_formula_sum "Si O2"
_cell_formula_units_Z 16
_cell_length_a 8.257572
_cell_length_b 6.752084
_cell_length_c 20.008327
_cell_angle_alpha 90.621772
_cell_angle_beta 139.250831
_cell_angle_gamma 88.089630
_cell_volume 727.611793
_symmetry_space_group_name_H-M "P -1"
_symmetry_group_IT_number 2
_symmetry_cell_setting 'triclinic'
loop_
_space_group_symop_operation_xyz
x,y,z
-x,-y,-z
loop_
_atom_site_type_symbol
_atom_site_label
_atom_site_fract_x
_atom_site_fract_y
_atom_site_fract_z
Si Si1 0.302077 0.365135 0.639728
Si Si2 0.774770 0.490339 0.520562
Si Si3 0.512860 0.964965 0.203557
Si Si4 0.855229 0.454166 0.137710
Si Si5 0.515344 0.811701 0.053299
Si Si6 0.439523 0.129443 0.416321
Si Si7 0.381708 0.264954 0.259440
Si Si8 0.926377 0.234990 0.287865
O O1 0.333588 0.358920 0.569389
O O2 0.440758 0.210257 0.730237
O O3 0.412627 0.577368 0.693347
O O4 0.007188 0.363232 0.560505
O O5 0.567552 0.338013 0.474457
O O6 0.914933 0.612723 0.620164
O O7 0.476901 0.884137 0.117538
O O8 0.320488 0.124989 0.177505
O O9 0.761164 0.090319 0.276491
O O10 0.773221 0.684449 0.120426
O O11 0.783061 0.356488 0.185932
O O12 0.142787 0.395302 0.211954
O O13 0.692628 0.343545 0.031863
O O14 0.500000 0.000000 0.000000
O O15 0.499114 0.126719 0.355426
O O16 0.143537 0.108730 0.318985
O O17 0.500000 0.000000 0.500000
#
# Coordination Sequence:
#
# PCOD9101755 Si02
#       8
#     2   2   2   2   2   2   2   2
#     4  10  22  39  60  94 136 179 214 274 330 388
#     4  10  20  38  60  90 136 181 224 265 330 384
#     4  12  24  40  71  98 133 171 228 275 337 398
#     4  10  24  46  69  96 135 169 219 276 340 400
#     4  11  24  45  74 100 124 171 222 278 340 408
#     4  10  22  38  59  96 134 182 230 269 313 388
#     4  10  24  44  63 101 139 173 219 277 331 395
#     4  11  21  39  64  93 132 177 221 272 327 390
#
# _framework density 21.989747999999999
#
# number of rings (size 3 to 8) (size 9 to 14) (size 15 to 20)
#    0.000    1.500    2.500    1.875    1.750    2.000 
#    0.000    1.250    0.000    0.000    0.000    0.000 
#    0.000    0.000    0.000    0.000    0.000    0.000 
#
# Total GULP energy -89174.009745 kJ/mol
# GULP energy per Si atom -5573.375609 kJ/mol
# Density = 2.193970 g / cm^3
# Si number density = 21.989748 Si / 1000 Ang^3
#
#
#
# Elastic Constant Matrix: (Units=GPa)
#
#
# Indices 1 2 3 4 5 6 
#
# 1 71.8363 56.3090 27.1284 -4.5931 -17.5639 8.1666
# 2 56.3090 97.2112 43.4731 -15.5081 -26.7354 4.9328
# 3 27.1284 43.4731 90.1047 1.5291 -29.4892 -9.0959
# 4 -4.5931 -15.5081 1.5291 47.7416 -4.5395 -9.3632
# 5 -17.5639 -26.7354 -29.4892 -4.5395 37.1579 9.2610
# 6 8.1666 4.9328 -9.0959 -9.3632 9.2610 33.0532
#
#
#
# Elastic Compliance Matrix: (Units=1/GPa)
#
#
# Indices 1 2 3 4 5 6 
#
# 1 0.026884 -0.014678 -0.000681 -0.003131 0.002796 -0.006310
# 2 -0.014678 0.024450 -0.005076 0.007127 0.007898 -0.001613
# 3 -0.000681 -0.005076 0.016870 -0.000866 0.008581 0.002919
# 4 -0.003131 0.007127 -0.000866 0.024429 0.004679 0.005081
# 5 0.002796 0.007898 0.008581 0.004679 0.043912 -0.010486
# 6 -0.006310 -0.001613 0.002919 0.005081 -0.010486 0.037235
#
#
# Mechanical properties :
#
#
# Convention : Reuss Voigt Hill
#
# Bulk Modulus (GPa) = 36.58530 56.99703 46.79117
# Shear Modulus (GPa) = 22.34519 32.40666 27.37593
#
# Velocity S-wave (km/s) = 3.19119 3.84307 3.53220
# Velocity P-wave (km/s) = 5.50017 6.75783 6.16117
#
# Compressibility (1/GPa) = 0.02733338
#
# Stress axis : x y z
#
# Youngs Moduli (GPa) = 37.19688 40.89921 59.27674
#
# Poissons Ratio (x) = 0.60033 0.04037
# Poissons Ratio (y) = 0.54598 0.30090
# Poissons Ratio (z) = 0.02533 0.20761
#
# Static dielectric constant tensor:
#      x y z
#    x 1.979360 -0.067140 -0.038050 
#    y -0.067140 1.853560 -0.029000 
#    z -0.038050 -0.029000 1.816720 
# 
# From -- ./inp_files/97740.got.cif
#   From: 2010.05.17/outbox.cif.g08.bks.cpg/sg2_49_cif.got.tgz:97740.got - 2010.06.03 11:33:40.
