data_PCOD9101539
_publ_section_title
;
Structure prediction by ZEFSAII (Michael W. Deem and Ramdas Pophale) SiO2 
 PCOD9101539
Probable space group: P -1
;
_chemical_formula_sum "Si O2"
_cell_formula_units_Z 16
_cell_length_a 14.091276
_cell_length_b 8.391095
_cell_length_c 18.110241
_cell_angle_alpha 63.916342
_cell_angle_beta 145.739111
_cell_angle_gamma 141.053542
_cell_volume 620.546352
_symmetry_space_group_name_H-M "P -1"
_symmetry_group_IT_number 2
_symmetry_cell_setting 'triclinic'
loop_
_space_group_symop_operation_xyz
x,y,z
-x,-y,-z
loop_
_atom_site_type_symbol
_atom_site_label
_atom_site_fract_x
_atom_site_fract_y
_atom_site_fract_z
Si Si1 0.287421 0.661557 0.695848
Si Si2 0.441519 0.730356 0.215371
Si Si3 0.360094 0.140924 0.450888
Si Si4 0.100236 0.466172 0.779750
Si Si5 0.778964 0.699389 0.974195
Si Si6 0.013723 0.902585 0.427510
Si Si7 0.972022 0.119994 0.130776
Si Si8 0.057467 0.792665 0.752607
O O1 0.000000 0.500000 0.500000
O O2 0.226113 0.540793 0.764137
O O3 0.276476 0.471305 0.677351
O O4 0.503730 0.014347 0.779329
O O5 0.183910 0.443609 0.162828
O O6 0.762415 0.919486 0.398283
O O7 0.348350 0.556057 0.114551
O O8 0.193303 0.158096 0.297563
O O9 0.706854 0.461066 0.605496
O O10 0.242363 0.862829 0.393115
O O11 0.234777 0.038317 0.474240
O O12 0.176386 0.728645 0.799115
O O13 0.159745 0.390372 0.901929
O O14 0.751619 0.842883 0.987065
O O15 0.000000 0.000000 0.000000
O O16 0.908485 0.001384 0.313768
O O17 0.816992 0.067165 0.113842
#
# Coordination Sequence:
#
# PCOD9101539 Si02
#       8
#     2   2   2   2   2   2   2   2
#     4   9  20  35  55  76 101 139 180 217 246 309
#     4  10  16  32  54  72 100 136 188 211 234 303
#     4   9  15  29  50  76 101 133 169 210 262 315
#     4  10  21  33  49  82 109 132 171 217 266 307
#     4   9  20  35  55  76 101 139 180 217 246 309
#     4   9  16  30  54  78  99 134 178 208 255 309
#     4   9  16  30  54  78  99 134 178 208 255 309
#     4  11  17  29  55  79 108 129 160 231 282 299
#
# _framework density 25.783733000000002
#
# number of rings (size 3 to 8) (size 9 to 14) (size 15 to 20)
#    0.000    2.500    2.500    1.875    0.000    0.500 
#    0.000    5.000    0.000    6.000    0.000    0.000 
#    0.000    0.000    0.000    0.000    0.000    0.000 
#
# Total GULP energy -89127.037379 kJ/mol
# GULP energy per Si atom -5570.439836 kJ/mol
# Density = 2.572505 g / cm^3
# Si number density = 25.783733 Si / 1000 Ang^3
#
#
#
# Elastic Constant Matrix: (Units=GPa)
#
#
# Indices 1 2 3 4 5 6 
#
# 1 119.0694 34.9659 23.6671 -0.9377 -33.7505 -11.1600
# 2 34.9659 43.2320 65.4365 -23.6079 -6.6065 -80.5727
# 3 23.6671 65.4365 94.5220 38.3436 -46.8530 25.9655
# 4 -0.9377 -23.6079 38.3436 10.4465 1.9534 -37.7996
# 5 -33.7505 -6.6065 -46.8530 1.9534 45.2167 16.7749
# 6 -11.1600 -80.5727 25.9655 -37.7996 16.7749 26.8717
#
#
#
# Elastic Compliance Matrix: (Units=1/GPa)
#
#
# Indices 1 2 3 4 5 6 
#
# 1 0.011075 -0.001653 -0.000479 0.004151 0.006695 0.001765
# 2 -0.001653 0.006990 0.003919 -0.011572 0.005558 -0.003260
# 3 -0.000479 0.003919 0.007372 0.003735 0.005337 0.006350
# 4 0.004151 -0.011572 0.003735 0.023117 0.007530 -0.008765
# 5 0.006695 0.005558 0.005337 0.007530 0.031102 0.005465
# 6 0.001765 -0.003260 0.006350 -0.008765 0.005465 0.006294
#
#
# Mechanical properties :
#
#
# Convention : Reuss Voigt Hill
#
# Bulk Modulus (GPa) = 34.46891 56.10693 45.28792
# Shear Modulus (GPa) = 54.32036 25.35724 39.83880
#
# Velocity S-wave (km/s) = 4.59493 3.13942 3.93506
# Velocity P-wave (km/s) = 6.44583 5.91178 6.18457
#
# Compressibility (1/GPa) = 0.02901165
#
# Stress axis : x y z
#
# Youngs Moduli (GPa) = 90.29499 143.05358 135.64428
#
# Poissons Ratio (x) = 0.23649 0.06495
# Poissons Ratio (y) = 0.14927 -0.53160
# Poissons Ratio (z) = 0.04324 -0.56064
#
# Static dielectric constant tensor:
#      x y z
#    x 1.997030 -0.076820 0.118990 
#    y -0.076820 2.081780 -0.020780 
#    z 0.118990 -0.020780 2.250360 
# 
# From -- ./inp_files/265350.got.cif
#   From: 2010.05.17/outbox.cif.g08.bks.cpg/sg2_133_cif.got.tgz:265350.got - 2010.06.03 11:33:40.
