data_PCOD9101994
_publ_section_title
;
Structure prediction by ZEFSAII (Michael W. Deem and Ramdas Pophale) SiO2 
 PCOD9101994
Probable space group: P -1
;
_chemical_formula_sum "Si O2"
_cell_formula_units_Z 16
_cell_length_a 13.305021
_cell_length_b 12.033371
_cell_length_c 8.959655
_cell_angle_alpha 68.221468
_cell_angle_beta 92.547611
_cell_angle_gamma 37.052870
_cell_volume 636.872578
_symmetry_space_group_name_H-M "P -1"
_symmetry_group_IT_number 2
_symmetry_cell_setting 'triclinic'
loop_
_space_group_symop_operation_xyz
x,y,z
-x,-y,-z
loop_
_atom_site_type_symbol
_atom_site_label
_atom_site_fract_x
_atom_site_fract_y
_atom_site_fract_z
Si Si1 0.064858 0.462525 0.687956
Si Si2 0.911706 0.235681 0.192985
Si Si3 0.924352 0.971175 0.188894
Si Si4 0.430265 0.624956 0.270185
Si Si5 0.880780 0.742635 0.939413
Si Si6 0.375359 0.010801 0.456723
Si Si7 0.460078 0.690675 0.796259
Si Si8 0.765455 0.468372 0.377890
O O1 0.234079 0.391964 0.729647
O O2 0.000000 0.500000 0.500000
O O3 0.854458 0.735974 0.611986
O O4 0.127648 0.280040 0.876718
O O5 0.998847 0.019035 0.245681
O O6 0.912233 0.257809 0.359269
O O7 0.009010 0.249738 0.108598
O O8 0.669352 0.475661 0.013533
O O9 0.736901 0.113163 0.206318
O O10 0.806569 0.115165 0.949238
O O11 0.122347 0.677746 0.382276
O O12 0.500000 0.500000 0.500000
O O13 0.536405 0.423467 0.259867
O O14 0.544503 0.633095 0.269495
O O15 0.657933 0.973567 0.727999
O O16 0.000000 0.500000 0.000000
O O17 0.500000 0.000000 0.500000
O O18 0.472555 0.795430 0.646311
#
# Coordination Sequence:
#
# PCOD9101994 Si02
#       8
#     2   2   2   2   2   2   2   2
#     4  11  25  44  63  93 132 172 216 271 339 384
#     4  11  19  36  69  96 125 163 215 275 312 377
#     4  11  22  39  67  99 121 167 222 259 316 387
#     4  11  26  42  61  99 140 167 204 270 337 389
#     4  10  20  38  61  90 122 171 215 257 320 383
#     4  11  23  38  66  96 123 168 229 272 311 389
#     4  11  20  39  65  96 124 163 220 266 311 387
#     4  12  22  40  71  90 127 174 216 267 322 393
#
# _framework density 25.122765000000001
#
# number of rings (size 3 to 8) (size 9 to 14) (size 15 to 20)
#    0.000    1.000    6.250    2.625    1.750    3.500 
#    2.250    0.625    0.000    0.000    0.000    0.000 
#    0.000    0.000    0.000    0.000    0.000    0.000 
#
# Total GULP energy -89539.211926 kJ/mol
# GULP energy per Si atom -5596.200745 kJ/mol
# Density = 2.506558 g / cm^3
# Si number density = 25.122765 Si / 1000 Ang^3
#
#
#
# Elastic Constant Matrix: (Units=GPa)
#
#
# Indices 1 2 3 4 5 6 
#
# 1 202.2759 11.9920 42.3510 15.0973 -9.4817 12.2558
# 2 11.9920 32.8508 20.5762 13.0521 3.1368 4.2220
# 3 42.3510 20.5762 186.4876 31.2729 -11.4549 4.4085
# 4 15.0973 13.0521 31.2729 33.9935 4.9298 -1.5493
# 5 -9.4817 3.1368 -11.4549 4.9298 47.8796 -6.3602
# 6 12.2558 4.2220 4.4085 -1.5493 -6.3602 15.7660
#
#
#
# Elastic Compliance Matrix: (Units=1/GPa)
#
#
# Indices 1 2 3 4 5 6 
#
# 1 0.005533 -0.000339 -0.000773 -0.001883 0.000604 -0.003935
# 2 -0.000339 0.038860 -0.001938 -0.013058 -0.003358 -0.012238
# 3 -0.000773 -0.001938 0.006817 -0.005511 0.002109 -0.000477
# 4 -0.001883 -0.013058 -0.005511 0.041312 -0.003895 0.008990
# 5 0.000604 -0.003358 0.002109 -0.003895 0.023308 0.008860
# 6 -0.003935 -0.012238 -0.000477 0.008990 0.008860 0.074355
#
#
# Mechanical properties :
#
#
# Convention : Reuss Voigt Hill
#
# Bulk Modulus (GPa) = 22.16855 63.49473 42.83164
# Shear Modulus (GPa) = 23.66061 42.64083 33.15072
#
# Velocity S-wave (km/s) = 3.07220 4.12430 3.63650
# Velocity P-wave (km/s) = 4.62902 6.92881 5.89221
#
# Compressibility (1/GPa) = 0.04510894
#
# Stress axis : x y z
#
# Youngs Moduli (GPa) = 180.73275 25.73345 146.69840
#
# Poissons Ratio (x) = 0.00873 0.11344
# Poissons Ratio (y) = 0.06134 0.28426
# Poissons Ratio (z) = 0.13975 0.04986
#
# Static dielectric constant tensor:
#      x y z
#    x 2.060040 0.131840 -0.000040 
#    y 0.131840 2.193580 0.063290 
#    z -0.000040 0.063290 2.105490 
# 
# From -- ./inp_files/186095.got.cif
#   From: 2010.05.17/outbox.cif.g08.bks.cpg/sg2_94_cif.got.tgz:186095.got - 2010.06.03 11:33:40.
