data_PCOD9101623
_publ_section_title
;
Structure prediction by ZEFSAII (Michael W. Deem and Ramdas Pophale) SiO2 
 PCOD9101623
Probable space group: P -1
;
_chemical_formula_sum "Si O2"
_cell_formula_units_Z 16
_cell_length_a 5.335265
_cell_length_b 29.407140
_cell_length_c 5.926462
_cell_angle_alpha 131.084978
_cell_angle_beta 73.760757
_cell_angle_gamma 120.472102
_cell_volume 601.982567
_symmetry_space_group_name_H-M "P -1"
_symmetry_group_IT_number 2
_symmetry_cell_setting 'triclinic'
loop_
_space_group_symop_operation_xyz
x,y,z
-x,-y,-z
loop_
_atom_site_type_symbol
_atom_site_label
_atom_site_fract_x
_atom_site_fract_y
_atom_site_fract_z
Si Si1 0.184152 0.876024 0.425530
Si Si2 0.319706 0.510154 0.876513
Si Si3 0.467026 0.658235 0.280630
Si Si4 0.193024 0.250461 0.176311
Si Si5 0.839822 0.992276 0.268819
Si Si6 0.712964 0.276795 0.826038
Si Si7 0.097356 0.365214 0.357287
Si Si8 0.437690 0.139081 0.313524
O O1 0.259643 0.948673 0.532943
O O2 0.430903 0.880326 0.556617
O O3 0.880170 0.862506 0.586328
O O4 0.077822 0.812297 0.073398
O O5 0.264270 0.444647 0.526692
O O6 0.500000 0.500000 0.000000
O O7 0.487010 0.588558 0.031743
O O8 0.000000 0.500000 0.000000
O O9 0.714285 0.732580 0.532648
O O10 0.346920 0.667701 0.103242
O O11 0.201098 0.644392 0.477708
O O12 0.220369 0.325221 0.355786
O O13 0.462316 0.243382 0.966830
O O14 0.000000 0.000000 0.500000
O O15 0.605470 0.914698 0.044632
O O16 0.000000 0.000000 0.000000
O O17 0.669111 0.216678 0.474645
O O18 0.013526 0.316869 0.005318
#
# Coordination Sequence:
#
# PCOD9101623 Si02
#       8
#     2   2   2   2   2   2   2   2
#     4  10  21  41  66  92 130 173 216 267 332 396
#     4  10  20  38  60  85 122 163 207 261 325 386
#     4  10  22  37  60  88 119 164 210 261 322 387
#     4  10  20  38  61  85 124 164 207 260 323 379
#     4  10  23  44  70 101 139 181 228 280 338 404
#     4  10  22  38  60  90 124 159 214 262 317 385
#     4  10  20  39  60  83 122 164 205 263 320 384
#     4  10  21  42  64  93 132 170 214 271 331 394
#
# _framework density 26.578841000000001
#
# number of rings (size 3 to 8) (size 9 to 14) (size 15 to 20)
#    0.000    2.000    2.500    0.375    1.750    1.500 
#    0.000   10.625    0.000    0.000    0.000    0.000 
#    0.000    0.000    0.000    0.000    0.000    0.000 
#
# Total GULP energy -89277.652979 kJ/mol
# GULP energy per Si atom -5579.853311 kJ/mol
# Density = 2.651835 g / cm^3
# Si number density = 26.578841 Si / 1000 Ang^3
#
#
#
# Elastic Constant Matrix: (Units=GPa)
#
#
# Indices 1 2 3 4 5 6 
#
# 1 106.2386 31.4853 44.7030 -1.8326 0.3453 -9.8127
# 2 31.4853 116.0552 36.8229 33.1579 5.7400 -25.1115
# 3 44.7030 36.8229 216.2216 27.0651 -11.6423 -1.6932
# 4 -1.8326 33.1579 27.0651 52.1990 -3.9001 2.0443
# 5 0.3453 5.7400 -11.6423 -3.9001 55.6861 -0.5327
# 6 -9.8127 -25.1115 -1.6932 2.0443 -0.5327 60.9224
#
#
#
# Elastic Compliance Matrix: (Units=1/GPa)
#
#
# Indices 1 2 3 4 5 6 
#
# 1 0.011457 -0.003409 -0.002249 0.003729 0.000074 0.000253
# 2 -0.003409 0.013453 -0.000562 -0.008732 -0.002044 0.005256
# 3 -0.002249 -0.000562 0.005554 -0.002509 0.001054 -0.000346
# 4 0.003729 -0.008732 -0.002509 0.026453 0.002167 -0.003937
# 5 0.000074 -0.002044 0.001054 0.002167 0.018533 -0.000712
# 6 0.000253 0.005256 -0.000346 -0.003937 -0.000712 0.018738
#
#
# Mechanical properties :
#
#
# Convention : Reuss Voigt Hill
#
# Bulk Modulus (GPa) = 55.48348 73.83755 64.66052
# Shear Modulus (GPa) = 44.39107 55.46178 49.92643
#
# Velocity S-wave (km/s) = 4.09120 4.57299 4.33878
# Velocity P-wave (km/s) = 6.57553 7.46484 7.03425
#
# Compressibility (1/GPa) = 0.01802338
#
# Stress axis : x y z
#
# Youngs Moduli (GPa) = 87.28379 74.33266 180.06016
#
# Poissons Ratio (x) = 0.25340 0.40495
# Poissons Ratio (y) = 0.29755 0.10122
# Poissons Ratio (z) = 0.19630 0.04178
#
# Static dielectric constant tensor:
#      x y z
#    x 2.057970 0.102490 -0.023240 
#    y 0.102490 2.113260 -0.005140 
#    z -0.023240 -0.005140 2.124880 
# 
# From -- ./inp_files/10810.got.cif
#   From: 2010.05.17/outbox.cif.g08.bks.cpg/sg2_6_cif.got.tgz:10810.got - 2010.06.03 11:33:40.
