data_PCOD9101116
_publ_section_title
;
Structure prediction by ZEFSAII (Michael W. Deem and Ramdas Pophale) SiO2 
 PCOD9101116
Probable space group: P -1
;
_chemical_formula_sum "Si O2"
_cell_formula_units_Z 12
_cell_length_a 6.124749
_cell_length_b 13.801050
_cell_length_c 7.324358
_cell_angle_alpha 119.406714
_cell_angle_beta 124.974747
_cell_angle_gamma 73.823918
_cell_volume 441.937705
_symmetry_space_group_name_H-M "P -1"
_symmetry_group_IT_number 2
_symmetry_cell_setting 'triclinic'
loop_
_space_group_symop_operation_xyz
x,y,z
-x,-y,-z
loop_
_atom_site_type_symbol
_atom_site_label
_atom_site_fract_x
_atom_site_fract_y
_atom_site_fract_z
Si Si1 0.207592 0.946444 0.295388
Si Si2 0.364229 0.356387 0.814461
Si Si3 0.966161 0.846690 0.412594
Si Si4 0.941798 0.515487 0.700944
Si Si5 0.501207 0.335030 0.438436
Si Si6 0.400741 0.806558 0.959691
O O1 0.189856 0.879863 0.036254
O O2 0.174274 0.857709 0.359882
O O3 0.500000 0.000000 0.500000
O O4 0.016796 0.049104 0.346421
O O5 0.121467 0.267683 0.640778
O O6 0.459255 0.338022 0.636991
O O7 0.571990 0.311234 0.022758
O O8 0.220753 0.475659 0.887215
O O9 0.685060 0.864845 0.182348
O O10 0.715201 0.429782 0.578934
O O11 0.789900 0.632543 0.757790
O O12 0.000000 0.500000 0.500000
O O13 0.604726 0.224924 0.283789
#
# Coordination Sequence:
#
# PCOD9101116 Si02
#       6
#     2   2   2   2   2   2
#     4   9  16  32  55  79 109 139 170 215 268 306
#     4   9  20  34  56  81 102 141 179 215 262 309
#     4   8  18  33  55  79 106 139 175 216 260 312
#     4   9  20  37  53  76 111 141 170 221 267 307
#     4  10  20  38  55  76 110 139 175 220 265 309
#     4   9  20  33  57  82 101 141 178 216 261 311
#
# _framework density 27.15315
#
# number of rings (size 3 to 8) (size 9 to 14) (size 15 to 20)
#    1.000    2.000    0.000    0.000    2.333    3.333 
#    0.000    8.333    0.000    6.000    0.000    0.000 
#    0.000    0.000    0.000    0.000    0.000    0.000 
#
# Total GULP energy -67010.332871 kJ/mol
# GULP energy per Si atom -5584.194406 kJ/mol
# Density = 2.709135 g / cm^3
# Si number density = 27.153150 Si / 1000 Ang^3
#
#
#
# Elastic Constant Matrix: (Units=GPa)
#
#
# Indices 1 2 3 4 5 6 
#
# 1 141.3055 36.5933 48.2810 -5.2316 -33.2322 26.8014
# 2 36.5933 74.0098 48.7477 -1.8857 -20.6818 9.7645
# 3 48.2810 48.7477 137.9166 -1.5792 -45.4963 11.1019
# 4 -5.2316 -1.8857 -1.5792 39.7116 -5.7597 -22.6460
# 5 -33.2322 -20.6818 -45.4963 -5.7597 42.3208 -0.9291
# 6 26.8014 9.7645 11.1019 -22.6460 -0.9291 61.3078
#
#
#
# Elastic Compliance Matrix: (Units=1/GPa)
#
#
# Indices 1 2 3 4 5 6 
#
# 1 0.010022 -0.002541 -0.000226 -0.000111 0.006285 -0.003882
# 2 -0.002541 0.018713 -0.005108 0.000083 0.001650 -0.000889
# 3 -0.000226 -0.005108 0.013001 0.001506 0.011492 -0.000712
# 4 -0.000111 0.000083 0.001506 0.033025 0.006331 0.012057
# 5 0.006285 0.001650 0.011492 0.006331 0.042540 -0.002108
# 6 -0.003882 -0.000889 -0.000712 0.012057 -0.002108 0.022700
#
#
# Mechanical properties :
#
#
# Convention : Reuss Voigt Hill
#
# Bulk Modulus (GPa) = 38.48134 68.94176 53.71155
# Shear Modulus (GPa) = 30.41113 43.30870 36.85991
#
# Velocity S-wave (km/s) = 3.35025 3.99805 3.68840
# Velocity P-wave (km/s) = 5.40077 6.83796 6.16141
#
# Compressibility (1/GPa) = 0.02598662
#
# Stress axis : x y z
#
# Youngs Moduli (GPa) = 99.77768 53.43882 76.91831
#
# Poissons Ratio (x) = 0.13579 0.01738
# Poissons Ratio (y) = 0.25353 0.39288
# Poissons Ratio (z) = 0.02254 0.27295
#
# Static dielectric constant tensor:
#      x y z
#    x 2.136970 -0.124870 0.060280 
#    y -0.124870 2.347090 -0.087220 
#    z 0.060280 -0.087220 2.113050 
# 
# From -- ./inp_files/92016.got.cif
#   From: 2010.05.17/outbox.cif.g08.bks.cpg/sg2_47_cif.got.tgz:92016.got - 2010.06.03 11:33:40.
