data_PCOD9101541
_publ_section_title
;
Structure prediction by ZEFSAII (Michael W. Deem and Ramdas Pophale) SiO2 
 PCOD9101541
Probable space group: P -1
;
_chemical_formula_sum "Si O2"
_cell_formula_units_Z 16
_cell_length_a 6.423325
_cell_length_b 28.156131
_cell_length_c 18.050298
_cell_angle_alpha 160.441266
_cell_angle_beta 132.158014
_cell_angle_gamma 46.845711
_cell_volume 792.492029
_symmetry_space_group_name_H-M "P -1"
_symmetry_group_IT_number 2
_symmetry_cell_setting 'triclinic'
loop_
_space_group_symop_operation_xyz
x,y,z
-x,-y,-z
loop_
_atom_site_type_symbol
_atom_site_label
_atom_site_fract_x
_atom_site_fract_y
_atom_site_fract_z
Si Si1 0.215767 0.177797 0.167929
Si Si2 0.632690 0.330341 0.774759
Si Si3 0.843085 0.101669 0.177297
Si Si4 0.704771 0.197080 0.976781
Si Si5 0.875283 0.118115 0.736747
Si Si6 0.453800 0.926539 0.538727
Si Si7 0.227048 0.308750 0.527241
Si Si8 0.067737 0.356526 0.031579
O O1 0.510962 0.175080 0.190593
O O2 0.236588 0.250056 0.359395
O O3 0.931956 0.250071 0.161738
O O4 0.187066 0.010586 0.929411
O O5 0.468712 0.234578 0.647830
O O6 0.544114 0.288836 0.610403
O O7 0.500000 0.500000 0.000000
O O8 0.952239 0.316313 0.864091
O O9 0.036867 0.220841 0.402529
O O10 0.000000 0.000000 0.000000
O O11 0.841680 0.150989 0.862426
O O12 0.629472 0.050070 0.776758
O O13 0.408165 0.310262 0.056301
O O14 0.606691 0.079151 0.571663
O O15 0.146514 0.989669 0.596744
O O16 0.938613 0.257292 0.912926
O O17 0.067305 0.476369 0.739112
#
# Coordination Sequence:
#
# PCOD9101541 Si02
#       8
#     2   2   2   2   2   2   2   2
#     4  10  22  36  57  87 110 145 192 226 273 335
#     4   9  18  36  60  82 110 145 181 230 283 327
#     4   9  20  39  57  79 111 144 186 233 272 320
#     4  11  21  35  57  84 116 149 184 227 276 332
#     4   9  19  34  53  79 113 144 180 229 271 326
#     4   9  18  34  56  82 107 143 187 224 276 329
#     4  10  20  38  60  80 112 150 185 230 278 328
#     4   9  21  38  56  84 114 145 185 229 281 332
#
# _framework density 20.189478000000001
#
# number of rings (size 3 to 8) (size 9 to 14) (size 15 to 20)
#    0.000    2.500    0.000    1.875    0.000    8.500 
#    0.000    3.750    0.000   12.750    0.000    0.000 
#    0.000    0.000    0.000    0.000    0.000    0.000 
#
# Total GULP energy -89122.389293 kJ/mol
# GULP energy per Si atom -5570.149331 kJ/mol
# Density = 2.014353 g / cm^3
# Si number density = 20.189478 Si / 1000 Ang^3
#
#
#
# Elastic Constant Matrix: (Units=GPa)
#
#
# Indices 1 2 3 4 5 6 
#
# 1 54.4396 35.2938 20.9348 -9.0051 -6.9184 -9.2349
# 2 35.2938 133.5155 42.7192 -32.2736 -5.9858 -19.5327
# 3 20.9348 42.7192 94.7806 2.9979 -2.1968 -4.8394
# 4 -9.0051 -32.2736 2.9979 45.7905 8.7720 7.6732
# 5 -6.9184 -5.9858 -2.1968 8.7720 12.6316 -8.4573
# 6 -9.2349 -19.5327 -4.8394 7.6732 -8.4573 20.4182
#
#
#
# Elastic Compliance Matrix: (Units=1/GPa)
#
#
# Indices 1 2 3 4 5 6 
#
# 1 0.030400 -0.003036 -0.002483 -0.009297 0.042125 0.031199
# 2 -0.003036 0.013067 -0.004705 0.005849 0.006754 0.010611
# 3 -0.002483 -0.004705 0.013515 -0.005460 0.003190 0.000952
# 4 -0.009297 0.005849 -0.005460 0.043051 -0.060795 -0.041264
# 5 0.042125 0.006754 0.003190 -0.060795 0.250596 0.152915
# 6 0.031199 0.010611 0.000952 -0.041264 0.152915 0.152309
#
#
# Mechanical properties :
#
#
# Convention : Reuss Voigt Hill
#
# Bulk Modulus (GPa) = 27.37231 53.40347 40.38789
# Shear Modulus (GPa) = 9.33594 28.02059 18.67826
#
# Velocity S-wave (km/s) = 2.15272 3.72947 3.04492
# Velocity P-wave (km/s) = 4.44591 6.71221 5.69297
#
# Compressibility (1/GPa) = 0.03653327
#
# Stress axis : x y z
#
# Youngs Moduli (GPa) = 32.89468 76.53000 73.99074
#
# Poissons Ratio (x) = 0.23234 0.18371
# Poissons Ratio (y) = 0.09987 0.34816
# Poissons Ratio (z) = 0.08168 0.36011
#
# Static dielectric constant tensor:
#      x y z
#    x 1.700460 -0.012840 0.024940 
#    y -0.012840 1.790090 -0.007350 
#    z 0.024940 -0.007350 1.726270 
# 
# From -- ./inp_files/484310.got.cif
#   From: 2010.05.17/outbox.cif.g08.bks.cpg/sg2_243_cif.got.tgz:484310.got - 2010.06.03 11:33:40.
