data_PCOD9101836
_publ_section_title
;
Structure prediction by ZEFSAII (Michael W. Deem and Ramdas Pophale) SiO2 
 PCOD9101836
Probable space group: P -1
;
_chemical_formula_sum "Si O2"
_cell_formula_units_Z 16
_cell_length_a 12.303118
_cell_length_b 13.456129
_cell_length_c 20.504373
_cell_angle_alpha 163.021407
_cell_angle_beta 52.875255
_cell_angle_gamma 130.125106
_cell_volume 756.703776
_symmetry_space_group_name_H-M "P -1"
_symmetry_group_IT_number 2
_symmetry_cell_setting 'triclinic'
loop_
_space_group_symop_operation_xyz
x,y,z
-x,-y,-z
loop_
_atom_site_type_symbol
_atom_site_label
_atom_site_fract_x
_atom_site_fract_y
_atom_site_fract_z
Si Si1 0.062565 0.847168 0.797867
Si Si2 0.820253 0.158659 0.034268
Si Si3 0.506253 0.804285 0.635126
Si Si4 0.332827 0.232970 0.030884
Si Si5 0.224263 0.357944 0.393395
Si Si6 0.025054 0.862489 0.255786
Si Si7 0.813372 0.963888 0.561108
Si Si8 0.830820 0.283408 0.614602
O O1 0.119706 0.605289 0.574327
O O2 0.957256 0.600923 0.735356
O O3 0.204328 0.063033 0.919718
O O4 0.970408 0.081988 0.947895
O O5 0.822312 0.567512 0.292048
O O6 0.712016 0.969548 0.012093
O O7 0.775018 0.939069 0.846344
O O8 0.500000 0.500000 0.500000
O O9 0.380328 0.615039 0.511962
O O10 0.656973 0.920750 0.618925
O O11 0.467213 0.135050 0.891332
O O12 0.315580 0.627054 0.292147
O O13 0.153436 0.154879 0.357152
O O14 0.076586 0.875469 0.319737
O O15 0.875617 0.955075 0.362336
O O16 0.000000 0.500000 0.000000
O O17 0.835773 0.205853 0.640724
#
# Coordination Sequence:
#
# PCOD9101836 Si02
#       8
#     2   2   2   2   2   2   2   2
#     4   9  19  37  59  85 123 152 188 241 298 350
#     4  11  19  34  61  91 115 149 196 242 290 347
#     4  11  21  42  62  82 118 159 204 238 285 348
#     4  10  20  38  61  83 116 162 194 242 286 348
#     4  10  21  36  60  92 116 153 197 242 289 346
#     4  11  22  37  57  88 125 152 185 248 304 347
#     4  12  23  38  61  87 117 159 197 240 293 350
#     4  10  21  36  58  87 117 149 195 237 297 347
#
# _framework density 21.144337
#
# number of rings (size 3 to 8) (size 9 to 14) (size 15 to 20)
#    0.000    1.500    2.500    5.250    0.000    3.000 
#    0.000    2.500    0.000    3.750    0.000    0.000 
#    0.000    0.000    0.000    0.000    0.000    0.000 
#
# Total GULP energy -89296.894258 kJ/mol
# GULP energy per Si atom -5581.055891 kJ/mol
# Density = 2.109621 g / cm^3
# Si number density = 21.144337 Si / 1000 Ang^3
#
#
#
# Elastic Constant Matrix: (Units=GPa)
#
#
# Indices 1 2 3 4 5 6 
#
# 1 64.0684 40.2057 44.4398 -13.3432 -24.2038 9.3059
# 2 40.2057 73.0662 41.9609 -8.3104 -17.1612 9.9961
# 3 44.4398 41.9609 161.8502 -25.3747 -32.9522 7.2142
# 4 -13.3432 -8.3104 -25.3747 30.4313 -1.8351 -12.3761
# 5 -24.2038 -17.1612 -32.9522 -1.8351 35.3110 -10.7531
# 6 9.3059 9.9961 7.2142 -12.3761 -10.7531 32.8646
#
#
#
# Elastic Compliance Matrix: (Units=1/GPa)
#
#
# Indices 1 2 3 4 5 6 
#
# 1 0.033063 -0.012997 0.000307 0.015031 0.019404 0.006533
# 2 -0.012997 0.022196 -0.003289 -0.004617 -0.002971 -0.005060
# 3 0.000307 -0.003289 0.010760 0.011569 0.011262 0.006593
# 4 0.015031 -0.004617 0.011569 0.060835 0.030378 0.027457
# 5 0.019404 -0.002971 0.011262 0.030378 0.059528 0.023854
# 6 0.006533 -0.005060 0.006593 0.027457 0.023854 0.046815
#
#
# Mechanical properties :
#
#
# Convention : Reuss Voigt Hill
#
# Bulk Modulus (GPa) = 29.35874 61.35529 45.35701
# Shear Modulus (GPa) = 18.08264 31.21329 24.64797
#
# Velocity S-wave (km/s) = 2.92755 3.84630 3.41794
# Velocity P-wave (km/s) = 5.03413 6.98611 6.08885
#
# Compressibility (1/GPa) = 0.03406140
#
# Stress axis : x y z
#
# Youngs Moduli (GPa) = 30.24518 45.05330 92.93946
#
# Poissons Ratio (x) = 0.58554 -0.02854
# Poissons Ratio (y) = 0.39308 0.30570
# Poissons Ratio (z) = -0.00929 0.14819
#
# Static dielectric constant tensor:
#      x y z
#    x 1.762390 -0.014580 -0.031840 
#    y -0.014580 1.760410 0.003420 
#    z -0.031840 0.003420 1.862330 
# 
# From -- ./inp_files/569261.got.cif
#   From: 2010.05.17/outbox.cif.g08.bks.cpg/sg2_285_cif.got.tgz:569261.got - 2010.06.03 11:33:40.
