data_PCOD9101021
_publ_section_title
;
Structure prediction by ZEFSAII (Michael W. Deem and Ramdas Pophale) SiO2 
 PCOD9101021
Probable space group: P -1
;
_chemical_formula_sum "Si O2"
_cell_formula_units_Z 12
_cell_length_a 16.932920
_cell_length_b 7.658007
_cell_length_c 10.986472
_cell_angle_alpha 108.343372
_cell_angle_beta 21.598838
_cell_angle_gamma 114.952438
_cell_volume 462.460711
_symmetry_space_group_name_H-M "P -1"
_symmetry_group_IT_number 2
_symmetry_cell_setting 'triclinic'
loop_
_space_group_symop_operation_xyz
x,y,z
-x,-y,-z
loop_
_atom_site_type_symbol
_atom_site_label
_atom_site_fract_x
_atom_site_fract_y
_atom_site_fract_z
Si Si1 0.136971 0.291526 0.979855
Si Si2 0.955326 0.273244 0.985792
Si Si3 0.588731 0.676258 0.807265
Si Si4 0.724126 0.927375 0.886088
Si Si5 0.391938 0.772266 0.714873
Si Si6 0.193136 0.411528 0.169019
O O1 0.979328 0.202570 0.071558
O O2 0.238548 0.534706 0.896012
O O3 0.353708 0.226179 0.649093
O O4 0.049737 0.259489 0.233924
O O5 0.155835 0.279144 0.604961
O O6 0.000000 0.500000 0.000000
O O7 0.709517 0.177534 0.253936
O O8 0.608523 0.860390 0.905684
O O9 0.500000 0.500000 0.000000
O O10 0.420612 0.611724 0.917246
O O11 0.683790 0.732795 0.982603
O O12 0.000000 0.000000 0.500000
O O13 0.656410 0.092529 0.084773
O O14 0.000000 0.500000 0.500000
#
# Coordination Sequence:
#
# PCOD9101021 Si02
#       6
#     2   2   2   2   2   2
#     4  10  22  41  64  98 128 173 221 264 329 398
#     4  10  20  37  68  93 128 174 216 261 329 389
#     4  10  22  39  63  97 126 171 219 257 329 388
#     4  11  22  41  67  93 131 170 216 271 332 381
#     4  10  20  40  68  94 129 171 214 269 326 388
#     4  11  24  42  64  96 132 170 218 275 324 390
#
# _framework density 25.948149000000001
#
# number of rings (size 3 to 8) (size 9 to 14) (size 15 to 20)
#    0.000    1.667    1.667    4.000    7.000    0.667 
#    3.000    3.333    0.000    0.000    0.000    0.000 
#    0.000    0.000    0.000    0.000    0.000    0.000 
#
# Total GULP energy -66844.514379 kJ/mol
# GULP energy per Si atom -5570.376198 kJ/mol
# Density = 2.588909 g / cm^3
# Si number density = 25.948149 Si / 1000 Ang^3
#
#
#
# Elastic Constant Matrix: (Units=GPa)
#
#
# Indices 1 2 3 4 5 6 
#
# 1 145.2635 57.1124 33.9978 18.1230 -8.6553 46.1018
# 2 57.1124 148.5701 50.5497 46.1985 -1.6246 28.2151
# 3 33.9978 50.5497 117.2842 42.9682 -6.0008 29.0746
# 4 18.1230 46.1985 42.9682 51.4035 15.6506 -0.8721
# 5 -8.6553 -1.6246 -6.0008 15.6506 38.1249 4.0310
# 6 46.1018 28.2151 29.0746 -0.8721 4.0310 46.2773
#
#
#
# Elastic Compliance Matrix: (Units=1/GPa)
#
#
# Indices 1 2 3 4 5 6 
#
# 1 0.014347 0.001580 0.007639 -0.017490 0.013991 -0.021604
# 2 0.001580 0.014239 0.006427 -0.022981 0.013089 -0.015867
# 3 0.007639 0.006427 0.027259 -0.039691 0.025940 -0.031663
# 4 -0.017490 -0.022981 -0.039691 0.098253 -0.058223 0.063295
# 5 0.013991 0.013089 0.025940 -0.058223 0.062681 -0.044772
# 6 -0.021604 -0.015867 -0.031663 0.063295 -0.044772 0.077790
#
#
# Mechanical properties :
#
#
# Convention : Reuss Voigt Hill
#
# Bulk Modulus (GPa) = 11.47596 77.15972 44.31784
# Shear Modulus (GPa) = 17.10441 45.12501 31.11471
#
# Velocity S-wave (km/s) = 2.57023 4.17471 3.46657
# Velocity P-wave (km/s) = 3.63873 7.28274 5.75668
#
# Compressibility (1/GPa) = 0.08713866
#
# Stress axis : x y z
#
# Youngs Moduli (GPa) = 69.70155 70.22867 36.68516
#
# Poissons Ratio (x) = -0.11097 -0.28025
# Poissons Ratio (y) = -0.11014 -0.23579
# Poissons Ratio (z) = -0.53247 -0.45139
#
# Static dielectric constant tensor:
#      x y z
#    x -0.956370 1.297990 -1.638940 
#    y 1.297990 1.474430 0.669020 
#    z -1.638940 0.669020 1.108140 
# 
# From -- ./inp_files/151895.got.cif
#   From: 2010.05.17/outbox.cif.g08.bks.cpg/sg2_76_cif.got.tgz:151895.got - 2010.06.03 11:33:40.
