data_PCOD9101657
_publ_section_title
;
Structure prediction by ZEFSAII (Michael W. Deem and Ramdas Pophale) SiO2 
 PCOD9101657
Probable space group: P -1
;
_chemical_formula_sum "Si O2"
_cell_formula_units_Z 14
_cell_length_a 12.370340
_cell_length_b 11.811071
_cell_length_c 10.326808
_cell_angle_alpha 46.482512
_cell_angle_beta 145.164795
_cell_angle_gamma 126.198878
_cell_volume 623.816364
_symmetry_space_group_name_H-M "P -1"
_symmetry_group_IT_number 2
_symmetry_cell_setting 'triclinic'
loop_
_space_group_symop_operation_xyz
x,y,z
-x,-y,-z
loop_
_atom_site_type_symbol
_atom_site_label
_atom_site_fract_x
_atom_site_fract_y
_atom_site_fract_z
Si Si1 0.959224 0.637842 0.751006
Si Si2 0.616970 0.137356 0.238984
Si Si3 0.218035 0.071372 0.032995
Si Si4 0.639025 0.271799 0.891146
Si Si5 0.970317 0.359906 0.478451
Si Si6 0.354943 0.357455 0.375382
Si Si7 0.861177 0.889190 0.780899
O O1 0.963685 0.595673 0.638037
O O2 0.758833 0.683290 0.570798
O O3 0.138266 0.757891 0.859160
O O4 0.000000 0.500000 0.000000
O O5 0.753117 0.285072 0.309459
O O6 0.756524 0.996624 0.492426
O O7 0.429603 0.096607 0.169731
O O8 0.554036 0.170358 0.004966
O O9 0.099280 0.220374 0.760216
O O10 0.208726 0.058958 0.188331
O O11 0.085907 0.923495 0.968254
O O12 0.548132 0.272606 0.658642
O O13 0.619897 0.456696 0.763134
O O14 0.000000 0.500000 0.500000
O O15 0.222802 0.284522 0.191052
#
# Coordination Sequence:
#
# PCOD9101657 Si02
#       7
#     2   2   2   2   2   2   2
#     4   9  19  36  57  84 124 154 188 243 300 358
#     4  10  21  41  60  86 123 156 201 256 300 357
#     4  10  22  41  60  84 124 161 202 257 295 358
#     4   9  20  37  58  86 122 148 198 254 292 364
#     4  10  22  38  61  95 121 155 206 250 302 361
#     4  10  20  38  60  87 118 160 197 247 307 354
#     4  10  23  39  61  86 120 162 210 245 297 365
#
# _framework density 22.442499999999999
#
# number of rings (size 3 to 8) (size 9 to 14) (size 15 to 20)
#    0.000    2.286    0.000    1.286    6.000    2.286 
#    7.714   10.000    0.000    0.000    0.000    0.000 
#    0.000    0.000    0.000    0.000    0.000    0.000 
#
# Total GULP energy -78095.413299 kJ/mol
# GULP energy per Si atom -5578.243807 kJ/mol
# Density = 2.239142 g / cm^3
# Si number density = 22.442500 Si / 1000 Ang^3
#
#
#
# Elastic Constant Matrix: (Units=GPa)
#
#
# Indices 1 2 3 4 5 6 
#
# 1 79.6014 11.2032 11.9532 7.2178 1.9137 18.0093
# 2 11.2032 64.9295 16.9584 24.9308 -5.3141 -1.8439
# 3 11.9532 16.9584 92.3329 -3.2835 -5.4047 0.4761
# 4 7.2178 24.9308 -3.2835 39.1356 10.1774 -5.4463
# 5 1.9137 -5.3141 -5.4047 10.1774 36.0179 4.1774
# 6 18.0093 -1.8439 0.4761 -5.4463 4.1774 27.4316
#
#
#
# Elastic Compliance Matrix: (Units=1/GPa)
#
#
# Indices 1 2 3 4 5 6 
#
# 1 0.015977 -0.000655 -0.001971 -0.004689 0.001435 -0.011648
# 2 -0.000655 0.024366 -0.004534 -0.018371 0.008464 -0.002790
# 3 -0.001971 -0.004534 0.012057 0.004567 -0.000245 0.001724
# 4 -0.004689 -0.018371 0.004567 0.044430 -0.015838 0.012997
# 5 0.001435 0.008464 -0.000245 -0.015838 0.034390 -0.008750
# 6 -0.011648 -0.002790 0.001724 0.012997 -0.008750 0.047797
#
#
# Mechanical properties :
#
#
# Convention : Reuss Voigt Hill
#
# Bulk Modulus (GPa) = 26.26001 35.23259 30.74630
# Shear Modulus (GPa) = 24.26830 33.63361 28.95095
#
# Velocity S-wave (km/s) = 3.29196 3.87545 3.59556
# Velocity P-wave (km/s) = 5.11623 5.97985 5.56482
#
# Compressibility (1/GPa) = 0.03808071
#
# Stress axis : x y z
#
# Youngs Moduli (GPa) = 62.59112 41.04119 82.93681
#
# Poissons Ratio (x) = 0.02688 0.16344
# Poissons Ratio (y) = 0.04100 0.37602
# Poissons Ratio (z) = 0.12335 0.18607
#
# Static dielectric constant tensor:
#      x y z
#    x 1.855730 0.015940 0.034340 
#    y 0.015940 1.894130 0.046060 
#    z 0.034340 0.046060 1.863400 
# 
# From -- ./inp_files/262238.got.cif
#   From: 2010.05.17/outbox.cif.g08.bks.cpg/sg2_132_cif.got.tgz:262238.got - 2010.06.03 11:33:40.
