data_PCOD9101050
_publ_section_title
;
Structure prediction by ZEFSAII (Michael W. Deem and Ramdas Pophale) SiO2 
 PCOD9101050
Probable space group: P -1
;
_chemical_formula_sum "Si O2"
_cell_formula_units_Z 14
_cell_length_a 8.472196
_cell_length_b 11.821048
_cell_length_c 11.531345
_cell_angle_alpha 112.082829
_cell_angle_beta 142.811274
_cell_angle_gamma 51.451867
_cell_volume 527.899635
_symmetry_space_group_name_H-M "P -1"
_symmetry_group_IT_number 2
_symmetry_cell_setting 'triclinic'
loop_
_space_group_symop_operation_xyz
x,y,z
-x,-y,-z
loop_
_atom_site_type_symbol
_atom_site_label
_atom_site_fract_x
_atom_site_fract_y
_atom_site_fract_z
Si Si1 0.595130 0.620357 0.253166
Si Si2 0.979158 0.021867 0.189063
Si Si3 0.498732 0.896166 0.246060
Si Si4 0.760489 0.325565 0.161086
Si Si5 0.378178 0.868874 0.658060
Si Si6 0.285356 0.713911 0.359896
Si Si7 0.200507 0.354903 0.981535
O O1 0.729240 0.718669 0.337216
O O2 0.819640 0.448531 0.277292
O O3 0.481678 0.637549 0.326623
O O4 0.289464 0.682085 0.009148
O O5 0.997436 0.159116 0.287087
O O6 0.637290 0.093334 0.957827
O O7 0.236416 0.938401 0.206045
O O8 0.054473 0.891545 0.265817
O O9 0.524710 0.034341 0.314398
O O10 0.422899 0.378638 0.041097
O O11 0.461892 0.725050 0.576975
O O12 0.565272 0.793315 0.858425
O O13 0.000000 0.000000 0.500000
O O14 0.061486 0.660941 0.237919
O O15 0.000000 0.500000 0.000000
#
# Coordination Sequence:
#
# PCOD9101050 Si02
#       7
#     2   2   2   2   2   2   2
#     4   9  20  38  67 100 134 183 240 289 348 417
#     4   9  18  35  71  98 130 186 242 287 345 418
#     4   9  19  39  66  99 138 183 236 289 351 415
#     4  10  20  37  69 106 133 179 250 285 347 425
#     4  12  28  43  72 112 147 182 244 295 354 433
#     4  11  23  44  70 102 142 187 239 287 361 421
#     4  12  26  46  75 100 148 198 228 293 369 425
#
# _framework density 26.520192000000002
#
# number of rings (size 3 to 8) (size 9 to 14) (size 15 to 20)
#    0.000    1.714    2.857    1.714    4.000    4.000 
#    0.000    0.000    3.143    3.429    0.000    0.000 
#    0.000    0.000    0.000    0.000    0.000    0.000 
#
# Total GULP energy -78250.484100 kJ/mol
# GULP energy per Si atom -5589.320293 kJ/mol
# Density = 2.645983 g / cm^3
# Si number density = 26.520192 Si / 1000 Ang^3
#
#
#
# Elastic Constant Matrix: (Units=GPa)
#
#
# Indices 1 2 3 4 5 6 
#
# 1 100.3238 2.4191 26.7393 17.1114 -5.4569 -3.8385
# 2 2.4191 151.4774 25.8527 29.7297 1.4926 9.6191
# 3 26.7393 25.8527 79.1942 24.1584 -8.4227 5.5892
# 4 17.1114 29.7297 24.1584 54.3598 -0.8860 -4.4553
# 5 -5.4569 1.4926 -8.4227 -0.8860 23.5755 11.7446
# 6 -3.8385 9.6191 5.5892 -4.4553 11.7446 45.1735
#
#
#
# Elastic Compliance Matrix: (Units=1/GPa)
#
#
# Indices 1 2 3 4 5 6 
#
# 1 0.011324 0.000811 -0.003281 -0.002477 0.000954 0.000703
# 2 0.000811 0.007733 -0.001471 -0.003977 -0.000099 -0.001762
# 3 -0.003281 -0.001471 0.017200 -0.006065 0.007572 -0.004660
# 4 -0.002477 -0.003977 -0.006065 0.024377 -0.003976 0.004825
# 5 0.000954 -0.000099 0.007572 -0.003976 0.052627 -0.014909
# 6 0.000703 -0.001762 -0.004660 0.004825 -0.014909 0.027501
#
#
# Mechanical properties :
#
#
# Convention : Reuss Voigt Hill
#
# Bulk Modulus (GPa) = 35.24256 49.00195 42.12226
# Shear Modulus (GPa) = 31.62527 43.02070 37.32298
#
# Velocity S-wave (km/s) = 3.45700 4.03201 3.75553
# Velocity P-wave (km/s) = 5.40854 6.33983 5.89261
#
# Compressibility (1/GPa) = 0.02837478
#
# Stress axis : x y z
#
# Youngs Moduli (GPa) = 88.30906 129.31262 58.14072
#
# Poissons Ratio (x) = -0.10490 0.19074
# Poissons Ratio (y) = -0.07163 0.08555
# Poissons Ratio (z) = 0.28972 0.19027
#
# Static dielectric constant tensor:
#      x y z
#    x 2.059430 0.016630 -0.013760 
#    y 0.016630 2.124410 0.006900 
#    z -0.013760 0.006900 2.218840 
# 
# From -- ./inp_files/392921.got.cif
#   From: 2010.05.17/outbox.cif.g08.bks.cpg/sg2_197_cif.got.tgz:392921.got - 2010.06.03 11:33:40.
