data_PCOD9101035
_publ_section_title
;
Structure prediction by ZEFSAII (Michael W. Deem and Ramdas Pophale) SiO2 
 PCOD9101035
Probable space group: P -1
;
_chemical_formula_sum "Si O2"
_cell_formula_units_Z 16
_cell_length_a 5.381175
_cell_length_b 9.446813
_cell_length_c 16.968768
_cell_angle_alpha 86.740330
_cell_angle_beta 120.023678
_cell_angle_gamma 87.791041
_cell_volume 743.409679
_symmetry_space_group_name_H-M "P -1"
_symmetry_group_IT_number 2
_symmetry_cell_setting 'triclinic'
loop_
_space_group_symop_operation_xyz
x,y,z
-x,-y,-z
loop_
_atom_site_type_symbol
_atom_site_label
_atom_site_fract_x
_atom_site_fract_y
_atom_site_fract_z
Si Si1 0.586658 0.335610 0.502119
Si Si2 0.422319 0.552999 0.658353
Si Si3 0.612981 0.030244 0.311405
Si Si4 0.737187 0.904390 0.587904
Si Si5 0.232775 0.411209 0.987812
Si Si6 0.413876 0.719029 0.817311
Si Si7 0.947345 0.535786 0.208376
Si Si8 0.167868 0.282714 0.672624
O O1 0.500000 0.500000 0.500000
O O2 0.693916 0.336437 0.428665
O O3 0.305352 0.250908 0.448895
O O4 0.833518 0.263432 0.599738
O O5 0.454386 0.626981 0.745805
O O6 0.748245 0.489722 0.700242
O O7 0.238360 0.417740 0.627708
O O8 0.370886 0.077860 0.337805
O O9 0.585521 0.123201 0.223312
O O10 0.944097 0.057222 0.383194
O O11 0.633333 0.860251 0.306735
O O12 0.500000 0.000000 0.500000
O O13 0.365635 0.294786 0.074336
O O14 0.500000 0.500000 0.000000
O O15 0.000000 0.500000 0.000000
O O16 0.067759 0.388334 0.880960
O O17 0.155094 0.625547 0.810896
O O18 0.777730 0.649813 0.235148
#
# Coordination Sequence:
#
# PCOD9101035 Si02
#       8
#     2   2   2   2   2   2   2   2
#     4  12  24  39  63  92 124 167 215 265 315 370
#     4  11  21  38  62  88 124 160 218 263 311 373
#     4  12  27  44  65  91 134 175 213 260 320 381
#     4  12  27  45  65  91 131 173 220 260 313 382
#     4  10  20  37  68  98 126 158 207 271 328 371
#     4  10  22  40  65  97 124 165 214 267 317 383
#     4  10  21  41  63  96 125 161 214 268 321 374
#     4  11  26  39  59  89 130 174 208 259 322 377
#
# _framework density 21.522452999999999
#
# number of rings (size 3 to 8) (size 9 to 14) (size 15 to 20)
#    0.000    1.000    5.000    1.500    5.250    0.000 
#    0.000    0.625    0.000    0.750    0.000    0.000 
#    0.000    0.000    0.000    0.000    0.000    0.000 
#
# Total GULP energy -89071.236971 kJ/mol
# GULP energy per Si atom -5566.952311 kJ/mol
# Density = 2.147347 g / cm^3
# Si number density = 21.522453 Si / 1000 Ang^3
#
#
#
# Elastic Constant Matrix: (Units=GPa)
#
#
# Indices 1 2 3 4 5 6 
#
# 1 54.7407 -8.9085 -3.1928 8.2195 -0.7762 -3.4352
# 2 -8.9085 65.7442 -2.1891 8.0965 -11.6688 -7.6525
# 3 -3.1928 -2.1891 113.1649 -18.4796 -18.5724 -3.9050
# 4 8.2195 8.0965 -18.4796 26.5114 2.9870 -0.3240
# 5 -0.7762 -11.6688 -18.5724 2.9870 21.8446 -1.8716
# 6 -3.4352 -7.6525 -3.9050 -0.3240 -1.8716 24.5974
#
#
#
# Elastic Compliance Matrix: (Units=1/GPa)
#
#
# Indices 1 2 3 4 5 6 
#
# 1 0.020829 0.005438 0.000406 -0.008402 0.005565 0.004978
# 2 0.005438 0.020614 0.001916 -0.008196 0.014682 0.008486
# 3 0.000406 0.001916 0.011755 0.006346 0.010455 0.003398
# 4 -0.008402 -0.008196 0.006346 0.047901 -0.006049 -0.002545
# 5 0.005565 0.014682 0.010455 -0.006049 0.064549 0.011837
# 6 0.004978 0.008486 0.003398 -0.002545 0.011837 0.045397
#
#
# Mechanical properties :
#
#
# Convention : Reuss Voigt Hill
#
# Bulk Modulus (GPa) = 14.55218 22.78545 18.66881
# Shear Modulus (GPa) = 22.89054 31.12003 27.00529
#
# Velocity S-wave (km/s) = 3.26477 3.80667 3.54609
# Velocity P-wave (km/s) = 4.58124 5.47090 5.04572
#
# Compressibility (1/GPa) = 0.06871824
#
# Stress axis : x y z
#
# Youngs Moduli (GPa) = 48.00903 48.51056 85.07280
#
# Poissons Ratio (x) = -0.26379 -0.03454
# Poissons Ratio (y) = -0.26107 -0.16301
# Poissons Ratio (z) = -0.01949 -0.09295
#
# Static dielectric constant tensor:
#      x y z
#    x 1.926750 0.030390 -0.042320 
#    y 0.030390 1.843660 0.020640 
#    z -0.042320 0.020640 1.875630 
# 
# From -- ./inp_files/43328.got.cif
#   From: 2010.05.17/outbox.cif.g08.bks.cpg/sg2_22_cif.got.tgz:43328.got - 2010.06.03 11:33:40.
