data_PCOD9101426
_publ_section_title
;
Structure prediction by ZEFSAII (Michael W. Deem and Ramdas Pophale) SiO2 
 PCOD9101426
Probable space group: P -1
;
_chemical_formula_sum "Si O2"
_cell_formula_units_Z 16
_cell_length_a 28.616687
_cell_length_b 25.911477
_cell_length_c 11.728762
_cell_angle_alpha 38.390424
_cell_angle_beta 142.190950
_cell_angle_gamma 170.815772
_cell_volume 850.287559
_symmetry_space_group_name_H-M "P -1"
_symmetry_group_IT_number 2
_symmetry_cell_setting 'triclinic'
loop_
_space_group_symop_operation_xyz
x,y,z
-x,-y,-z
loop_
_atom_site_type_symbol
_atom_site_label
_atom_site_fract_x
_atom_site_fract_y
_atom_site_fract_z
Si Si1 0.884970 0.094543 0.916206
Si Si2 0.528643 0.865524 0.509634
Si Si3 0.676058 0.121888 0.551482
Si Si4 0.817808 0.127387 0.182392
Si Si5 0.481725 0.883101 0.139521
Si Si6 0.418826 0.154392 0.032104
Si Si7 0.521370 0.619450 0.859025
Si Si8 0.011602 0.818060 0.391050
O O1 0.237491 0.461221 0.949618
O O2 0.773185 0.060323 0.694249
O O3 0.784464 0.998331 0.020269
O O4 0.699329 0.826771 0.959730
O O5 0.575220 0.935331 0.346611
O O6 0.214871 0.487898 0.570048
O O7 0.534220 0.952706 0.447845
O O8 0.000000 0.500000 0.500000
O O9 0.500000 0.000000 0.500000
O O10 0.660893 0.019556 0.767774
O O11 0.140572 0.500193 0.122764
O O12 0.867449 0.099161 0.406507
O O13 0.669032 0.042513 0.120343
O O14 0.640621 0.915165 0.095914
O O15 0.500000 0.000000 0.000000
O O16 0.201711 0.327336 0.749836
O O17 0.500000 0.500000 0.000000
O O18 0.720375 0.874092 0.705979
#
# Coordination Sequence:
#
# PCOD9101426 Si02
#       8
#     2   2   2   2   2   2   2   2
#     4  10  20  38  59  85 112 153 188 232 293 349
#     4   9  21  38  57  78 113 150 196 237 293 344
#     4  11  23  33  51  76 107 145 188 249 290 320
#     4  11  23  40  59  82 114 159 206 232 288 359
#     4  11  24  37  58  82 112 154 200 265 297 326
#     4  11  23  38  58  80 115 156 203 230 281 361
#     4  11  21  37  67  98 121 138 185 245 294 347
#     4  10  21  39  62  87 116 157 188 233 294 354
#
# _framework density 18.817163000000001
#
# number of rings (size 3 to 8) (size 9 to 14) (size 15 to 20)
#    0.000    1.500    0.000    7.500    3.500    5.000 
#    0.000    0.000    0.000    4.500    0.000    0.000 
#    0.000    0.000    0.000    0.000    0.000    0.000 
#
# Total GULP energy -89392.731065 kJ/mol
# GULP energy per Si atom -5587.045692 kJ/mol
# Density = 1.877433 g / cm^3
# Si number density = 18.817163 Si / 1000 Ang^3
#
#
#
# Elastic Constant Matrix: (Units=GPa)
#
#
# Indices 1 2 3 4 5 6 
#
# 1 122.5043 31.8902 27.5028 2.9778 7.6479 -8.9310
# 2 31.8902 40.7938 11.8398 7.6471 -5.1014 3.8679
# 3 27.5028 11.8398 36.9336 3.0184 -1.0541 -15.6119
# 4 2.9778 7.6471 3.0184 19.5165 -5.8080 0.5818
# 5 7.6479 -5.1014 -1.0541 -5.8080 29.0778 -2.4309
# 6 -8.9310 3.8679 -15.6119 0.5818 -2.4309 38.2573
#
#
#
# Elastic Compliance Matrix: (Units=1/GPa)
#
#
# Indices 1 2 3 4 5 6 
#
# 1 0.012081 -0.008528 -0.006107 0.001044 -0.004613 0.000881
# 2 -0.008528 0.036924 -0.008110 -0.009954 0.005726 -0.008518
# 3 -0.006107 -0.008110 0.041439 -0.001998 0.002666 0.016504
# 4 0.001044 -0.009954 -0.001998 0.058120 0.009529 0.000156
# 5 -0.004613 0.005726 0.002666 0.009529 0.038755 0.001750
# 6 0.000881 -0.008518 0.016504 0.000156 0.001750 0.034050
#
#
# Mechanical properties :
#
#
# Convention : Reuss Voigt Hill
#
# Bulk Modulus (GPa) = 22.24490 38.07747 30.16118
# Shear Modulus (GPa) = 17.74055 25.97024 21.85540
#
# Velocity S-wave (km/s) = 3.07381 3.71905 3.41172
# Velocity P-wave (km/s) = 4.94419 6.22264 5.61989
#
# Compressibility (1/GPa) = 0.04495412
#
# Stress axis : x y z
#
# Youngs Moduli (GPa) = 82.77659 27.08298 24.13214
#
# Poissons Ratio (x) = 0.23095 0.14737
# Poissons Ratio (y) = 0.70589 0.19571
# Poissons Ratio (z) = 0.50548 0.21964
#
# Static dielectric constant tensor:
#      x y z
#    x 1.685720 -0.000450 -0.001470 
#    y -0.000450 1.655970 0.015450 
#    z -0.001470 0.015450 1.646680 
# 
# From -- ./inp_files/370854.got.cif
#   From: 2010.05.17/outbox.cif.g08.bks.cpg/sg2_186_cif.got.tgz:370854.got - 2010.06.03 11:33:40.
