data_PCOD9101407
_publ_section_title
;
Structure prediction by ZEFSAII (Michael W. Deem and Ramdas Pophale) SiO2 
 PCOD9101407
Probable space group: P -1
;
_chemical_formula_sum "Si O2"
_cell_formula_units_Z 14
_cell_length_a 11.864235
_cell_length_b 10.465032
_cell_length_c 9.256435
_cell_angle_alpha 74.998832
_cell_angle_beta 121.101936
_cell_angle_gamma 132.541680
_cell_volume 717.560036
_symmetry_space_group_name_H-M "P -1"
_symmetry_group_IT_number 2
_symmetry_cell_setting 'triclinic'
loop_
_space_group_symop_operation_xyz
x,y,z
-x,-y,-z
loop_
_atom_site_type_symbol
_atom_site_label
_atom_site_fract_x
_atom_site_fract_y
_atom_site_fract_z
Si Si1 0.359091 0.327938 0.247393
Si Si2 0.912620 0.024802 0.700940
Si Si3 0.874124 0.728844 0.660961
Si Si4 0.958154 0.325227 0.970115
Si Si5 0.291721 0.854756 0.399918
Si Si6 0.770499 0.606324 0.102196
Si Si7 0.278607 0.556837 0.584859
O O1 0.305486 0.387445 0.327818
O O2 0.528041 0.350824 0.371794
O O3 0.188172 0.119808 0.193177
O O4 0.376268 0.424077 0.085439
O O5 0.799346 0.083316 0.594837
O O6 0.107633 0.197527 0.810204
O O7 0.905151 0.905553 0.610728
O O8 0.848604 0.625780 0.532746
O O9 0.016096 0.756828 0.853849
O O10 0.781151 0.194206 0.798950
O O11 0.104679 0.384095 0.932437
O O12 0.000000 0.500000 0.000000
O O13 0.235144 0.678560 0.484271
O O14 0.500000 0.000000 0.500000
O O15 0.722269 0.478150 0.236950
#
# Coordination Sequence:
#
# PCOD9101407 Si02
#       7
#     2   2   2   2   2   2   2
#     4   9  19  36  58  79 112 154 190 225 282 347
#     4   9  20  36  59  78 115 153 192 226 280 353
#     4   9  20  36  59  84 111 155 199 225 281 350
#     4  10  20  38  59  84 113 157 194 234 279 353
#     4  11  21  35  60  89 113 152 195 236 287 346
#     4  10  22  35  59  88 113 150 193 241 287 335
#     4  12  21  35  59  90 118 144 190 250 288 329
#
# _framework density 19.510563000000001
#
# number of rings (size 3 to 8) (size 9 to 14) (size 15 to 20)
#    0.857    1.143    2.857    1.286    2.000    2.857 
#    0.000    0.000    0.000    0.857    0.000    0.000 
#    0.000    0.000    0.000    0.000    0.000    0.000 
#
# Total GULP energy -77955.238359 kJ/mol
# GULP energy per Si atom -5568.231311 kJ/mol
# Density = 1.946616 g / cm^3
# Si number density = 19.510563 Si / 1000 Ang^3
#
#
#
# Elastic Constant Matrix: (Units=GPa)
#
#
# Indices 1 2 3 4 5 6 
#
# 1 39.2104 21.9077 28.0803 -2.6585 6.6746 -28.6962
# 2 21.9077 53.8459 11.2540 3.9142 -1.0471 -34.6904
# 3 28.0803 11.2540 77.5304 -8.1412 8.8304 -13.8026
# 4 -2.6585 3.9142 -8.1412 26.4025 5.6060 5.8979
# 5 6.6746 -1.0471 8.8304 5.6060 29.4913 -4.2359
# 6 -28.6962 -34.6904 -13.8026 5.8979 -4.2359 38.2608
#
#
#
# Elastic Compliance Matrix: (Units=1/GPa)
#
#
# Indices 1 2 3 4 5 6 
#
# 1 0.086359 0.024166 -0.022831 -0.021116 0.003961 0.082138
# 2 0.024166 0.065548 -0.009152 -0.031894 0.017308 0.081087
# 3 -0.022831 -0.009152 0.020801 0.011404 -0.006483 -0.020393
# 4 -0.021116 -0.031894 0.011404 0.059515 -0.018531 -0.051867
# 5 0.003961 0.017308 -0.006483 -0.018531 0.042521 0.023888
# 6 0.082138 0.081087 -0.020393 -0.051867 0.023888 0.164544
#
#
# Mechanical properties :
#
#
# Convention : Reuss Voigt Hill
#
# Bulk Modulus (GPa) = 6.36645 32.56339 19.46492
# Shear Modulus (GPa) = 9.85650 26.12058 17.98854
#
# Velocity S-wave (km/s) = 2.25008 3.66292 3.03972
# Velocity P-wave (km/s) = 3.16554 5.88351 4.72421
#
# Compressibility (1/GPa) = 0.15707333
#
# Stress axis : x y z
#
# Youngs Moduli (GPa) = 11.57958 15.25608 48.07468
#
# Poissons Ratio (x) = -0.36868 1.09760
# Poissons Ratio (y) = -0.27983 0.43997
# Poissons Ratio (z) = 0.26437 0.13962
#
# Static dielectric constant tensor:
#      x y z
#    x 1.691460 -0.005380 0.001210 
#    y -0.005380 1.711490 -0.001590 
#    z 0.001210 -0.001590 1.720960 
# 
# From -- ./inp_files/174736.got.cif
#   From: 2010.05.17/outbox.cif.g08.bks.cpg/sg2_88_cif.got.tgz:174736.got - 2010.06.03 11:33:40.
