data_PCOD9101177
_publ_section_title
;
Structure prediction by ZEFSAII (Michael W. Deem and Ramdas Pophale) SiO2 
 PCOD9101177
Probable space group: P -1
;
_chemical_formula_sum "Si O2"
_cell_formula_units_Z 16
_cell_length_a 13.507673
_cell_length_b 13.743258
_cell_length_c 11.562362
_cell_angle_alpha 120.011465
_cell_angle_beta 118.975610
_cell_angle_gamma 20.887141
_cell_volume 661.639588
_symmetry_space_group_name_H-M "P -1"
_symmetry_group_IT_number 2
_symmetry_cell_setting 'triclinic'
loop_
_space_group_symop_operation_xyz
x,y,z
-x,-y,-z
loop_
_atom_site_type_symbol
_atom_site_label
_atom_site_fract_x
_atom_site_fract_y
_atom_site_fract_z
Si Si1 0.817779 0.295155 0.147363
Si Si2 0.259603 0.340819 0.177664
Si Si3 0.144686 0.490380 0.717427
Si Si4 0.272893 0.742719 0.422728
Si Si5 0.665808 0.779930 0.106020
Si Si6 0.621647 0.643963 0.523524
Si Si7 0.225061 0.752767 0.149557
Si Si8 0.212407 0.174537 0.481726
O O1 0.731405 0.501725 0.243035
O O2 0.550508 0.465515 0.133272
O O3 0.891024 0.215603 0.005069
O O4 0.069298 0.013561 0.195124
O O5 0.361309 0.343326 0.323061
O O6 0.926704 0.630273 0.158234
O O7 0.392286 0.103577 0.159940
O O8 0.360380 0.257135 0.053795
O O9 0.236409 0.392794 0.842884
O O10 0.837465 0.786754 0.661722
O O11 0.212700 0.304497 0.596589
O O12 0.500000 0.500000 0.500000
O O13 0.426780 0.713331 0.440566
O O14 0.198000 0.742947 0.262545
O O15 0.000000 0.000000 0.500000
O O16 0.941604 0.360166 0.495635
O O17 0.471246 0.879388 0.508942
#
# Coordination Sequence:
#
# PCOD9101177 Si02
#       8
#     2   2   2   2   2   2   2   2
#     4  10  22  39  70  89 128 167 207 269 316 377
#     4  10  20  38  57  79 113 167 195 235 300 350
#     4  11  22  39  59  99 122 163 209 253 304 374
#     4  12  26  42  68  95 125 164 219 271 311 381
#     4  10  21  36  56  81 121 152 203 244 279 361
#     4  12  22  44  62  88 126 169 199 254 325 371
#     4  10  22  45  62  94 125 166 212 261 334 368
#     4  11  25  36  63  91 133 160 201 253 314 385
#
# _framework density 24.18235
#
# number of rings (size 3 to 8) (size 9 to 14) (size 15 to 20)
#    0.000    1.250    2.500    3.000    0.000    6.000 
#    0.000    2.500    0.000    0.000    0.000    0.000 
#    0.000    0.000    0.000    0.000    0.000    0.000 
#
# Total GULP energy -89328.644245 kJ/mol
# GULP energy per Si atom -5583.040265 kJ/mol
# Density = 2.412731 g / cm^3
# Si number density = 24.182350 Si / 1000 Ang^3
#
#
#
# Elastic Constant Matrix: (Units=GPa)
#
#
# Indices 1 2 3 4 5 6 
#
# 1 58.8118 6.5576 5.8824 3.5323 -8.4952 -2.1479
# 2 6.5576 114.5033 23.8689 -14.2295 -15.1285 -8.3961
# 3 5.8824 23.8689 150.6458 -27.6833 -33.3649 9.8635
# 4 3.5323 -14.2295 -27.6833 38.3125 9.4484 -9.1573
# 5 -8.4952 -15.1285 -33.3649 9.4484 35.4186 -3.8699
# 6 -2.1479 -8.3961 9.8635 -9.1573 -3.8699 38.5220
#
#
#
# Elastic Compliance Matrix: (Units=1/GPa)
#
#
# Indices 1 2 3 4 5 6 
#
# 1 0.017990 -0.000703 -0.000136 -0.003040 0.004768 0.000641
# 2 -0.000703 0.009958 -0.000443 0.003486 0.003107 0.003386
# 3 -0.000136 -0.000443 0.009174 0.004562 0.007132 -0.000652
# 4 -0.003040 0.003486 0.004562 0.033421 -0.003087 0.007057
# 5 0.004768 0.003107 0.007132 -0.003087 0.038493 0.002250
# 6 0.000641 0.003386 -0.000652 0.007057 0.002250 0.028803
#
#
# Mechanical properties :
#
#
# Convention : Reuss Voigt Hill
#
# Bulk Modulus (GPa) = 28.93636 44.06430 36.50033
# Shear Modulus (GPa) = 32.91154 41.62740 37.26947
#
# Velocity S-wave (km/s) = 3.69314 4.15347 3.93005
# Velocity P-wave (km/s) = 5.49341 6.42363 5.97665
#
# Compressibility (1/GPa) = 0.03455859
#
# Stress axis : x y z
#
# Youngs Moduli (GPa) = 55.58614 100.42161 108.99995
#
# Poissons Ratio (x) = 0.07059 0.01480
# Poissons Ratio (y) = 0.03907 0.04831
# Poissons Ratio (z) = 0.00755 0.04451
#
# Static dielectric constant tensor:
#      x y z
#    x 1.941340 -0.006830 -0.005090 
#    y -0.006830 1.890880 0.040010 
#    z -0.005090 0.040010 2.026340 
# 
# From -- ./inp_files/455749.got.cif
#   From: 2010.05.17/outbox.cif.g08.bks.cpg/sg2_228_cif.got.tgz:455749.got - 2010.06.03 11:33:40.
