data_PCOD9101414
_publ_section_title
;
Structure prediction by ZEFSAII (Michael W. Deem and Ramdas Pophale) SiO2 
 PCOD9101414
Probable space group: P -1
;
_chemical_formula_sum "Si O2"
_cell_formula_units_Z 14
_cell_length_a 11.953491
_cell_length_b 9.518488
_cell_length_c 14.127742
_cell_angle_alpha 42.916649
_cell_angle_beta 146.386150
_cell_angle_gamma 136.228368
_cell_volume 578.470914
_symmetry_space_group_name_H-M "P -1"
_symmetry_group_IT_number 2
_symmetry_cell_setting 'triclinic'
loop_
_space_group_symop_operation_xyz
x,y,z
-x,-y,-z
loop_
_atom_site_type_symbol
_atom_site_label
_atom_site_fract_x
_atom_site_fract_y
_atom_site_fract_z
Si Si1 0.650762 0.243307 0.991283
Si Si2 0.888695 0.123393 0.059489
Si Si3 0.749334 0.031122 0.538757
Si Si4 0.926894 0.405156 0.599951
Si Si5 0.346093 0.308168 0.222892
Si Si6 0.672079 0.727526 0.983635
Si Si7 0.088844 0.810651 0.619115
O O1 0.788810 0.269465 0.980498
O O2 0.793638 0.259313 0.176399
O O3 0.546922 0.435957 0.829407
O O4 0.500000 0.000000 0.000000
O O5 0.010790 0.994417 0.276069
O O6 0.087468 0.258562 0.070659
O O7 0.710083 0.941664 0.967984
O O8 0.611269 0.802231 0.595471
O O9 0.744850 0.110519 0.390096
O O10 0.746054 0.195212 0.541348
O O11 0.910562 0.602166 0.555222
O O12 0.000000 0.500000 0.500000
O O13 0.104855 0.322849 0.817979
O O14 0.370895 0.219090 0.180638
O O15 0.500000 0.500000 0.000000
O O16 0.000000 0.000000 0.500000
#
# Coordination Sequence:
#
# PCOD9101414 Si02
#       7
#     2   2   2   2   2   2   2
#     4  12  23  36  58  91 119 150 194 250 292 339
#     4   9  20  34  56  83 115 150 196 228 285 343
#     4   8  19  35  59  81 111 145 198 236 274 342
#     4   9  19  35  56  86 115 150 195 237 281 350
#     4  10  20  38  59  84 116 153 197 240 287 353
#     4  11  20  34  59  90 114 149 190 248 295 335
#     4  11  19  36  58  85 115 158 195 232 284 353
#
# _framework density 24.201733999999998
#
# number of rings (size 3 to 8) (size 9 to 14) (size 15 to 20)
#    0.857    1.143    2.857    1.714    0.000    0.000 
#    0.000    0.714    0.000    5.143    0.000    0.000 
#    0.000    0.000    0.000    0.000    0.000    0.000 
#
# Total GULP energy -78127.846376 kJ/mol
# GULP energy per Si atom -5580.560455 kJ/mol
# Density = 2.414665 g / cm^3
# Si number density = 24.201734 Si / 1000 Ang^3
#
#
#
# Elastic Constant Matrix: (Units=GPa)
#
#
# Indices 1 2 3 4 5 6 
#
# 1 81.6926 19.3526 8.5212 16.8136 -18.7566 -11.7138
# 2 19.3526 142.5634 28.2668 -1.6992 -12.3185 -23.8989
# 3 8.5212 28.2668 87.9635 12.9504 -12.7936 2.5521
# 4 16.8136 -1.6992 12.9504 33.4141 7.8192 -3.9091
# 5 -18.7566 -12.3185 -12.7936 7.8192 32.8801 1.1510
# 6 -11.7138 -23.8989 2.5521 -3.9091 1.1510 47.1632
#
#
#
# Elastic Compliance Matrix: (Units=1/GPa)
#
#
# Indices 1 2 3 4 5 6 
#
# 1 0.018770 -0.001650 0.002750 -0.013693 0.014339 0.002192
# 2 -0.001650 0.008652 -0.003151 0.002953 0.000219 0.004384
# 3 0.002750 -0.003151 0.014853 -0.009620 0.008551 -0.002723
# 4 -0.013693 0.002953 -0.009620 0.046076 -0.021509 0.002960
# 5 0.014339 0.000219 0.008551 -0.021509 0.047108 0.000277
# 6 0.002192 0.004384 -0.002723 0.002960 0.000277 0.024355
#
#
# Mechanical properties :
#
#
# Convention : Reuss Voigt Hill
#
# Bulk Modulus (GPa) = 26.19589 47.16673 36.68131
# Shear Modulus (GPa) = 28.30600 39.76340 34.03470
#
# Velocity S-wave (km/s) = 3.42363 4.05779 3.75412
# Velocity P-wave (km/s) = 5.14546 6.44092 5.82929
#
# Compressibility (1/GPa) = 0.03817392
#
# Stress axis : x y z
#
# Youngs Moduli (GPa) = 53.27679 115.57779 67.32440
#
# Poissons Ratio (x) = 0.19070 -0.18513
# Poissons Ratio (y) = 0.08790 0.21212
# Poissons Ratio (z) = -0.14650 0.36415
#
# Static dielectric constant tensor:
#      x y z
#    x 2.017360 0.045140 0.066240 
#    y 0.045140 1.972920 -0.050740 
#    z 0.066240 -0.050740 1.959000 
# 
# From -- ./inp_files/527282.got.cif
#   From: 2010.05.17/outbox.cif.g08.bks.cpg/sg2_264_cif.got.tgz:527282.got - 2010.06.03 11:33:40.
