data_PCOD9101429
_publ_section_title
;
Structure prediction by ZEFSAII (Michael W. Deem and Ramdas Pophale) SiO2 
 PCOD9101429
Probable space group: P -1
;
_chemical_formula_sum "Si O2"
_cell_formula_units_Z 14
_cell_length_a 17.014877
_cell_length_b 18.607859
_cell_length_c 8.318705
_cell_angle_alpha 131.714590
_cell_angle_beta 35.296207
_cell_angle_gamma 157.026489
_cell_volume 549.065533
_symmetry_space_group_name_H-M "P -1"
_symmetry_group_IT_number 2
_symmetry_cell_setting 'triclinic'
loop_
_space_group_symop_operation_xyz
x,y,z
-x,-y,-z
loop_
_atom_site_type_symbol
_atom_site_label
_atom_site_fract_x
_atom_site_fract_y
_atom_site_fract_z
Si Si1 0.681929 0.735283 0.232044
Si Si2 0.212791 0.125462 0.081411
Si Si3 0.178981 0.795495 0.035881
Si Si4 0.294554 0.635813 0.892116
Si Si5 0.272500 0.346820 0.511002
Si Si6 0.207590 0.805251 0.364614
Si Si7 0.225035 0.554713 0.237573
O O1 0.769089 0.799371 0.998727
O O2 0.535232 0.746260 0.539270
O O3 0.446324 0.509791 0.321848
O O4 0.950656 0.894071 0.137567
O O5 0.508247 0.255762 0.815681
O O6 0.192282 0.190509 0.355393
O O7 0.157779 0.818096 0.290776
O O8 0.001333 0.588021 0.009312
O O9 0.017480 0.773700 0.165718
O O10 0.501691 0.977121 0.724317
O O11 0.284221 0.741654 0.097806
O O12 0.337889 0.609110 0.950906
O O13 0.500000 0.500000 0.500000
O O14 0.945569 0.635578 0.669937
O O15 0.000000 0.500000 0.500000
#
# Coordination Sequence:
#
# PCOD9101429 Si02
#       7
#     2   2   2   2   2   2   2
#     4  10  23  39  63  89 114 157 199 241 294 345
#     4  11  22  41  62  86 120 154 197 245 290 349
#     4  10  21  37  60  86 112 152 196 234 291 348
#     4  10  20  38  59  85 117 151 192 241 294 344
#     4  11  23  39  61  89 120 154 194 244 295 348
#     4  10  21  38  59  84 117 153 192 240 287 346
#     4  10  22  38  59  86 118 154 192 240 292 347
#
# _framework density 25.497865999999998
#
# number of rings (size 3 to 8) (size 9 to 14) (size 15 to 20)
#    0.000    1.714    0.000    5.143    0.000    6.286 
#    0.000    7.143    0.000    0.000    0.000    0.000 
#    0.000    0.000    0.000    0.000    0.000    0.000 
#
# Total GULP energy -78321.886194 kJ/mol
# GULP energy per Si atom -5594.420442 kJ/mol
# Density = 2.543983 g / cm^3
# Si number density = 25.497866 Si / 1000 Ang^3
#
#
#
# Elastic Constant Matrix: (Units=GPa)
#
#
# Indices 1 2 3 4 5 6 
#
# 1 63.6519 31.9779 10.7538 2.5079 -5.2848 24.7564
# 2 31.9779 126.3171 30.7037 -32.0438 -16.2424 30.8423
# 3 10.7538 30.7037 45.2066 -2.8711 -8.2550 5.1852
# 4 2.5079 -32.0438 -2.8711 42.5204 5.3857 -7.5480
# 5 -5.2848 -16.2424 -8.2550 5.3857 44.8018 -7.7035
# 6 24.7564 30.8423 5.1852 -7.5480 -7.7035 41.3226
#
#
#
# Elastic Compliance Matrix: (Units=1/GPa)
#
#
# Indices 1 2 3 4 5 6 
#
# 1 0.022903 -0.004312 -0.001683 -0.006726 -0.000355 -0.011586
# 2 -0.004312 0.014846 -0.007556 0.009782 0.001358 -0.005510
# 3 -0.001683 -0.007556 0.027639 -0.003572 0.003119 0.003109
# 4 -0.006726 0.009782 -0.003572 0.031688 -0.001245 0.002732
# 5 -0.000355 0.001358 0.003119 -0.001245 0.024021 0.003059
# 6 -0.011586 -0.005510 0.003109 0.002732 0.003059 0.035933
#
#
# Mechanical properties :
#
#
# Convention : Reuss Voigt Hill
#
# Bulk Modulus (GPa) = 26.11895 42.44959 34.28427
# Shear Modulus (GPa) = 25.39431 36.51163 30.95297
#
# Velocity S-wave (km/s) = 3.15927 3.78821 3.48795
# Velocity P-wave (km/s) = 4.85529 5.98486 5.44942
#
# Compressibility (1/GPa) = 0.03828638
#
# Stress axis : x y z
#
# Youngs Moduli (GPa) = 43.66289 67.35681 36.18042
#
# Poissons Ratio (x) = 0.29043 0.06088
# Poissons Ratio (y) = 0.18826 0.27340
# Poissons Ratio (z) = 0.07347 0.50898
#
# Static dielectric constant tensor:
#      x y z
#    x 2.069730 0.004220 0.005350 
#    y 0.004220 1.975050 0.002080 
#    z 0.005350 0.002080 2.032040 
# 
# From -- ./inp_files/337781.got.cif
#   From: 2010.05.17/outbox.cif.g08.bks.cpg/sg2_169_cif.got.tgz:337781.got - 2010.06.03 11:33:40.
