data_PCOD9101707
_publ_section_title
;
Structure prediction by ZEFSAII (Michael W. Deem and Ramdas Pophale) SiO2 
 PCOD9101707
Probable space group: P -1
;
_chemical_formula_sum "Si O2"
_cell_formula_units_Z 16
_cell_length_a 13.923958
_cell_length_b 13.197598
_cell_length_c 25.313756
_cell_angle_alpha 147.989995
_cell_angle_beta 158.528794
_cell_angle_gamma 32.937383
_cell_volume 871.861192
_symmetry_space_group_name_H-M "P -1"
_symmetry_group_IT_number 2
_symmetry_cell_setting 'triclinic'
loop_
_space_group_symop_operation_xyz
x,y,z
-x,-y,-z
loop_
_atom_site_type_symbol
_atom_site_label
_atom_site_fract_x
_atom_site_fract_y
_atom_site_fract_z
Si Si1 0.046866 0.295689 0.585179
Si Si2 0.381331 0.931138 0.542040
Si Si3 0.706466 0.610696 0.921527
Si Si4 0.478682 0.690525 0.230935
Si Si5 0.985194 0.644186 0.895143
Si Si6 0.255586 0.415780 0.360590
Si Si7 0.865916 0.801669 0.188852
Si Si8 0.468557 0.788028 0.769468
O O1 0.968645 0.404579 0.648357
O O2 0.763514 0.299824 0.413813
O O3 0.235563 0.398798 0.692040
O O4 0.223704 0.065908 0.570429
O O5 0.607921 0.746382 0.597654
O O6 0.150032 0.863328 0.361484
O O7 0.498359 0.093698 0.643464
O O8 0.584091 0.451373 0.819182
O O9 0.528065 0.710688 0.825267
O O10 0.757244 0.764008 0.059059
O O11 0.000000 0.500000 0.000000
O O12 0.238973 0.720730 0.078249
O O13 0.875395 0.682795 0.796961
O O14 0.738784 0.723495 0.844669
O O15 0.077671 0.406708 0.844525
O O16 0.500000 0.500000 0.500000
O O17 0.650169 0.976486 0.184618
#
# Coordination Sequence:
#
# PCOD9101707 Si02
#       8
#     2   2   2   2   2   2   2   2
#     4   9  22  40  58  89 128 153 197 256 296 348
#     4   9  21  41  58  88 130 152 201 250 302 351
#     4  11  21  39  68  87 120 159 203 248 300 362
#     4   9  22  44  56  88 133 153 188 269 302 338
#     4  11  22  39  63  91 124 157 202 257 288 355
#     4  12  21  36  68  91 115 168 209 234 305 359
#     4  10  20  38  60  89 120 155 204 245 294 361
#     4  11  20  38  66  87 120 160 207 240 301 361
#
# _framework density 18.351545000000002
#
# number of rings (size 3 to 8) (size 9 to 14) (size 15 to 20)
#    0.750    1.000    5.000    0.375    0.000    3.000 
#    4.500    0.625    0.000    0.000    0.000    0.000 
#    0.000    0.000    0.000    0.000    0.000    0.000 
#
# Total GULP energy -89158.435149 kJ/mol
# GULP energy per Si atom -5572.402197 kJ/mol
# Density = 1.830978 g / cm^3
# Si number density = 18.351545 Si / 1000 Ang^3
#
#
#
# Elastic Constant Matrix: (Units=GPa)
#
#
# Indices 1 2 3 4 5 6 
#
# 1 55.3035 9.1456 10.0091 6.1369 3.1783 -14.7390
# 2 9.1456 56.0801 2.7435 -5.2583 6.2331 0.1884
# 3 10.0091 2.7435 65.9871 2.8606 5.9750 15.0780
# 4 6.1369 -5.2583 2.8606 17.0717 6.9233 10.4843
# 5 3.1783 6.2331 5.9750 6.9233 31.0842 -8.3138
# 6 -14.7390 0.1884 15.0780 10.4843 -8.3138 8.3144
#
#
#
# Elastic Compliance Matrix: (Units=1/GPa)
#
#
# Indices 1 2 3 4 5 6 
#
# 1 0.009378 0.001234 0.004561 0.016370 -0.012319 -0.024636
# 2 0.001234 0.017460 -0.003679 -0.002287 0.000852 0.012199
# 3 0.004561 -0.003679 0.011020 -0.017345 0.006424 0.016479
# 4 0.016370 -0.002287 -0.017345 0.014010 0.014281 0.057140
# 5 -0.012319 0.000852 0.006424 0.014281 0.020566 -0.030950
# 6 -0.024636 0.012199 0.016479 0.057140 -0.030950 -0.056562
#
#
# Mechanical properties :
#
#
# Convention : Reuss Voigt Hill
#
# Bulk Modulus (GPa) = 23.75719 24.57411 24.16565
# Shear Modulus (GPa) = 194.78128 21.65890 108.22009
#
# Velocity S-wave (km/s) = 10.31355 3.43916 7.68756
# Velocity P-wave (km/s) = 12.44184 5.40280 9.59140
#
# Compressibility (1/GPa) = 0.04209252
#
# Stress axis : x y z
#
# Youngs Moduli (GPa) = 106.63385 57.27316 90.74167
#
# Poissons Ratio (x) = -0.07070 -0.41390
# Poissons Ratio (y) = -0.13163 0.33381
# Poissons Ratio (z) = -0.48639 0.21069
#
# Static dielectric constant tensor:
#      x y z
#    x 1.632760 -0.003590 -0.012210 
#    y -0.003590 1.635980 0.008910 
#    z -0.012210 0.008910 1.639350 
# 
# From -- ./inp_files/619590.got.cif
#   From: 2010.05.17/outbox.cif.g08.bks.cpg/sg2_310_cif.got.tgz:619590.got - 2010.06.03 11:33:40.
