data_PCOD9101715
_publ_section_title
;
Structure prediction by ZEFSAII (Michael W. Deem and Ramdas Pophale) SiO2 
 PCOD9101715
Probable space group: P -1
;
_chemical_formula_sum "Si O2"
_cell_formula_units_Z 16
_cell_length_a 13.328527
_cell_length_b 6.744706
_cell_length_c 11.749237
_cell_angle_alpha 128.697948
_cell_angle_beta 97.619369
_cell_angle_gamma 55.572831
_cell_volume 638.669283
_symmetry_space_group_name_H-M "P -1"
_symmetry_group_IT_number 2
_symmetry_cell_setting 'triclinic'
loop_
_space_group_symop_operation_xyz
x,y,z
-x,-y,-z
loop_
_atom_site_type_symbol
_atom_site_label
_atom_site_fract_x
_atom_site_fract_y
_atom_site_fract_z
Si Si1 0.806514 0.842497 0.049982
Si Si2 0.747281 0.407919 0.762493
Si Si3 0.705843 0.611415 0.573165
Si Si4 0.270405 0.601580 0.892967
Si Si5 0.614907 0.317852 0.863004
Si Si6 0.553916 0.076942 0.429390
Si Si7 0.068787 0.496632 0.827667
Si Si8 0.820802 0.778671 0.480431
O O1 0.772757 0.615869 0.916929
O O2 0.933434 0.710675 0.947478
O O3 0.839978 0.790071 0.169075
O O4 0.708197 0.217583 0.134667
O O5 0.758390 0.462456 0.651599
O O6 0.609084 0.514267 0.825009
O O7 0.832195 0.015081 0.642497
O O8 0.808037 0.533087 0.461313
O O9 0.642386 0.989941 0.715023
O O10 0.585307 0.610869 0.526754
O O11 0.380100 0.215211 0.757679
O O12 0.137804 0.658134 0.879938
O O13 0.272398 0.740857 0.062522
O O14 0.500000 0.500000 0.000000
O O15 0.681451 0.015076 0.477228
O O16 0.500000 0.000000 0.500000
O O17 0.072623 0.380140 0.659684
#
# Coordination Sequence:
#
# PCOD9101715 Si02
#       8
#     2   2   2   2   2   2   2   2
#     4  11  23  40  67  92 119 159 208 261 306 363
#     4  11  23  39  62  91 126 160 208 249 305 363
#     4  10  20  38  60  89 122 163 205 244 297 364
#     4  11  20  39  62  87 121 159 202 249 304 357
#     4  11  21  37  57  89 126 158 195 252 301 358
#     4   9  19  37  58  83 122 162 197 239 292 363
#     4  10  23  43  62  92 122 158 208 257 311 356
#     4   9  22  40  60  85 127 163 199 255 300 364
#
# _framework density 25.052088000000001
#
# number of rings (size 3 to 8) (size 9 to 14) (size 15 to 20)
#    0.000    1.750    3.750    0.375    0.000    4.500 
#    4.500    0.625    0.000    0.000    0.000    0.000 
#    0.000    0.000    0.000    0.000    0.000    0.000 
#
# Total GULP energy -89231.319051 kJ/mol
# GULP energy per Si atom -5576.957441 kJ/mol
# Density = 2.499507 g / cm^3
# Si number density = 25.052088 Si / 1000 Ang^3
#
#
#
# Elastic Constant Matrix: (Units=GPa)
#
#
# Indices 1 2 3 4 5 6 
#
# 1 71.2978 3.3388 13.8492 7.9220 -8.4473 28.2618
# 2 3.3388 78.0171 -2.3697 -17.5522 -12.6097 27.2874
# 3 13.8492 -2.3697 87.9927 -24.8304 -11.4495 11.0125
# 4 7.9220 -17.5522 -24.8304 28.8736 13.4087 -4.3843
# 5 -8.4473 -12.6097 -11.4495 13.4087 41.5598 -8.8906
# 6 28.2618 27.2874 11.0125 -4.3843 -8.8906 31.9696
#
#
#
# Elastic Compliance Matrix: (Units=1/GPa)
#
#
# Indices 1 2 3 4 5 6 
#
# 1 0.028624 0.007083 -0.003698 -0.013599 0.004788 -0.030609
# 2 0.007083 0.026971 0.008105 0.016884 0.000045 -0.029746
# 3 -0.003698 0.008105 0.019117 0.022040 -0.001786 -0.007708
# 4 -0.013599 0.016884 0.022040 0.074619 -0.016576 -0.004358
# 5 0.004788 0.000045 -0.001786 -0.016576 0.030448 0.002538
# 6 -0.030609 -0.029746 -0.007708 -0.004358 0.002538 0.086492
#
#
# Mechanical properties :
#
#
# Convention : Reuss Voigt Hill
#
# Bulk Modulus (GPa) = 10.23645 29.66048 19.94846
# Shear Modulus (GPa) = 18.12556 35.31321 26.71939
#
# Velocity S-wave (km/s) = 2.69274 3.75853 3.26936
# Velocity P-wave (km/s) = 3.70982 5.54081 4.71505
#
# Compressibility (1/GPa) = 0.09769012
#
# Stress axis : x y z
#
# Youngs Moduli (GPa) = 34.93579 37.07747 52.31074
#
# Poissons Ratio (x) = -0.26262 0.19345
# Poissons Ratio (y) = -0.24745 -0.42396
# Poissons Ratio (z) = 0.12920 -0.30050
#
# Static dielectric constant tensor:
#      x y z
#    x 2.069040 -0.023650 -0.024980 
#    y -0.023650 2.109120 -0.027990 
#    z -0.024980 -0.027990 2.058950 
# 
# From -- ./inp_files/128464.got.cif
#   From: 2010.05.17/outbox.cif.g08.bks.cpg/sg2_65_cif.got.tgz:128464.got - 2010.06.03 11:33:40.
