data_PCOD9101023
_publ_section_title
;
Structure prediction by ZEFSAII (Michael W. Deem and Ramdas Pophale) SiO2 
 PCOD9101023
Probable space group: P -1
;
_chemical_formula_sum "Si O2"
_cell_formula_units_Z 14
_cell_length_a 7.015522
_cell_length_b 13.787659
_cell_length_c 8.637461
_cell_angle_alpha 133.306321
_cell_angle_beta 98.681802
_cell_angle_gamma 68.810583
_cell_volume 561.052575
_symmetry_space_group_name_H-M "P -1"
_symmetry_group_IT_number 2
_symmetry_cell_setting 'triclinic'
loop_
_space_group_symop_operation_xyz
x,y,z
-x,-y,-z
loop_
_atom_site_type_symbol
_atom_site_label
_atom_site_fract_x
_atom_site_fract_y
_atom_site_fract_z
Si Si1 0.529427 0.357523 0.683559
Si Si2 0.048020 0.116149 0.733182
Si Si3 0.625372 0.259653 0.254495
Si Si4 0.403970 0.686621 0.020950
Si Si5 0.999573 0.354455 0.767957
Si Si6 0.261010 0.041314 0.981849
Si Si7 0.001850 0.354251 0.415500
O O1 0.511775 0.290373 0.441251
O O2 0.495875 0.298363 0.783931
O O3 0.768777 0.348339 0.717854
O O4 0.404184 0.526096 0.847131
O O5 0.832649 0.207089 0.889844
O O6 0.110970 0.222835 0.749387
O O7 0.217738 0.036882 0.791174
O O8 0.000000 0.000000 0.500000
O O9 0.767962 0.355557 0.379679
O O10 0.775593 0.093544 0.092150
O O11 0.504182 0.291579 0.110640
O O12 0.074288 0.345886 0.592700
O O13 0.000000 0.500000 0.000000
O O14 0.138928 0.203535 0.192940
O O15 0.500000 0.000000 0.000000
O O16 0.000000 0.500000 0.500000
#
# Coordination Sequence:
#
# PCOD9101023 Si02
#       7
#     2   2   2   2   2   2   2
#     4   9  21  39  62 106 132 179 235 293 341 434
#     4  11  23  44  70  97 137 189 237 289 356 430
#     4  11  23  43  73  96 138 190 236 285 366 427
#     4  10  20  37  68  93 137 174 236 284 354 411
#     4  10  22  40  65  95 137 179 227 286 355 417
#     4  12  27  47  68 108 145 181 240 302 356 427
#     4  11  24  44  72 101 140 189 237 286 357 438
#
# _framework density 24.953097
#
# number of rings (size 3 to 8) (size 9 to 14) (size 15 to 20)
#    0.000    1.429    1.429    4.286    4.000    4.571 
#    5.143    0.714    0.000    0.000    0.000    0.000 
#    0.000    0.000    0.000    0.000    0.000    0.000 
#
# Total GULP energy -78374.130927 kJ/mol
# GULP energy per Si atom -5598.152209 kJ/mol
# Density = 2.489630 g / cm^3
# Si number density = 24.953097 Si / 1000 Ang^3
#
#
#
# Elastic Constant Matrix: (Units=GPa)
#
#
# Indices 1 2 3 4 5 6 
#
# 1 61.6794 28.4079 26.2184 -4.0879 4.9092 6.6869
# 2 28.4079 230.4506 92.0403 -30.9722 9.6693 18.5397
# 3 26.2184 92.0403 162.7864 -29.5562 -2.6506 12.4411
# 4 -4.0879 -30.9722 -29.5562 66.2692 0.9084 6.0910
# 5 4.9092 9.6693 -2.6506 0.9084 36.8215 4.7336
# 6 6.6869 18.5397 12.4411 6.0910 4.7336 42.5128
#
#
#
# Elastic Compliance Matrix: (Units=1/GPa)
#
#
# Indices 1 2 3 4 5 6 
#
# 1 0.017991 -0.001171 -0.002210 -0.000266 -0.002063 -0.001404
# 2 -0.001171 0.006028 -0.002811 0.001668 -0.001452 -0.001699
# 3 -0.002210 -0.002811 0.008697 0.002546 0.001793 -0.001536
# 4 -0.000266 0.001668 0.002546 0.017349 -0.000146 -0.003900
# 5 -0.002063 -0.001452 0.001793 -0.000146 0.028294 -0.002697
# 6 -0.001404 -0.001699 -0.001536 -0.003900 -0.002697 0.025793
#
#
# Mechanical properties :
#
#
# Convention : Reuss Voigt Hill
#
# Bulk Modulus (GPa) = 49.18379 83.13883 66.16131
# Shear Modulus (GPa) = 40.54777 49.67070 45.10923
#
# Velocity S-wave (km/s) = 4.03545 4.46641 4.25639
# Velocity P-wave (km/s) = 6.43944 7.74525 7.12233
#
# Compressibility (1/GPa) = 0.02033190
#
# Stress axis : x y z
#
# Youngs Moduli (GPa) = 55.58487 165.89267 114.98424
#
# Poissons Ratio (x) = 0.19431 0.25409
# Poissons Ratio (y) = 0.06511 0.32317
# Poissons Ratio (z) = 0.12283 0.46626
#
# Static dielectric constant tensor:
#      x y z
#    x 2.061600 0.026370 -0.023070 
#    y 0.026370 1.984130 -0.043510 
#    z -0.023070 -0.043510 1.991470 
# 
# From -- ./inp_files/209446.got.cif
#   From: 2010.05.17/outbox.cif.g08.bks.cpg/sg2_105_cif.got.tgz:209446.got - 2010.06.03 11:33:40.
