data_PCOD9101769
_publ_section_title
;
Structure prediction by ZEFSAII (Michael W. Deem and Ramdas Pophale) SiO2 
 PCOD9101769
Probable space group: P -1
;
_chemical_formula_sum "Si O2"
_cell_formula_units_Z 14
_cell_length_a 5.255657
_cell_length_b 10.062250
_cell_length_c 12.102266
_cell_angle_alpha 84.512913
_cell_angle_beta 88.353089
_cell_angle_gamma 96.339290
_cell_volume 632.685167
_symmetry_space_group_name_H-M "P -1"
_symmetry_group_IT_number 2
_symmetry_cell_setting 'triclinic'
loop_
_space_group_symop_operation_xyz
x,y,z
-x,-y,-z
loop_
_atom_site_type_symbol
_atom_site_label
_atom_site_fract_x
_atom_site_fract_y
_atom_site_fract_z
Si Si1 0.736399 0.428201 0.601458
Si Si2 0.004669 0.247795 0.901116
Si Si3 0.492882 0.201444 0.766656
Si Si4 0.514871 0.087789 0.279984
Si Si5 0.912195 0.475841 0.218033
Si Si6 0.946316 0.797857 0.840811
Si Si7 0.449457 0.671652 0.602576
O O1 0.520976 0.333306 0.679263
O O2 0.661787 0.577818 0.571247
O O3 0.757814 0.355024 0.490495
O O4 0.967325 0.444810 0.682749
O O5 0.221160 0.184808 0.832824
O O6 0.094839 0.408828 0.881447
O O7 0.725060 0.219343 0.851221
O O8 0.004168 0.197912 0.029873
O O9 0.526071 0.072070 0.702636
O O10 0.306384 0.136164 0.193971
O O11 0.476022 0.173346 0.384127
O O12 0.804564 0.129803 0.230828
O O13 0.655756 0.394071 0.275089
O O14 0.075276 0.358463 0.184867
#
# Coordination Sequence:
#
# PCOD9101769 Si02
#       7
#     2   2   2   2   2   2   2
#     4  10  20  38  63  87 117 157 199 246 299 355
#     4  11  23  39  63  89 121 161 201 245 297 351
#     4  11  24  41  60  90 125 157 198 247 295 355
#     4  11  24  41  60  90 125 157 198 247 295 355
#     4  10  20  38  60  92 122 152 198 258 292 354
#     4  11  23  39  63  89 121 161 201 245 297 351
#     4  10  20  38  63  87 117 157 199 246 299 355
#
# _framework density 22.127907
#
# number of rings (size 3 to 8) (size 9 to 14) (size 15 to 20)
#    0.000    1.429    2.857    2.571    0.000    4.000 
#    0.000    4.286    0.000    5.143    0.000    0.000 
#    0.000    0.000    0.000    0.000    0.000    0.000 
#
# Total GULP energy -78176.076648 kJ/mol
# GULP energy per Si atom -5584.005475 kJ/mol
# Density = 2.207754 g / cm^3
# Si number density = 22.127907 Si / 1000 Ang^3
#
#
#
# Elastic Constant Matrix: (Units=GPa)
#
#
# Indices 1 2 3 4 5 6 
#
# 1 74.0447 9.2218 6.2650 1.6465 9.7489 -6.7488
# 2 9.2218 95.7967 11.9961 24.8387 8.1021 -16.7337
# 3 6.2650 11.9961 64.6729 9.2642 2.6687 1.1831
# 4 1.6465 24.8387 9.2642 11.1335 0.0422 -3.2026
# 5 9.7489 8.1021 2.6687 0.0422 12.4058 -1.0280
# 6 -6.7488 -16.7337 1.1831 -3.2026 -1.0280 22.4615
#
#
#
# Elastic Compliance Matrix: (Units=1/GPa)
#
#
# Indices 1 2 3 4 5 6 
#
# 1 0.015555 0.001248 -0.000886 -0.002960 -0.012452 0.004658
# 2 0.001248 0.033280 0.005106 -0.074796 -0.022465 0.013206
# 3 -0.000886 0.005106 0.018832 -0.027385 -0.006735 -0.001667
# 4 -0.002960 -0.074796 -0.027385 0.275873 0.055023 -0.013316
# 5 -0.012452 -0.022465 -0.006735 0.055023 0.105709 -0.007439
# 6 0.004658 0.013206 -0.001667 -0.013316 -0.007439 0.053607
#
#
# Mechanical properties :
#
#
# Convention : Reuss Voigt Hill
#
# Bulk Modulus (GPa) = 12.72223 32.16447 22.44335
# Shear Modulus (GPa) = 9.65025 23.00224 16.32624
#
# Velocity S-wave (km/s) = 2.09060 3.22765 2.71922
# Velocity P-wave (km/s) = 3.40431 5.33456 4.47475
#
# Compressibility (1/GPa) = 0.07860260
#
# Stress axis : x y z
#
# Youngs Moduli (GPa) = 64.28922 30.04851 53.10018
#
# Poissons Ratio (x) = -0.03750 0.04703
# Poissons Ratio (y) = -0.08022 -0.27112
# Poissons Ratio (z) = 0.05694 -0.15342
#
# Static dielectric constant tensor:
#      x y z
#    x 1.837650 0.008280 -0.004000 
#    y 0.008280 1.845840 0.007720 
#    z -0.004000 0.007720 1.818170 
# 
# From -- ./inp_files/27556.got.cif
#   From: 2010.05.17/outbox.cif.g08.bks.cpg/sg2_14_cif.got.tgz:27556.got - 2010.06.03 11:33:40.
