data_PCOD9101587
_publ_section_title
;
Structure prediction by ZEFSAII (Michael W. Deem and Ramdas Pophale) SiO2 
 PCOD9101587
Probable space group: P -1
;
_chemical_formula_sum "Si O2"
_cell_formula_units_Z 16
_cell_length_a 5.717880
_cell_length_b 16.426009
_cell_length_c 17.030438
_cell_angle_alpha 35.371941
_cell_angle_beta 68.414879
_cell_angle_gamma 60.579397
_cell_volume 804.834561
_symmetry_space_group_name_H-M "P -1"
_symmetry_group_IT_number 2
_symmetry_cell_setting 'triclinic'
loop_
_space_group_symop_operation_xyz
x,y,z
-x,-y,-z
loop_
_atom_site_type_symbol
_atom_site_label
_atom_site_fract_x
_atom_site_fract_y
_atom_site_fract_z
Si Si1 0.731369 0.388292 0.650706
Si Si2 0.597987 0.326511 0.108010
Si Si3 0.254462 0.130155 0.851154
Si Si4 0.588692 0.280104 0.594551
Si Si5 0.465730 0.198491 0.926558
Si Si6 0.254845 0.217403 0.110146
Si Si7 0.646981 0.115815 0.402935
Si Si8 0.769925 0.076407 0.589087
O O1 0.730445 0.346016 0.592040
O O2 0.650996 0.567981 0.524892
O O3 0.520863 0.333831 0.768712
O O4 0.003548 0.271908 0.743333
O O5 0.421459 0.290863 0.088157
O O6 0.526564 0.253274 0.252118
O O7 0.926292 0.271710 0.105543
O O8 0.500000 0.500000 0.000000
O O9 0.490766 0.162120 0.747714
O O10 0.288086 0.147388 0.926249
O O11 0.280104 0.958118 0.968718
O O12 0.761220 0.191562 0.569243
O O13 0.336414 0.238594 0.995224
O O14 0.348139 0.044134 0.265064
O O15 0.627183 0.158846 0.462913
O O16 0.500000 0.000000 0.500000
O O17 0.944541 0.026527 0.401828
#
# Coordination Sequence:
#
# PCOD9101587 Si02
#       8
#     2   2   2   2   2   2   2   2
#     4  10  22  37  59  87 129 164 207 270 311 385
#     4  11  25  44  68  96 132 170 207 270 336 383
#     4  10  20  38  60  83 126 163 207 260 317 374
#     4  10  21  39  58  90 121 166 211 253 331 377
#     4  10  22  37  58  91 121 164 215 256 315 374
#     4  11  23  42  69  95 131 168 220 262 316 399
#     4  10  21  41  63  90 121 161 215 271 319 383
#     4  10  21  39  64  89 124 164 218 268 317 388
#
# _framework density 19.879860999999998
#
# number of rings (size 3 to 8) (size 9 to 14) (size 15 to 20)
#    0.000    1.750    2.500    1.125    1.750    4.000 
#    2.250    0.000    0.000    0.000    0.000    0.000 
#    0.000    0.000    0.000    0.000    0.000    0.000 
#
# Total GULP energy -89078.014590 kJ/mol
# GULP energy per Si atom -5567.375912 kJ/mol
# Density = 1.983461 g / cm^3
# Si number density = 19.879861 Si / 1000 Ang^3
#
#
#
# Elastic Constant Matrix: (Units=GPa)
#
#
# Indices 1 2 3 4 5 6 
#
# 1 62.7065 23.3131 19.8872 10.0476 6.0510 11.3866
# 2 23.3131 101.4006 57.1307 20.6300 5.0319 25.4760
# 3 19.8872 57.1307 129.2386 7.9611 5.3206 17.8076
# 4 10.0476 20.6300 7.9611 42.1877 4.0239 6.1398
# 5 6.0510 5.0319 5.3206 4.0239 29.1839 -4.1842
# 6 11.3866 25.4760 17.8076 6.1398 -4.1842 17.3398
#
#
#
# Elastic Compliance Matrix: (Units=1/GPa)
#
#
# Indices 1 2 3 4 5 6 
#
# 1 0.019326 -0.000282 -0.000865 -0.002069 -0.005224 -0.011916
# 2 -0.000282 0.019854 -0.005003 -0.004803 -0.005143 -0.023387
# 3 -0.000865 -0.005003 0.010594 0.001367 -0.001628 -0.003839
# 4 -0.002069 -0.004803 0.001367 0.027081 -0.003206 -0.003351
# 5 -0.005224 -0.005143 -0.001628 -0.003206 0.040348 0.023531
# 6 -0.011916 -0.023387 -0.003839 -0.003351 0.023531 0.110663
#
#
# Mechanical properties :
#
#
# Convention : Reuss Voigt Hill
#
# Bulk Modulus (GPa) = 26.68507 54.88975 40.78741
# Shear Modulus (GPa) = 19.78974 30.60992 25.19983
#
# Velocity S-wave (km/s) = 3.15852 3.92822 3.56421
# Velocity P-wave (km/s) = 5.17243 6.94587 6.12369
#
# Compressibility (1/GPa) = 0.03747414
#
# Stress axis : x y z
#
# Youngs Moduli (GPa) = 51.74414 50.36873 94.39291
#
# Poissons Ratio (x) = 0.01420 0.08163
# Poissons Ratio (y) = 0.01459 0.47225
# Poissons Ratio (z) = 0.04475 0.25199
#
# Static dielectric constant tensor:
#      x y z
#    x 1.840060 -0.047160 0.010350 
#    y -0.047160 1.690990 -0.004650 
#    z 0.010350 -0.004650 1.712820 
# 
# From -- ./inp_files/38899.got.cif
#   From: 2010.05.17/outbox.cif.g08.bks.cpg/sg2_20_cif.got.tgz:38899.got - 2010.06.03 11:33:40.
