data_PCOD9101324
_publ_section_title
;
Structure prediction by ZEFSAII (Michael W. Deem and Ramdas Pophale) SiO2 
 PCOD9101324
Probable space group: P -1
;
_chemical_formula_sum "Si O2"
_cell_formula_units_Z 16
_cell_length_a 13.936182
_cell_length_b 6.082598
_cell_length_c 25.864216
_cell_angle_alpha 95.983643
_cell_angle_beta 19.707799
_cell_angle_gamma 97.798890
_cell_volume 730.696392
_symmetry_space_group_name_H-M "P -1"
_symmetry_group_IT_number 2
_symmetry_cell_setting 'triclinic'
loop_
_space_group_symop_operation_xyz
x,y,z
-x,-y,-z
loop_
_atom_site_type_symbol
_atom_site_label
_atom_site_fract_x
_atom_site_fract_y
_atom_site_fract_z
Si Si1 0.120000 0.803661 0.902416
Si Si2 0.704639 0.226753 0.949890
Si Si3 0.226464 0.136439 0.425601
Si Si4 0.725662 0.124063 0.497917
Si Si5 0.082252 0.056039 0.828034
Si Si6 0.278572 0.580069 0.949424
Si Si7 0.874234 0.460341 0.667534
Si Si8 0.174828 0.867189 0.223355
O O1 0.445171 0.794008 0.756039
O O2 0.136820 0.857821 0.833205
O O3 0.890591 0.588383 0.008604
O O4 0.000000 0.000000 0.000000
O O5 0.774003 0.275812 0.856718
O O6 0.911822 0.045715 0.860739
O O7 0.751863 0.430663 0.971546
O O8 0.392900 0.092344 0.112467
O O9 0.083141 0.353343 0.519953
O O10 0.247452 0.976128 0.460653
O O11 0.000000 0.000000 0.500000
O O12 0.399522 0.168828 0.657387
O O13 0.932862 0.350362 0.394903
O O14 0.856855 0.942039 0.391181
O O15 0.873923 0.195492 0.971548
O O16 0.614215 0.561998 0.773659
O O17 0.762896 0.263605 0.759165
#
# Coordination Sequence:
#
# PCOD9101324 Si02
#       8
#     2   2   2   2   2   2   2   2
#     4  11  22  39  63  85 113 150 190 236 289 344
#     4   9  20  39  57  85 119 149 194 241 282 339
#     4  10  23  39  60  87 115 149 190 240 289 344
#     4  10  20  39  59  83 119 151 191 235 288 342
#     4   9  21  39  57  82 120 150 185 240 285 337
#     4  10  21  37  57  86 114 151 189 233 286 333
#     4  11  21  36  62  84 117 154 190 240 282 343
#     4  10  20  38  58  88 114 152 198 236 286 333
#
# _framework density 21.896920000000001
#
# number of rings (size 3 to 8) (size 9 to 14) (size 15 to 20)
#    0.750    1.250    1.250    2.250    0.000    4.000 
#    2.250    0.625    0.000    0.000    0.000    0.000 
#    0.000    0.000    0.000    0.000    0.000    0.000 
#
# Total GULP energy -89084.535227 kJ/mol
# GULP energy per Si atom -5567.783452 kJ/mol
# Density = 2.184708 g / cm^3
# Si number density = 21.896920 Si / 1000 Ang^3
#
#
#
# Elastic Constant Matrix: (Units=GPa)
#
#
# Indices 1 2 3 4 5 6 
#
# 1 60.1057 -1.2235 44.4192 8.9789 -12.7745 13.2564
# 2 -1.2235 25.8712 14.2493 9.5323 1.8142 10.4850
# 3 44.4192 14.2493 134.7881 18.7540 -22.1777 -5.1689
# 4 8.9789 9.5323 18.7540 31.4354 -5.6185 0.1629
# 5 -12.7745 1.8142 -22.1777 -5.6185 29.4514 6.4204
# 6 13.2564 10.4850 -5.1689 0.1629 6.4204 28.9126
#
#
#
# Elastic Compliance Matrix: (Units=1/GPa)
#
#
# Indices 1 2 3 4 5 6 
#
# 1 0.036209 0.022810 -0.012816 -0.007756 0.009545 -0.029240
# 2 0.022810 0.069850 -0.013686 -0.019351 -0.000100 -0.038104
# 3 -0.012816 -0.013686 0.014104 -0.000111 0.003122 0.012668
# 4 -0.007756 -0.019351 -0.000111 0.040517 0.003387 0.009573
# 5 0.009545 -0.000100 0.003122 0.003387 0.044059 -0.013584
# 6 -0.029240 -0.038104 0.012668 0.009573 -0.013584 0.067039
#
#
# Mechanical properties :
#
#
# Convention : Reuss Voigt Hill
#
# Bulk Modulus (GPa) = 8.86697 37.29499 23.08098
# Shear Modulus (GPa) = 15.78507 28.84789 22.31648
#
# Velocity S-wave (km/s) = 2.68783 3.63359 3.19589
# Velocity P-wave (km/s) = 3.70011 5.88838 4.91751
#
# Compressibility (1/GPa) = 0.11277806
#
# Stress axis : x y z
#
# Youngs Moduli (GPa) = 27.61761 14.31646 70.90007
#
# Poissons Ratio (x) = -0.32655 0.90863
# Poissons Ratio (y) = -0.62995 0.97037
# Poissons Ratio (z) = 0.35394 0.19594
#
# Static dielectric constant tensor:
#      x y z
#    x 1.847880 -0.018970 0.024940 
#    y -0.018970 1.891030 -0.020350 
#    z 0.024940 -0.020350 1.845650 
# 
# From -- ./inp_files/318569.got.cif
#   From: 2010.05.17/outbox.cif.g08.bks.cpg/sg2_160_cif.got.tgz:318569.got - 2010.06.03 11:33:40.
