data_PCOD9101161
_publ_section_title
;
Structure prediction by ZEFSAII (Michael W. Deem and Ramdas Pophale) SiO2 
 PCOD9101161
Probable space group: P -1
;
_chemical_formula_sum "Si O2"
_cell_formula_units_Z 16
_cell_length_a 7.594387
_cell_length_b 14.365506
_cell_length_c 12.871738
_cell_angle_alpha 137.401648
_cell_angle_beta 102.990797
_cell_angle_gamma 50.132543
_cell_volume 641.745032
_symmetry_space_group_name_H-M "P -1"
_symmetry_group_IT_number 2
_symmetry_cell_setting 'triclinic'
loop_
_space_group_symop_operation_xyz
x,y,z
-x,-y,-z
loop_
_atom_site_type_symbol
_atom_site_label
_atom_site_fract_x
_atom_site_fract_y
_atom_site_fract_z
Si Si1 0.745311 0.467607 0.984793
Si Si2 0.237981 0.906466 0.053649
Si Si3 0.573752 0.731519 0.591953
Si Si4 0.785545 0.355928 0.369650
Si Si5 0.074364 0.364900 0.748959
Si Si6 0.080623 0.126786 0.909739
Si Si7 0.723265 0.718405 0.831276
Si Si8 0.756904 0.872034 0.602944
O O1 0.850512 0.434941 0.855214
O O2 0.981821 0.262532 0.908574
O O3 0.500000 0.500000 0.000000
O O4 0.738718 0.625981 0.162866
O O5 0.336544 0.940455 0.195796
O O6 0.970102 0.132528 0.170002
O O7 0.164998 0.800119 0.002904
O O8 0.457552 0.799875 0.909240
O O9 0.722462 0.509550 0.404104
O O10 0.713823 0.706782 0.696516
O O11 0.588576 0.837630 0.593620
O O12 0.267417 0.896223 0.714516
O O13 0.500000 0.500000 0.500000
O O14 0.964076 0.303150 0.446763
O O15 0.209020 0.162041 0.542744
O O16 0.944831 0.521743 0.766378
O O17 0.245844 0.140257 0.013701
#
# Coordination Sequence:
#
# PCOD9101161 Si02
#       8
#     2   2   2   2   2   2   2   2
#     4  10  23  46  69  92 117 161 215 270 311 371
#     4  10  22  37  58  90 132 165 204 250 304 364
#     4  12  21  41  61  92 135 164 211 244 310 380
#     4  10  20  38  56  87 135 172 201 246 298 383
#     4  10  22  44  71  90 122 164 213 258 319 366
#     4  11  22  39  64  91 125 164 209 259 309 363
#     4  11  22  39  63  96 129 168 202 259 302 375
#     4  10  22  40  61  92 127 172 202 254 309 377
#
# _framework density 24.932020999999999
#
# number of rings (size 3 to 8) (size 9 to 14) (size 15 to 20)
#    0.750    0.750    3.750    1.500    0.000    0.500 
#    9.000    1.250    0.000    0.000    0.000    0.000 
#    0.000    0.000    0.000    0.000    0.000    0.000 
#
# Total GULP energy -89403.317502 kJ/mol
# GULP energy per Si atom -5587.707344 kJ/mol
# Density = 2.487528 g / cm^3
# Si number density = 24.932021 Si / 1000 Ang^3
#
#
#
# Elastic Constant Matrix: (Units=GPa)
#
#
# Indices 1 2 3 4 5 6 
#
# 1 128.5622 -6.4184 12.6451 -13.0956 -13.5544 -6.8729
# 2 -6.4184 68.3200 13.1324 4.4391 -3.6723 2.5186
# 3 12.6451 13.1324 98.8813 -12.6726 -10.2898 5.3311
# 4 -13.0956 4.4391 -12.6726 34.0363 9.4472 -10.2971
# 5 -13.5544 -3.6723 -10.2898 9.4472 31.4381 2.8115
# 6 -6.8729 2.5186 5.3311 -10.2971 2.8115 36.2571
#
#
#
# Elastic Compliance Matrix: (Units=1/GPa)
#
#
# Indices 1 2 3 4 5 6 
#
# 1 0.008571 0.000793 -0.000691 0.002954 0.002467 0.002319
# 2 0.000793 0.015628 -0.002289 -0.003940 0.002775 -0.001933
# 3 -0.000691 -0.002289 0.011206 0.003349 0.002171 -0.000837
# 4 0.002954 -0.003940 0.003349 0.039018 -0.010913 0.012269
# 5 0.002467 0.002775 0.002171 -0.010913 0.037729 -0.006069
# 6 0.002319 -0.001933 -0.000837 0.012269 -0.006069 0.032233
#
#
# Mechanical properties :
#
#
# Convention : Reuss Voigt Hill
#
# Bulk Modulus (GPa) = 32.22609 37.16463 34.69536
# Shear Modulus (GPa) = 31.42644 38.77326 35.09985
#
# Velocity S-wave (km/s) = 3.55418 3.94783 3.75617
# Velocity P-wave (km/s) = 5.45863 5.97656 5.72345
#
# Compressibility (1/GPa) = 0.03103075
#
# Stress axis : x y z
#
# Youngs Moduli (GPa) = 116.67498 63.98788 89.23985
#
# Poissons Ratio (x) = -0.05076 0.06168
# Poissons Ratio (y) = -0.09255 0.20427
# Poissons Ratio (z) = 0.08064 0.14647
#
# Static dielectric constant tensor:
#      x y z
#    x 2.034430 -0.010370 0.040580 
#    y -0.010370 1.987500 0.009250 
#    z 0.040580 0.009250 2.099330 
# 
# From -- ./inp_files/506764.got.cif
#   From: 2010.05.17/outbox.cif.g08.bks.cpg/sg2_254_cif.got.tgz:506764.got - 2010.06.03 11:33:40.
