data_PCOD9101101
_publ_section_title
;
Structure prediction by ZEFSAII (Michael W. Deem and Ramdas Pophale) SiO2 
 PCOD9101101
Probable space group: P -1
;
_chemical_formula_sum "Si O2"
_cell_formula_units_Z 10
_cell_length_a 8.228484
_cell_length_b 6.976048
_cell_length_c 9.448538
_cell_angle_alpha 100.666327
_cell_angle_beta 112.017699
_cell_angle_gamma 124.282118
_cell_volume 355.554023
_symmetry_space_group_name_H-M "P -1"
_symmetry_group_IT_number 2
_symmetry_cell_setting 'triclinic'
loop_
_space_group_symop_operation_xyz
x,y,z
-x,-y,-z
loop_
_atom_site_type_symbol
_atom_site_label
_atom_site_fract_x
_atom_site_fract_y
_atom_site_fract_z
Si Si1 0.945068 0.611797 0.698087
Si Si2 0.158306 0.302482 0.909497
Si Si3 0.510129 0.460290 0.716935
Si Si4 0.094036 0.838142 0.463668
Si Si5 0.739432 0.010986 0.936635
O O1 0.736178 0.572581 0.704474
O O2 0.825137 0.309834 0.584810
O O3 0.027224 0.757242 0.593763
O O4 0.192361 0.766617 0.897591
O O5 0.129667 0.285800 0.731786
O O6 0.401787 0.560002 0.103392
O O7 0.158208 0.081753 0.939101
O O8 0.915667 0.199223 0.889829
O O9 0.522184 0.709046 0.760255
O O10 0.287154 0.158657 0.552064
#
# Coordination Sequence:
#
# PCOD9101101 Si02
#       5
#     2   2   2   2   2
#     4  10  20  38  51  84 113 132 175 236 246 319
#     4   8  17  37  55  79 105 142 176 220 257 320
#     4   9  19  40  55  75 110 143 174 221 259 316
#     4  11  22  32  61  80 105 143 179 208 282 306
#     4   8  17  39  55  72 118 133 175 229 255 301
#
# _framework density 28.125119999999999
#
# number of rings (size 3 to 8) (size 9 to 14) (size 15 to 20)
#    1.200    1.600    2.000    0.600    0.000    5.600 
#    0.000    8.000    0.000    0.000    0.000    0.000 
#    0.000    0.000    0.000    0.000    0.000    0.000 
#
# Total GULP energy -55772.931044 kJ/mol
# GULP energy per Si atom -5577.293104 kJ/mol
# Density = 2.806111 g / cm^3
# Si number density = 28.125120 Si / 1000 Ang^3
#
#
#
# Elastic Constant Matrix: (Units=GPa)
#
#
# Indices 1 2 3 4 5 6 
#
# 1 31.6019 24.1969 34.6105 17.6132 1.8087 -2.1342
# 2 24.1969 108.3104 62.3027 26.1435 3.0672 18.3549
# 3 34.6105 62.3027 171.1106 20.5060 -8.1277 6.6638
# 4 17.6132 26.1435 20.5060 73.8990 -6.2226 1.8181
# 5 1.8087 3.0672 -8.1277 -6.2226 45.1577 5.9217
# 6 -2.1342 18.3549 6.6638 1.8181 5.9217 30.7959
#
#
#
# Elastic Compliance Matrix: (Units=1/GPa)
#
#
# Indices 1 2 3 4 5 6 
#
# 1 0.050618 -0.006621 -0.007499 -0.008363 -0.005473 0.010623
# 2 -0.006621 0.014696 -0.003419 -0.002523 -0.000619 -0.008210
# 3 -0.007499 -0.003419 0.008652 0.000812 0.002313 -0.000846
# 4 -0.008363 -0.002523 0.000812 0.016467 0.003027 -0.000806
# 5 -0.005473 -0.000619 0.002313 0.003027 0.023933 -0.005291
# 6 0.010623 -0.008210 -0.000846 -0.000806 -0.005291 0.039350
#
#
# Mechanical properties :
#
#
# Convention : Reuss Voigt Hill
#
# Bulk Modulus (GPa) = 25.71531 61.47145 43.59338
# Shear Modulus (GPa) = 24.78215 42.63137 33.70676
#
# Velocity S-wave (km/s) = 2.97162 3.89752 3.46563
# Velocity P-wave (km/s) = 4.57570 6.49293 5.61672
#
# Compressibility (1/GPa) = 0.03888734
#
# Stress axis : x y z
#
# Youngs Moduli (GPa) = 19.75565 68.04345 115.58664
#
# Poissons Ratio (x) = 0.45053 0.86681
# Poissons Ratio (y) = 0.13080 0.39522
# Poissons Ratio (z) = 0.14815 0.23266
#
# Static dielectric constant tensor:
#      x y z
#    x 2.347940 -0.043600 -0.049710 
#    y -0.043600 2.087640 0.132050 
#    z -0.049710 0.132050 2.544670 
# 
# From -- ./inp_files/145543.got.cif
#   From: 2010.05.17/outbox.cif.g08.bks.cpg/sg2_73_cif.got.tgz:145543.got - 2010.06.03 11:33:40.
