data_PCOD9101790
_publ_section_title
;
Structure prediction by ZEFSAII (Michael W. Deem and Ramdas Pophale) SiO2 
 PCOD9101790
Probable space group: P -1
;
_chemical_formula_sum "Si O2"
_cell_formula_units_Z 14
_cell_length_a 10.440201
_cell_length_b 11.913961
_cell_length_c 9.419515
_cell_angle_alpha 142.239090
_cell_angle_beta 122.410405
_cell_angle_gamma 48.044756
_cell_volume 533.490402
_symmetry_space_group_name_H-M "P -1"
_symmetry_group_IT_number 2
_symmetry_cell_setting 'triclinic'
loop_
_space_group_symop_operation_xyz
x,y,z
-x,-y,-z
loop_
_atom_site_type_symbol
_atom_site_label
_atom_site_fract_x
_atom_site_fract_y
_atom_site_fract_z
Si Si1 0.103006 0.330482 0.522179
Si Si2 0.045760 0.270992 0.851362
Si Si3 0.432013 0.831422 0.821268
Si Si4 0.229171 0.403894 0.298942
Si Si5 0.369715 0.422531 0.708421
Si Si6 0.793258 0.095343 0.963468
Si Si7 0.261824 0.839182 0.434826
O O1 0.249618 0.387608 0.715656
O O2 0.000000 0.500000 0.500000
O O3 0.937371 0.373365 0.560361
O O4 0.211129 0.089534 0.310519
O O5 0.885318 0.228789 0.739915
O O6 0.171277 0.091088 0.637851
O O7 0.143726 0.264784 0.051235
O O8 0.000000 0.500000 0.000000
O O9 0.618821 0.627991 0.748861
O O10 0.336291 0.798439 0.598180
O O11 0.309857 0.882726 0.932353
O O12 0.500000 0.000000 0.000000
O O13 0.320377 0.356192 0.459459
O O14 0.574515 0.284239 0.693337
O O15 0.296692 0.668672 0.906817
O O16 0.000000 0.000000 0.000000
#
# Coordination Sequence:
#
# PCOD9101790 Si02
#       7
#     2   2   2   2   2   2   2
#     4  10  20  38  60  93 135 164 197 271 332 376
#     4  11  25  40  61  89 134 168 214 269 316 380
#     4  11  22  38  70  96 126 164 218 272 320 379
#     4  10  21  39  63  96 123 167 211 261 326 374
#     4  10  23  39  68  95 129 163 215 271 325 383
#     4  12  23  36  62 103 134 160 208 267 332 383
#     4  10  24  42  61  95 123 173 218 260 325 381
#
# _framework density 26.242270000000001
#
# number of rings (size 3 to 8) (size 9 to 14) (size 15 to 20)
#    0.000    1.429    4.286    2.571    4.000    1.143 
#    0.000    2.143    0.000    1.714    0.000    0.000 
#    0.000    0.000    0.000    0.000    0.000    0.000 
#
# Total GULP energy -78238.469908 kJ/mol
# GULP energy per Si atom -5588.462136 kJ/mol
# Density = 2.618254 g / cm^3
# Si number density = 26.242270 Si / 1000 Ang^3
#
#
#
# Elastic Constant Matrix: (Units=GPa)
#
#
# Indices 1 2 3 4 5 6 
#
# 1 162.4613 69.0019 56.7195 19.3393 -15.3819 -51.8088
# 2 69.0019 112.0341 81.6158 21.0657 3.1675 -35.4968
# 3 56.7195 81.6158 162.6077 13.8853 14.4435 -4.5342
# 4 19.3393 21.0657 13.8853 71.5890 -4.3994 -2.8069
# 5 -15.3819 3.1675 14.4435 -4.3994 49.8496 16.7531
# 6 -51.8088 -35.4968 -4.5342 -2.8069 16.7531 46.7450
#
#
#
# Elastic Compliance Matrix: (Units=1/GPa)
#
#
# Indices 1 2 3 4 5 6 
#
# 1 0.011584 -0.000773 -0.003217 -0.001791 0.000479 0.011660
# 2 -0.000773 0.023149 -0.010060 -0.004280 -0.004977 0.017272
# 3 -0.003217 -0.010060 0.011992 0.001092 -0.000431 -0.009821
# 4 -0.001791 -0.004280 0.001092 0.015453 0.002477 -0.005090
# 5 0.000479 -0.004977 -0.000431 0.002477 0.024926 -0.012075
# 6 0.011660 0.017272 -0.009821 -0.005090 -0.012075 0.050502
#
#
# Mechanical properties :
#
#
# Convention : Reuss Voigt Hill
#
# Bulk Modulus (GPa) = 53.69181 94.64195 74.16688
# Shear Modulus (GPa) = 29.08433 48.95446 39.01939
#
# Velocity S-wave (km/s) = 3.33273 4.32381 3.86021
# Velocity P-wave (km/s) = 5.94255 7.81473 6.94204
#
# Compressibility (1/GPa) = 0.01862482
#
# Stress axis : x y z
#
# Youngs Moduli (GPa) = 86.32678 43.19895 83.38717
#
# Poissons Ratio (x) = 0.03341 0.26825
# Poissons Ratio (y) = 0.06676 0.83886
# Poissons Ratio (z) = 0.27770 0.43457
#
# Static dielectric constant tensor:
#      x y z
#    x 2.164210 0.058040 -0.058070 
#    y 0.058040 2.218320 0.014970 
#    z -0.058070 0.014970 2.178170 
# 
# From -- ./inp_files/433551.got.cif
#   From: 2010.05.17/outbox.cif.g08.bks.cpg/sg2_217_cif.got.tgz:433551.got - 2010.06.03 11:33:40.
