data_PCOD9101992
_publ_section_title
;
Structure prediction by ZEFSAII (Michael W. Deem and Ramdas Pophale) SiO2 
 PCOD9101992
Probable space group: P -1
;
_chemical_formula_sum "Si O2"
_cell_formula_units_Z 16
_cell_length_a 9.595754
_cell_length_b 18.877307
_cell_length_c 21.251875
_cell_angle_alpha 19.199515
_cell_angle_beta 52.738350
_cell_angle_gamma 64.617129
_cell_volume 843.596538
_symmetry_space_group_name_H-M "P -1"
_symmetry_group_IT_number 2
_symmetry_cell_setting 'triclinic'
loop_
_space_group_symop_operation_xyz
x,y,z
-x,-y,-z
loop_
_atom_site_type_symbol
_atom_site_label
_atom_site_fract_x
_atom_site_fract_y
_atom_site_fract_z
Si Si1 0.568003 0.877700 0.691985
Si Si2 0.467012 0.912425 0.922816
Si Si3 0.924290 0.067711 0.027188
Si Si4 0.359099 0.531820 0.562322
Si Si5 0.746854 0.671121 0.713425
Si Si6 0.223207 0.075064 0.275658
Si Si7 0.582042 0.572722 0.596820
Si Si8 0.468001 0.645355 0.703530
O O1 0.644715 0.782430 0.693541
O O2 0.731559 0.962781 0.633446
O O3 0.549152 0.113527 0.480648
O O4 0.354150 0.624109 0.989441
O O5 0.253822 0.878620 0.985887
O O6 0.605247 0.922297 0.818276
O O7 0.596084 0.185041 0.694008
O O8 0.419351 0.678690 0.175742
O O9 0.809571 0.815802 0.313396
O O10 0.121222 0.309195 0.803235
O O11 0.000000 0.000000 0.000000
O O12 0.500000 0.500000 0.500000
O O13 0.437866 0.523793 0.617158
O O14 0.661829 0.671609 0.666946
O O15 0.994115 0.854605 0.500388
O O16 0.271721 0.363949 0.013913
O O17 0.499985 0.637634 0.626912
#
# Coordination Sequence:
#
# PCOD9101992 Si02
#       8
#     2   2   2   2   2   2   2   2
#     4  10  20  38  61  90 122 161 198 245 293 341
#     4  10  23  40  60  88 120 156 196 246 294 352
#     4  11  22  42  62  86 118 150 194 247 297 355
#     4  11  22  41  60  86 117 147 195 246 293 360
#     4  10  22  37  61  90 123 158 201 243 292 349
#     4  10  22  39  58  88 124 156 202 243 291 352
#     4  10  23  40  60  89 118 156 198 242 299 353
#     4  10  22  39  58  87 124 154 202 246 287 354
#
# _framework density 18.966412999999999
#
# number of rings (size 3 to 8) (size 9 to 14) (size 15 to 20)
#    0.000    1.750    2.500    2.250    0.000    9.500 
#    0.000    0.000    0.000    0.000    0.000    0.000 
#    0.000    0.000    0.000    0.000    0.000    0.000 
#
# Total GULP energy -89363.686848 kJ/mol
# GULP energy per Si atom -5585.230428 kJ/mol
# Density = 1.892324 g / cm^3
# Si number density = 18.966413 Si / 1000 Ang^3
#
#
#
# Elastic Constant Matrix: (Units=GPa)
#
#
# Indices 1 2 3 4 5 6 
#
# 1 133.9614 71.4113 105.9153 -5.9053 -3.8911 50.9294
# 2 71.4113 100.9691 66.5422 -20.3863 22.0420 45.0703
# 3 105.9153 66.5422 160.6733 -24.0231 -1.1242 24.8583
# 4 -5.9053 -20.3863 -24.0231 33.7959 -5.7430 -3.6020
# 5 -3.8911 22.0420 -1.1242 -5.7430 52.2527 11.2611
# 6 50.9294 45.0703 24.8583 -3.6020 11.2611 75.5110
#
#
#
# Elastic Compliance Matrix: (Units=1/GPa)
#
#
# Indices 1 2 3 4 5 6 
#
# 1 0.026393 -0.008864 -0.013794 -0.010475 0.006284 -0.009406
# 2 -0.008864 0.023645 -0.001682 0.009471 -0.008362 -0.005882
# 3 -0.013794 -0.001682 0.016515 0.008858 -0.000134 0.005313
# 4 -0.010475 0.009471 0.008858 0.039763 -0.000309 0.000439
# 5 0.006284 -0.008362 -0.000134 -0.000309 0.023689 -0.002750
# 6 -0.009406 -0.005882 0.005313 0.000439 -0.002750 0.021780
#
#
# Mechanical properties :
#
#
# Convention : Reuss Voigt Hill
#
# Bulk Modulus (GPa) = 55.95083 98.14907 77.04995
# Shear Modulus (GPa) = 24.22231 42.42760 33.32495
#
# Velocity S-wave (km/s) = 3.57755 4.73481 4.19627
# Velocity P-wave (km/s) = 6.82856 9.04171 8.01192
#
# Compressibility (1/GPa) = 0.01787283
#
# Stress axis : x y z
#
# Youngs Moduli (GPa) = 37.88890 42.29297 60.55155
#
# Poissons Ratio (x) = 0.37487 0.83526
# Poissons Ratio (y) = 0.33584 0.10184
# Poissons Ratio (z) = 0.52265 0.07113
#
# Static dielectric constant tensor:
#      x y z
#    x 1.636910 0.006270 0.007580 
#    y 0.006270 1.663350 -0.011680 
#    z 0.007580 -0.011680 1.664110 
# 
# From -- ./inp_files/590868.got.cif
#   From: 2010.05.17/outbox.cif.g08.bks.cpg/sg2_296_cif.got.tgz:590868.got - 2010.06.03 11:33:40.
