data_PCOD9101121
_publ_section_title
;
Structure prediction by ZEFSAII (Michael W. Deem and Ramdas Pophale) SiO2 
 PCOD9101121
Probable space group: P -1
;
_chemical_formula_sum "Si O2"
_cell_formula_units_Z 16
_cell_length_a 28.333889
_cell_length_b 24.249523
_cell_length_c 9.323107
_cell_angle_alpha 147.635423
_cell_angle_beta 27.059623
_cell_angle_gamma 164.347395
_cell_volume 781.912298
_symmetry_space_group_name_H-M "P -1"
_symmetry_group_IT_number 2
_symmetry_cell_setting 'triclinic'
loop_
_space_group_symop_operation_xyz
x,y,z
-x,-y,-z
loop_
_atom_site_type_symbol
_atom_site_label
_atom_site_fract_x
_atom_site_fract_y
_atom_site_fract_z
Si Si1 0.541143 0.874953 0.853208
Si Si2 0.999650 0.000982 0.752727
Si Si3 0.521141 0.899207 0.665319
Si Si4 0.782233 0.680702 0.387093
Si Si5 0.816749 0.316440 0.433699
Si Si6 0.040341 0.703117 0.764606
Si Si7 0.319224 0.214619 0.603914
Si Si8 0.229600 0.734294 0.874994
O O1 0.472279 0.785167 0.681933
O O2 0.602271 0.834913 0.700682
O O3 0.360175 0.790980 0.220417
O O4 0.733779 0.118068 0.845713
O O5 0.880034 0.822680 0.573131
O O6 0.827994 0.892651 0.094215
O O7 0.112019 0.179655 0.735035
O O8 0.181043 0.111515 0.608346
O O9 0.369739 0.772511 0.662637
O O10 0.748660 0.070419 0.370157
O O11 0.500000 0.000000 0.000000
O O12 0.531295 0.464733 0.583489
O O13 0.859085 0.628900 0.079228
O O14 0.914213 0.299397 0.204063
O O15 0.725648 0.222795 0.319584
O O16 0.987038 0.553158 0.492461
O O17 0.000000 0.500000 0.000000
#
# Coordination Sequence:
#
# PCOD9101121 Si02
#       8
#     2   2   2   2   2   2   2   2
#     4  11  22  40  63  88 125 170 209 254 322 383
#     4  10  25  44  70  98 130 167 222 284 331 393
#     4  10  20  38  55  81 126 167 200 253 306 371
#     4  11  23  44  71  98 130 173 220 271 339 391
#     4  11  22  37  59  92 126 165 207 254 303 381
#     4  11  22  37  65  88 128 169 208 254 325 379
#     4  11  23  45  70  97 132 169 218 279 337 388
#     4  11  24  36  56  86 130 170 211 256 302 373
#
# _framework density 20.462651999999999
#
# number of rings (size 3 to 8) (size 9 to 14) (size 15 to 20)
#    0.000    1.250    3.750    3.375    3.500    0.000 
#    0.000    0.000    5.500    0.000    0.000    0.000 
#    0.000    0.000    0.000    0.000    0.000    0.000 
#
# Total GULP energy -89279.436839 kJ/mol
# GULP energy per Si atom -5579.964802 kJ/mol
# Density = 2.041608 g / cm^3
# Si number density = 20.462652 Si / 1000 Ang^3
#
#
#
# Elastic Constant Matrix: (Units=GPa)
#
#
# Indices 1 2 3 4 5 6 
#
# 1 165.1678 40.8477 37.4011 -7.2310 -5.8910 12.4301
# 2 40.8477 98.4228 24.8531 -27.3510 -4.9049 1.7961
# 3 37.4011 24.8531 53.7764 -22.9729 -12.3582 -0.5256
# 4 -7.2310 -27.3510 -22.9729 31.4933 0.1956 -3.7957
# 5 -5.8910 -4.9049 -12.3582 0.1956 31.2041 -2.4476
# 6 12.4301 1.7961 -0.5256 -3.7957 -2.4476 32.5302
#
#
#
# Elastic Compliance Matrix: (Units=1/GPa)
#
#
# Indices 1 2 3 4 5 6 
#
# 1 0.008769 -0.003761 -0.008337 -0.007847 -0.002532 -0.004384
# 2 -0.003761 0.015201 0.002375 0.014357 0.002727 0.002516
# 3 -0.008337 0.002375 0.039608 0.029949 0.014950 0.008314
# 4 -0.007847 0.014357 0.029949 0.065549 0.013114 0.011325
# 5 -0.002532 0.002727 0.014950 0.013114 0.038265 0.005468
# 6 -0.004384 0.002516 0.008314 0.011325 0.005468 0.034144
#
#
# Mechanical properties :
#
#
# Convention : Reuss Voigt Hill
#
# Bulk Modulus (GPa) = 22.66021 58.17452 40.41737
# Shear Modulus (GPa) = 21.21410 33.32986 27.27198
#
# Velocity S-wave (km/s) = 3.22331 4.04024 3.65467
# Velocity P-wave (km/s) = 4.99509 7.08915 6.13217
#
# Compressibility (1/GPa) = 0.04413022
#
# Stress axis : x y z
#
# Youngs Moduli (GPa) = 114.04455 65.78522 25.24772
#
# Poissons Ratio (x) = 0.24740 0.21050
# Poissons Ratio (y) = 0.42888 -0.05996
# Poissons Ratio (z) = 0.95084 -0.15622
#
# Static dielectric constant tensor:
#      x y z
#    x 1.795340 -0.008190 0.019440 
#    y -0.008190 1.812620 -0.017780 
#    z 0.019440 -0.017780 1.714080 
# 
# From -- ./inp_files/355292.got.cif
#   From: 2010.05.17/outbox.cif.g08.bks.cpg/sg2_178_cif.got.tgz:355292.got - 2010.06.03 11:33:40.
