data_PCOD9101569
_publ_section_title
;
Structure prediction by ZEFSAII (Michael W. Deem and Ramdas Pophale) SiO2 
 PCOD9101569
Probable space group: P -1
;
_chemical_formula_sum "Si O2"
_cell_formula_units_Z 14
_cell_length_a 13.514018
_cell_length_b 11.884974
_cell_length_c 16.015322
_cell_angle_alpha 142.093280
_cell_angle_beta 153.892087
_cell_angle_gamma 43.260347
_cell_volume 693.598561
_symmetry_space_group_name_H-M "P -1"
_symmetry_group_IT_number 2
_symmetry_cell_setting 'triclinic'
loop_
_space_group_symop_operation_xyz
x,y,z
-x,-y,-z
loop_
_atom_site_type_symbol
_atom_site_label
_atom_site_fract_x
_atom_site_fract_y
_atom_site_fract_z
Si Si1 0.783155 0.819218 0.174188
Si Si2 0.645066 0.713325 0.642218
Si Si3 0.878680 0.975878 0.096072
Si Si4 0.128075 0.680682 0.221590
Si Si5 0.013956 0.456163 0.712208
Si Si6 0.696727 0.184185 0.244536
Si Si7 0.948396 0.821517 0.803436
O O1 0.810409 0.696362 0.205304
O O2 0.007614 0.776041 0.266154
O O3 0.743282 0.040024 0.271658
O O4 0.566599 0.755193 0.922668
O O5 0.394481 0.653960 0.421292
O O6 0.704421 0.777465 0.629773
O O7 0.839866 0.547950 0.703518
O O8 0.755249 0.073201 0.138655
O O9 0.001396 0.122892 0.219566
O O10 0.064531 0.823397 0.182056
O O11 0.704433 0.870970 0.844727
O O12 0.000000 0.500000 0.000000
O O13 0.854846 0.348303 0.468251
O O14 0.096842 0.636441 0.835767
O O15 0.000000 0.000000 0.000000
#
# Coordination Sequence:
#
# PCOD9101569 Si02
#       7
#     2   2   2   2   2   2   2
#     4  10  22  37  55  83 125 153 186 241 290 348
#     4   9  21  38  58  86 115 155 190 238 301 337
#     4  10  21  40  58  83 122 150 194 247 283 343
#     4  11  22  34  60  92 114 151 200 241 291 347
#     4  10  20  38  60  82 117 154 194 235 292 341
#     4  10  22  37  58  88 116 155 196 236 287 346
#     4   8  19  40  60  84 117 154 193 242 290 342
#
# _framework density 20.184585999999999
#
# number of rings (size 3 to 8) (size 9 to 14) (size 15 to 20)
#    0.857    1.429    0.000    2.143    0.000    9.143 
#    0.000    2.143    0.000    0.000    0.000    0.000 
#    0.000    0.000    0.000    0.000    0.000    0.000 
#
# Total GULP energy -77957.056984 kJ/mol
# GULP energy per Si atom -5568.361213 kJ/mol
# Density = 2.013864 g / cm^3
# Si number density = 20.184586 Si / 1000 Ang^3
#
#
#
# Elastic Constant Matrix: (Units=GPa)
#
#
# Indices 1 2 3 4 5 6 
#
# 1 59.3222 28.4437 10.8966 5.3038 -2.8963 10.6010
# 2 28.4437 104.3895 32.9890 7.9069 3.8667 30.0449
# 3 10.8966 32.9890 66.9712 11.4074 -4.7064 -0.7181
# 4 5.3038 7.9069 11.4074 24.0269 -6.3341 1.5291
# 5 -2.8963 3.8667 -4.7064 -6.3341 20.7048 4.4019
# 6 10.6010 30.0449 -0.7181 1.5291 4.4019 34.3073
#
#
#
# Elastic Compliance Matrix: (Units=1/GPa)
#
#
# Indices 1 2 3 4 5 6 
#
# 1 0.019900 -0.004531 -0.000518 -0.001545 0.003589 -0.002584
# 2 -0.004531 0.017475 -0.008088 -0.000860 -0.003100 -0.013637
# 3 -0.000518 -0.008088 0.020403 -0.006773 0.002374 0.007668
# 4 -0.001545 -0.000860 -0.006773 0.049371 0.014130 -0.002925
# 5 0.003589 -0.003100 0.002374 0.014130 0.055538 -0.006101
# 6 -0.002584 -0.013637 0.007668 -0.002925 -0.006101 0.042963
#
#
# Mechanical properties :
#
#
# Convention : Reuss Voigt Hill
#
# Bulk Modulus (GPa) = 31.74307 41.70462 36.72384
# Shear Modulus (GPa) = 20.62489 26.36472 23.49480
#
# Velocity S-wave (km/s) = 3.20005 3.61803 3.41544
# Velocity P-wave (km/s) = 5.42349 6.17738 5.81267
#
# Compressibility (1/GPa) = 0.03150294
#
# Stress axis : x y z
#
# Youngs Moduli (GPa) = 50.25197 57.22459 49.01232
#
# Poissons Ratio (x) = 0.25926 0.02541
# Poissons Ratio (y) = 0.22767 0.39643
# Poissons Ratio (z) = 0.02605 0.46285
#
# Static dielectric constant tensor:
#      x y z
#    x 1.756200 0.018890 -0.005690 
#    y 0.018890 1.800490 -0.010930 
#    z -0.005690 -0.010930 1.720390 
# 
# From -- ./inp_files/600133.got.cif
#   From: 2010.05.17/outbox.cif.g08.bks.cpg/sg2_301_cif.got.tgz:600133.got - 2010.06.03 11:33:40.
