data_PCOD9101685
_publ_section_title
;
Structure prediction by ZEFSAII (Michael W. Deem and Ramdas Pophale) SiO2 
 PCOD9101685
Probable space group: P -1
;
_chemical_formula_sum "Si O2"
_cell_formula_units_Z 16
_cell_length_a 19.101033
_cell_length_b 9.312597
_cell_length_c 6.402969
_cell_angle_alpha 79.472401
_cell_angle_beta 83.945138
_cell_angle_gamma 40.310431
_cell_volume 723.397526
_symmetry_space_group_name_H-M "P -1"
_symmetry_group_IT_number 2
_symmetry_cell_setting 'triclinic'
loop_
_space_group_symop_operation_xyz
x,y,z
-x,-y,-z
loop_
_atom_site_type_symbol
_atom_site_label
_atom_site_fract_x
_atom_site_fract_y
_atom_site_fract_z
Si Si1 0.347215 0.957462 0.280173
Si Si2 0.016326 0.719199 0.544878
Si Si3 0.619632 0.840007 0.097814
Si Si4 0.926563 0.089572 0.797671
Si Si5 0.517537 0.186536 0.354087
Si Si6 0.837380 0.790146 0.380320
Si Si7 0.347628 0.790175 0.938806
Si Si8 0.687421 0.472353 0.940599
O O1 0.454975 0.826245 0.412527
O O2 0.248539 0.103110 0.433903
O O3 0.357800 0.795464 0.182484
O O4 0.332048 0.105958 0.071597
O O5 0.063525 0.778400 0.378055
O O6 0.104742 0.453481 0.632631
O O7 0.923647 0.774405 0.435894
O O8 0.966820 0.882891 0.714906
O O9 0.595753 0.932461 0.313621
O O10 0.689075 0.589777 0.090849
O O11 0.500000 0.000000 0.000000
O O12 0.803619 0.264557 0.860806
O O13 0.000000 0.000000 0.000000
O O14 0.563009 0.254670 0.194646
O O15 0.397740 0.348764 0.262323
O O16 0.767574 0.966366 0.167400
O O17 0.353735 0.612940 0.926016
#
# Coordination Sequence:
#
# PCOD9101685 Si02
#       8
#     2   2   2   2   2   2   2   2
#     4  10  20  38  60  88 118 153 199 237 289 357
#     4  10  23  42  61  88 118 154 202 245 293 346
#     4   9  20  37  57  85 119 153 194 237 286 350
#     4  11  24  41  61  90 122 152 195 248 299 348
#     4   9  21  39  60  86 120 157 195 239 287 354
#     4  10  21  40  65  85 116 159 198 244 289 345
#     4  10  21  38  60  91 122 150 195 244 290 348
#     4  11  21  38  61  86 119 159 193 239 302 348
#
# _framework density 22.117854000000001
#
# number of rings (size 3 to 8) (size 9 to 14) (size 15 to 20)
#    0.000    2.000    0.000    2.625    0.000    6.500 
#    0.000   21.875    0.000    0.000    0.000    0.000 
#    0.000    0.000    0.000    0.000    0.000    0.000 
#
# Total GULP energy -89446.565593 kJ/mol
# GULP energy per Si atom -5590.410350 kJ/mol
# Density = 2.206751 g / cm^3
# Si number density = 22.117854 Si / 1000 Ang^3
#
#
#
# Elastic Constant Matrix: (Units=GPa)
#
#
# Indices 1 2 3 4 5 6 
#
# 1 63.0909 23.3410 8.3148 3.4484 5.6082 9.4625
# 2 23.3410 110.5180 37.1229 8.5584 8.2153 12.2102
# 3 8.3148 37.1229 75.6187 5.6463 22.5220 2.1128
# 4 3.4484 8.5584 5.6463 28.4653 -2.8863 7.7222
# 5 5.6082 8.2153 22.5220 -2.8863 28.2867 -0.0033
# 6 9.4625 12.2102 2.1128 7.7222 -0.0033 41.2361
#
#
#
# Elastic Compliance Matrix: (Units=1/GPa)
#
#
# Indices 1 2 3 4 5 6 
#
# 1 0.017780 -0.003401 0.000839 -0.000828 -0.003290 -0.002961
# 2 -0.003401 0.011945 -0.005853 -0.001239 0.001739 -0.002225
# 3 0.000839 -0.005853 0.020945 -0.004429 -0.015594 0.001296
# 4 -0.000828 -0.001239 -0.004429 0.039069 0.008036 -0.006532
# 5 -0.003290 0.001739 -0.015594 0.008036 0.048736 -0.000462
# 6 -0.002961 -0.002225 0.001296 -0.006532 -0.000462 0.026746
#
#
# Mechanical properties :
#
#
# Convention : Reuss Voigt Hill
#
# Bulk Modulus (GPa) = 29.55190 42.97613 36.26401
# Shear Modulus (GPa) = 25.86254 31.62756 28.74505
#
# Velocity S-wave (km/s) = 3.42322 3.78558 3.60895
# Velocity P-wave (km/s) = 5.38653 6.21129 5.81356
#
# Compressibility (1/GPa) = 0.03383877
#
# Stress axis : x y z
#
# Youngs Moduli (GPa) = 56.24423 83.71574 47.74481
#
# Poissons Ratio (x) = 0.28472 -0.04007
# Poissons Ratio (y) = 0.19129 0.27947
# Poissons Ratio (z) = -0.04720 0.49003
#
# Static dielectric constant tensor:
#      x y z
#    x 1.827350 0.024120 0.008140 
#    y 0.024120 1.830850 -0.004090 
#    z 0.008140 -0.004090 1.799480 
# 
# From -- ./inp_files/117048.got.cif
#   From: 2010.05.17/outbox.cif.g08.bks.cpg/sg2_59_cif.got.tgz:117048.got - 2010.06.03 11:33:40.
