data_PCOD9101554
_publ_section_title
;
Structure prediction by ZEFSAII (Michael W. Deem and Ramdas Pophale) SiO2 
 PCOD9101554
Probable space group: P -1
;
_chemical_formula_sum "Si O2"
_cell_formula_units_Z 16
_cell_length_a 9.002655
_cell_length_b 21.145042
_cell_length_c 17.556270
_cell_angle_alpha 20.920889
_cell_angle_beta 60.698975
_cell_angle_gamma 49.161874
_cell_volume 806.532842
_symmetry_space_group_name_H-M "P -1"
_symmetry_group_IT_number 2
_symmetry_cell_setting 'triclinic'
loop_
_space_group_symop_operation_xyz
x,y,z
-x,-y,-z
loop_
_atom_site_type_symbol
_atom_site_label
_atom_site_fract_x
_atom_site_fract_y
_atom_site_fract_z
Si Si1 0.921464 0.184641 0.081937
Si Si2 0.000063 0.454159 0.346199
Si Si3 0.602082 0.001902 0.163677
Si Si4 0.137530 0.002486 0.397161
Si Si5 0.465456 0.314254 0.717696
Si Si6 0.782465 0.640666 0.034775
Si Si7 0.612635 0.185590 0.658462
Si Si8 0.564572 0.475998 0.211117
O O1 0.002036 0.091220 0.252202
O O2 0.923416 0.394300 0.832196
O O3 0.672489 0.291723 0.011932
O O4 0.123435 0.979649 0.211274
O O5 0.181886 0.208817 0.612456
O O6 0.772142 0.574859 0.312384
O O7 0.954743 0.468904 0.250377
O O8 0.458167 0.932456 0.244272
O O9 0.636049 0.106637 0.965193
O O10 0.447322 0.196813 0.044600
O O11 0.352057 0.740055 0.620588
O O12 0.177776 0.184248 0.199367
O O13 0.000000 0.000000 0.500000
O O14 0.500000 0.500000 0.500000
O O15 0.495549 0.236612 0.710597
O O16 0.746416 0.511412 0.127693
O O17 0.549308 0.400082 0.384878
#
# Coordination Sequence:
#
# PCOD9101554 Si02
#       8
#     2   2   2   2   2   2   2   2
#     4  10  20  39  63  87 112 156 202 238 299 355
#     4  10  20  38  60  81 116 164 200 245 302 345
#     4  11  20  37  60  82 113 160 203 244 295 347
#     4  10  22  42  63  90 126 155 189 240 294 359
#     4  11  24  36  50  85 124 155 204 254 296 344
#     4  10  21  40  61  90 124 152 199 246 287 354
#     4  11  20  37  59  84 116 153 204 250 290 350
#     4  11  22  39  64  90 116 157 199 241 297 354
#
# _framework density 19.838004000000002
#
# number of rings (size 3 to 8) (size 9 to 14) (size 15 to 20)
#    0.000    1.500    6.250    1.875    0.000    6.000 
#    0.000    0.625    0.000    0.000    0.000    0.000 
#    0.000    0.000    0.000    0.000    0.000    0.000 
#
# Total GULP energy -89298.644501 kJ/mol
# GULP energy per Si atom -5581.165281 kJ/mol
# Density = 1.979285 g / cm^3
# Si number density = 19.838004 Si / 1000 Ang^3
#
#
#
# Elastic Constant Matrix: (Units=GPa)
#
#
# Indices 1 2 3 4 5 6 
#
# 1 65.2867 2.4746 30.1802 -1.5505 -1.9909 -10.6941
# 2 2.4746 61.9766 16.4604 18.3525 -2.5197 -12.2248
# 3 30.1802 16.4604 88.1487 4.1846 7.3145 -5.1567
# 4 -1.5505 18.3525 4.1846 23.2176 -13.1023 -3.0099
# 5 -1.9909 -2.5197 7.3145 -13.1023 41.3985 -6.2500
# 6 -10.6941 -12.2248 -5.1567 -3.0099 -6.2500 10.6636
#
#
#
# Elastic Compliance Matrix: (Units=1/GPa)
#
#
# Indices 1 2 3 4 5 6 
#
# 1 0.026861 0.006909 -0.009683 0.010680 0.012961 0.040786
# 2 0.006909 0.028706 -0.005275 -0.014589 0.003732 0.035355
# 3 -0.009683 -0.005275 0.015686 -0.005245 -0.007324 -0.013945
# 4 0.010680 -0.014589 -0.005245 0.076825 0.029456 0.030397
# 5 0.012961 0.003732 -0.007324 0.029456 0.042732 0.047094
# 6 0.040786 0.035355 -0.013945 0.030397 0.047094 0.204649
#
#
# Mechanical properties :
#
#
# Convention : Reuss Voigt Hill
#
# Bulk Modulus (GPa) = 18.13089 34.84917 26.49003
# Shear Modulus (GPa) = 11.62948 26.14239 18.88594
#
# Velocity S-wave (km/s) = 2.42383 3.63408 3.08881
# Velocity P-wave (km/s) = 4.12221 5.93412 5.10912
#
# Compressibility (1/GPa) = 0.05515448
#
# Stress axis : x y z
#
# Youngs Moduli (GPa) = 37.22850 34.83623 63.75266
#
# Poissons Ratio (x) = -0.24067 0.61733
# Poissons Ratio (y) = -0.25720 0.33626
# Poissons Ratio (z) = 0.36049 0.18374
#
# Static dielectric constant tensor:
#      x y z
#    x 1.740790 0.022830 -0.035300 
#    y 0.022830 1.723220 -0.043820 
#    z -0.035300 -0.043820 1.742040 
# 
# From -- ./inp_files/314966.got.cif
#   From: 2010.05.17/outbox.cif.g08.bks.cpg/sg2_158_cif.got.tgz:314966.got - 2010.06.03 11:33:40.
