data_PCOD9101631
_publ_section_title
;
Structure prediction by ZEFSAII (Michael W. Deem and Ramdas Pophale) SiO2 
 PCOD9101631
Probable space group: P -1
;
_chemical_formula_sum "Si O2"
_cell_formula_units_Z 10
_cell_length_a 8.841265
_cell_length_b 9.002956
_cell_length_c 18.952952
_cell_angle_alpha 138.985251
_cell_angle_beta 34.569446
_cell_angle_gamma 113.050313
_cell_volume 442.036278
_symmetry_space_group_name_H-M "P -1"
_symmetry_group_IT_number 2
_symmetry_cell_setting 'triclinic'
loop_
_space_group_symop_operation_xyz
x,y,z
-x,-y,-z
loop_
_atom_site_type_symbol
_atom_site_label
_atom_site_fract_x
_atom_site_fract_y
_atom_site_fract_z
Si Si1 0.080911 0.892498 0.764845
Si Si2 0.589317 0.540911 0.850480
Si Si3 0.826485 0.601521 0.527360
Si Si4 0.226343 0.278860 0.895447
Si Si5 0.813150 0.770127 0.959427
O O1 0.232421 0.619123 0.559365
O O2 0.988527 0.823060 0.849796
O O3 0.315178 0.983673 0.725868
O O4 0.736296 0.166091 0.957376
O O5 0.513567 0.316375 0.809380
O O6 0.908163 0.419046 0.634269
O O7 0.669160 0.626173 0.923317
O O8 0.000000 0.500000 0.500000
O O9 0.493470 0.919808 0.781521
O O10 0.010593 0.377658 0.086715
O O11 0.000000 0.500000 0.000000
#
# Coordination Sequence:
#
# PCOD9101631 Si02
#       5
#     2   2   2   2   2
#     4  10  20  38  60  86 113 148 188 232 283 335
#     4  10  20  38  60  86 113 148 188 232 283 335
#     4  11  19  35  63  87 111 144 195 233 271 339
#     4  10  23  39  56  84 120 150 185 234 286 331
#     4  11  20  37  65  82 110 155 189 229 279 334
#
# _framework density 22.622577
#
# number of rings (size 3 to 8) (size 9 to 14) (size 15 to 20)
#    0.000    1.600    4.000    2.400    0.000    1.600 
#    0.000    3.000    0.000    0.000    0.000    0.000 
#    0.000    0.000    0.000    0.000    0.000    0.000 
#
# Total GULP energy -55915.323488 kJ/mol
# GULP energy per Si atom -5591.532349 kJ/mol
# Density = 2.257109 g / cm^3
# Si number density = 22.622577 Si / 1000 Ang^3
#
#
#
# Elastic Constant Matrix: (Units=GPa)
#
#
# Indices 1 2 3 4 5 6 
#
# 1 136.8012 67.7052 46.3694 7.5025 47.5753 4.8569
# 2 67.7052 127.9890 31.9477 16.1974 38.8238 27.2422
# 3 46.3694 31.9477 98.2604 4.2608 33.7852 12.9526
# 4 7.5025 16.1974 4.2608 16.9249 0.3439 16.5628
# 5 47.5753 38.8238 33.7852 0.3439 47.6244 11.9049
# 6 4.8569 27.2422 12.9526 16.5628 11.9049 68.2165
#
#
#
# Elastic Compliance Matrix: (Units=1/GPa)
#
#
# Indices 1 2 3 4 5 6 
#
# 1 0.013467 -0.003757 -0.002006 -0.005595 -0.009930 0.004014
# 2 -0.003757 0.013352 0.000458 -0.009492 -0.006980 -0.001629
# 3 -0.002006 0.000458 0.013936 -0.002152 -0.008051 -0.000759
# 4 -0.005595 -0.009492 -0.002152 0.091311 0.019435 -0.020964
# 5 -0.009930 -0.006980 -0.008051 0.019435 0.044024 -0.007378
# 6 0.004014 -0.001629 -0.000759 -0.020964 -0.007378 0.021546
#
#
# Mechanical properties :
#
#
# Convention : Reuss Voigt Hill
#
# Bulk Modulus (GPa) = 33.17229 72.78836 52.98032
# Shear Modulus (GPa) = 22.90498 41.02172 31.96335
#
# Velocity S-wave (km/s) = 3.18541 4.26292 3.76293
# Velocity P-wave (km/s) = 5.31265 7.51498 6.50766
#
# Compressibility (1/GPa) = 0.03014565
#
# Stress axis : x y z
#
# Youngs Moduli (GPa) = 74.25506 74.89695 71.75600
#
# Poissons Ratio (x) = 0.28142 0.14392
# Poissons Ratio (y) = 0.27901 -0.03290
# Poissons Ratio (z) = 0.14893 -0.03434
#
# Static dielectric constant tensor:
#      x y z
#    x 1.913290 -0.061790 -0.051640 
#    y -0.061790 1.957150 0.038970 
#    z -0.051640 0.038970 1.809230 
# 
# From -- ./inp_files/15556.got.cif
#   From: 2010.05.17/outbox.cif.g08.bks.cpg/sg2_8_cif.got.tgz:15556.got - 2010.06.03 11:33:40.
