data_PCOD9101689
_publ_section_title
;
Structure prediction by ZEFSAII (Michael W. Deem and Ramdas Pophale) SiO2 
 PCOD9101689
Probable space group: P -1
;
_chemical_formula_sum "Si O2"
_cell_formula_units_Z 14
_cell_length_a 12.211043
_cell_length_b 12.057286
_cell_length_c 18.545643
_cell_angle_alpha 146.070345
_cell_angle_beta 152.457221
_cell_angle_gamma 52.902969
_cell_volume 604.775713
_symmetry_space_group_name_H-M "P -1"
_symmetry_group_IT_number 2
_symmetry_cell_setting 'triclinic'
loop_
_space_group_symop_operation_xyz
x,y,z
-x,-y,-z
loop_
_atom_site_type_symbol
_atom_site_label
_atom_site_fract_x
_atom_site_fract_y
_atom_site_fract_z
Si Si1 0.543446 0.931971 0.208388
Si Si2 0.583200 0.240419 0.720073
Si Si3 0.808322 0.082261 0.874758
Si Si4 0.474819 0.423475 0.618905
Si Si5 0.386868 0.273121 0.264966
Si Si6 0.272700 0.281992 0.700089
Si Si7 0.944557 0.454501 0.358849
O O1 0.303257 0.848866 0.084737
O O2 0.781831 0.923520 0.387557
O O3 0.587539 0.172297 0.335742
O O4 0.375342 0.748314 0.948479
O O5 0.832756 0.266425 0.927538
O O6 0.609053 0.419835 0.771422
O O7 0.380747 0.235245 0.662013
O O8 0.500000 0.000000 0.500000
O O9 0.581923 0.813227 0.580805
O O10 0.099561 0.102379 0.044697
O O11 0.637777 0.653894 0.790734
O O12 0.174392 0.394412 0.437292
O O13 0.500000 0.500000 0.500000
O O14 0.044096 0.339287 0.570792
O O15 0.500000 0.500000 0.000000
O O16 0.000000 0.500000 0.500000
#
# Coordination Sequence:
#
# PCOD9101689 Si02
#       7
#     2   2   2   2   2   2   2
#     4  10  20  38  60  88 122 154 202 248 296 363
#     4   9  19  35  60  90 118 154 200 250 307 357
#     4  10  20  39  61  87 122 154 196 253 304 355
#     4  11  21  36  61  92 118 154 204 247 303 362
#     4  12  22  34  60  93 122 155 198 248 305 362
#     4   9  19  35  61  86 113 164 202 240 300 363
#     4  11  20  36  63  85 117 161 204 242 300 355
#
# _framework density 23.149076999999998
#
# number of rings (size 3 to 8) (size 9 to 14) (size 15 to 20)
#    0.000    1.714    4.286    1.286    0.000    0.571 
#    0.000    1.429    3.143    0.000    0.000    0.000 
#    0.000    0.000    0.000    0.000    0.000    0.000 
#
# Total GULP energy -77940.960712 kJ/mol
# GULP energy per Si atom -5567.211479 kJ/mol
# Density = 2.309639 g / cm^3
# Si number density = 23.149077 Si / 1000 Ang^3
#
#
#
# Elastic Constant Matrix: (Units=GPa)
#
#
# Indices 1 2 3 4 5 6 
#
# 1 111.9293 33.3317 20.6978 5.6050 -15.0980 12.3003
# 2 33.3317 196.3548 2.2371 -12.9291 -13.4433 23.1637
# 3 20.6978 2.2371 14.3999 1.6879 -11.7743 5.7837
# 4 5.6050 -12.9291 1.6879 28.0944 7.4876 -5.0749
# 5 -15.0980 -13.4433 -11.7743 7.4876 27.2778 -1.3419
# 6 12.3003 23.1637 5.7837 -5.0749 -1.3419 45.6150
#
#
#
# Elastic Compliance Matrix: (Units=1/GPa)
#
#
# Indices 1 2 3 4 5 6 
#
# 1 0.013115 -0.002235 -0.019639 -0.002027 -0.001773 -0.000189
# 2 -0.002235 0.006132 0.006894 0.001144 0.004293 -0.003132
# 3 -0.019639 0.006894 0.163920 -0.024734 0.069102 -0.019708
# 4 -0.002027 0.001144 -0.024734 0.045595 -0.023382 0.007487
# 5 -0.001773 0.004293 0.069102 -0.023382 0.073504 -0.010903
# 6 -0.000189 -0.003132 -0.019708 0.007487 -0.010903 0.026575
#
#
# Mechanical properties :
#
#
# Convention : Reuss Voigt Hill
#
# Bulk Modulus (GPa) = 6.52718 48.35748 27.44233
# Shear Modulus (GPa) = 12.19897 37.95860 25.07878
#
# Velocity S-wave (km/s) = 2.29808 4.05377 3.29501
# Velocity P-wave (km/s) = 3.14123 6.54566 5.13386
#
# Compressibility (1/GPa) = 0.15320558
#
# Stress axis : x y z
#
# Youngs Moduli (GPa) = 76.25112 163.06929 6.10053
#
# Poissons Ratio (x) = 0.36446 0.11981
# Poissons Ratio (y) = 0.17042 -0.04205
# Poissons Ratio (z) = 1.49751 -1.12412
#
# Static dielectric constant tensor:
#      x y z
#    x 1.904500 0.053150 -0.018710 
#    y 0.053150 2.025520 0.019390 
#    z -0.018710 0.019390 1.961230 
# 
# From -- ./inp_files/432025.got.cif
#   From: 2010.05.17/outbox.cif.g08.bks.cpg/sg2_217_cif.got.tgz:432025.got - 2010.06.03 11:33:40.
