data_PCOD9101523
_publ_section_title
;
Structure prediction by ZEFSAII (Michael W. Deem and Ramdas Pophale) SiO2 
 PCOD9101523
Probable space group: P -1
;
_chemical_formula_sum "Si O2"
_cell_formula_units_Z 14
_cell_length_a 4.960454
_cell_length_b 16.819708
_cell_length_c 12.716598
_cell_angle_alpha 29.813530
_cell_angle_beta 94.418370
_cell_angle_gamma 94.588525
_cell_volume 525.748269
_symmetry_space_group_name_H-M "P -1"
_symmetry_group_IT_number 2
_symmetry_cell_setting 'triclinic'
loop_
_space_group_symop_operation_xyz
x,y,z
-x,-y,-z
loop_
_atom_site_type_symbol
_atom_site_label
_atom_site_fract_x
_atom_site_fract_y
_atom_site_fract_z
Si Si1 0.872781 0.352815 0.234605
Si Si2 0.831606 0.019351 0.848056
Si Si3 0.680986 0.878182 0.792866
Si Si4 0.329933 0.846046 0.113080
Si Si5 0.718933 0.503705 0.278764
Si Si6 0.671365 0.857667 0.578978
Si Si7 0.256889 0.525305 0.379174
O O1 0.794627 0.421341 0.267022
O O2 0.604191 0.256563 0.293043
O O3 0.118270 0.232241 0.382408
O O4 0.000000 0.500000 0.000000
O O5 0.718398 0.162037 0.753116
O O6 0.793284 0.997012 0.749855
O O7 0.638245 0.875709 0.055048
O O8 0.143801 0.995086 0.907916
O O9 0.786331 0.874982 0.680567
O O10 0.394629 0.964966 0.667064
O O11 0.705429 0.696880 0.040136
O O12 0.218742 0.711398 0.186966
O O13 0.413356 0.467257 0.347740
O O14 0.948374 0.469790 0.413472
O O15 0.500000 0.500000 0.500000
#
# Coordination Sequence:
#
# PCOD9101523 Si02
#       7
#     2   2   2   2   2   2   2
#     4  12  26  48  70 106 145 192 235 290 355 427
#     4  10  21  36  64  89 127 170 214 274 341 409
#     4  11  24  46  72 108 139 186 241 289 354 420
#     4  10  20  38  59  94 122 167 221 272 338 397
#     4  12  26  44  77  99 140 195 234 281 369 419
#     4  11  28  44  72 108 146 181 239 301 342 418
#     4  12  25  44  69 103 137 181 238 294 339 428
#
# _framework density 26.628715
#
# number of rings (size 3 to 8) (size 9 to 14) (size 15 to 20)
#    0.000    0.857    4.286    1.714    2.000    8.000 
#    0.000    2.857    0.000    0.000    0.000    0.000 
#    0.000    0.000    0.000    0.000    0.000    0.000 
#
# Total GULP energy -78166.791717 kJ/mol
# GULP energy per Si atom -5583.342266 kJ/mol
# Density = 2.656811 g / cm^3
# Si number density = 26.628715 Si / 1000 Ang^3
#
#
#
# Elastic Constant Matrix: (Units=GPa)
#
#
# Indices 1 2 3 4 5 6 
#
# 1 158.5646 47.1612 40.2927 -11.0059 4.1659 -9.3016
# 2 47.1612 177.5357 23.0176 -18.6303 -0.3268 -6.1858
# 3 40.2927 23.0176 79.6095 -7.9486 12.4971 -3.0540
# 4 -11.0059 -18.6303 -7.9486 40.0631 1.8688 14.3418
# 5 4.1659 -0.3268 12.4971 1.8688 31.8564 -11.0261
# 6 -9.3016 -6.1858 -3.0540 14.3418 -11.0261 56.4972
#
#
#
# Elastic Compliance Matrix: (Units=1/GPa)
#
#
# Indices 1 2 3 4 5 6 
#
# 1 0.007710 -0.001525 -0.003494 0.000344 0.000657 0.000955
# 2 -0.001525 0.006405 -0.000914 0.002402 0.000440 -0.000123
# 3 -0.003494 -0.000914 0.015820 0.002696 -0.006533 -0.001779
# 4 0.000344 0.002402 0.002696 0.029921 -0.005685 -0.008240
# 5 0.000657 0.000440 -0.006533 -0.005685 0.037146 0.008496
# 6 0.000955 -0.000123 -0.001779 -0.008240 0.008496 0.021497
#
#
# Mechanical properties :
#
#
# Convention : Reuss Voigt Hill
#
# Bulk Modulus (GPa) = 55.33993 70.73918 63.03955
# Shear Modulus (GPa) = 36.65973 46.03256 41.34614
#
# Velocity S-wave (km/s) = 3.71441 4.16225 3.94469
# Velocity P-wave (km/s) = 6.26283 7.05137 6.66876
#
# Compressibility (1/GPa) = 0.01807014
#
# Stress axis : x y z
#
# Youngs Moduli (GPa) = 129.69360 156.13351 63.20967
#
# Poissons Ratio (x) = 0.23806 0.22085
# Poissons Ratio (y) = 0.19775 0.05778
# Poissons Ratio (z) = 0.45313 0.14273
#
# Static dielectric constant tensor:
#      x y z
#    x 2.013430 0.008970 -0.001830 
#    y 0.008970 2.109340 0.033780 
#    z -0.001830 0.033780 2.223880 
# 
# From -- ./inp_files/484864.got.cif
#   From: 2010.05.17/outbox.cif.g08.bks.cpg/sg2_243_cif.got.tgz:484864.got - 2010.06.03 11:33:40.
