data_PCOD9101136
_publ_section_title
;
Structure prediction by ZEFSAII (Michael W. Deem and Ramdas Pophale) SiO2 
 PCOD9101136
Probable space group: P -1
;
_chemical_formula_sum "Si O2"
_cell_formula_units_Z 16
_cell_length_a 14.675507
_cell_length_b 14.039445
_cell_length_c 5.306011
_cell_angle_alpha 115.695245
_cell_angle_beta 46.955561
_cell_angle_gamma 122.798127
_cell_volume 667.954553
_symmetry_space_group_name_H-M "P -1"
_symmetry_group_IT_number 2
_symmetry_cell_setting 'triclinic'
loop_
_space_group_symop_operation_xyz
x,y,z
-x,-y,-z
loop_
_atom_site_type_symbol
_atom_site_label
_atom_site_fract_x
_atom_site_fract_y
_atom_site_fract_z
Si Si1 0.657154 0.008242 0.714925
Si Si2 0.418764 0.683820 0.256005
Si Si3 0.473552 0.423085 0.708314
Si Si4 0.914602 0.701864 0.152249
Si Si5 0.968849 0.342917 0.606854
Si Si6 0.651715 0.096881 0.327138
Si Si7 0.687903 0.774119 0.523658
Si Si8 0.801346 0.464499 0.864279
O O1 0.674649 0.888979 0.580014
O O2 0.718647 0.064824 0.403120
O O3 0.500000 0.000000 0.000000
O O4 0.718730 0.085712 0.927806
O O5 0.429728 0.643752 0.473382
O O6 0.364468 0.784642 0.475339
O O7 0.324642 0.587733 0.138904
O O8 0.566909 0.728348 0.902576
O O9 0.500000 0.500000 0.500000
O O10 0.338597 0.317146 0.762041
O O11 0.500000 0.500000 0.000000
O O12 0.999075 0.701387 0.240585
O O13 0.823844 0.777768 0.403994
O O14 0.005154 0.725235 0.757427
O O15 0.812377 0.569077 0.148273
O O16 0.081453 0.470613 0.488720
O O17 0.835397 0.368163 0.838769
O O18 0.500000 0.000000 0.500000
#
# Coordination Sequence:
#
# PCOD9101136 Si02
#       8
#     2   2   2   2   2   2   2   2
#     4  10  20  38  57  76 118 152 196 244 287 357
#     4  12  24  38  60  92 120 161 200 242 307 354
#     4  12  26  37  48  79 131 163 181 224 288 367
#     4  10  22  37  58  83 116 157 194 241 288 354
#     4   9  21  42  58  79 116 159 206 241 280 332
#     4  10  20  38  56  79 115 151 197 247 284 358
#     4  12  25  36  61  89 124 160 199 238 310 368
#     4   9  22  38  62  82 119 155 203 245 281 347
#
# _framework density 23.953726
#
# number of rings (size 3 to 8) (size 9 to 14) (size 15 to 20)
#    0.750    0.750    3.750    2.625    3.500    0.000 
#    0.000    0.000    0.000    0.000    0.000    5.250 
#    0.000    0.000    0.000    0.000    0.000    0.000 
#
# Total GULP energy -89371.567463 kJ/mol
# GULP energy per Si atom -5585.722966 kJ/mol
# Density = 2.389921 g / cm^3
# Si number density = 23.953726 Si / 1000 Ang^3
#
#
#
# Elastic Constant Matrix: (Units=GPa)
#
#
# Indices 1 2 3 4 5 6 
#
# 1 166.6499 44.0890 49.0523 -10.9018 20.7038 -50.0532
# 2 44.0890 75.2617 19.2875 15.4378 8.7572 -30.9171
# 3 49.0523 19.2875 81.7070 7.7564 15.0383 -18.9891
# 4 -10.9018 15.4378 7.7564 28.0990 -10.2406 0.4953
# 5 20.7038 8.7572 15.0383 -10.2406 54.5706 -3.5267
# 6 -50.0532 -30.9171 -18.9891 0.4953 -3.5267 51.9969
#
#
#
# Elastic Compliance Matrix: (Units=1/GPa)
#
#
# Indices 1 2 3 4 5 6 
#
# 1 0.010902 -0.004135 -0.004791 0.007596 -0.000327 0.006191
# 2 -0.004135 0.023772 0.001988 -0.017355 -0.005360 0.010681
# 3 -0.004791 0.001988 0.017018 -0.009442 -0.004798 0.002550
# 4 0.007596 -0.017355 -0.009442 0.055338 0.012493 -0.006135
# 5 -0.000327 -0.005360 -0.004798 0.012493 0.022728 -0.003831
# 6 0.006191 0.010681 0.002550 -0.006135 -0.003831 0.032273
#
#
# Mechanical properties :
#
#
# Convention : Reuss Voigt Hill
#
# Bulk Modulus (GPa) = 26.44503 60.94179 43.69341
# Shear Modulus (GPa) = 26.52355 41.01261 33.76808
#
# Velocity S-wave (km/s) = 3.33120 4.14231 3.75870
# Velocity P-wave (km/s) = 5.08526 6.95522 6.09241
#
# Compressibility (1/GPa) = 0.03781428
#
# Stress axis : x y z
#
# Youngs Moduli (GPa) = 91.72769 42.06698 58.76253
#
# Poissons Ratio (x) = 0.17396 0.28151
# Poissons Ratio (y) = 0.37933 -0.11680
# Poissons Ratio (z) = 0.43944 -0.08361
#
# Static dielectric constant tensor:
#      x y z
#    x 5.038350 0.483310 1.723860 
#    y 0.483310 2.037260 0.222680 
#    z 1.723860 0.222680 2.985170 
# 
# From -- ./inp_files/96580.got.cif
#   From: 2010.05.17/outbox.cif.g08.bks.cpg/sg2_49_cif.got.tgz:96580.got - 2010.06.03 11:33:40.
