data_PCOD9101271
_publ_section_title
;
Structure prediction by ZEFSAII (Michael W. Deem and Ramdas Pophale) SiO2 
 PCOD9101271
Probable space group: P -1
;
_chemical_formula_sum "Si O2"
_cell_formula_units_Z 15
_cell_length_a 7.040003
_cell_length_b 5.327372
_cell_length_c 19.495312
_cell_angle_alpha 102.470940
_cell_angle_beta 117.107534
_cell_angle_gamma 66.340964
_cell_volume 595.654380
_symmetry_space_group_name_H-M "P -1"
_symmetry_group_IT_number 2
_symmetry_cell_setting 'triclinic'
loop_
_space_group_symop_operation_xyz
x,y,z
-x,-y,-z
loop_
_atom_site_type_symbol
_atom_site_label
_atom_site_fract_x
_atom_site_fract_y
_atom_site_fract_z
Si Si1 0.175542 0.520432 0.086735
Si Si2 0.667143 0.241288 0.181627
Si Si3 0.728388 0.198482 0.468590
Si Si4 0.763292 0.788326 0.626079
Si Si5 0.620701 0.828323 0.262619
Si Si6 0.086785 0.768249 0.358398
Si Si7 0.129085 0.111125 0.168912
Si Si8 0.000000 0.500000 0.500000
O O1 0.439117 0.344476 0.104338
O O2 0.130511 0.369173 0.138861
O O3 0.156559 0.834713 0.113180
O O4 0.000000 0.500000 0.000000
O O5 0.643886 0.511660 0.240188
O O6 0.890599 0.179852 0.170606
O O7 0.667860 0.976476 0.209942
O O8 0.508809 0.119900 0.417014
O O9 0.727147 0.267177 0.553308
O O10 0.762473 0.437501 0.442850
O O11 0.000000 0.000000 0.500000
O O12 0.853706 0.533584 0.677437
O O13 0.881632 0.661373 0.563428
O O14 0.870859 0.016728 0.670846
O O15 0.825238 0.852918 0.345070
O O16 0.361932 0.006092 0.245880
#
# Coordination Sequence:
#
# PCOD9101271 Si02
#       8
#     2   2   2   2   2   2   2   1
#     4  10  21  36  61  96 128 159 200 248 292 349
#     4  10  21  40  63  85 122 168 198 249 298 342
#     4  11  23  39  61  84 119 151 188 243 319 370
#     4  11  24  39  62  84 118 148 188 246 313 366
#     4  10  22  41  58  85 119 154 210 250 296 349
#     4  11  22  42  59  85 115 150 197 250 293 368
#     4  10  21  39  61  85 126 164 201 246 295 350
#     4  10  20  38  58  84 110 148 184 224 304 370
#
# _framework density 25.182386999999999
#
# number of rings (size 3 to 8) (size 9 to 14) (size 15 to 20)
#    0.000    1.600    1.333    4.000    1.867    1.067 
#    4.800    0.000    0.000    0.000    0.000    0.000 
#    0.000    0.000    0.000    0.000    0.000    0.000 
#
# Total GULP energy -83506.536998 kJ/mol
# GULP energy per Si atom -5567.102467 kJ/mol
# Density = 2.512507 g / cm^3
# Si number density = 25.182387 Si / 1000 Ang^3
#
#
#
# Elastic Constant Matrix: (Units=GPa)
#
#
# Indices 1 2 3 4 5 6 
#
# 1 185.2732 33.6403 23.5901 -4.6594 43.0989 -6.0193
# 2 33.6403 119.9381 -0.1000 -5.0890 5.6502 23.3095
# 3 23.5901 -0.1000 117.9376 0.3260 49.2320 -5.3591
# 4 -4.6594 -5.0890 0.3260 22.4361 6.9423 7.7657
# 5 43.0989 5.6502 49.2320 6.9423 42.1781 0.8181
# 6 -6.0193 23.3095 -5.3591 7.7657 0.8181 43.2514
#
#
#
# Elastic Compliance Matrix: (Units=1/GPa)
#
#
# Indices 1 2 3 4 5 6 
#
# 1 0.008889 -0.001989 0.004612 0.005231 -0.015104 0.002227
# 2 -0.001989 0.010363 0.000125 0.004245 -0.000073 -0.006607
# 3 0.004612 0.000125 0.019973 0.009173 -0.029590 0.001962
# 4 0.005231 0.004245 0.009173 0.058115 -0.025985 -0.010366
# 5 -0.015104 -0.000073 -0.029590 -0.025985 0.078017 -0.002539
# 6 0.002227 -0.006607 0.001962 -0.010366 -0.002539 0.029144
#
#
# Mechanical properties :
#
#
# Convention : Reuss Voigt Hill
#
# Bulk Modulus (GPa) = 22.36075 59.71220 41.03647
# Shear Modulus (GPa) = 23.37423 45.97436 34.67429
#
# Velocity S-wave (km/s) = 3.04994 4.27740 3.71472
# Velocity P-wave (km/s) = 4.61537 6.93962 5.89321
#
# Compressibility (1/GPa) = 0.04472123
#
# Stress axis : x y z
#
# Youngs Moduli (GPa) = 112.50279 96.49634 50.06865
#
# Poissons Ratio (x) = 0.19189 -0.23092
# Poissons Ratio (y) = 0.22372 -0.00625
# Poissons Ratio (z) = -0.51887 -0.01205
#
# Static dielectric constant tensor:
#      x y z
#    x 1.978680 -0.018340 -0.042230 
#    y -0.018340 2.190380 0.007800 
#    z -0.042230 0.007800 1.993120 
# 
# From -- ./inp_files/603284.got.cif
#   From: 2010.05.17/outbox.cif.g08.bks.cpg/sg2_302_cif.got.tgz:603284.got - 2010.06.03 11:33:40.
