data_PCOD9101057
_publ_section_title
;
Structure prediction by ZEFSAII (Michael W. Deem and Ramdas Pophale) SiO2 
 PCOD9101057
Probable space group: P -1
;
_chemical_formula_sum "Si O2"
_cell_formula_units_Z 14
_cell_length_a 15.068737
_cell_length_b 8.789735
_cell_length_c 10.310393
_cell_angle_alpha 76.529892
_cell_angle_beta 150.779480
_cell_angle_gamma 117.443230
_cell_volume 544.599487
_symmetry_space_group_name_H-M "P -1"
_symmetry_group_IT_number 2
_symmetry_cell_setting 'triclinic'
loop_
_space_group_symop_operation_xyz
x,y,z
-x,-y,-z
loop_
_atom_site_type_symbol
_atom_site_label
_atom_site_fract_x
_atom_site_fract_y
_atom_site_fract_z
Si Si1 0.020326 0.238662 0.769232
Si Si2 0.092520 0.170505 0.340566
Si Si3 0.318782 0.801674 0.254982
Si Si4 0.289050 0.445618 0.320536
Si Si5 0.421543 0.777755 0.841759
Si Si6 0.834062 0.636948 0.351567
Si Si7 0.331694 0.828927 0.990492
O O1 0.174566 0.340453 0.818874
O O2 0.796259 0.226185 0.466793
O O3 0.106168 0.328150 0.001661
O O4 0.973135 0.032673 0.743542
O O5 0.271593 0.327394 0.445465
O O6 0.154130 0.213082 0.562612
O O7 0.893118 0.195490 0.047328
O O8 0.282552 0.624551 0.320322
O O9 0.500000 0.000000 0.500000
O O10 0.395498 0.782549 0.214758
O O11 0.500000 0.500000 0.500000
O O12 0.344356 0.563838 0.777829
O O13 0.462415 0.825150 0.036834
O O14 0.609912 0.957866 0.970811
O O15 0.078319 0.680955 0.670961
#
# Coordination Sequence:
#
# PCOD9101057 Si02
#       7
#     2   2   2   2   2   2   2
#     4  11  22  42  68  90 133 174 214 268 327 393
#     4  11  25  43  65  97 133 169 214 273 337 376
#     4  11  24  41  67  90 133 170 217 268 329 389
#     4  12  27  44  65  97 131 172 225 266 325 399
#     4  10  20  37  69  95 129 171 220 265 330 385
#     4  10  21  43  66  97 131 172 217 274 329 384
#     4   9  20  36  62  98 127 163 222 261 321 392
#
# _framework density 25.706962999999998
#
# number of rings (size 3 to 8) (size 9 to 14) (size 15 to 20)
#    0.000    1.429    0.000    6.429    6.000    0.000 
#    2.571    0.714    0.000    0.000    0.000    0.000 
#    0.000    0.000    0.000    0.000    0.000    0.000 
#
# Total GULP energy -78396.379969 kJ/mol
# GULP energy per Si atom -5599.741426 kJ/mol
# Density = 2.564845 g / cm^3
# Si number density = 25.706963 Si / 1000 Ang^3
#
#
#
# Elastic Constant Matrix: (Units=GPa)
#
#
# Indices 1 2 3 4 5 6 
#
# 1 68.4464 15.0340 7.5954 -3.9592 -4.6104 4.7083
# 2 15.0340 170.8539 22.1654 18.7659 7.4211 -13.9422
# 3 7.5954 22.1654 68.5029 15.1101 -3.8200 -6.3755
# 4 -3.9592 18.7659 15.1101 44.5902 -2.3067 -1.8178
# 5 -4.6104 7.4211 -3.8200 -2.3067 37.7280 -1.1996
# 6 4.7083 -13.9422 -6.3755 -1.8178 -1.1996 49.2315
#
#
#
# Elastic Compliance Matrix: (Units=1/GPa)
#
#
# Indices 1 2 3 4 5 6 
#
# 1 0.015638 -0.001700 -0.001865 0.002763 0.002160 -0.002064
# 2 -0.001700 0.006673 -0.001350 -0.002522 -0.001756 0.001742
# 3 -0.001865 -0.001350 0.016610 -0.005077 0.001466 0.001795
# 4 0.002763 -0.002522 -0.005077 0.025523 0.001860 -0.000648
# 5 0.002160 -0.001756 0.001466 0.001860 0.027384 0.000222
# 6 -0.002064 0.001742 0.001795 -0.000648 0.000222 0.021217
#
#
# Mechanical properties :
#
#
# Convention : Reuss Voigt Hill
#
# Bulk Modulus (GPa) = 34.37534 44.15476 39.26505
# Shear Modulus (GPa) = 37.71533 43.84383 40.77958
#
# Velocity S-wave (km/s) = 3.83446 4.13428 3.98719
# Velocity P-wave (km/s) = 5.74501 6.32480 6.04187
#
# Compressibility (1/GPa) = 0.02909062
#
# Stress axis : x y z
#
# Youngs Moduli (GPa) = 63.94853 149.85647 60.20352
#
# Poissons Ratio (x) = 0.25472 0.11228
# Poissons Ratio (y) = 0.10870 0.08130
# Poissons Ratio (z) = 0.11926 0.20236
#
# Static dielectric constant tensor:
#      x y z
#    x 2.074530 -0.031870 -0.001280 
#    y -0.031870 2.062730 0.007130 
#    z -0.001280 0.007130 2.095780 
# 
# From -- ./inp_files/462071.got.cif
#   From: 2010.05.17/outbox.cif.g08.bks.cpg/sg2_232_cif.got.tgz:462071.got - 2010.06.03 11:33:40.
