data_PCOD9101546
_publ_section_title
;
Structure prediction by ZEFSAII (Michael W. Deem and Ramdas Pophale) SiO2 
 PCOD9101546
Probable space group: P -1
;
_chemical_formula_sum "Si O2"
_cell_formula_units_Z 14
_cell_length_a 14.191031
_cell_length_b 6.861094
_cell_length_c 9.371592
_cell_angle_alpha 49.120196
_cell_angle_beta 72.510855
_cell_angle_gamma 85.762702
_cell_volume 648.405285
_symmetry_space_group_name_H-M "P -1"
_symmetry_group_IT_number 2
_symmetry_cell_setting 'triclinic'
loop_
_space_group_symop_operation_xyz
x,y,z
-x,-y,-z
loop_
_atom_site_type_symbol
_atom_site_label
_atom_site_fract_x
_atom_site_fract_y
_atom_site_fract_z
Si Si1 0.285081 0.893657 0.278146
Si Si2 0.754425 0.685922 0.438566
Si Si3 0.608950 0.084979 0.340728
Si Si4 0.330503 0.370916 0.808566
Si Si5 0.931876 0.182119 0.519559
Si Si6 0.495525 0.095907 0.795046
Si Si7 0.977796 0.789120 0.234870
O O1 0.266898 0.607192 0.349993
O O2 0.186813 0.898149 0.416277
O O3 0.390344 0.892888 0.312917
O O4 0.297810 0.129432 0.046801
O O5 0.677671 0.866290 0.438574
O O6 0.736697 0.653759 0.290401
O O7 0.870172 0.803709 0.348035
O O8 0.581206 0.088046 0.183631
O O9 0.500000 0.000000 0.500000
O O10 0.664022 0.361825 0.237789
O O11 0.443621 0.351300 0.713098
O O12 0.968259 0.490992 0.324890
O O13 0.943390 0.162244 0.695668
O O14 0.000000 0.000000 0.500000
O O15 0.500000 0.000000 0.000000
O O16 0.000000 0.000000 0.000000
#
# Coordination Sequence:
#
# PCOD9101546 Si02
#       7
#     2   2   2   2   2   2   2
#     4  10  20  38  60  80 116 157 187 233 292 339
#     4  10  22  39  59  86 119 152 190 240 292 341
#     4  11  22  36  59  89 118 151 195 238 282 344
#     4  10  21  38  59  87 118 152 195 237 282 345
#     4  10  23  40  59  89 119 147 195 247 287 342
#     4   9  20  37  56  82 118 153 188 232 284 339
#     4  10  22  41  63  85 115 155 194 238 295 347
#
# _framework density 21.591436000000002
#
# number of rings (size 3 to 8) (size 9 to 14) (size 15 to 20)
#    0.000    2.000    0.000    2.571    0.000    9.714 
#    0.000   14.286    0.000    0.000    0.000    0.000 
#    0.000    0.000    0.000    0.000    0.000    0.000 
#
# Total GULP energy -78191.887181 kJ/mol
# GULP energy per Si atom -5585.134799 kJ/mol
# Density = 2.154229 g / cm^3
# Si number density = 21.591436 Si / 1000 Ang^3
#
#
#
# Elastic Constant Matrix: (Units=GPa)
#
#
# Indices 1 2 3 4 5 6 
#
# 1 113.3037 38.6553 6.2477 -5.1215 -12.9285 -26.1152
# 2 38.6553 119.5154 43.6021 -11.3540 -3.9832 -27.6808
# 3 6.2477 43.6021 110.7435 -29.1916 9.3999 -10.6765
# 4 -5.1215 -11.3540 -29.1916 24.0359 -0.0928 4.4681
# 5 -12.9285 -3.9832 9.3999 -0.0928 31.1251 5.4171
# 6 -26.1152 -27.6808 -10.6765 4.4681 5.4171 35.4130
#
#
#
# Elastic Compliance Matrix: (Units=1/GPa)
#
#
# Indices 1 2 3 4 5 6 
#
# 1 0.011431 -0.002387 0.000997 0.001374 0.003063 0.006223
# 2 -0.002387 0.012155 -0.004459 -0.001378 0.000784 0.006450
# 3 0.000997 -0.004459 0.015699 0.017044 -0.004949 0.000590
# 4 0.001374 -0.001378 0.017044 0.062329 -0.004193 -0.002148
# 5 0.003063 0.000784 -0.004949 -0.004193 0.035599 -0.003537
# 6 0.006223 0.006450 0.000590 -0.002148 -0.003537 0.038859
#
#
# Mechanical properties :
#
#
# Convention : Reuss Voigt Hill
#
# Bulk Modulus (GPa) = 36.24907 57.84144 47.04525
# Shear Modulus (GPa) = 25.38519 35.11864 30.25191
#
# Velocity S-wave (km/s) = 3.43258 4.03737 3.74720
# Velocity P-wave (km/s) = 5.70396 6.97001 6.36853
#
# Compressibility (1/GPa) = 0.02758692
#
# Stress axis : x y z
#
# Youngs Moduli (GPa) = 87.48076 82.26973 63.69891
#
# Poissons Ratio (x) = 0.19639 -0.06352
# Poissons Ratio (y) = 0.20883 0.28404
# Poissons Ratio (z) = -0.08723 0.36685
#
# Static dielectric constant tensor:
#      x y z
#    x 1.811130 -0.001180 -0.021880 
#    y -0.001180 1.787400 0.020420 
#    z -0.021880 0.020420 1.807730 
# 
# From -- ./inp_files/124693.got.cif
#   From: 2010.05.17/outbox.cif.g08.bks.cpg/sg2_63_cif.got.tgz:124693.got - 2010.06.03 11:33:40.
