data_PCOD9101614
_publ_section_title
;
Structure prediction by ZEFSAII (Michael W. Deem and Ramdas Pophale) SiO2 
 PCOD9101614
Probable space group: P -1
;
_chemical_formula_sum "Si O2"
_cell_formula_units_Z 14
_cell_length_a 6.664613
_cell_length_b 10.684906
_cell_length_c 8.426047
_cell_angle_alpha 105.053114
_cell_angle_beta 78.669451
_cell_angle_gamma 99.917131
_cell_volume 563.469106
_symmetry_space_group_name_H-M "P -1"
_symmetry_group_IT_number 2
_symmetry_cell_setting 'triclinic'
loop_
_space_group_symop_operation_xyz
x,y,z
-x,-y,-z
loop_
_atom_site_type_symbol
_atom_site_label
_atom_site_fract_x
_atom_site_fract_y
_atom_site_fract_z
Si Si1 0.193710 0.031388 0.142463
Si Si2 0.000788 0.245499 0.784467
Si Si3 0.630288 0.608636 0.351713
Si Si4 0.123620 0.632669 0.854971
Si Si5 0.913066 0.114891 0.452057
Si Si6 0.346507 0.910876 0.787556
Si Si7 0.202538 0.455081 0.371798
O O1 0.084346 0.889751 0.165108
O O2 0.415788 0.059069 0.197480
O O3 0.236146 0.015076 0.944201
O O4 0.058521 0.131549 0.278775
O O5 0.246772 0.274312 0.729335
O O6 0.918295 0.232343 0.612718
O O7 0.917716 0.349879 0.946442
O O8 0.744243 0.484444 0.240962
O O9 0.388825 0.570855 0.349626
O O10 0.686376 0.625111 0.536194
O O11 0.257813 0.765110 0.812485
O O12 0.901155 0.608927 0.792634
O O13 0.696450 0.079116 0.388499
O O14 0.000000 0.000000 0.500000
O O15 0.000000 0.500000 0.500000
#
# Coordination Sequence:
#
# PCOD9101614 Si02
#       7
#     2   2   2   2   2   2   2
#     4   9  21  39  60  87 115 156 201 247 304 352
#     4  10  21  37  56  85 123 154 195 245 293 358
#     4  10  20  38  60  85 117 154 196 245 298 354
#     4  10  21  37  57  86 119 157 197 240 297 357
#     4  10  21  37  57  84 117 155 198 248 301 351
#     4  10  20  38  62  85 117 155 202 251 295 356
#     4   9  20  37  58  83 112 152 200 242 291 349
#
# _framework density 24.846084000000001
#
# number of rings (size 3 to 8) (size 9 to 14) (size 15 to 20)
#    0.000    2.286    0.000    1.714    0.000    7.429 
#    0.000   14.286    0.000    0.000    0.000    0.000 
#    0.000    0.000    0.000    0.000    0.000    0.000 
#
# Total GULP energy -78204.309005 kJ/mol
# GULP energy per Si atom -5586.022072 kJ/mol
# Density = 2.478953 g / cm^3
# Si number density = 24.846084 Si / 1000 Ang^3
#
#
#
# Elastic Constant Matrix: (Units=GPa)
#
#
# Indices 1 2 3 4 5 6 
#
# 1 114.3773 66.6207 46.5689 1.0878 13.5545 38.0860
# 2 66.6207 125.2163 29.3617 -11.6438 13.1583 39.6050
# 3 46.5689 29.3617 154.3418 32.2368 12.1459 12.1482
# 4 1.0878 -11.6438 32.2368 40.7635 11.1627 -6.4392
# 5 13.5545 13.1583 12.1459 11.1627 30.4702 1.3887
# 6 38.0860 39.6050 12.1482 -6.4392 1.3887 44.5014
#
#
#
# Elastic Compliance Matrix: (Units=1/GPa)
#
#
# Indices 1 2 3 4 5 6 
#
# 1 0.015964 -0.004691 -0.003028 0.000264 -0.003577 -0.008511
# 2 -0.004691 0.014182 -0.001481 0.005624 -0.005178 -0.007228
# 3 -0.003028 -0.001481 0.009220 -0.007931 0.001208 0.000207
# 4 0.000264 0.005624 -0.007931 0.036320 -0.012808 0.002589
# 5 -0.003577 -0.005178 0.001208 -0.012808 0.040665 0.004218
# 6 -0.008511 -0.007228 0.000207 0.002589 0.004218 0.036374
#
#
# Mechanical properties :
#
#
# Convention : Reuss Voigt Hill
#
# Bulk Modulus (GPa) = 47.69563 75.44868 61.57215
# Shear Modulus (GPa) = 28.07210 39.90598 33.98904
#
# Velocity S-wave (km/s) = 3.36496 4.01200 3.70264
# Velocity P-wave (km/s) = 5.85964 7.20374 6.56617
#
# Compressibility (1/GPa) = 0.02096628
#
# Stress axis : x y z
#
# Youngs Moduli (GPa) = 62.64259 70.51021 108.46344
#
# Poissons Ratio (x) = 0.33075 0.32842
# Poissons Ratio (y) = 0.29385 0.16062
# Poissons Ratio (z) = 0.18968 0.10442
#
# Static dielectric constant tensor:
#      x y z
#    x 1.957110 -0.010600 0.011500 
#    y -0.010600 2.065600 0.013910 
#    z 0.011500 0.013910 2.050570 
# 
# From -- ./inp_files/133457.got.cif
#   From: 2010.05.17/outbox.cif.g08.bks.cpg/sg2_67_cif.got.tgz:133457.got - 2010.06.03 11:33:40.
