data_PCOD9101776
_publ_section_title
;
Structure prediction by ZEFSAII (Michael W. Deem and Ramdas Pophale) SiO2 
 PCOD9101776
Probable space group: P -1
;
_chemical_formula_sum "Si O2"
_cell_formula_units_Z 12
_cell_length_a 18.245099
_cell_length_b 6.795505
_cell_length_c 12.770203
_cell_angle_alpha 42.148152
_cell_angle_beta 148.510616
_cell_angle_gamma 127.715796
_cell_volume 554.027700
_symmetry_space_group_name_H-M "P -1"
_symmetry_group_IT_number 2
_symmetry_cell_setting 'triclinic'
loop_
_space_group_symop_operation_xyz
x,y,z
-x,-y,-z
loop_
_atom_site_type_symbol
_atom_site_label
_atom_site_fract_x
_atom_site_fract_y
_atom_site_fract_z
Si Si1 0.658426 0.806187 0.504733
Si Si2 0.815900 0.189053 0.389856
Si Si3 0.497193 0.710901 0.540417
Si Si4 0.126402 0.180274 0.046722
Si Si5 0.229425 0.737302 0.921145
Si Si6 0.854269 0.874945 0.139988
O O1 0.702015 0.053118 0.380376
O O2 0.632956 0.500229 0.535640
O O3 0.522901 0.829651 0.406767
O O4 0.777321 0.804937 0.739318
O O5 0.784817 0.089085 0.272867
O O6 0.976539 0.102818 0.653014
O O7 0.811350 0.543374 0.241116
O O8 0.500000 0.000000 0.500000
O O9 0.629952 0.482214 0.823435
O O10 0.098748 0.522555 0.848714
O O11 0.182683 0.051976 0.054782
O O12 0.000000 0.000000 0.000000
O O13 0.216431 0.924343 0.935805
#
# Coordination Sequence:
#
# PCOD9101776 Si02
#       6
#     2   2   2   2   2   2
#     4  10  22  40  66  94 123 168 218 259 321 376
#     4  10  21  39  63  95 132 166 206 258 324 384
#     4  10  24  46  64  88 128 168 219 273 312 370
#     4  10  20  38  60  92 128 166 211 254 315 375
#     4  10  23  40  61  93 127 172 214 259 317 375
#     4  10  21  40  62  93 140 166 203 260 315 387
#
# _framework density 21.659566999999999
#
# number of rings (size 3 to 8) (size 9 to 14) (size 15 to 20)
#    0.000    2.000    1.667    0.500    0.000   14.667 
#    6.000    1.667    0.000    0.000    0.000    0.000 
#    0.000    0.000    0.000    0.000    0.000    0.000 
#
# Total GULP energy -66862.773003 kJ/mol
# GULP energy per Si atom -5571.897750 kJ/mol
# Density = 2.161027 g / cm^3
# Si number density = 21.659567 Si / 1000 Ang^3
#
#
#
# Elastic Constant Matrix: (Units=GPa)
#
#
# Indices 1 2 3 4 5 6 
#
# 1 131.0929 69.7059 39.4372 -4.2627 -38.7510 9.6113
# 2 69.7059 176.0484 48.3511 -0.1834 4.8247 -10.8237
# 3 39.4372 48.3511 57.2301 3.7573 0.9925 -3.5060
# 4 -4.2627 -0.1834 3.7573 32.7692 -5.8351 6.6920
# 5 -38.7510 4.8247 0.9925 -5.8351 34.3156 0.7163
# 6 9.6113 -10.8237 -3.5060 6.6920 0.7163 50.2250
#
#
#
# Elastic Compliance Matrix: (Units=1/GPa)
#
#
# Indices 1 2 3 4 5 6 
#
# 1 0.029388 -0.009306 -0.014668 0.014417 0.037602 -0.011110
# 2 -0.009306 0.010444 -0.001630 -0.004185 -0.012739 0.004657
# 3 -0.014668 -0.001630 0.030327 -0.010049 -0.019050 0.006183
# 4 0.014417 -0.004185 -0.010049 0.039866 0.024148 -0.010018
# 5 0.037602 -0.012739 -0.019050 0.024148 0.078377 -0.015606
# 6 -0.011110 0.004657 0.006183 -0.010018 -0.015606 0.025029
#
#
# Mechanical properties :
#
#
# Convention : Reuss Voigt Hill
#
# Bulk Modulus (GPa) = 52.76856 75.48442 64.12649
# Shear Modulus (GPa) = 18.45324 37.25379 27.85351
#
# Velocity S-wave (km/s) = 2.92201 4.15175 3.58993
# Velocity P-wave (km/s) = 5.98329 7.60978 6.84502
#
# Compressibility (1/GPa) = 0.01895068
#
# Stress axis : x y z
#
# Youngs Moduli (GPa) = 34.02794 95.75267 32.97416
#
# Poissons Ratio (x) = 0.89107 0.48367
# Poissons Ratio (y) = 0.31666 0.05373
# Poissons Ratio (z) = 0.49912 0.15604
#
# Static dielectric constant tensor:
#      x y z
#    x 1.840290 -0.006330 0.035810 
#    y -0.006330 1.861630 0.040920 
#    z 0.035810 0.040920 1.878550 
# 
# From -- ./inp_files/59459.got.cif
#   From: 2010.05.17/outbox.cif.g08.bks.cpg/sg2_30_cif.got.tgz:59459.got - 2010.06.03 11:33:40.
