data_PCOD9101611
_publ_section_title
;
Structure prediction by ZEFSAII (Michael W. Deem and Ramdas Pophale) SiO2 
 PCOD9101611
Probable space group: P -1
;
_chemical_formula_sum "Si O2"
_cell_formula_units_Z 14
_cell_length_a 5.492300
_cell_length_b 15.844236
_cell_length_c 15.526369
_cell_angle_alpha 149.562087
_cell_angle_beta 103.496053
_cell_angle_gamma 74.196569
_cell_volume 658.610512
_symmetry_space_group_name_H-M "P -1"
_symmetry_group_IT_number 2
_symmetry_cell_setting 'triclinic'
loop_
_space_group_symop_operation_xyz
x,y,z
-x,-y,-z
loop_
_atom_site_type_symbol
_atom_site_label
_atom_site_fract_x
_atom_site_fract_y
_atom_site_fract_z
Si Si1 0.385710 0.892185 0.696451
Si Si2 0.566322 0.413691 0.020576
Si Si3 0.106844 0.651985 0.556399
Si Si4 0.189385 0.129781 0.152863
Si Si5 0.366793 0.342239 0.215107
Si Si6 0.868302 0.746058 0.055818
Si Si7 0.643687 0.575689 0.342769
O O1 0.217234 0.821382 0.692622
O O2 0.637480 0.925267 0.797713
O O3 0.443816 0.734505 0.497528
O O4 0.241687 0.057829 0.787678
O O5 0.324537 0.334205 0.967483
O O6 0.835535 0.290706 0.928605
O O7 0.500000 0.500000 0.000000
O O8 0.621703 0.547869 0.215811
O O9 0.313542 0.494509 0.412857
O O10 0.979031 0.693660 0.674498
O O11 0.897773 0.625682 0.445599
O O12 0.357310 0.179151 0.129824
O O13 0.000000 0.000000 0.000000
O O14 0.596188 0.400546 0.230935
O O15 0.168243 0.327373 0.108243
#
# Coordination Sequence:
#
# PCOD9101611 Si02
#       7
#     2   2   2   2   2   2   2
#     4  10  24  40  61  95 132 177 213 269 323 385
#     4  11  24  46  73 100 126 166 219 274 331 407
#     4  10  20  38  60  84 129 173 222 263 317 379
#     4  11  24  36  58  91 132 172 226 270 309 372
#     4  10  21  37  59  90 125 177 221 264 314 379
#     4  11  24  42  70  97 135 168 215 270 339 389
#     4   9  21  41  65  90 128 173 213 268 328 391
#
# _framework density 21.256869999999999
#
# number of rings (size 3 to 8) (size 9 to 14) (size 15 to 20)
#    0.000    1.714    1.429    1.714    6.000    8.571 
#    0.000    1.429    0.000    0.000    0.000    0.000 
#    0.000    0.000    0.000    0.000    0.000    0.000 
#
# Total GULP energy -78142.959036 kJ/mol
# GULP energy per Si atom -5581.639931 kJ/mol
# Density = 2.120849 g / cm^3
# Si number density = 21.256870 Si / 1000 Ang^3
#
#
#
# Elastic Constant Matrix: (Units=GPa)
#
#
# Indices 1 2 3 4 5 6 
#
# 1 84.3979 47.8465 29.9746 -5.8327 6.9468 -0.6424
# 2 47.8465 141.1090 50.5120 -8.8243 -1.3842 1.8784
# 3 29.9746 50.5120 93.1735 0.4707 8.4518 9.0550
# 4 -5.8327 -8.8243 0.4707 29.5186 -0.9492 0.0893
# 5 6.9468 -1.3842 8.4518 -0.9492 30.2425 -2.5552
# 6 -0.6424 1.8784 9.0550 0.0893 -2.5552 30.9017
#
#
#
# Elastic Compliance Matrix: (Units=1/GPa)
#
#
# Indices 1 2 3 4 5 6 
#
# 1 0.015552 -0.004308 -0.002516 0.001728 -0.002921 0.001076
# 2 -0.004308 0.010357 -0.004587 0.002409 0.002893 0.000857
# 3 -0.002516 -0.004587 0.014859 -0.002228 -0.004232 -0.004471
# 4 0.001728 0.002409 -0.002228 0.035020 0.001483 0.000564
# 5 -0.002921 0.002893 -0.004232 0.001483 0.035431 0.003929
# 6 0.001076 0.000857 -0.004471 0.000564 0.003929 0.033964
#
#
# Mechanical properties :
#
#
# Convention : Reuss Voigt Hill
#
# Bulk Modulus (GPa) = 55.72241 63.92740 59.82491
# Shear Modulus (GPa) = 28.73783 30.82236 29.78010
#
# Velocity S-wave (km/s) = 3.68085 3.81201 3.74701
# Velocity P-wave (km/s) = 6.65850 7.03664 6.85018
#
# Compressibility (1/GPa) = 0.01794610
#
# Stress axis : x y z
#
# Youngs Moduli (GPa) = 64.29855 96.55451 67.30129
#
# Poissons Ratio (x) = 0.41591 0.16936
# Poissons Ratio (y) = 0.27697 0.30870
# Poissons Ratio (z) = 0.16180 0.44289
#
# Static dielectric constant tensor:
#      x y z
#    x 1.882090 -0.005110 -0.064060 
#    y -0.005110 1.749300 0.041430 
#    z -0.064060 0.041430 1.797400 
# 
# From -- ./inp_files/34549.got.cif
#   From: 2010.05.17/outbox.cif.g08.bks.cpg/sg2_18_cif.got.tgz:34549.got - 2010.06.03 11:33:40.
