data_PCOD9101180
_publ_section_title
;
Structure prediction by ZEFSAII (Michael W. Deem and Ramdas Pophale) SiO2 
 PCOD9101180
Probable space group: P -1
;
_chemical_formula_sum "Si O2"
_cell_formula_units_Z 16
_cell_length_a 19.880219
_cell_length_b 8.661224
_cell_length_c 20.502270
_cell_angle_alpha 142.074742
_cell_angle_beta 159.813031
_cell_angle_gamma 42.472946
_cell_volume 748.698920
_symmetry_space_group_name_H-M "P -1"
_symmetry_group_IT_number 2
_symmetry_cell_setting 'triclinic'
loop_
_space_group_symop_operation_xyz
x,y,z
-x,-y,-z
loop_
_atom_site_type_symbol
_atom_site_label
_atom_site_fract_x
_atom_site_fract_y
_atom_site_fract_z
Si Si1 0.703308 0.336064 0.194726
Si Si2 0.930836 0.765433 0.725729
Si Si3 0.958695 0.665432 0.955357
Si Si4 0.100285 0.372853 0.647156
Si Si5 0.293200 0.293465 0.372420
Si Si6 0.434200 0.439662 0.726966
Si Si7 0.310788 0.691239 0.190234
Si Si8 0.599208 0.028401 0.170598
O O1 0.763273 0.490369 0.237119
O O2 0.578329 0.499095 0.187702
O O3 0.903701 0.287791 0.401034
O O4 0.573569 0.086921 0.979830
O O5 0.877143 0.663828 0.714973
O O6 0.714551 0.785497 0.501766
O O7 0.042474 0.576736 0.716932
O O8 0.025222 0.040372 0.911998
O O9 0.126859 0.609849 0.037169
O O10 0.000000 0.500000 0.000000
O O11 0.762759 0.611755 0.718204
O O12 0.213716 0.139194 0.702567
O O13 0.499354 0.377584 0.617131
O O14 0.301055 0.991235 0.275483
O O15 0.643924 0.403949 0.873267
O O16 0.351845 0.679012 0.691227
O O17 0.500000 0.000000 0.000000
#
# Coordination Sequence:
#
# PCOD9101180 Si02
#       8
#     2   2   2   2   2   2   2   2
#     4   9  20  36  56  80 112 150 186 224 275 326
#     4   9  19  37  59  80 108 150 190 221 273 336
#     4  11  23  37  56  87 115 138 181 233 282 338
#     4  10  20  38  57  80 118 151 178 229 281 319
#     4   9  19  37  60  82 104 144 188 223 272 334
#     4   9  19  36  57  84 110 147 192 225 269 325
#     4   9  18  37  59  78 111 145 180 228 270 323
#     4  10  21  34  53  81 110 144 191 231 263 319
#
# _framework density 21.370405000000002
#
# number of rings (size 3 to 8) (size 9 to 14) (size 15 to 20)
#    0.000    2.500    0.000    2.625    0.000   10.000 
#    0.000   11.250    0.000    0.000    0.000    0.000 
#    0.000    0.000    0.000    0.000    0.000    0.000 
#
# Total GULP energy -89216.617810 kJ/mol
# GULP energy per Si atom -5576.038613 kJ/mol
# Density = 2.132177 g / cm^3
# Si number density = 21.370405 Si / 1000 Ang^3
#
#
#
# Elastic Constant Matrix: (Units=GPa)
#
#
# Indices 1 2 3 4 5 6 
#
# 1 112.1033 38.0977 23.6292 -13.8926 -1.6410 -19.2044
# 2 38.0977 59.6519 21.1435 -14.9639 -9.1899 -9.1024
# 3 23.6292 21.1435 71.1227 -10.6579 -12.5620 6.7471
# 4 -13.8926 -14.9639 -10.6579 28.9646 5.6665 -1.9248
# 5 -1.6410 -9.1899 -12.5620 5.6665 34.2036 -9.7117
# 6 -19.2044 -9.1024 6.7471 -1.9248 -9.7117 27.4716
#
#
#
# Elastic Compliance Matrix: (Units=1/GPa)
#
#
# Indices 1 2 3 4 5 6 
#
# 1 0.013202 -0.005265 -0.003180 0.003013 -0.000046 0.008461
# 2 -0.005265 0.026235 -0.004484 0.008752 0.006235 0.008931
# 3 -0.003180 -0.004484 0.017885 0.001699 0.002960 -0.006936
# 4 0.003013 0.008752 0.001699 0.041941 -0.001879 0.006863
# 5 -0.000046 0.006235 0.002960 -0.001879 0.036284 0.014002
# 6 0.008461 0.008931 -0.006936 0.006863 0.014002 0.052409
#
#
# Mechanical properties :
#
#
# Convention : Reuss Voigt Hill
#
# Bulk Modulus (GPa) = 31.78296 45.40207 38.59251
# Shear Modulus (GPa) = 22.29132 28.79513 25.54323
#
# Velocity S-wave (km/s) = 3.23320 3.67472 3.46101
# Velocity P-wave (km/s) = 5.37055 6.26867 5.83691
#
# Compressibility (1/GPa) = 0.03146341
#
# Stress axis : x y z
#
# Youngs Moduli (GPa) = 75.74632 38.11760 55.91144
#
# Poissons Ratio (x) = 0.20067 0.17781
# Poissons Ratio (y) = 0.39877 0.25073
# Poissons Ratio (z) = 0.24089 0.17094
#
# Static dielectric constant tensor:
#      x y z
#    x 1.793240 -0.033340 0.014850 
#    y -0.033340 1.796960 0.012500 
#    z 0.014850 0.012500 1.908100 
# 
# From -- ./inp_files/601295.got.cif
#   From: 2010.05.17/outbox.cif.g08.bks.cpg/sg2_301_cif.got.tgz:601295.got - 2010.06.03 11:33:40.
