data_PCOD9101772
_publ_section_title
;
Structure prediction by ZEFSAII (Michael W. Deem and Ramdas Pophale) SiO2 
 PCOD9101772
Probable space group: P -1
;
_chemical_formula_sum "Si O2"
_cell_formula_units_Z 16
_cell_length_a 25.225433
_cell_length_b 9.647013
_cell_length_c 13.515255
_cell_angle_alpha 125.328311
_cell_angle_beta 155.661081
_cell_angle_gamma 38.967373
_cell_volume 737.178840
_symmetry_space_group_name_H-M "P -1"
_symmetry_group_IT_number 2
_symmetry_cell_setting 'triclinic'
loop_
_space_group_symop_operation_xyz
x,y,z
-x,-y,-z
loop_
_atom_site_type_symbol
_atom_site_label
_atom_site_fract_x
_atom_site_fract_y
_atom_site_fract_z
Si Si1 0.934161 0.377633 0.111153
Si Si2 0.727841 0.258971 0.803734
Si Si3 0.833504 0.731922 0.939503
Si Si4 0.706977 0.396783 0.036877
Si Si5 0.273512 0.313955 0.463813
Si Si6 0.331936 0.951183 0.541862
Si Si7 0.049076 0.322794 0.599507
Si Si8 0.632626 0.157252 0.943718
O O1 0.860102 0.510846 0.933281
O O2 0.907255 0.579980 0.204342
O O3 0.160799 0.121519 0.399424
O O4 0.822499 0.331604 0.947072
O O5 0.500000 0.500000 0.500000
O O6 0.774679 0.217646 0.982490
O O7 0.767979 0.058586 0.720821
O O8 0.056253 0.574818 0.237608
O O9 0.741732 0.795541 0.702479
O O10 0.704110 0.971885 0.893278
O O11 0.519908 0.679337 0.793411
O O12 0.658942 0.321171 0.014801
O O13 0.866898 0.379170 0.326729
O O14 0.416968 0.320741 0.677164
O O15 0.366061 0.105879 0.621682
O O16 0.000000 0.500000 0.500000
O O17 0.232045 0.019136 0.803983
#
# Coordination Sequence:
#
# PCOD9101772 Si02
#       8
#     2   2   2   2   2   2   2   2
#     4  10  21  39  62  92 119 164 199 255 304 356
#     4  10  21  34  60  92 125 154 198 250 303 366
#     4   9  21  36  61  90 125 159 206 246 303 373
#     4  11  23  40  60  92 123 161 205 248 302 363
#     4  10  20  38  60  92 123 164 198 249 306 365
#     4  10  22  38  62  93 126 154 202 252 306 369
#     4  11  22  42  66  85 118 164 213 247 295 367
#     4  11  23  38  64  87 122 162 202 254 308 355
#
# _framework density 21.704367000000001
#
# number of rings (size 3 to 8) (size 9 to 14) (size 15 to 20)
#    0.000    1.750    1.250    2.625    8.750    0.500 
#    4.500    1.250    0.000    8.250    0.000    0.000 
#    0.000    0.000    0.000    0.000    0.000    0.000 
#
# Total GULP energy -89174.860381 kJ/mol
# GULP energy per Si atom -5573.428774 kJ/mol
# Density = 2.165497 g / cm^3
# Si number density = 21.704367 Si / 1000 Ang^3
#
#
#
# Elastic Constant Matrix: (Units=GPa)
#
#
# Indices 1 2 3 4 5 6 
#
# 1 79.4031 5.3374 35.6073 0.2507 30.4892 42.2511
# 2 5.3374 37.4715 35.7691 11.0592 9.8235 -0.0452
# 3 35.6073 35.7691 126.9621 21.7552 21.0643 -3.3096
# 4 0.2507 11.0592 21.7552 34.1201 10.7505 -5.1593
# 5 30.4892 9.8235 21.0643 10.7505 41.6060 9.9048
# 6 42.2511 -0.0452 -3.3096 -5.1593 9.9048 73.9485
#
#
#
# Elastic Compliance Matrix: (Units=1/GPa)
#
#
# Indices 1 2 3 4 5 6 
#
# 1 0.031549 0.007255 -0.009460 0.006800 -0.018099 -0.015546
# 2 0.007255 0.039574 -0.011461 -0.004012 -0.006871 -0.003994
# 3 -0.009460 -0.011461 0.014410 -0.005371 0.002460 0.005339
# 4 0.006800 -0.004012 -0.005371 0.037435 -0.010979 -0.000046
# 5 -0.018099 -0.006871 0.002460 -0.010979 0.039466 0.004395
# 6 -0.015546 -0.003994 0.005339 -0.000046 0.004395 0.022050
#
#
# Mechanical properties :
#
#
# Convention : Reuss Voigt Hill
#
# Bulk Modulus (GPa) = 17.18151 44.14049 30.66100
# Shear Modulus (GPa) = 21.62496 41.07644 31.35070
#
# Velocity S-wave (km/s) = 3.15991 4.35506 3.80470
# Velocity P-wave (km/s) = 4.60942 6.75796 5.78432
#
# Compressibility (1/GPa) = 0.05820211
#
# Stress axis : x y z
#
# Youngs Moduli (GPa) = 31.69704 25.26907 69.39777
#
# Poissons Ratio (x) = -0.18333 0.65648
# Poissons Ratio (y) = -0.22997 0.79535
# Poissons Ratio (z) = 0.29984 0.28960
#
# Static dielectric constant tensor:
#      x y z
#    x 1.865120 -0.267180 0.058750 
#    y -0.267180 2.542030 -0.092470 
#    z 0.058750 -0.092470 1.724630 
# 
# From -- ./inp_files/181471.got.cif
#   From: 2010.05.17/outbox.cif.g08.bks.cpg/sg2_91_cif.got.tgz:181471.got - 2010.06.03 11:33:40.
