data_PCOD9101096
_publ_section_title
;
Structure prediction by ZEFSAII (Michael W. Deem and Ramdas Pophale) SiO2 
 PCOD9101096
Probable space group: P -1
;
_chemical_formula_sum "Si O2"
_cell_formula_units_Z 12
_cell_length_a 23.412346
_cell_length_b 8.938186
_cell_length_c 9.800837
_cell_angle_alpha 66.763555
_cell_angle_beta 35.704774
_cell_angle_gamma 40.093022
_cell_volume 614.906479
_symmetry_space_group_name_H-M "P -1"
_symmetry_group_IT_number 2
_symmetry_cell_setting 'triclinic'
loop_
_space_group_symop_operation_xyz
x,y,z
-x,-y,-z
loop_
_atom_site_type_symbol
_atom_site_label
_atom_site_fract_x
_atom_site_fract_y
_atom_site_fract_z
Si Si1 0.545311 0.294009 0.594009
Si Si2 0.132458 0.343181 0.922459
Si Si3 0.102460 0.110403 0.264555
Si Si4 0.488807 0.581113 0.840577
Si Si5 0.658025 0.661833 0.366018
Si Si6 0.188664 0.676549 0.091349
O O1 0.500000 0.500000 0.500000
O O2 0.593229 0.314691 0.633736
O O3 0.691609 0.987372 0.350224
O O4 0.373236 0.422365 0.904813
O O5 0.193446 0.438623 0.810156
O O6 0.069183 0.330241 0.181946
O O7 0.000000 0.500000 0.000000
O O8 0.950825 0.259349 0.605518
O O9 0.113564 0.959025 0.175589
O O10 0.289688 0.855793 0.069721
O O11 0.569877 0.647134 0.637026
O O12 0.500000 0.500000 0.000000
O O13 0.500000 0.000000 0.500000
O O14 0.750885 0.444831 0.135522
#
# Coordination Sequence:
#
# PCOD9101096 Si02
#       6
#     2   2   2   2   2   2
#     4  11  18  44  68  85 130 186 214 256 334 399
#     4  12  25  40  64  98 134 170 218 275 336 387
#     4  10  21  42  62  96 131 168 222 274 323 383
#     4  11  23  41  69  96 126 174 230 267 314 400
#     4  12  21  42  67  93 129 179 216 262 337 392
#     4  10  20  37  74  86 121 181 217 262 328 392
#
# _framework density 19.515162
#
# number of rings (size 3 to 8) (size 9 to 14) (size 15 to 20)
#    0.000    1.000    8.333    0.000    0.000    6.000 
#    3.000    4.167    0.000    0.000    0.000    0.000 
#    0.000    0.000    0.000    0.000    0.000    0.000 
#
# Total GULP energy -66978.762005 kJ/mol
# GULP energy per Si atom -5581.563500 kJ/mol
# Density = 1.947074 g / cm^3
# Si number density = 19.515162 Si / 1000 Ang^3
#
#
#
# Elastic Constant Matrix: (Units=GPa)
#
#
# Indices 1 2 3 4 5 6 
#
# 1 132.6916 49.3371 36.6442 -28.8303 -9.2491 -2.8445
# 2 49.3371 64.7214 42.6037 -31.3072 -4.3827 -3.4814
# 3 36.6442 42.6037 122.5767 -35.3780 -14.5511 6.9344
# 4 -28.8303 -31.3072 -35.3780 38.0857 4.9702 0.1430
# 5 -9.2491 -4.3827 -14.5511 4.9702 45.5317 -4.9653
# 6 -2.8445 -3.4814 6.9344 0.1430 -4.9653 23.2403
#
#
#
# Elastic Compliance Matrix: (Units=1/GPa)
#
#
# Indices 1 2 3 4 5 6 
#
# 1 0.010715 -0.006982 -0.000022 0.002177 0.001319 0.000541
# 2 -0.006982 0.032266 -0.004613 0.017078 -0.001104 0.005014
# 3 -0.000022 -0.004613 0.012408 0.007435 0.002274 -0.003956
# 4 0.002177 0.017078 0.007435 0.048962 -0.000869 0.000119
# 5 0.001319 -0.001104 0.002274 -0.000869 0.023418 0.004326
# 6 0.000541 0.005014 -0.003956 0.000119 0.004326 0.045950
#
#
# Mechanical properties :
#
#
# Convention : Reuss Voigt Hill
#
# Bulk Modulus (GPa) = 31.10023 64.12887 47.61455
# Shear Modulus (GPa) = 24.07659 34.13185 29.10422
#
# Velocity S-wave (km/s) = 3.51627 4.18663 3.86601
# Velocity P-wave (km/s) = 5.69707 7.50353 6.66181
#
# Compressibility (1/GPa) = 0.03215410
#
# Stress axis : x y z
#
# Youngs Moduli (GPa) = 93.32771 30.99265 80.59525
#
# Poissons Ratio (x) = 0.21639 0.00179
# Poissons Ratio (y) = 0.65161 0.37178
# Poissons Ratio (z) = 0.00208 0.14297
#
# Static dielectric constant tensor:
#      x y z
#    x 1.704900 0.035000 -0.019430 
#    y 0.035000 1.644830 0.023390 
#    z -0.019430 0.023390 1.697360 
# 
# From -- ./inp_files/151136.got.cif
#   From: 2010.05.17/outbox.cif.g08.bks.cpg/sg2_76_cif.got.tgz:151136.got - 2010.06.03 11:33:40.
