data_PCOD9101168
_publ_section_title
;
Structure prediction by ZEFSAII (Michael W. Deem and Ramdas Pophale) SiO2 
 PCOD9101168
Probable space group: P -1
;
_chemical_formula_sum "Si O2"
_cell_formula_units_Z 16
_cell_length_a 9.501366
_cell_length_b 9.001034
_cell_length_c 21.369657
_cell_angle_alpha 31.181634
_cell_angle_beta 59.284048
_cell_angle_gamma 57.893210
_cell_volume 794.938635
_symmetry_space_group_name_H-M "P -1"
_symmetry_group_IT_number 2
_symmetry_cell_setting 'triclinic'
loop_
_space_group_symop_operation_xyz
x,y,z
-x,-y,-z
loop_
_atom_site_type_symbol
_atom_site_label
_atom_site_fract_x
_atom_site_fract_y
_atom_site_fract_z
Si Si1 0.827885 0.859851 0.365104
Si Si2 0.369455 0.152092 0.026406
Si Si3 0.476224 0.770843 0.768250
Si Si4 0.475213 0.856210 0.878973
Si Si5 0.861038 0.691505 0.681303
Si Si6 0.996482 0.215122 0.519165
Si Si7 0.007769 0.159528 0.112937
Si Si8 0.895799 0.896061 0.115986
O O1 0.875674 0.894439 0.413712
O O2 0.875615 0.516333 0.460644
O O3 0.640243 0.009263 0.332495
O O4 0.951080 0.011521 0.240237
O O5 0.397934 0.082037 0.119150
O O6 0.198175 0.050881 0.087229
O O7 0.384467 0.494151 0.894495
O O8 0.500000 0.000000 0.000000
O O9 0.484233 0.924868 0.778780
O O10 0.669987 0.660952 0.744434
O O11 0.298936 0.040226 0.879333
O O12 0.500000 0.500000 0.000000
O O13 0.903517 0.723001 0.587539
O O14 0.002833 0.423653 0.772084
O O15 0.890623 0.977593 0.608390
O O16 0.893909 0.098377 0.104367
O O17 0.000000 0.500000 0.000000
O O18 0.000000 0.000000 0.000000
#
# Coordination Sequence:
#
# PCOD9101168 Si02
#       8
#     2   2   2   2   2   2   2   2
#     4  11  23  45  67  92 126 169 218 266 311 380
#     4  11  23  36  57  97 134 162 202 254 323 385
#     4  11  22  41  63  92 128 164 211 266 314 378
#     4  10  20  38  56  89 129 167 200 247 309 385
#     4  11  24  44  67  94 127 167 215 266 317 376
#     4  10  25  45  68  89 121 175 220 262 316 372
#     4  12  22  39  64  95 127 168 207 254 321 386
#     4  12  23  39  65  95 132 167 205 259 324 378
#
# _framework density 20.12734
#
# number of rings (size 3 to 8) (size 9 to 14) (size 15 to 20)
#    0.000    1.000    3.750    3.750    3.500    2.000 
#    0.000    0.000    0.000    0.000    0.000    0.000 
#    0.000    0.000    0.000    0.000    0.000    0.000 
#
# Total GULP energy -89291.264066 kJ/mol
# GULP energy per Si atom -5580.704004 kJ/mol
# Density = 2.008153 g / cm^3
# Si number density = 20.127340 Si / 1000 Ang^3
#
#
#
# Elastic Constant Matrix: (Units=GPa)
#
#
# Indices 1 2 3 4 5 6 
#
# 1 64.3283 12.8685 15.5065 -1.9376 15.6614 -6.2922
# 2 12.8685 72.4716 20.7189 1.6781 9.3812 -3.0771
# 3 15.5065 20.7189 75.6788 0.5728 15.3757 3.0913
# 4 -1.9376 1.6781 0.5728 29.6386 2.0397 3.6859
# 5 15.6614 9.3812 15.3757 2.0397 35.6646 8.0588
# 6 -6.2922 -3.0771 3.0913 3.6859 8.0588 46.1444
#
#
#
# Elastic Compliance Matrix: (Units=1/GPa)
#
#
# Indices 1 2 3 4 5 6 
#
# 1 0.018674 -0.001607 -0.001952 0.001415 -0.007883 0.003834
# 2 -0.001607 0.015451 -0.003523 -0.000952 -0.002123 0.001494
# 3 -0.001952 -0.003523 0.015577 0.000190 -0.004779 -0.000725
# 4 0.001415 -0.000952 0.000190 0.034298 -0.001897 -0.002292
# 5 -0.007883 -0.002123 -0.004779 -0.001897 0.035809 -0.006999
# 6 0.003834 0.001494 -0.000725 -0.002292 -0.006999 0.023747
#
#
# Mechanical properties :
#
#
# Convention : Reuss Voigt Hill
#
# Bulk Modulus (GPa) = 28.13919 34.51849 31.32884
# Shear Modulus (GPa) = 29.48650 33.18185 31.33417
#
# Velocity S-wave (km/s) = 3.83168 4.06470 3.94991
# Velocity P-wave (km/s) = 5.79540 6.26229 6.03336
#
# Compressibility (1/GPa) = 0.03553762
#
# Stress axis : x y z
#
# Youngs Moduli (GPa) = 53.54975 64.71877 64.19561
#
# Poissons Ratio (x) = 0.10403 0.12530
# Poissons Ratio (y) = 0.08608 0.22619
# Poissons Ratio (z) = 0.10452 0.22803
#
# Static dielectric constant tensor:
#      x y z
#    x 1.771770 -0.130580 0.004020 
#    y -0.130580 1.890030 0.024800 
#    z 0.004020 0.024800 1.739670 
# 
# From -- ./inp_files/178721.got.cif
#   From: 2010.05.17/outbox.cif.g08.bks.cpg/sg2_90_cif.got.tgz:178721.got - 2010.06.03 11:33:40.
