data_PCOD9101256
_publ_section_title
;
Structure prediction by ZEFSAII (Michael W. Deem and Ramdas Pophale) SiO2 
 PCOD9101256
Probable space group: P -1
;
_chemical_formula_sum "Si O2"
_cell_formula_units_Z 16
_cell_length_a 16.829786
_cell_length_b 11.529339
_cell_length_c 12.160517
_cell_angle_alpha 143.701729
_cell_angle_beta 36.419095
_cell_angle_gamma 118.321249
_cell_volume 720.353871
_symmetry_space_group_name_H-M "P -1"
_symmetry_group_IT_number 2
_symmetry_cell_setting 'triclinic'
loop_
_space_group_symop_operation_xyz
x,y,z
-x,-y,-z
loop_
_atom_site_type_symbol
_atom_site_label
_atom_site_fract_x
_atom_site_fract_y
_atom_site_fract_z
Si Si1 0.845180 0.982687 0.162173
Si Si2 0.872574 0.981067 0.890527
Si Si3 0.993056 0.494484 0.720707
Si Si4 0.837485 0.620124 0.209146
Si Si5 0.199955 0.920833 0.479436
Si Si6 0.689658 0.645225 0.616254
Si Si7 0.570936 0.442986 0.201590
Si Si8 0.601279 0.147348 0.154867
O O1 0.750501 0.118361 0.477949
O O2 0.785073 0.041724 0.150652
O O3 0.899713 0.725884 0.936649
O O4 0.000000 0.000000 0.000000
O O5 0.953211 0.713420 0.578675
O O6 0.015076 0.026580 0.763463
O O7 0.758797 0.086696 0.996567
O O8 0.149972 0.469006 0.581977
O O9 0.887381 0.495715 0.940949
O O10 0.726283 0.612026 0.419178
O O11 0.777015 0.882640 0.450031
O O12 0.000000 0.500000 0.000000
O O13 0.287244 0.690972 0.139705
O O14 0.576607 0.546743 0.687632
O O15 0.608815 0.911721 0.938843
O O16 0.598553 0.277416 0.147474
O O17 0.529942 0.681229 0.483610
#
# Coordination Sequence:
#
# PCOD9101256 Si02
#       8
#     2   2   2   2   2   2   2   2
#     4   9  19  36  62  83 110 146 192 242 285 334
#     4  10  21  38  60  82 117 143 196 249 274 341
#     4   9  19  34  59  92 107 148 190 239 295 327
#     4   9  18  32  53  86 112 145 192 226 286 341
#     4  10  21  37  55  88 112 149 195 233 291 337
#     4  10  20  38  58  81 124 157 186 230 289 353
#     4  11  23  38  57  83 125 154 189 233 289 348
#     4  10  23  37  56  87 110 161 189 229 289 342
#
# _framework density 22.211306
#
# number of rings (size 3 to 8) (size 9 to 14) (size 15 to 20)
#    0.000    2.250    1.250    0.750    7.000    2.500 
#    2.250    0.625    0.000    1.500    0.000    0.000 
#    0.000    0.000    0.000    0.000    0.000    0.000 
#
# Total GULP energy -89360.189276 kJ/mol
# GULP energy per Si atom -5585.011830 kJ/mol
# Density = 2.216075 g / cm^3
# Si number density = 22.211306 Si / 1000 Ang^3
#
#
#
# Elastic Constant Matrix: (Units=GPa)
#
#
# Indices 1 2 3 4 5 6 
#
# 1 78.0403 18.5121 23.8849 -4.6783 7.0407 -1.2530
# 2 18.5121 42.6725 23.0756 -3.8352 3.9288 -8.8761
# 3 23.8849 23.0756 133.7739 2.6117 28.4889 -5.6839
# 4 -4.6783 -3.8352 2.6117 30.2213 6.2453 7.4560
# 5 7.0407 3.9288 28.4889 6.2453 34.0153 -0.0723
# 6 -1.2530 -8.8761 -5.6839 7.4560 -0.0723 17.9260
#
#
#
# Elastic Compliance Matrix: (Units=1/GPa)
#
#
# Indices 1 2 3 4 5 6 
#
# 1 0.014968 -0.006028 -0.001481 0.002929 -0.001707 -0.003633
# 2 -0.006028 0.030891 -0.003876 -0.000283 0.001008 0.013767
# 3 -0.001481 -0.003876 0.010096 -0.000332 -0.007638 0.001286
# 4 0.002929 -0.000283 -0.000332 0.039120 -0.007512 -0.016342
# 5 -0.001707 0.001008 -0.007638 -0.007512 0.037414 0.001233
# 6 -0.003633 0.013767 0.001286 -0.016342 0.001233 0.069558
#
#
# Mechanical properties :
#
#
# Convention : Reuss Voigt Hill
#
# Bulk Modulus (GPa) = 30.13417 42.82580 36.47998
# Shear Modulus (GPa) = 21.19725 29.03346 25.11536
#
# Velocity S-wave (km/s) = 3.09260 3.61937 3.36631
# Velocity P-wave (km/s) = 5.13310 6.06543 5.61864
#
# Compressibility (1/GPa) = 0.03318492
#
# Stress axis : x y z
#
# Youngs Moduli (GPa) = 66.80780 32.37182 99.04885
#
# Poissons Ratio (x) = 0.19514 0.14666
# Poissons Ratio (y) = 0.40273 0.38396
# Poissons Ratio (z) = 0.09892 0.12549
#
# Static dielectric constant tensor:
#      x y z
#    x 1.853540 0.029960 -0.002880 
#    y 0.029960 1.800640 -0.010530 
#    z -0.002880 -0.010530 1.859100 
# 
# From -- ./inp_files/185739.got.cif
#   From: 2010.05.17/outbox.cif.g08.bks.cpg/sg2_93_cif.got.tgz:185739.got - 2010.06.03 11:33:40.
