data_PCOD9101286
_publ_section_title
;
Structure prediction by ZEFSAII (Michael W. Deem and Ramdas Pophale) SiO2 
 PCOD9101286
Probable space group: P -1
;
_chemical_formula_sum "Si O2"
_cell_formula_units_Z 14
_cell_length_a 11.824600
_cell_length_b 15.434232
_cell_length_c 11.462832
_cell_angle_alpha 143.832399
_cell_angle_beta 136.081976
_cell_angle_gamma 40.250306
_cell_volume 767.356010
_symmetry_space_group_name_H-M "P -1"
_symmetry_group_IT_number 2
_symmetry_cell_setting 'triclinic'
loop_
_space_group_symop_operation_xyz
x,y,z
-x,-y,-z
loop_
_atom_site_type_symbol
_atom_site_label
_atom_site_fract_x
_atom_site_fract_y
_atom_site_fract_z
Si Si1 0.397077 0.570073 0.620945
Si Si2 0.467846 0.267127 0.477221
Si Si3 0.341460 0.127433 0.438684
Si Si4 0.011346 0.217405 0.444806
Si Si5 0.148509 0.052526 0.616298
Si Si6 0.762235 0.072468 0.046630
Si Si7 0.704192 0.869675 0.978601
O O1 0.500000 0.500000 0.500000
O O2 0.474849 0.435307 0.633758
O O3 0.393821 0.743530 0.842032
O O4 0.180512 0.625065 0.506576
O O5 0.402747 0.239342 0.525441
O O6 0.662843 0.112547 0.434759
O O7 0.327920 0.256398 0.265054
O O8 0.165507 0.232949 0.500711
O O9 0.500000 0.000000 0.500000
O O10 0.291034 0.016112 0.191009
O O11 0.941917 0.099383 0.195516
O O12 0.090090 0.136408 0.539087
O O13 0.184227 0.170602 0.862810
O O14 0.000000 0.000000 0.500000
O O15 0.786415 0.964570 0.062125
O O16 0.500000 0.000000 0.000000
#
# Coordination Sequence:
#
# PCOD9101286 Si02
#       7
#     2   2   2   2   2   2   2
#     4  10  20  38  58  85 117 151 181 226 298 345
#     4  10  21  35  58  80 114 151 182 237 285 326
#     4  11  21  39  60  85 112 146 203 237 268 327
#     4  10  21  35  60  82 112 152 190 230 277 334
#     4  11  17  32  56  85 109 143 198 235 268 331
#     4   9  20  36  59  81 112 152 190 228 283 336
#     4   9  17  30  53  84 106 145 189 229 276 331
#
# _framework density 18.244465000000002
#
# number of rings (size 3 to 8) (size 9 to 14) (size 15 to 20)
#    0.857    1.143    2.857    3.000    0.000    0.571 
#    0.000    1.429    3.143    0.000    0.000    0.000 
#    0.000    0.000    0.000    0.000    0.000    0.000 
#
# Total GULP energy -77935.981279 kJ/mol
# GULP energy per Si atom -5566.855806 kJ/mol
# Density = 1.820294 g / cm^3
# Si number density = 18.244465 Si / 1000 Ang^3
#
#
#
# Elastic Constant Matrix: (Units=GPa)
#
#
# Indices 1 2 3 4 5 6 
#
# 1 135.2559 37.5066 12.0965 -6.5922 -1.6679 -6.0701
# 2 37.5066 90.2807 14.5533 -5.3262 -11.5756 5.9705
# 3 12.0965 14.5533 31.6553 -15.6918 -10.7890 12.3442
# 4 -6.5922 -5.3262 -15.6918 29.5472 3.3023 0.3285
# 5 -1.6679 -11.5756 -10.7890 3.3023 23.7950 -6.9943
# 6 -6.0701 5.9705 12.3442 0.3285 -6.9943 28.2676
#
#
#
# Elastic Compliance Matrix: (Units=1/GPa)
#
#
# Indices 1 2 3 4 5 6 
#
# 1 0.008891 -0.003533 -0.004414 -0.000847 -0.001757 0.004158
# 2 -0.003533 0.013703 -0.003167 -0.000517 0.004733 -0.001093
# 3 -0.004414 -0.003167 0.066042 0.031995 0.016161 -0.025492
# 4 -0.000847 -0.000517 0.031995 0.050357 0.003135 -0.013854
# 5 -0.001757 0.004733 0.016161 0.003135 0.052420 0.004500
# 6 0.004158 -0.001093 -0.025492 -0.013854 0.004500 0.048906
#
#
# Mechanical properties :
#
#
# Convention : Reuss Voigt Hill
#
# Bulk Modulus (GPa) = 15.05790 42.83387 28.94588
# Shear Modulus (GPa) = 17.56341 29.19100 23.37720
#
# Velocity S-wave (km/s) = 3.10606 4.00433 3.58345
# Velocity P-wave (km/s) = 4.59726 6.70136 5.74644
#
# Compressibility (1/GPa) = 0.06641031
#
# Stress axis : x y z
#
# Youngs Moduli (GPa) = 112.46858 72.97499 15.14198
#
# Poissons Ratio (x) = 0.25779 0.06683
# Poissons Ratio (y) = 0.39730 0.04795
# Poissons Ratio (z) = 0.49639 0.23110
#
# Static dielectric constant tensor:
#      x y z
#    x 1.680820 -0.017920 0.036920 
#    y -0.017920 1.610840 -0.004600 
#    z 0.036920 -0.004600 1.684140 
# 
# From -- ./inp_files/245552.got.cif
#   From: 2010.05.17/outbox.cif.g08.bks.cpg/sg2_123_cif.got.tgz:245552.got - 2010.06.03 11:33:40.
