data_PCOD9101064
_publ_section_title
;
Structure prediction by ZEFSAII (Michael W. Deem and Ramdas Pophale) SiO2 
 PCOD9101064
Probable space group: P -1
;
_chemical_formula_sum "Si O2"
_cell_formula_units_Z 12
_cell_length_a 15.618161
_cell_length_b 7.654689
_cell_length_c 21.730258
_cell_angle_alpha 134.033167
_cell_angle_beta 158.417877
_cell_angle_gamma 38.102365
_cell_volume 581.924182
_symmetry_space_group_name_H-M "P -1"
_symmetry_group_IT_number 2
_symmetry_cell_setting 'triclinic'
loop_
_space_group_symop_operation_xyz
x,y,z
-x,-y,-z
loop_
_atom_site_type_symbol
_atom_site_label
_atom_site_fract_x
_atom_site_fract_y
_atom_site_fract_z
Si Si1 0.133044 0.680143 0.229844
Si Si2 0.686575 0.582350 0.536609
Si Si3 0.308125 0.726234 0.978513
Si Si4 0.226123 0.107498 0.113971
Si Si5 0.205273 0.286026 0.867650
Si Si6 0.674388 0.085317 0.729953
O O1 0.448031 0.591282 0.419970
O O2 0.159583 0.426835 0.143659
O O3 0.969993 0.670067 0.177415
O O4 0.954314 0.007486 0.166245
O O5 0.574087 0.651046 0.408677
O O6 0.993099 0.307063 0.679176
O O7 0.714576 0.830187 0.649339
O O8 0.407473 0.897996 0.128457
O O9 0.500000 0.500000 0.000000
O O10 0.263677 0.533490 0.950448
O O11 0.362137 0.982519 0.241039
O O12 0.937815 0.117770 0.918808
O O13 0.500000 0.000000 0.000000
#
# Coordination Sequence:
#
# PCOD9101064 Si02
#       6
#     2   2   2   2   2   2
#     4  12  24  41  76 109 134 184 240 280 346 413
#     4  11  21  41  68 111 136 181 235 292 331 422
#     4  12  24  43  68 102 139 185 231 282 347 416
#     4  11  21  41  68 111 136 181 235 292 331 422
#     4  12  24  43  68 102 139 185 231 282 347 416
#     4  10  20  37  70 103 140 174 234 286 340 395
#
# _framework density 20.621244000000001
#
# number of rings (size 3 to 8) (size 9 to 14) (size 15 to 20)
#    0.000    0.667    6.667    3.000    0.000    0.000 
#    0.000    0.000    0.000   18.000    0.000    0.000 
#    0.000    0.000    0.000    0.000    0.000    0.000 
#
# Total GULP energy -66809.575266 kJ/mol
# GULP energy per Si atom -5567.464605 kJ/mol
# Density = 2.057431 g / cm^3
# Si number density = 20.621244 Si / 1000 Ang^3
#
#
#
# Elastic Constant Matrix: (Units=GPa)
#
#
# Indices 1 2 3 4 5 6 
#
# 1 72.6623 35.8166 41.2635 -7.9992 -12.5867 9.9430
# 2 35.8166 129.6734 64.7053 -7.0951 9.4050 6.7061
# 3 41.2635 64.7053 132.9965 -18.5129 -17.1641 0.9350
# 4 -7.9992 -7.0951 -18.5129 41.3288 8.3184 -0.9230
# 5 -12.5867 9.4050 -17.1641 8.3184 40.0790 4.8178
# 6 9.9430 6.7061 0.9350 -0.9230 4.8178 36.9376
#
#
#
# Elastic Compliance Matrix: (Units=1/GPa)
#
#
# Indices 1 2 3 4 5 6 
#
# 1 0.019326 -0.003887 -0.003236 0.000266 0.006167 -0.005213
# 2 -0.003887 0.011964 -0.005413 0.000153 -0.006359 -0.000156
# 3 -0.003236 -0.005413 0.012173 0.002967 0.004731 0.001003
# 4 0.000266 0.000153 0.002967 0.026494 -0.004306 0.001049
# 5 0.006167 -0.006359 0.004731 -0.004306 0.031888 -0.004892
# 6 -0.005213 -0.000156 0.001003 0.001049 -0.004892 0.029143
#
#
# Mechanical properties :
#
#
# Convention : Reuss Voigt Hill
#
# Bulk Modulus (GPa) = 54.36981 68.76701 61.56841
# Shear Modulus (GPa) = 30.82820 36.57221 33.70020
#
# Velocity S-wave (km/s) = 3.87068 4.21589 4.04697
# Velocity P-wave (km/s) = 6.81171 7.55767 7.19436
#
# Compressibility (1/GPa) = 0.01839256
#
# Stress axis : x y z
#
# Youngs Moduli (GPa) = 51.74254 83.58463 82.14894
#
# Poissons Ratio (x) = 0.32487 0.26581
# Poissons Ratio (y) = 0.20111 0.44468
# Poissons Ratio (z) = 0.16742 0.45245
#
# Static dielectric constant tensor:
#      x y z
#    x 1.840660 0.035440 -0.030350 
#    y 0.035440 1.822500 -0.050000 
#    z -0.030350 -0.050000 1.792970 
# 
# From -- ./inp_files/196869.got.cif
#   From: 2010.05.17/outbox.cif.g08.bks.cpg/sg2_99_cif.got.tgz:196869.got - 2010.06.03 11:33:40.
