data_PCOD9101118
_publ_section_title
;
Structure prediction by ZEFSAII (Michael W. Deem and Ramdas Pophale) SiO2 
 PCOD9101118
Probable space group: P -1
;
_chemical_formula_sum "Si O2"
_cell_formula_units_Z 16
_cell_length_a 27.563456
_cell_length_b 11.306694
_cell_length_c 13.671439
_cell_angle_alpha 149.846782
_cell_angle_beta 20.630696
_cell_angle_gamma 153.346910
_cell_volume 662.583638
_symmetry_space_group_name_H-M "P -1"
_symmetry_group_IT_number 2
_symmetry_cell_setting 'triclinic'
loop_
_space_group_symop_operation_xyz
x,y,z
-x,-y,-z
loop_
_atom_site_type_symbol
_atom_site_label
_atom_site_fract_x
_atom_site_fract_y
_atom_site_fract_z
Si Si1 0.622300 0.252128 0.111255
Si Si2 0.093698 0.849944 0.174945
Si Si3 0.349701 0.833804 0.436292
Si Si4 0.035623 0.765235 0.988647
Si Si5 0.569732 0.791629 0.268923
Si Si6 0.533095 0.620589 0.680601
Si Si7 0.810420 0.996897 0.566110
Si Si8 0.336085 0.434644 0.309893
O O1 0.596115 0.451259 0.375603
O O2 0.564890 0.293421 0.144096
O O3 0.492224 0.952953 0.178422
O O4 0.791339 0.263298 0.803080
O O5 0.060635 0.806143 0.088624
O O6 0.000000 0.000000 0.500000
O O7 0.056245 0.559552 0.082833
O O8 0.280763 0.054581 0.972185
O O9 0.265898 0.537882 0.430720
O O10 0.425918 0.004922 0.512399
O O11 0.207969 0.877472 0.697774
O O12 0.955005 0.940807 0.231681
O O13 0.582432 0.569477 0.152571
O O14 0.400436 0.630910 0.423486
O O15 0.684331 0.846332 0.610678
O O16 0.758379 0.849444 0.665041
O O17 0.500000 0.500000 0.000000
#
# Coordination Sequence:
#
# PCOD9101118 Si02
#       8
#     2   2   2   2   2   2   2   2
#     4  10  20  38  64  81 106 147 193 236 282 327
#     4  10  21  35  56  77 117 160 186 216 279 344
#     4  10  20  38  55  80 116 150 181 229 281 332
#     4  10  23  37  51  84 121 148 185 227 277 345
#     4   9  20  34  54  82 111 143 185 237 275 323
#     4   9  21  38  58  85 107 141 195 242 275 325
#     4  11  21  36  56  83 115 147 181 236 284 331
#     4  11  20  30  53  85 110 136 188 227 273 336
#
# _framework density 24.147895999999999
#
# number of rings (size 3 to 8) (size 9 to 14) (size 15 to 20)
#    0.000    2.000    1.250    3.000    3.500    3.000 
#    0.000    0.625    0.000   12.000    0.000    0.000 
#    0.000    0.000    0.000    0.000    0.000    0.000 
#
# Total GULP energy -89257.355809 kJ/mol
# GULP energy per Si atom -5578.584738 kJ/mol
# Density = 2.409293 g / cm^3
# Si number density = 24.147896 Si / 1000 Ang^3
#
#
#
# Elastic Constant Matrix: (Units=GPa)
#
#
# Indices 1 2 3 4 5 6 
#
# 1 56.6647 6.9921 16.8372 10.2459 -12.3253 -15.4937
# 2 6.9921 26.1778 5.3109 23.5584 4.4883 3.2225
# 3 16.8372 5.3109 144.0812 16.5471 -31.2057 -1.8204
# 4 10.2459 23.5584 16.5471 30.6122 -4.1624 1.3985
# 5 -12.3253 4.4883 -31.2057 -4.1624 38.9784 10.6862
# 6 -15.4937 3.2225 -1.8204 1.3985 10.6862 26.6827
#
#
#
# Elastic Compliance Matrix: (Units=1/GPa)
#
#
# Indices 1 2 3 4 5 6 
#
# 1 0.023548 -0.004966 -0.001361 -0.003527 0.002935 0.013189
# 2 -0.004966 0.155267 0.002515 -0.123088 -0.029728 -0.003106
# 3 -0.001361 0.002515 0.009042 -0.005318 0.006746 -0.002900
# 4 -0.003527 -0.123088 -0.005318 0.134968 0.024420 -0.004400
# 5 0.002935 -0.029728 0.006746 0.024420 0.041326 -0.012076
# 6 0.013189 -0.003106 -0.002900 -0.004400 -0.012076 0.050380
#
#
# Mechanical properties :
#
#
# Convention : Reuss Voigt Hill
#
# Bulk Modulus (GPa) = 5.54835 31.68934 18.61885
# Shear Modulus (GPa) = 10.36844 32.44022 21.40433
#
# Velocity S-wave (km/s) = 2.07438 3.66922 2.98045
# Velocity P-wave (km/s) = 2.83550 5.57695 4.42393
#
# Compressibility (1/GPa) = 0.18023372
#
# Stress axis : x y z
#
# Youngs Moduli (GPa) = 42.46735 6.44050 110.59376
#
# Poissons Ratio (x) = 0.03198 0.15054
# Poissons Ratio (y) = 0.21088 -0.27818
# Poissons Ratio (z) = 0.05781 -0.01620
#
# Static dielectric constant tensor:
#      x y z
#    x 1.993110 0.052230 -0.053290 
#    y 0.052230 2.043080 0.068450 
#    z -0.053290 0.068450 2.048240 
# 
# From -- ./inp_files/519380.got.cif
#   From: 2010.05.17/outbox.cif.g08.bks.cpg/sg2_260_cif.got.tgz:519380.got - 2010.06.03 11:33:40.
