data_PCOD9101383
_publ_section_title
;
Structure prediction by ZEFSAII (Michael W. Deem and Ramdas Pophale) SiO2 
 PCOD9101383
Probable space group: P -1
;
_chemical_formula_sum "Si O2"
_cell_formula_units_Z 16
_cell_length_a 17.995410
_cell_length_b 8.915692
_cell_length_c 23.861484
_cell_angle_alpha 150.386043
_cell_angle_beta 20.736547
_cell_angle_gamma 150.177293
_cell_volume 636.492708
_symmetry_space_group_name_H-M "P -1"
_symmetry_group_IT_number 2
_symmetry_cell_setting 'triclinic'
loop_
_space_group_symop_operation_xyz
x,y,z
-x,-y,-z
loop_
_atom_site_type_symbol
_atom_site_label
_atom_site_fract_x
_atom_site_fract_y
_atom_site_fract_z
Si Si1 0.451819 0.219945 0.310572
Si Si2 0.563480 0.831663 0.197974
Si Si3 0.773798 0.751411 0.626693
Si Si4 0.284002 0.572470 0.966489
Si Si5 0.842180 0.783189 0.160458
Si Si6 0.099759 0.854165 0.663413
Si Si7 0.392441 0.776229 0.595911
Si Si8 0.168584 0.191097 0.274252
O O1 0.279627 0.078100 0.335449
O O2 0.656868 0.489796 0.225233
O O3 0.348192 0.411238 0.490763
O O4 0.548474 0.977433 0.195893
O O5 0.729317 0.633385 0.034409
O O6 0.325182 0.557387 0.281816
O O7 0.616995 0.116993 0.298607
O O8 0.523531 0.593955 0.777914
O O9 0.880602 0.487535 0.444872
O O10 0.904052 0.891521 0.637023
O O11 0.099427 0.386925 0.991243
O O12 0.287622 0.928757 0.090110
O O13 0.995092 0.972414 0.164482
O O14 0.743429 0.047386 0.288810
O O15 0.996210 0.840255 0.670946
O O16 0.353382 0.059767 0.545277
#
# Coordination Sequence:
#
# PCOD9101383 Si02
#       8
#     2   2   2   2   2   2   2   2
#     4  10  17  29  53  82  94 126 170 216 246 282
#     4  10  19  31  51  76 104 128 166 208 251 296
#     4  10  17  33  54  71 101 132 170 204 238 299
#     4   9  19  36  52  72  99 138 173 205 236 295
#     4   9  17  33  58  73  97 129 175 208 242 289
#     4  11  17  31  58  77  97 129 173 209 243 293
#     4  10  16  32  53  76  98 128 169 211 244 292
#     4  11  22  33  50  74 108 137 166 196 252 304
#
# _framework density 25.137758999999999
#
# number of rings (size 3 to 8) (size 9 to 14) (size 15 to 20)
#    0.000    2.000    6.250    3.000    0.000    0.500 
#    0.000    6.250    0.000    3.000    0.000    0.000 
#    0.000    0.000    0.000    0.000    0.000    0.000 
#
# Total GULP energy -89265.421582 kJ/mol
# GULP energy per Si atom -5579.088849 kJ/mol
# Density = 2.508054 g / cm^3
# Si number density = 25.137759 Si / 1000 Ang^3
#
#
#
# Elastic Constant Matrix: (Units=GPa)
#
#
# Indices 1 2 3 4 5 6 
#
# 1 267.7721 64.2273 -9.9102 -13.5967 -71.1406 37.7474
# 2 64.2273 79.7376 21.8973 -26.6786 -16.0246 16.6615
# 3 -9.9102 21.8973 114.4643 58.0425 52.2850 -48.7727
# 4 -13.5967 -26.6786 58.0425 11.3486 51.9573 -36.5628
# 5 -71.1406 -16.0246 52.2850 51.9573 92.2215 -32.2972
# 6 37.7474 16.6615 -48.7727 -36.5628 -32.2972 69.2897
#
#
#
# Elastic Compliance Matrix: (Units=1/GPa)
#
#
# Indices 1 2 3 4 5 6 
#
# 1 0.004946 -0.000820 -0.003378 0.004159 0.002756 -0.001396
# 2 -0.000820 0.013375 -0.003464 -0.011789 0.007523 -0.007922
# 3 -0.003378 -0.003464 0.015445 0.010037 -0.013170 0.012702
# 4 0.004159 -0.011789 0.010037 -0.021737 0.007616 -0.000286
# 5 0.002756 0.007523 -0.013170 0.007616 0.017274 -0.000511
# 6 -0.001396 -0.007922 0.012702 -0.000286 -0.000511 0.025649
#
#
# Mechanical properties :
#
#
# Convention : Reuss Voigt Hill
#
# Bulk Modulus (GPa) = 54.21466 68.26698 61.24082
# Shear Modulus (GPa) = 65.42434 60.28926 62.85680
#
# Velocity S-wave (km/s) = 5.10713 4.90261 5.00592
# Velocity P-wave (km/s) = 7.50939 7.69828 7.60442
#
# Compressibility (1/GPa) = 0.01844520
#
# Stress axis : x y z
#
# Youngs Moduli (GPa) = 202.17304 74.76369 64.74433
#
# Poissons Ratio (x) = 0.06127 0.21868
# Poissons Ratio (y) = 0.16569 0.22426
# Poissons Ratio (z) = 0.68285 0.25897
#
# Static dielectric constant tensor:
#      x y z
#    x 2.082120 0.028560 0.026360 
#    y 0.028560 2.056540 -0.066190 
#    z 0.026360 -0.066190 1.998710 
# 
# From -- ./inp_files/357625.got.cif
#   From: 2010.05.17/outbox.cif.g08.bks.cpg/sg2_179_cif.got.tgz:357625.got - 2010.06.03 11:33:40.
