data_PCOD9101138
_publ_section_title
;
Structure prediction by ZEFSAII (Michael W. Deem and Ramdas Pophale) SiO2 
 PCOD9101138
Probable space group: P -1
;
_chemical_formula_sum "Si O2"
_cell_formula_units_Z 16
_cell_length_a 16.020435
_cell_length_b 14.486374
_cell_length_c 8.520617
_cell_angle_alpha 99.242409
_cell_angle_beta 115.279656
_cell_angle_gamma 136.989517
_cell_volume 783.133933
_symmetry_space_group_name_H-M "P -1"
_symmetry_group_IT_number 2
_symmetry_cell_setting 'triclinic'
loop_
_space_group_symop_operation_xyz
x,y,z
-x,-y,-z
loop_
_atom_site_type_symbol
_atom_site_label
_atom_site_fract_x
_atom_site_fract_y
_atom_site_fract_z
Si Si1 0.183852 0.363106 0.858976
Si Si2 0.956065 0.009024 0.747553
Si Si3 0.505823 0.457273 0.663680
Si Si4 0.996841 0.622519 0.419621
Si Si5 0.316466 0.025013 0.011294
Si Si6 0.568181 0.425401 0.206112
Si Si7 0.673050 0.224993 0.277918
Si Si8 0.980029 0.834670 0.833097
O O1 0.080812 0.370579 0.762808
O O2 0.321014 0.473415 0.844412
O O3 0.015405 0.127792 0.682799
O O4 0.337527 0.484237 0.160393
O O5 0.714720 0.781912 0.527365
O O6 0.041640 0.136906 0.008280
O O7 0.027417 0.966195 0.792799
O O8 0.500000 0.500000 0.500000
O O9 0.544261 0.579362 0.844916
O O10 0.799433 0.401112 0.297024
O O11 0.140801 0.670694 0.477824
O O12 0.150365 0.815574 0.717470
O O13 0.412954 0.198679 0.038804
O O14 0.523906 0.152674 0.248143
O O15 0.173650 0.940040 0.009095
O O16 0.763219 0.595202 0.531937
O O17 0.500000 0.000000 0.000000
#
# Coordination Sequence:
#
# PCOD9101138 Si02
#       8
#     2   2   2   2   2   2   2   2
#     4  12  22  36  56  85 116 150 194 240 291 333
#     4  10  23  37  55  77 118 163 192 242 275 335
#     4  11  24  40  55  79 117 162 204 233 281 337
#     4  10  21  36  55  89 117 147 183 234 300 346
#     4  11  18  34  59  85 116 146 189 237 288 342
#     4  11  22  34  56  86 116 149 196 243 281 335
#     4   9  19  35  58  84 119 145 179 234 295 354
#     4  10  20  38  56  80 114 156 206 228 281 335
#
# _framework density 20.430734000000001
#
# number of rings (size 3 to 8) (size 9 to 14) (size 15 to 20)
#    0.000    1.500    2.500    4.125    1.750    2.000 
#    0.000    0.000    0.000    0.750    0.000   21.000 
#    0.000    0.000    0.000    0.000    0.000    0.000 
#
# Total GULP energy -89193.326371 kJ/mol
# GULP energy per Si atom -5574.582898 kJ/mol
# Density = 2.038423 g / cm^3
# Si number density = 20.430734 Si / 1000 Ang^3
#
#
#
# Elastic Constant Matrix: (Units=GPa)
#
#
# Indices 1 2 3 4 5 6 
#
# 1 82.7584 5.5103 25.5323 -10.1260 35.4211 -16.4398
# 2 5.5103 96.2200 30.9377 25.5157 -2.1773 -13.9384
# 3 25.5323 30.9377 66.7022 16.6330 20.9607 -5.2803
# 4 -10.1260 25.5157 16.6330 40.9388 -7.9937 6.4702
# 5 35.4211 -2.1773 20.9607 -7.9937 43.4768 -2.3719
# 6 -16.4398 -13.9384 -5.2803 6.4702 -2.3719 23.9838
#
#
#
# Elastic Compliance Matrix: (Units=1/GPa)
#
#
# Indices 1 2 3 4 5 6 
#
# 1 0.022664 0.001132 -0.003411 0.001047 -0.015829 0.013594
# 2 0.001132 0.016154 -0.005066 -0.009333 0.001251 0.011690
# 3 -0.003411 -0.005066 0.024907 -0.010302 -0.011275 0.001866
# 4 0.001047 -0.009333 -0.010302 0.039253 0.009959 -0.016579
# 5 -0.015829 0.001251 -0.011275 0.009959 0.042622 -0.011078
# 6 0.013594 0.011690 0.001866 -0.016579 -0.011078 0.061595
#
#
# Mechanical properties :
#
#
# Convention : Reuss Voigt Hill
#
# Bulk Modulus (GPa) = 20.39348 41.07125 30.73236
# Shear Modulus (GPa) = 20.98814 33.92655 27.45734
#
# Velocity S-wave (km/s) = 3.20860 4.07942 3.66993
# Velocity P-wave (km/s) = 4.87137 6.50655 5.74741
#
# Compressibility (1/GPa) = 0.04903528
#
# Stress axis : x y z
#
# Youngs Moduli (GPa) = 44.12301 61.90589 40.14899
#
# Poissons Ratio (x) = -0.07011 0.13695
# Poissons Ratio (y) = -0.04997 0.20340
# Poissons Ratio (z) = 0.15051 0.31362
#
# Static dielectric constant tensor:
#      x y z
#    x 1.794530 0.002470 0.036230 
#    y 0.002470 1.752230 0.025860 
#    z 0.036230 0.025860 1.801320 
# 
# From -- ./inp_files/335384.got.cif
#   From: 2010.05.17/outbox.cif.g08.bks.cpg/sg2_168_cif.got.tgz:335384.got - 2010.06.03 11:33:40.
