data_PCOD9101224
_publ_section_title
;
Structure prediction by ZEFSAII (Michael W. Deem and Ramdas Pophale) SiO2 
 PCOD9101224
Probable space group: P -1
;
_chemical_formula_sum "Si O2"
_cell_formula_units_Z 12
_cell_length_a 13.456116
_cell_length_b 14.950775
_cell_length_c 5.283720
_cell_angle_alpha 47.151736
_cell_angle_beta 111.715048
_cell_angle_gamma 137.711448
_cell_volume 504.937320
_symmetry_space_group_name_H-M "P -1"
_symmetry_group_IT_number 2
_symmetry_cell_setting 'triclinic'
loop_
_space_group_symop_operation_xyz
x,y,z
-x,-y,-z
loop_
_atom_site_type_symbol
_atom_site_label
_atom_site_fract_x
_atom_site_fract_y
_atom_site_fract_z
Si Si1 0.620445 0.442034 0.905465
Si Si2 0.324488 0.859429 0.178817
Si Si3 0.694534 0.752477 0.161178
Si Si4 0.870022 0.102795 0.873150
Si Si5 0.786223 0.598506 0.263237
Si Si6 0.838955 0.307255 0.157665
O O1 0.628830 0.598309 0.592960
O O2 0.442955 0.271081 0.009882
O O3 0.726615 0.490177 0.677307
O O4 0.691768 0.470098 0.186965
O O5 0.265565 0.950249 0.985731
O O6 0.283535 0.767004 0.589771
O O7 0.223217 0.720744 0.125309
O O8 0.500000 0.000000 0.000000
O O9 0.748759 0.711167 0.062124
O O10 0.830417 0.935963 0.068934
O O11 0.869047 0.187271 0.459963
O O12 0.031542 0.258629 0.859893
O O13 0.000000 0.500000 0.000000
#
# Coordination Sequence:
#
# PCOD9101224 Si02
#       6
#     2   2   2   2   2   2
#     4   9  21  36  59  80 135 158 198 239 300 349
#     4  10  23  44  66  90 122 159 207 259 315 363
#     4   9  20  39  57  90 124 162 197 246 293 364
#     4  10  24  37  66  91 122 158 208 246 310 362
#     4  10  20  38  57  89 122 164 196 244 294 360
#     4  10  23  45  66  88 125 158 207 259 314 365
#
# _framework density 23.765325000000001
#
# number of rings (size 3 to 8) (size 9 to 14) (size 15 to 20)
#    2.000    0.333    0.000    2.000    2.333    2.000 
#    3.000    0.000    0.000    0.000    0.000    0.000 
#    0.000    0.000    0.000    0.000    0.000    0.000 
#
# Total GULP energy -66990.333747 kJ/mol
# GULP energy per Si atom -5582.527812 kJ/mol
# Density = 2.371123 g / cm^3
# Si number density = 23.765325 Si / 1000 Ang^3
#
#
#
# Elastic Constant Matrix: (Units=GPa)
#
#
# Indices 1 2 3 4 5 6 
#
# 1 92.1604 13.7519 0.1109 4.5010 -22.2532 11.7279
# 2 13.7519 89.2840 20.9561 28.5429 -2.5461 1.8687
# 3 0.1109 20.9561 58.7706 9.6962 -8.4398 -3.4777
# 4 4.5010 28.5429 9.6962 38.2647 -6.6536 -5.3282
# 5 -22.2532 -2.5461 -8.4398 -6.6536 23.9384 -5.2787
# 6 11.7279 1.8687 -3.4777 -5.3282 -5.2787 43.4802
#
#
#
# Elastic Compliance Matrix: (Units=1/GPa)
#
#
# Indices 1 2 3 4 5 6 
#
# 1 0.015018 -0.003252 0.002793 0.002319 0.014892 -0.001596
# 2 -0.003252 0.016705 -0.005076 -0.012384 -0.007056 -0.002621
# 3 0.002793 -0.005076 0.020312 0.000343 0.009825 0.002324
# 4 0.002319 -0.012384 0.000343 0.038117 0.012915 0.006173
# 5 0.014892 -0.007056 0.009825 0.012915 0.063320 0.006342
# 6 -0.001596 -0.002621 0.002324 0.006173 0.006342 0.025254
#
#
# Mechanical properties :
#
#
# Convention : Reuss Voigt Hill
#
# Bulk Modulus (GPa) = 24.41053 34.42809 29.41931
# Shear Modulus (GPa) = 24.57596 34.82973 29.70285
#
# Velocity S-wave (km/s) = 3.21925 3.83243 3.53914
# Velocity P-wave (km/s) = 4.91038 5.83965 5.39506
#
# Compressibility (1/GPa) = 0.04096593
#
# Stress axis : x y z
#
# Youngs Moduli (GPa) = 66.58545 59.86211 49.23226
#
# Poissons Ratio (x) = 0.19467 -0.13750
# Poissons Ratio (y) = 0.21653 0.24988
# Poissons Ratio (z) = -0.18596 0.30384
#
# Static dielectric constant tensor:
#      x y z
#    x 2.049890 0.005080 0.086480 
#    y 0.005080 1.825240 0.012720 
#    z 0.086480 0.012720 1.940530 
# 
# From -- ./inp_files/97506.got.cif
#   From: 2010.05.17/outbox.cif.g08.bks.cpg/sg2_49_cif.got.tgz:97506.got - 2010.06.03 11:33:40.
