data_PCOD9101582
_publ_section_title
;
Structure prediction by ZEFSAII (Michael W. Deem and Ramdas Pophale) SiO2 
 PCOD9101582
Probable space group: P -1
;
_chemical_formula_sum "Si O2"
_cell_formula_units_Z 14
_cell_length_a 16.367875
_cell_length_b 8.166639
_cell_length_c 17.096565
_cell_angle_alpha 66.526582
_cell_angle_beta 22.428917
_cell_angle_gamma 54.708948
_cell_volume 640.569811
_symmetry_space_group_name_H-M "P -1"
_symmetry_group_IT_number 2
_symmetry_cell_setting 'triclinic'
loop_
_space_group_symop_operation_xyz
x,y,z
-x,-y,-z
loop_
_atom_site_type_symbol
_atom_site_label
_atom_site_fract_x
_atom_site_fract_y
_atom_site_fract_z
Si Si1 0.150003 0.544835 0.518637
Si Si2 0.254349 0.882956 0.434659
Si Si3 0.746781 0.352509 0.751279
Si Si4 0.864107 0.993790 0.198865
Si Si5 0.252461 0.692481 0.630220
Si Si6 0.437203 0.204779 0.966914
Si Si7 0.264467 0.330773 0.607843
O O1 0.150151 0.748828 0.512594
O O2 0.201679 0.521749 0.384491
O O3 0.339325 0.344410 0.449251
O O4 0.865095 0.601290 0.780884
O O5 0.337484 0.779245 0.467067
O O6 0.491546 0.840409 0.178753
O O7 0.016056 0.147265 0.593008
O O8 0.641380 0.245052 0.811781
O O9 0.500000 0.500000 0.000000
O O10 0.928583 0.094349 0.194221
O O11 0.543717 0.162638 0.437295
O O12 0.912660 0.759367 0.214155
O O13 0.000000 0.000000 0.000000
O O14 0.500000 0.500000 0.500000
O O15 0.136823 0.570165 0.715979
O O16 0.500000 0.000000 0.000000
#
# Coordination Sequence:
#
# PCOD9101582 Si02
#       7
#     2   2   2   2   2   2   2
#     4  10  20  38  60  84 117 156 199 239 294 362
#     4  10  20  38  60  83 119 155 196 250 291 353
#     4  11  23  36  55  87 124 149 192 250 297 350
#     4  10  21  39  62  86 123 156 199 250 298 355
#     4   9  20  39  61  86 119 155 198 246 299 356
#     4  11  19  38  62  79 109 158 200 233 294 353
#     4   9  21  39  59  88 118 156 199 247 301 355
#
# _framework density 21.855542
#
# number of rings (size 3 to 8) (size 9 to 14) (size 15 to 20)
#    0.000    2.000    2.857    0.857    0.000    8.000 
#    2.571    7.143    0.000    0.000    0.000    0.000 
#    0.000    0.000    0.000    0.000    0.000    0.000 
#
# Total GULP energy -78014.877518 kJ/mol
# GULP energy per Si atom -5572.491251 kJ/mol
# Density = 2.180580 g / cm^3
# Si number density = 21.855542 Si / 1000 Ang^3
#
#
#
# Elastic Constant Matrix: (Units=GPa)
#
#
# Indices 1 2 3 4 5 6 
#
# 1 93.3604 56.3023 34.2856 -10.8670 38.5550 -22.1893
# 2 56.3023 112.2430 35.0162 -28.3253 28.9175 -3.4398
# 3 34.2856 35.0162 89.5770 -18.8485 34.5143 -8.3169
# 4 -10.8670 -28.3253 -18.8485 24.3465 -11.1228 1.3149
# 5 38.5550 28.9175 34.5143 -11.1228 45.1575 -5.0173
# 6 -22.1893 -3.4398 -8.3169 1.3149 -5.0173 39.0458
#
#
#
# Elastic Compliance Matrix: (Units=1/GPa)
#
#
# Indices 1 2 3 4 5 6 
#
# 1 0.025312 -0.010467 -0.000421 -0.008910 -0.015483 0.011683
# 2 -0.010467 0.018067 -0.000479 0.016853 0.001345 -0.004853
# 3 -0.000421 -0.000479 0.017360 0.007810 -0.010478 0.001807
# 4 -0.008910 0.016853 0.007810 0.066007 0.006740 -0.003272
# 5 -0.015483 0.001345 -0.010478 0.006740 0.043555 -0.005542
# 6 0.011683 -0.004853 0.001807 -0.003272 -0.005542 0.031606
#
#
# Mechanical properties :
#
#
# Convention : Reuss Voigt Hill
#
# Bulk Modulus (GPa) = 26.31195 60.70985 43.51090
# Shear Modulus (GPa) = 21.06969 33.01506 27.04237
#
# Velocity S-wave (km/s) = 3.10827 3.89086 3.52138
# Velocity P-wave (km/s) = 4.99470 6.92988 6.04029
#
# Compressibility (1/GPa) = 0.03800554
#
# Stress axis : x y z
#
# Youngs Moduli (GPa) = 39.50765 55.35062 57.60274
#
# Poissons Ratio (x) = 0.57934 0.02424
# Poissons Ratio (y) = 0.41352 0.02759
# Poissons Ratio (z) = 0.01663 0.02651
#
# Static dielectric constant tensor:
#      x y z
#    x 1.761740 0.378410 0.064250 
#    y 0.378410 0.762340 -0.197890 
#    z 0.064250 -0.197890 1.785190 
# 
# From -- ./inp_files/34775.got.cif
#   From: 2010.05.17/outbox.cif.g08.bks.cpg/sg2_18_cif.got.tgz:34775.got - 2010.06.03 11:33:40.
