data_PCOD9101053
_publ_section_title
;
Structure prediction by ZEFSAII (Michael W. Deem and Ramdas Pophale) SiO2 
 PCOD9101053
Probable space group: P -1
;
_chemical_formula_sum "Si O2"
_cell_formula_units_Z 16
_cell_length_a 18.472044
_cell_length_b 11.603890
_cell_length_c 9.641922
_cell_angle_alpha 110.330623
_cell_angle_beta 29.605279
_cell_angle_gamma 120.760335
_cell_volume 854.037711
_symmetry_space_group_name_H-M "P -1"
_symmetry_group_IT_number 2
_symmetry_cell_setting 'triclinic'
loop_
_space_group_symop_operation_xyz
x,y,z
-x,-y,-z
loop_
_atom_site_type_symbol
_atom_site_label
_atom_site_fract_x
_atom_site_fract_y
_atom_site_fract_z
Si Si1 0.389140 0.915778 0.281443
Si Si2 0.043187 0.889705 0.958103
Si Si3 0.970987 0.113418 0.684886
Si Si4 0.561702 0.336273 0.322531
Si Si5 0.391226 0.925206 0.778328
Si Si6 0.952195 0.658644 0.557582
Si Si7 0.230199 0.654474 0.267272
Si Si8 0.230292 0.350087 0.857737
O O1 0.231304 0.930556 0.613336
O O2 0.306275 0.757545 0.308564
O O3 0.526782 0.969645 0.190006
O O4 0.500000 0.000000 0.000000
O O5 0.014028 0.890801 0.174049
O O6 0.913452 0.742027 0.047684
O O7 0.000000 0.000000 0.000000
O O8 0.070275 0.257885 0.497869
O O9 0.788509 0.093816 0.956663
O O10 0.000000 0.000000 0.500000
O O11 0.593292 0.215132 0.283217
O O12 0.371991 0.301779 0.617894
O O13 0.671651 0.486129 0.270511
O O14 0.625911 0.351158 0.064305
O O15 0.500000 0.000000 0.500000
O O16 0.894956 0.499815 0.546313
O O17 0.133279 0.709080 0.345534
O O18 0.849521 0.663645 0.863701
#
# Coordination Sequence:
#
# PCOD9101053 Si02
#       8
#     2   2   2   2   2   2   2   2
#     4  12  23  40  66  95 125 166 215 264 310 376
#     4  12  26  42  63  95 128 168 220 263 319 382
#     4  12  27  43  64  92 131 172 208 271 323 374
#     4  10  21  41  67  92 128 167 210 259 318 381
#     4  12  25  42  60  93 132 170 213 260 320 378
#     4  10  20  41  64  93 126 162 215 256 320 377
#     4  10  20  37  69  92 121 168 211 260 310 384
#     4  10  22  40  69  96 123 167 214 261 316 380
#
# _framework density 18.734535999999999
#
# number of rings (size 3 to 8) (size 9 to 14) (size 15 to 20)
#    0.000    1.000    5.000    1.500    3.500    0.000 
#    2.250    1.250    0.000    3.000    0.000    0.000 
#    0.000    0.000    0.000    0.000    0.000    0.000 
#
# Total GULP energy -89179.083229 kJ/mol
# GULP energy per Si atom -5573.692702 kJ/mol
# Density = 1.869190 g / cm^3
# Si number density = 18.734536 Si / 1000 Ang^3
#
#
#
# Elastic Constant Matrix: (Units=GPa)
#
#
# Indices 1 2 3 4 5 6 
#
# 1 118.0001 56.2768 29.5840 -4.1011 21.0933 8.1542
# 2 56.2768 104.6369 13.4371 1.6466 7.1910 0.0956
# 3 29.5840 13.4371 96.8433 5.4340 1.6498 0.1818
# 4 -4.1011 1.6466 5.4340 26.8933 -1.6637 -0.1489
# 5 21.0933 7.1910 1.6498 -1.6637 38.8574 0.3366
# 6 8.1542 0.0956 0.1818 -0.1489 0.3366 31.1388
#
#
#
# Elastic Compliance Matrix: (Units=1/GPa)
#
#
# Indices 1 2 3 4 5 6 
#
# 1 0.013929 -0.006685 -0.003377 0.002823 -0.006029 -0.003529
# 2 -0.006685 0.013063 0.000309 -0.001804 0.001106 0.001688
# 3 -0.003377 0.000309 0.011449 -0.002771 0.001164 0.000791
# 4 0.002823 -0.001804 -0.002771 0.038317 0.000564 -0.000540
# 5 -0.006029 0.001106 0.001164 0.000564 0.028767 0.001260
# 6 -0.003529 0.001688 0.000791 -0.000540 0.001260 0.033012
#
#
# Mechanical properties :
#
#
# Convention : Reuss Voigt Hill
#
# Bulk Modulus (GPa) = 52.80991 57.56399 55.18695
# Shear Modulus (GPa) = 30.42215 34.05674 32.23945
#
# Velocity S-wave (km/s) = 4.03408 4.26826 4.15282
# Velocity P-wave (km/s) = 7.06740 7.42183 7.24678
#
# Compressibility (1/GPa) = 0.01893584
#
# Stress axis : x y z
#
# Youngs Moduli (GPa) = 71.79326 76.55084 87.34552
#
# Poissons Ratio (x) = 0.51171 0.29493
# Poissons Ratio (y) = 0.47991 -0.02696
# Poissons Ratio (z) = 0.24242 -0.02363
#
# Static dielectric constant tensor:
#      x y z
#    x 1.673960 -0.001870 -0.009320 
#    y -0.001870 1.687850 -0.022640 
#    z -0.009320 -0.022640 1.721330 
# 
# From -- ./inp_files/185846.got.cif
#   From: 2010.05.17/outbox.cif.g08.bks.cpg/sg2_93_cif.got.tgz:185846.got - 2010.06.03 11:33:40.
