data_PCOD9101846
_publ_section_title
;
Structure prediction by ZEFSAII (Michael W. Deem and Ramdas Pophale) SiO2 
 PCOD9101846
Probable space group: P -1
;
_chemical_formula_sum "Si O2"
_cell_formula_units_Z 16
_cell_length_a 11.843798
_cell_length_b 7.917891
_cell_length_c 7.557182
_cell_angle_alpha 75.966969
_cell_angle_beta 108.019319
_cell_angle_gamma 88.553793
_cell_volume 649.952474
_symmetry_space_group_name_H-M "P -1"
_symmetry_group_IT_number 2
_symmetry_cell_setting 'triclinic'
loop_
_space_group_symop_operation_xyz
x,y,z
-x,-y,-z
loop_
_atom_site_type_symbol
_atom_site_label
_atom_site_fract_x
_atom_site_fract_y
_atom_site_fract_z
Si Si1 0.382095 0.938089 0.380831
Si Si2 0.140930 0.514815 0.291542
Si Si3 0.147359 0.096561 0.107022
Si Si4 0.539552 0.189822 0.915053
Si Si5 0.209452 0.933058 0.825473
Si Si6 0.153710 0.841902 0.458658
Si Si7 0.719377 0.670500 0.294596
Si Si8 0.116323 0.487083 0.889852
O O1 0.422301 0.813722 0.270127
O O2 0.296855 0.848749 0.495778
O O3 0.500000 0.000000 0.500000
O O4 0.290439 0.096030 0.215325
O O5 0.120319 0.681532 0.368475
O O6 0.246209 0.394819 0.473837
O O7 0.015280 0.431141 0.251245
O O8 0.163046 0.552203 0.084672
O O9 0.094599 0.286367 0.980182
O O10 0.899184 0.986862 0.718778
O O11 0.148782 0.960396 0.980659
O O12 0.418744 0.319103 0.832759
O O13 0.665401 0.191847 0.073133
O O14 0.500000 0.000000 0.000000
O O15 0.133833 0.861285 0.650551
O O16 0.240654 0.131945 0.747316
O O17 0.794744 0.543762 0.223638
#
# Coordination Sequence:
#
# PCOD9101846 Si02
#       8
#     2   2   2   2   2   2   2   2
#     4   9  17  31  57  85 112 141 180 230 275 333
#     4  11  24  39  56  83 117 152 190 235 292 332
#     4   8  19  35  59  86 108 147 196 228 278 331
#     4   9  17  31  57  86 108 140 188 230 270 333
#     4   9  17  36  59  84 113 143 188 233 278 334
#     4  10  21  35  57  87 120 146 181 240 285 332
#     4  10  20  38  61  84 109 151 197 230 276 346
#     4  10  22  41  61  78 109 157 198 236 275 337
#
# _framework density 24.617182
#
# number of rings (size 3 to 8) (size 9 to 14) (size 15 to 20)
#    0.750    1.750    0.000    3.375    1.750    1.500 
#    0.000    3.750    0.000    0.000    0.000    0.000 
#    0.000    0.000    0.000    0.000    0.000    0.000 
#
# Total GULP energy -89322.655811 kJ/mol
# GULP energy per Si atom -5582.665988 kJ/mol
# Density = 2.456115 g / cm^3
# Si number density = 24.617182 Si / 1000 Ang^3
#
#
#
# Elastic Constant Matrix: (Units=GPa)
#
#
# Indices 1 2 3 4 5 6 
#
# 1 81.1325 13.3148 43.2428 13.3748 6.7922 -19.6368
# 2 13.3148 67.9584 31.8328 16.3076 4.7691 0.8577
# 3 43.2428 31.8328 176.5523 26.2033 5.3764 -7.2159
# 4 13.3748 16.3076 26.2033 39.4106 -16.6665 0.8685
# 5 6.7922 4.7691 5.3764 -16.6665 31.5903 0.3015
# 6 -19.6368 0.8577 -7.2159 0.8685 0.3015 30.4782
#
#
#
# Elastic Compliance Matrix: (Units=1/GPa)
#
#
# Indices 1 2 3 4 5 6 
#
# 1 0.018554 -0.000043 -0.002606 -0.008170 -0.007961 0.011650
# 2 -0.000043 0.018360 -0.001658 -0.009672 -0.007578 -0.000586
# 3 -0.002606 -0.001658 0.007372 -0.004539 -0.002842 0.000271
# 4 -0.008170 -0.009672 -0.004539 0.047697 0.029227 -0.007715
# 5 -0.007961 -0.007578 -0.002842 0.029227 0.050480 -0.006921
# 6 0.011650 -0.000586 0.000271 -0.007715 -0.006921 0.040685
#
#
# Mechanical properties :
#
#
# Convention : Reuss Voigt Hill
#
# Bulk Modulus (GPa) = 28.03075 55.82488 41.92782
# Shear Modulus (GPa) = 24.55161 36.11266 30.33214
#
# Velocity S-wave (km/s) = 3.16149 3.83426 3.51401
# Velocity P-wave (km/s) = 4.97374 6.50604 5.79079
#
# Compressibility (1/GPa) = 0.03567511
#
# Stress axis : x y z
#
# Youngs Moduli (GPa) = 53.89561 54.46675 135.64066
#
# Poissons Ratio (x) = 0.00232 0.35343
# Poissons Ratio (y) = 0.00229 0.22483
# Poissons Ratio (z) = 0.14043 0.09028
#
# Static dielectric constant tensor:
#      x y z
#    x 2.140300 0.058880 -0.058830 
#    y 0.058880 2.084480 -0.076620 
#    z -0.058830 -0.076620 1.995310 
# 
# From -- ./inp_files/298942.got.cif
#   From: 2010.05.17/outbox.cif.g08.bks.cpg/sg2_150_cif.got.tgz:298942.got - 2010.06.03 11:33:40.
