data_PCOD9101830
_publ_section_title
;
Structure prediction by ZEFSAII (Michael W. Deem and Ramdas Pophale) SiO2 
 PCOD9101830
Probable space group: P -1
;
_chemical_formula_sum "Si O2"
_cell_formula_units_Z 16
_cell_length_a 15.040980
_cell_length_b 12.056513
_cell_length_c 10.352635
_cell_angle_alpha 133.433872
_cell_angle_beta 42.953330
_cell_angle_gamma 143.700882
_cell_volume 734.790578
_symmetry_space_group_name_H-M "P -1"
_symmetry_group_IT_number 2
_symmetry_cell_setting 'triclinic'
loop_
_space_group_symop_operation_xyz
x,y,z
-x,-y,-z
loop_
_atom_site_type_symbol
_atom_site_label
_atom_site_fract_x
_atom_site_fract_y
_atom_site_fract_z
Si Si1 0.178994 0.768221 0.301835
Si Si2 0.587602 0.693658 0.322295
Si Si3 0.946442 0.117511 0.269447
Si Si4 0.474627 0.815526 0.760394
Si Si5 0.878499 0.271476 0.945603
Si Si6 0.372728 0.639422 0.005257
Si Si7 0.516587 0.845624 0.290446
Si Si8 0.105302 0.932826 0.002028
O O1 0.199439 0.601457 0.133563
O O2 0.075356 0.746434 0.516355
O O3 0.365264 0.968899 0.271515
O O4 0.111838 0.788806 0.257017
O O5 0.768813 0.903362 0.296003
O O6 0.494050 0.681265 0.541272
O O7 0.489196 0.698385 0.311424
O O8 0.614394 0.533226 0.149865
O O9 0.983230 0.169862 0.122006
O O10 0.074492 0.091363 0.174283
O O11 0.307682 0.792348 0.890862
O O12 0.476088 0.769486 0.872875
O O13 0.933962 0.190707 0.928790
O O14 0.000000 0.500000 0.000000
O O15 0.419416 0.735601 0.175042
O O16 0.500000 0.000000 0.500000
O O17 0.705196 0.966594 0.144771
#
# Coordination Sequence:
#
# PCOD9101830 Si02
#       8
#     2   2   2   2   2   2   2   2
#     4  10  21  40  62  86 112 161 207 230 292 360
#     4  10  21  36  60  90 117 146 199 249 297 334
#     4   9  21  39  62  83 113 162 198 236 288 358
#     4  10  21  40  61  86 115 162 201 235 294 362
#     4  11  23  37  59  90 124 152 190 252 302 340
#     4  11  20  34  60  87 120 146 193 252 290 339
#     4  11  21  38  63  86 114 157 198 243 287 354
#     4  10  20  38  61  82 117 156 196 236 290 356
#
# _framework density 21.774913000000002
#
# number of rings (size 3 to 8) (size 9 to 14) (size 15 to 20)
#    0.000    1.750    0.000    6.750    3.500    0.500 
#    2.250    0.625    5.500    0.000    0.000    0.000 
#    0.000    0.000    0.000    0.000    0.000    0.000 
#
# Total GULP energy -89305.986170 kJ/mol
# GULP energy per Si atom -5581.624136 kJ/mol
# Density = 2.172535 g / cm^3
# Si number density = 21.774913 Si / 1000 Ang^3
#
#
#
# Elastic Constant Matrix: (Units=GPa)
#
#
# Indices 1 2 3 4 5 6 
#
# 1 123.0919 20.7655 48.9345 9.9131 10.9427 -33.0705
# 2 20.7655 31.0020 6.5929 9.7375 1.3848 -14.6531
# 3 48.9345 6.5929 146.6493 16.0478 13.3434 -26.7027
# 4 9.9131 9.7375 16.0478 22.7095 -3.5029 -7.1026
# 5 10.9427 1.3848 13.3434 -3.5029 25.8436 1.5747
# 6 -33.0705 -14.6531 -26.7027 -7.1026 1.5747 36.7309
#
#
#
# Elastic Compliance Matrix: (Units=1/GPa)
#
#
# Indices 1 2 3 4 5 6 
#
# 1 0.012130 -0.003433 -0.001914 -0.000594 -0.004546 0.008240
# 2 -0.003433 0.046968 0.004474 -0.017928 -0.006761 0.015721
# 3 -0.001914 0.004474 0.009614 -0.006889 -0.005690 0.005962
# 4 -0.000594 -0.017928 -0.006889 0.058198 0.012779 -0.001990
# 5 -0.004546 -0.006761 -0.005690 0.012779 0.046288 -0.010440
# 6 0.008240 0.015721 0.005962 -0.001990 -0.010440 0.045313
#
#
# Mechanical properties :
#
#
# Convention : Reuss Voigt Hill
#
# Bulk Modulus (GPa) = 14.93342 50.36990 32.65166
# Shear Modulus (GPa) = 20.61183 32.02016 26.31600
#
# Velocity S-wave (km/s) = 3.08000 3.83888 3.48019
# Velocity P-wave (km/s) = 4.41832 6.54459 5.58360
#
# Compressibility (1/GPa) = 0.06696389
#
# Stress axis : x y z
#
# Youngs Moduli (GPa) = 82.44024 21.29118 104.01687
#
# Poissons Ratio (x) = 0.07310 0.19910
# Poissons Ratio (y) = 0.28305 -0.46534
# Poissons Ratio (z) = 0.15780 -0.09525
#
# Static dielectric constant tensor:
#      x y z
#    x 1.854930 0.006720 0.031560 
#    y 0.006720 1.825560 0.020210 
#    z 0.031560 0.020210 1.810550 
# 
# From -- ./inp_files/308474.got.cif
#   From: 2010.05.17/outbox.cif.g08.bks.cpg/sg2_155_cif.got.tgz:308474.got - 2010.06.03 11:33:40.
