data_PCOD9101882
_publ_section_title
;
Structure prediction by ZEFSAII (Michael W. Deem and Ramdas Pophale) SiO2 
 PCOD9101882
Probable space group: P -1
;
_chemical_formula_sum "Si O2"
_cell_formula_units_Z 16
_cell_length_a 13.914375
_cell_length_b 5.369512
_cell_length_c 11.540744
_cell_angle_alpha 86.385871
_cell_angle_beta 44.848042
_cell_angle_gamma 95.282311
_cell_volume 595.307144
_symmetry_space_group_name_H-M "P -1"
_symmetry_group_IT_number 2
_symmetry_cell_setting 'triclinic'
loop_
_space_group_symop_operation_xyz
x,y,z
-x,-y,-z
loop_
_atom_site_type_symbol
_atom_site_label
_atom_site_fract_x
_atom_site_fract_y
_atom_site_fract_z
Si Si1 0.437008 0.679262 0.191635
Si Si2 0.216733 0.007242 0.566326
Si Si3 0.576499 0.225250 0.069698
Si Si4 0.889934 0.430048 0.766989
Si Si5 0.849042 0.703428 0.583375
Si Si6 0.494370 0.260433 0.428600
Si Si7 0.986489 0.748672 0.123415
Si Si8 0.216434 0.684290 0.786984
O O1 0.465851 0.744797 0.029854
O O2 0.275591 0.533364 0.340319
O O3 0.528868 0.474442 0.155149
O O4 0.491400 0.953427 0.197213
O O5 0.193627 0.050592 0.448061
O O6 0.350364 0.215052 0.485665
O O7 0.079581 0.076381 0.739696
O O8 0.242583 0.768929 0.627131
O O9 0.741639 0.246477 0.918942
O O10 0.858413 0.672423 0.714774
O O11 0.962078 0.457424 0.828889
O O12 0.002235 0.325413 0.594207
O O13 0.500000 0.500000 0.500000
O O14 0.650929 0.304772 0.246223
O O15 0.500000 0.000000 0.500000
O O16 0.870307 0.596605 0.143623
O O17 0.119274 0.852137 0.928410
#
# Coordination Sequence:
#
# PCOD9101882 Si02
#       8
#     2   2   2   2   2   2   2   2
#     4   9  18  36  58  86 113 167 203 260 301 370
#     4  10  20  38  61  86 123 160 206 257 322 375
#     4   9  18  36  60  81 122 155 213 252 310 360
#     4   9  19  38  61  90 126 167 212 259 317 382
#     4   9  19  38  61  90 127 166 210 260 317 386
#     4  10  20  38  63  91 124 157 207 262 316 375
#     4  10  20  38  61  85 123 160 208 258 315 379
#     4  10  21  37  61  90 118 158 209 261 320 372
#
# _framework density 26.876885000000001
#
# number of rings (size 3 to 8) (size 9 to 14) (size 15 to 20)
#    0.000    2.500    1.250    0.375    0.000    1.000 
#    9.000    3.125    0.000    0.000    0.000    0.000 
#    0.000    0.000    0.000    0.000    0.000    0.000 
#
# Total GULP energy -89314.973572 kJ/mol
# GULP energy per Si atom -5582.185848 kJ/mol
# Density = 2.681571 g / cm^3
# Si number density = 26.876885 Si / 1000 Ang^3
#
#
#
# Elastic Constant Matrix: (Units=GPa)
#
#
# Indices 1 2 3 4 5 6 
#
# 1 137.8595 26.0888 25.1696 -23.7758 0.2836 -27.1539
# 2 26.0888 127.8462 42.9801 -6.5638 -18.5824 -11.6398
# 3 25.1696 42.9801 111.9327 -15.1766 -19.5936 -12.0280
# 4 -23.7758 -6.5638 -15.1766 21.1313 1.1606 -4.5473
# 5 0.2836 -18.5824 -19.5936 1.1606 59.9180 -6.3165
# 6 -27.1539 -11.6398 -12.0280 -4.5473 -6.3165 26.1189
#
#
#
# Elastic Compliance Matrix: (Units=1/GPa)
#
#
# Indices 1 2 3 4 5 6 
#
# 1 0.015018 -0.000483 0.002644 0.023080 0.002434 0.021222
# 2 -0.000483 0.009510 -0.002611 0.001116 0.002426 0.003315
# 3 0.002644 -0.002611 0.013172 0.013774 0.004389 0.011111
# 4 0.023080 0.001116 0.013774 0.093651 0.008103 0.049098
# 5 0.002434 0.002426 0.004389 0.008103 0.019960 0.011871
# 6 0.021222 0.003315 0.011111 0.049098 0.011871 0.078362
#
#
# Mechanical properties :
#
#
# Convention : Reuss Voigt Hill
#
# Bulk Modulus (GPa) = 27.17346 62.90170 45.03758
# Shear Modulus (GPa) = 20.58987 40.32697 30.45842
#
# Velocity S-wave (km/s) = 2.77082 3.87774 3.37004
# Velocity P-wave (km/s) = 4.51319 6.59573 5.65122
#
# Compressibility (1/GPa) = 0.03680062
#
# Stress axis : x y z
#
# Youngs Moduli (GPa) = 66.58765 105.15477 75.91968
#
# Poissons Ratio (x) = 0.05075 -0.20075
# Poissons Ratio (y) = 0.03214 0.19823
# Poissons Ratio (z) = -0.17607 0.27456
#
# Static dielectric constant tensor:
#      x y z
#    x 2.120100 -0.057690 0.036240 
#    y -0.057690 2.101660 -0.026710 
#    z 0.036240 -0.026710 2.187990 
# 
# From -- ./inp_files/525340.got.cif
#   From: 2010.05.17/outbox.cif.g08.bks.cpg/sg2_263_cif.got.tgz:525340.got - 2010.06.03 11:33:40.
