data_PCOD9101105
_publ_section_title
;
Structure prediction by ZEFSAII (Michael W. Deem and Ramdas Pophale) SiO2 
 PCOD9101105
Probable space group: P -1
;
_chemical_formula_sum "Si O2"
_cell_formula_units_Z 16
_cell_length_a 9.881510
_cell_length_b 16.087868
_cell_length_c 12.106919
_cell_angle_alpha 102.140423
_cell_angle_beta 60.388082
_cell_angle_gamma 51.527600
_cell_volume 850.465651
_symmetry_space_group_name_H-M "P -1"
_symmetry_group_IT_number 2
_symmetry_cell_setting 'triclinic'
loop_
_space_group_symop_operation_xyz
x,y,z
-x,-y,-z
loop_
_atom_site_type_symbol
_atom_site_label
_atom_site_fract_x
_atom_site_fract_y
_atom_site_fract_z
Si Si1 0.770602 0.508724 0.162999
Si Si2 0.304606 0.259509 0.733810
Si Si3 0.754113 0.096133 0.929250
Si Si4 0.395924 0.178240 0.910078
Si Si5 0.458176 0.542333 0.656341
Si Si6 0.603371 0.126418 0.353718
Si Si7 0.216454 0.078123 0.973401
Si Si8 0.327500 0.380501 0.360029
O O1 0.650319 0.659689 0.254901
O O2 0.535384 0.546492 0.299491
O O3 0.045378 0.592643 0.053189
O O4 0.047986 0.372651 0.101076
O O5 0.473943 0.140776 0.737690
O O6 0.408949 0.184881 0.550896
O O7 0.595505 0.147772 0.892795
O O8 0.546059 0.250483 0.135864
O O9 0.076974 0.989259 0.763484
O O10 0.784898 0.991391 0.950213
O O11 0.389798 0.084626 0.929747
O O12 0.500000 0.500000 0.500000
O O13 0.675087 0.517176 0.595171
O O14 0.124672 0.735625 0.860317
O O15 0.452023 0.275621 0.390406
O O16 0.655378 0.028993 0.215522
O O17 0.000000 0.500000 0.500000
#
# Coordination Sequence:
#
# PCOD9101105 Si02
#       8
#     2   2   2   2   2   2   2   2
#     4   8  19  36  56  87 114 145 202 240 278 342
#     4   9  19  36  60  85 114 159 200 233 288 340
#     4  11  21  37  59  83 125 148 187 249 292 347
#     4   9  20  35  59  81 111 157 192 236 281 342
#     4  11  20  36  62  85 116 153 194 239 297 344
#     4  11  21  38  59  81 123 158 184 245 291 349
#     4  10  20  38  53  89 118 148 192 236 302 341
#     4  11  24  37  59  91 117 150 198 237 301 349
#
# _framework density 18.813220999999999
#
# number of rings (size 3 to 8) (size 9 to 14) (size 15 to 20)
#    0.750    1.250    2.500    1.875    5.250    1.000 
#    0.000    0.000    0.000    4.500    0.000    0.000 
#    0.000    0.000    0.000    0.000    0.000    0.000 
#
# Total GULP energy -89196.622519 kJ/mol
# GULP energy per Si atom -5574.788907 kJ/mol
# Density = 1.877040 g / cm^3
# Si number density = 18.813221 Si / 1000 Ang^3
#
#
#
# Elastic Constant Matrix: (Units=GPa)
#
#
# Indices 1 2 3 4 5 6 
#
# 1 80.8779 1.8075 -2.2273 -1.2350 -24.4944 6.0079
# 2 1.8075 21.1512 -1.7760 -7.7652 -2.9599 10.9068
# 3 -2.2273 -1.7760 43.4975 -14.6225 -5.8702 1.4269
# 4 -1.2350 -7.7652 -14.6225 25.1553 -4.4946 -2.6433
# 5 -24.4944 -2.9599 -5.8702 -4.4946 20.4771 -1.2688
# 6 6.0079 10.9068 1.4269 -2.6433 -1.2688 32.3278
#
#
#
# Elastic Compliance Matrix: (Units=1/GPa)
#
#
# Indices 1 2 3 4 5 6 
#
# 1 0.026448 0.017635 0.015853 0.022844 0.043249 -0.007999
# 2 0.017635 0.089605 0.030214 0.052468 0.052459 -0.028493
# 3 0.015853 0.030214 0.046390 0.044214 0.045728 -0.009777
# 4 0.022844 0.052468 0.044214 0.093352 0.067231 -0.013627
# 5 0.043249 0.052459 0.045728 0.067231 0.134966 -0.016960
# 6 -0.007999 -0.028493 -0.009777 -0.013627 -0.016960 0.040684
#
#
# Mechanical properties :
#
#
# Convention : Reuss Voigt Hill
#
# Bulk Modulus (GPa) = 3.45011 15.68166 9.56589
# Shear Modulus (GPa) = 12.47945 25.44019 18.95982
#
# Velocity S-wave (km/s) = 2.57832 3.68129 3.17802
# Velocity P-wave (km/s) = 3.27132 5.14030 4.30838
#
# Compressibility (1/GPa) = 0.28984542
#
# Stress axis : x y z
#
# Youngs Moduli (GPa) = 37.81003 11.16014 21.55615
#
# Poissons Ratio (x) = -0.19681 -0.34172
# Poissons Ratio (y) = -0.66677 -0.65129
# Poissons Ratio (z) = -0.59939 -0.33719
#
# Static dielectric constant tensor:
#      x y z
#    x 1.642990 0.011920 -0.000550 
#    y 0.011920 1.666320 -0.008300 
#    z -0.000550 -0.008300 1.673960 
# 
# From -- ./inp_files/403132.got.cif
#   From: 2010.05.17/outbox.cif.g08.bks.cpg/sg2_202_cif.got.tgz:403132.got - 2010.06.03 11:33:40.
