data_PCOD9101229
_publ_section_title
;
Structure prediction by ZEFSAII (Michael W. Deem and Ramdas Pophale) SiO2 
 PCOD9101229
Probable space group: P -1
;
_chemical_formula_sum "Si O2"
_cell_formula_units_Z 12
_cell_length_a 9.606987
_cell_length_b 8.163729
_cell_length_c 17.629566
_cell_angle_alpha 123.350227
_cell_angle_beta 38.452268
_cell_angle_gamma 145.823408
_cell_volume 463.554651
_symmetry_space_group_name_H-M "P -1"
_symmetry_group_IT_number 2
_symmetry_cell_setting 'triclinic'
loop_
_space_group_symop_operation_xyz
x,y,z
-x,-y,-z
loop_
_atom_site_type_symbol
_atom_site_label
_atom_site_fract_x
_atom_site_fract_y
_atom_site_fract_z
Si Si1 0.956844 0.266677 0.711862
Si Si2 0.138299 0.440837 0.517273
Si Si3 0.855607 0.884760 0.272429
Si Si4 0.212213 0.805667 0.943984
Si Si5 0.301153 0.474523 0.299273
Si Si6 0.704997 0.461939 0.940229
O O1 0.945221 0.494579 0.788159
O O2 0.132282 0.338771 0.575522
O O3 0.097988 0.263898 0.727682
O O4 0.553219 0.936555 0.793620
O O5 0.524037 0.782026 0.422822
O O6 0.111325 0.292698 0.414573
O O7 0.844217 0.410257 0.631023
O O8 0.702059 0.736005 0.217659
O O9 0.187057 0.242576 0.227674
O O10 0.958469 0.703718 0.959461
O O11 0.410116 0.095276 0.987313
O O12 0.000000 0.500000 0.000000
O O13 0.500000 0.500000 0.000000
#
# Coordination Sequence:
#
# PCOD9101229 Si02
#       6
#     2   2   2   2   2   2
#     4  10  24  37  66  94 123 161 216 249 315 375
#     4   9  20  39  58  91 127 167 200 251 297 372
#     4  10  20  38  57  90 125 166 199 250 301 365
#     4  10  23  44  67  89 126 160 211 266 322 371
#     4   9  21  36  60  81 136 164 201 243 308 354
#     4  10  23  45  67  91 125 162 211 268 325 367
#
# _framework density 25.886915999999999
#
# number of rings (size 3 to 8) (size 9 to 14) (size 15 to 20)
#    2.000    0.333    0.000    2.000    2.333    2.000 
#    3.000    0.000    0.000    0.000    0.000    0.000 
#    0.000    0.000    0.000    0.000    0.000    0.000 
#
# Total GULP energy -67004.939295 kJ/mol
# GULP energy per Si atom -5583.744941 kJ/mol
# Density = 2.582800 g / cm^3
# Si number density = 25.886916 Si / 1000 Ang^3
#
#
#
# Elastic Constant Matrix: (Units=GPa)
#
#
# Indices 1 2 3 4 5 6 
#
# 1 134.4019 31.5638 26.0796 3.6439 -26.5774 34.8472
# 2 31.5638 114.4811 20.3498 1.7027 0.7522 41.7156
# 3 26.0796 20.3498 63.1996 0.1038 0.4734 14.7226
# 4 3.6439 1.7027 0.1038 34.2163 4.1156 -9.2540
# 5 -26.5774 0.7522 0.4734 4.1156 51.5294 -4.6350
# 6 34.8472 41.7156 14.7226 -9.2540 -4.6350 50.4304
#
#
#
# Elastic Compliance Matrix: (Units=1/GPa)
#
#
# Indices 1 2 3 4 5 6 
#
# 1 0.010957 0.000051 -0.002957 -0.003679 0.005348 -0.006934
# 2 0.000051 0.013137 -0.001639 -0.003567 -0.000869 -0.011158
# 3 -0.002957 -0.001639 0.018060 0.000012 -0.001852 -0.002041
# 4 -0.003679 -0.003567 0.000012 0.033263 -0.003488 0.011273
# 5 0.005348 -0.000869 -0.001852 -0.003488 0.022381 -0.001019
# 6 -0.006934 -0.011158 -0.002041 0.011273 -0.001019 0.036421
#
#
# Mechanical properties :
#
#
# Convention : Reuss Voigt Hill
#
# Bulk Modulus (GPa) = 30.24452 52.00767 41.12609
# Shear Modulus (GPa) = 32.39766 42.84117 37.61942
#
# Velocity S-wave (km/s) = 3.54150 4.07250 3.81625
# Velocity P-wave (km/s) = 5.33214 6.49982 5.94472
#
# Compressibility (1/GPa) = 0.03306385
#
# Stress axis : x y z
#
# Youngs Moduli (GPa) = 91.26403 76.12060 55.37045
#
# Poissons Ratio (x) = -0.00386 0.16371
# Poissons Ratio (y) = -0.00463 0.09077
# Poissons Ratio (z) = 0.26984 0.12479
#
# Static dielectric constant tensor:
#      x y z
#    x 2.011750 0.030390 0.012640 
#    y 0.030390 2.048200 0.019570 
#    z 0.012640 0.019570 2.081340 
# 
# From -- ./inp_files/36251.got.cif
#   From: 2010.05.17/outbox.cif.g08.bks.cpg/sg2_19_cif.got.tgz:36251.got - 2010.06.03 11:33:40.
