data_PCOD9101768
_publ_section_title
;
Structure prediction by ZEFSAII (Michael W. Deem and Ramdas Pophale) SiO2 
 PCOD9101768
Probable space group: P -1
;
_chemical_formula_sum "Si O2"
_cell_formula_units_Z 14
_cell_length_a 10.625196
_cell_length_b 14.471416
_cell_length_c 8.255869
_cell_angle_alpha 133.262937
_cell_angle_beta 140.022576
_cell_angle_gamma 48.113146
_cell_volume 565.718448
_symmetry_space_group_name_H-M "P -1"
_symmetry_group_IT_number 2
_symmetry_cell_setting 'triclinic'
loop_
_space_group_symop_operation_xyz
x,y,z
-x,-y,-z
loop_
_atom_site_type_symbol
_atom_site_label
_atom_site_fract_x
_atom_site_fract_y
_atom_site_fract_z
Si Si1 0.297097 0.699612 0.520555
Si Si2 0.635677 0.182609 0.619930
Si Si3 0.274032 0.402075 0.096441
Si Si4 0.978949 0.043155 0.341839
Si Si5 0.101307 0.684384 0.768262
Si Si6 0.932133 0.542569 0.715708
Si Si7 0.297866 0.088812 0.307344
O O1 0.332542 0.751191 0.439226
O O2 0.285304 0.552027 0.314809
O O3 0.500540 0.695456 0.815978
O O4 0.103322 0.798279 0.536328
O O5 0.408151 0.176779 0.414685
O O6 0.799124 0.034698 0.602547
O O7 0.716126 0.258703 0.931309
O O8 0.170445 0.376634 0.130472
O O9 0.128455 0.422154 0.825178
O O10 0.000000 0.000000 0.500000
O O11 0.809944 0.993873 0.016749
O O12 0.014037 0.628024 0.773510
O O13 0.901129 0.810266 0.677914
O O14 0.194902 0.548103 0.595395
O O15 0.500000 0.000000 0.500000
#
# Coordination Sequence:
#
# PCOD9101768 Si02
#       7
#     2   2   2   2   2   2   2
#     4  10  20  38  60  92 120 158 202 256 305 363
#     4  10  21  43  63  87 127 164 200 254 312 371
#     4  10  21  36  63  91 124 152 211 256 297 359
#     4   9  22  41  64  90 123 161 205 253 314 368
#     4  10  22  42  64  88 129 163 203 247 318 372
#     4  10  21  40  60  92 120 168 198 253 309 365
#     4  11  25  40  63  94 122 161 212 258 304 373
#
# _framework density 24.747292999999999
#
# number of rings (size 3 to 8) (size 9 to 14) (size 15 to 20)
#    0.000    2.000    1.429    0.857    2.000    6.857 
#    5.143    2.143    0.000    0.000    0.000    0.000 
#    0.000    0.000    0.000    0.000    0.000    0.000 
#
# Total GULP energy -78225.792857 kJ/mol
# GULP energy per Si atom -5587.556633 kJ/mol
# Density = 2.469097 g / cm^3
# Si number density = 24.747293 Si / 1000 Ang^3
#
#
#
# Elastic Constant Matrix: (Units=GPa)
#
#
# Indices 1 2 3 4 5 6 
#
# 1 66.6841 13.3636 12.9265 -3.6104 3.1624 6.5683
# 2 13.3636 60.8853 17.0887 -12.5448 -5.8103 1.9794
# 3 12.9265 17.0887 70.8600 -2.9839 5.3377 -14.2901
# 4 -3.6104 -12.5448 -2.9839 38.7421 -1.9501 -2.2099
# 5 3.1624 -5.8103 5.3377 -1.9501 24.5124 -5.0026
# 6 6.5683 1.9794 -14.2901 -2.2099 -5.0026 32.4843
#
#
#
# Elastic Compliance Matrix: (Units=1/GPa)
#
#
# Indices 1 2 3 4 5 6 
#
# 1 0.016856 -0.002979 -0.003148 -0.000091 -0.003247 -0.005118
# 2 -0.002979 0.020388 -0.004877 0.006198 0.006494 -0.001364
# 3 -0.003148 -0.004877 0.017745 -0.000182 -0.002940 0.008275
# 4 -0.000091 0.006198 -0.000182 0.028128 0.004191 0.002120
# 5 -0.003247 0.006494 -0.002940 0.004191 0.044989 0.006181
# 6 -0.005118 -0.001364 0.008275 0.002120 0.006181 0.036638
#
#
# Mechanical properties :
#
#
# Convention : Reuss Voigt Hill
#
# Bulk Modulus (GPa) = 30.31863 31.68744 31.00304
# Shear Modulus (GPa) = 25.28512 29.48448 27.38480
#
# Velocity S-wave (km/s) = 3.19992 3.45544 3.33013
# Velocity P-wave (km/s) = 5.09221 5.36212 5.22890
#
# Compressibility (1/GPa) = 0.03298302
#
# Stress axis : x y z
#
# Youngs Moduli (GPa) = 59.32479 49.04915 56.35333
#
# Poissons Ratio (x) = 0.14609 0.17740
# Poissons Ratio (y) = 0.17670 0.27481
# Poissons Ratio (z) = 0.18676 0.23919
#
# Static dielectric constant tensor:
#      x y z
#    x 1.971020 0.057410 -0.039200 
#    y 0.057410 2.003650 -0.044570 
#    z -0.039200 -0.044570 2.057560 
# 
# From -- ./inp_files/235175.got.cif
#   From: 2010.05.17/outbox.cif.g08.bks.cpg/sg2_118_cif.got.tgz:235175.got - 2010.06.03 11:33:40.
