data_PCOD9101046
_publ_section_title
;
Structure prediction by ZEFSAII (Michael W. Deem and Ramdas Pophale) SiO2 
 PCOD9101046
Probable space group: P -1
;
_chemical_formula_sum "Si O2"
_cell_formula_units_Z 14
_cell_length_a 21.600107
_cell_length_b 8.717331
_cell_length_c 5.302850
_cell_angle_alpha 55.575745
_cell_angle_beta 72.658085
_cell_angle_gamma 48.258810
_cell_volume 609.572977
_symmetry_space_group_name_H-M "P -1"
_symmetry_group_IT_number 2
_symmetry_cell_setting 'triclinic'
loop_
_space_group_symop_operation_xyz
x,y,z
-x,-y,-z
loop_
_atom_site_type_symbol
_atom_site_label
_atom_site_fract_x
_atom_site_fract_y
_atom_site_fract_z
Si Si1 0.232334 0.074295 0.910937
Si Si2 0.948913 0.546189 0.269118
Si Si3 0.507426 0.112575 0.140062
Si Si4 0.641717 0.326711 0.210108
Si Si5 0.339642 0.054648 0.164539
Si Si6 0.830738 0.434449 0.596802
Si Si7 0.758925 0.409702 0.190777
O O1 0.303632 0.808079 0.980351
O O2 0.137663 0.179481 0.899213
O O3 0.229537 0.273358 0.569430
O O4 0.253309 0.116737 0.119482
O O5 0.916521 0.389961 0.472274
O O6 0.000000 0.500000 0.500000
O O7 0.000000 0.500000 0.000000
O O8 0.500000 0.000000 0.500000
O O9 0.437932 0.398644 0.973251
O O10 0.598505 0.038259 0.062490
O O11 0.500000 0.000000 0.000000
O O12 0.618009 0.168006 0.494352
O O13 0.709963 0.306257 0.323608
O O14 0.314753 0.306278 0.034497
O O15 0.823735 0.329263 0.958191
O O16 0.798860 0.380285 0.441170
#
# Coordination Sequence:
#
# PCOD9101046 Si02
#       7
#     2   2   2   2   2   2   2
#     4   9  24  38  71 100 133 176 238 271 345 401
#     4  10  20  37  69 103 135 178 226 275 346 415
#     4  12  30  46  69 100 143 186 231 287 351 401
#     4  12  26  43  75  99 137 188 234 292 338 406
#     4  11  24  47  67 102 138 180 240 282 343 416
#     4   9  21  40  62 101 131 174 221 279 328 411
#     4  11  22  40  69  94 140 174 230 277 342 399
#
# _framework density 22.966898
#
# number of rings (size 3 to 8) (size 9 to 14) (size 15 to 20)
#    0.857    0.571    2.857    1.286   12.000    0.571 
#    0.000    0.000    0.000    5.143    0.000    0.000 
#    0.000    0.000    0.000    0.000    0.000    0.000 
#
# Total GULP energy -78124.053527 kJ/mol
# GULP energy per Si atom -5580.289538 kJ/mol
# Density = 2.291462 g / cm^3
# Si number density = 22.966898 Si / 1000 Ang^3
#
#
#
# Elastic Constant Matrix: (Units=GPa)
#
#
# Indices 1 2 3 4 5 6 
#
# 1 92.7846 6.9744 19.4306 13.4529 -2.2116 3.4716
# 2 6.9744 61.0498 24.7714 12.9061 0.5448 4.7223
# 3 19.4306 24.7714 127.0241 23.7950 -12.0266 0.4423
# 4 13.4529 12.9061 23.7950 36.8612 3.9085 -2.8202
# 5 -2.2116 0.5448 -12.0266 3.9085 31.7456 6.1621
# 6 3.4716 4.7223 0.4423 -2.8202 6.1621 36.3356
#
#
#
# Elastic Compliance Matrix: (Units=1/GPa)
#
#
# Indices 1 2 3 4 5 6 
#
# 1 0.011627 -0.000017 -0.000920 -0.003900 0.001255 -0.001613
# 2 -0.000017 0.018760 -0.002732 -0.004987 -0.000209 -0.002755
# 3 -0.000920 -0.002732 0.010076 -0.005780 0.004691 -0.000924
# 4 -0.003900 -0.004987 -0.005780 0.035240 -0.007711 0.005134
# 5 0.001255 -0.000209 0.004691 -0.007711 0.035636 -0.006792
# 6 -0.001613 -0.002755 -0.000924 0.005134 -0.006792 0.029595
#
#
# Mechanical properties :
#
#
# Convention : Reuss Voigt Hill
#
# Bulk Modulus (GPa) = 30.18835 42.57904 36.38370
# Shear Modulus (GPa) = 31.38450 36.30062 33.84256
#
# Velocity S-wave (km/s) = 3.70064 3.97994 3.84283
# Velocity P-wave (km/s) = 5.60647 6.30075 5.96372
#
# Compressibility (1/GPa) = 0.03312536
#
# Stress axis : x y z
#
# Youngs Moduli (GPa) = 86.00391 53.30569 99.24384
#
# Poissons Ratio (x) = 0.00090 0.09134
# Poissons Ratio (y) = 0.00145 0.27111
# Poissons Ratio (z) = 0.07915 0.14562
#
# Static dielectric constant tensor:
#      x y z
#    x 1.940260 -0.018670 -0.024840 
#    y -0.018670 1.867860 0.009400 
#    z -0.024840 0.009400 1.904460 
# 
# From -- ./inp_files/115341.got.cif
#   From: 2010.05.17/outbox.cif.g08.bks.cpg/sg2_58_cif.got.tgz:115341.got - 2010.06.03 11:33:40.
