data_PCOD9101015
_publ_section_title
;
Structure prediction by ZEFSAII (Michael W. Deem and Ramdas Pophale) SiO2 
 PCOD9101015
Probable space group: P -1
;
_chemical_formula_sum "Si O2"
_cell_formula_units_Z 16
_cell_length_a 8.366466
_cell_length_b 15.778169
_cell_length_c 11.587650
_cell_angle_alpha 146.827762
_cell_angle_beta 67.526868
_cell_angle_gamma 111.892856
_cell_volume 769.156015
_symmetry_space_group_name_H-M "P -1"
_symmetry_group_IT_number 2
_symmetry_cell_setting 'triclinic'
loop_
_space_group_symop_operation_xyz
x,y,z
-x,-y,-z
loop_
_atom_site_type_symbol
_atom_site_label
_atom_site_fract_x
_atom_site_fract_y
_atom_site_fract_z
Si Si1 0.286715 0.328925 0.300960
Si Si2 0.064306 0.833333 0.759158
Si Si3 0.877896 0.364364 0.944867
Si Si4 0.420890 0.457595 0.658988
Si Si5 0.560270 0.811120 0.467657
Si Si6 0.573405 0.001796 0.108141
Si Si7 0.899983 0.869353 0.295495
Si Si8 0.197424 0.859500 0.506948
O O1 0.333125 0.376546 0.475434
O O2 0.397770 0.451633 0.329359
O O3 0.079257 0.298678 0.304610
O O4 0.357896 0.161925 0.070181
O O5 0.265725 0.861031 0.772905
O O6 0.072347 0.808757 0.590839
O O7 0.000000 0.000000 0.000000
O O8 0.829861 0.241874 0.715778
O O9 0.982187 0.272184 0.905715
O O10 0.712920 0.430311 0.123364
O O11 0.000000 0.500000 0.000000
O O12 0.453716 0.335634 0.610757
O O13 0.574657 0.959674 0.718131
O O14 0.725237 0.804734 0.335354
O O15 0.391151 0.837941 0.470683
O O16 0.500000 0.000000 0.000000
O O17 0.841837 0.964345 0.309878
O O18 0.000000 0.000000 0.500000
#
# Coordination Sequence:
#
# PCOD9101015 Si02
#       8
#     2   2   2   2   2   2   2   2
#     4  10  22  41  64  93 131 170 220 267 315 394
#     4   9  20  40  63  93 125 162 210 272 322 369
#     4  11  22  42  64  91 128 173 212 259 321 384
#     4  11  23  40  66  94 134 176 215 259 330 393
#     4  11  22  42  64  93 130 167 211 268 331 379
#     4  10  20  37  68  93 122 167 216 272 321 378
#     4  10  23  39  64  92 122 164 214 268 313 378
#     4  10  23  41  64  95 127 161 215 269 321 379
#
# _framework density 20.802019999999999
#
# number of rings (size 3 to 8) (size 9 to 14) (size 15 to 20)
#    0.000    1.750    2.500    1.125    5.250    0.500 
#    2.250    2.500    0.000    0.000    0.000    0.000 
#    0.000    0.000    0.000    0.000    0.000    0.000 
#
# Total GULP energy -89285.203329 kJ/mol
# GULP energy per Si atom -5580.325208 kJ/mol
# Density = 2.075467 g / cm^3
# Si number density = 20.802020 Si / 1000 Ang^3
#
#
#
# Elastic Constant Matrix: (Units=GPa)
#
#
# Indices 1 2 3 4 5 6 
#
# 1 79.1987 45.3339 24.1462 8.0996 -9.1734 -0.2196
# 2 45.3339 95.5765 20.7000 11.6124 -0.8176 6.7709
# 3 24.1462 20.7000 83.4055 -5.9192 -18.8366 -4.2133
# 4 8.0996 11.6124 -5.9192 33.2850 3.2361 -2.8015
# 5 -9.1734 -0.8176 -18.8366 3.2361 34.8511 6.6310
# 6 -0.2196 6.7709 -4.2133 -2.8015 6.6310 33.7917
#
#
#
# Elastic Compliance Matrix: (Units=1/GPa)
#
#
# Indices 1 2 3 4 5 6 
#
# 1 0.018691 -0.007945 -0.002842 -0.002566 0.003342 0.000490
# 2 -0.007945 0.015470 -0.002454 -0.003987 -0.002040 -0.003388
# 3 -0.002842 -0.002454 0.015303 0.003715 0.006865 0.001342
# 4 -0.002566 -0.003987 0.003715 0.033367 -0.002724 0.004546
# 5 0.003342 -0.002040 0.006865 -0.002724 0.034578 -0.005725
# 6 0.000490 -0.003388 0.001342 0.004546 -0.005725 0.031943
#
#
# Mechanical properties :
#
#
# Convention : Reuss Voigt Hill
#
# Bulk Modulus (GPa) = 43.51042 48.72679 46.11861
# Shear Modulus (GPa) = 27.24874 31.58559 29.41716
#
# Velocity S-wave (km/s) = 3.62319 3.90088 3.76460
# Velocity P-wave (km/s) = 6.20203 6.61544 6.41207
#
# Compressibility (1/GPa) = 0.02298300
#
# Stress axis : x y z
#
# Youngs Moduli (GPa) = 53.50055 64.64293 65.34499
#
# Poissons Ratio (x) = 0.51356 0.18571
# Poissons Ratio (y) = 0.42504 0.16036
# Poissons Ratio (z) = 0.15205 0.15864
#
# Static dielectric constant tensor:
#      x y z
#    x 1.751460 0.010450 0.010100 
#    y 0.010450 1.738460 0.010500 
#    z 0.010100 0.010500 1.753400 
# 
# From -- ./inp_files/277963.got.cif
#   From: 2010.05.17/outbox.cif.g08.bks.cpg/sg2_139_cif.got.tgz:277963.got - 2010.06.03 11:33:40.
