data_PCOD9101171
_publ_section_title
;
Structure prediction by ZEFSAII (Michael W. Deem and Ramdas Pophale) SiO2 
 PCOD9101171
Probable space group: P -1
;
_chemical_formula_sum "Si O2"
_cell_formula_units_Z 14
_cell_length_a 18.042468
_cell_length_b 6.393819
_cell_length_c 8.748576
_cell_angle_alpha 84.190996
_cell_angle_beta 37.704588
_cell_angle_gamma 78.633468
_cell_volume 602.609221
_symmetry_space_group_name_H-M "P -1"
_symmetry_group_IT_number 2
_symmetry_cell_setting 'triclinic'
loop_
_space_group_symop_operation_xyz
x,y,z
-x,-y,-z
loop_
_atom_site_type_symbol
_atom_site_label
_atom_site_fract_x
_atom_site_fract_y
_atom_site_fract_z
Si Si1 0.536281 0.222383 0.450783
Si Si2 0.136848 0.045894 0.530388
Si Si3 0.339176 0.542284 0.579158
Si Si4 0.270325 0.672822 0.118136
Si Si5 0.902107 0.426491 0.847412
Si Si6 0.702438 0.633909 0.659028
Si Si7 0.962397 0.339177 0.199883
O O1 0.411019 0.389009 0.604185
O O2 0.594365 0.256333 0.519280
O O3 0.500000 0.000000 0.500000
O O4 0.638748 0.247940 0.156106
O O5 0.250341 0.143795 0.409949
O O6 0.024976 0.241320 0.655704
O O7 0.199182 0.885250 0.307231
O O8 0.067126 0.894471 0.760396
O O9 0.355812 0.411292 0.404315
O O10 0.197142 0.610409 0.857550
O O11 0.169915 0.573184 0.192894
O O12 0.350622 0.479773 0.103048
O O13 0.941513 0.647008 0.820731
O O14 0.831640 0.468414 0.454992
O O15 0.000000 0.500000 0.000000
#
# Coordination Sequence:
#
# PCOD9101171 Si02
#       7
#     2   2   2   2   2   2   2
#     4  10  24  44  69  90 118 161 216 260 313 369
#     4  10  23  36  63  92 130 168 205 243 310 379
#     4  10  22  43  63  94 119 163 209 266 304 361
#     4  10  23  42  59  92 129 164 204 259 309 369
#     4  10  21  38  63  90 128 168 205 251 307 362
#     4  10  22  40  61  91 129 165 204 253 314 362
#     4  10  20  38  56  93 129 163 205 249 300 364
#
# _framework density 23.232301
#
# number of rings (size 3 to 8) (size 9 to 14) (size 15 to 20)
#    0.000    2.000    1.429    0.429    0.000   17.143 
#    0.000    1.429    0.000    0.000    0.000    0.000 
#    0.000    0.000    0.000    0.000    0.000    0.000 
#
# Total GULP energy -77971.199574 kJ/mol
# GULP energy per Si atom -5569.371398 kJ/mol
# Density = 2.317942 g / cm^3
# Si number density = 23.232301 Si / 1000 Ang^3
#
#
#
# Elastic Constant Matrix: (Units=GPa)
#
#
# Indices 1 2 3 4 5 6 
#
# 1 123.0736 41.7520 26.6041 -10.4720 3.9168 41.0340
# 2 41.7520 100.3323 37.1045 -17.2420 2.8835 31.1437
# 3 26.6041 37.1045 95.5811 -0.4864 1.5279 6.1759
# 4 -10.4720 -17.2420 -0.4864 37.7458 1.4907 -8.1357
# 5 3.9168 2.8835 1.5279 1.4907 31.4356 1.0847
# 6 41.0340 31.1437 6.1759 -8.1357 1.0847 39.9948
#
#
#
# Elastic Compliance Matrix: (Units=1/GPa)
#
#
# Indices 1 2 3 4 5 6 
#
# 1 0.013123 -0.000426 -0.002656 0.000751 -0.001070 -0.012540
# 2 -0.000426 0.016284 -0.005492 0.005063 -0.001057 -0.010336
# 3 -0.002656 -0.005492 0.013026 -0.002101 0.000144 0.004559
# 4 0.000751 0.005063 -0.002101 0.029418 -0.001908 0.001647
# 5 -0.001070 -0.001057 0.000144 -0.001908 0.032103 0.000640
# 6 -0.012540 -0.010336 0.004559 0.001647 0.000640 0.045531
#
#
# Mechanical properties :
#
#
# Convention : Reuss Voigt Hill
#
# Bulk Modulus (GPa) = 39.55071 58.87868 49.21470
# Shear Modulus (GPa) = 28.56122 36.07034 32.31578
#
# Velocity S-wave (km/s) = 3.51005 3.94457 3.73364
# Velocity P-wave (km/s) = 5.78690 6.79299 6.31003
#
# Compressibility (1/GPa) = 0.02528400
#
# Stress axis : x y z
#
# Youngs Moduli (GPa) = 76.20282 61.40819 76.76882
#
# Poissons Ratio (x) = 0.02619 0.20389
# Poissons Ratio (y) = 0.03250 0.42164
# Poissons Ratio (z) = 0.20239 0.33728
#
# Static dielectric constant tensor:
#      x y z
#    x 2.157080 -0.050510 0.358560 
#    y -0.050510 2.069920 -0.204090 
#    z 0.358560 -0.204090 2.355650 
# 
# From -- ./inp_files/323643.got.cif
#   From: 2010.05.17/outbox.cif.g08.bks.cpg/sg2_162_cif.got.tgz:323643.got - 2010.06.03 11:33:40.
