data_PCOD9101696
_publ_section_title
;
Structure prediction by ZEFSAII (Michael W. Deem and Ramdas Pophale) SiO2 
 PCOD9101696
Probable space group: P -1
;
_chemical_formula_sum "Si O2"
_cell_formula_units_Z 16
_cell_length_a 14.501261
_cell_length_b 18.568082
_cell_length_c 8.903132
_cell_angle_alpha 122.120347
_cell_angle_beta 69.935032
_cell_angle_gamma 158.242896
_cell_volume 660.154569
_symmetry_space_group_name_H-M "P -1"
_symmetry_group_IT_number 2
_symmetry_cell_setting 'triclinic'
loop_
_space_group_symop_operation_xyz
x,y,z
-x,-y,-z
loop_
_atom_site_type_symbol
_atom_site_label
_atom_site_fract_x
_atom_site_fract_y
_atom_site_fract_z
Si Si1 0.866730 0.969952 0.138474
Si Si2 0.359529 0.802251 0.428587
Si Si3 0.193930 0.550661 0.669164
Si Si4 0.386164 0.986600 0.147792
Si Si5 0.321936 0.438207 0.952445
Si Si6 0.199949 0.403540 0.298711
Si Si7 0.857882 0.971414 0.505455
Si Si8 0.853879 0.472017 0.997834
O O1 0.891744 0.003490 0.342411
O O2 0.032041 0.186407 0.220025
O O3 0.536914 0.671512 0.995554
O O4 0.000000 0.000000 0.000000
O O5 0.482918 0.892608 0.624459
O O6 0.024551 0.549076 0.346394
O O7 0.500000 0.000000 0.500000
O O8 0.391964 0.755103 0.232716
O O9 0.508446 0.843493 0.803339
O O10 0.088185 0.395289 0.438041
O O11 0.187140 0.516389 0.807103
O O12 0.068553 0.702852 0.041500
O O13 0.500000 0.000000 0.000000
O O14 0.190010 0.380230 0.102160
O O15 0.500000 0.500000 0.000000
O O16 0.061012 0.201918 0.730888
O O17 0.540382 0.700863 0.447869
O O18 0.000000 0.000000 0.500000
O O19 0.000000 0.500000 0.000000
#
# Coordination Sequence:
#
# PCOD9101696 Si02
#       8
#     2   2   2   2   2   2   2   2
#     4  11  21  39  71  93 124 171 217 251 316 380
#     4  11  20  40  66  91 119 166 213 252 305 381
#     4  11  24  42  62  93 133 157 205 271 313 360
#     4  12  21  39  69  89 117 168 217 248 308 380
#     4  11  21  43  64  94 130 164 214 266 302 383
#     4  11  25  43  61  97 135 164 209 270 319 366
#     4  11  21  41  68  93 128 167 215 260 309 386
#     4  10  20  38  60  88 123 157 206 256 300 374
#
# _framework density 24.236747999999999
#
# number of rings (size 3 to 8) (size 9 to 14) (size 15 to 20)
#    0.000    1.000    8.750    0.375    0.000    5.000 
#    4.500    1.250    0.000    0.000    0.000    0.000 
#    0.000    0.000    0.000    0.000    0.000    0.000 
#
# Total GULP energy -89223.125059 kJ/mol
# GULP energy per Si atom -5576.445316 kJ/mol
# Density = 2.418158 g / cm^3
# Si number density = 24.236748 Si / 1000 Ang^3
#
#
#
# Elastic Constant Matrix: (Units=GPa)
#
#
# Indices 1 2 3 4 5 6 
#
# 1 54.4286 29.2628 14.4409 2.7197 -6.4441 -7.9423
# 2 29.2628 183.8063 39.3435 28.1081 -8.9086 -26.3445
# 3 14.4409 39.3435 164.3244 22.7531 -15.6289 7.7992
# 4 2.7197 28.1081 22.7531 50.4896 0.7817 -6.3439
# 5 -6.4441 -8.9086 -15.6289 0.7817 40.6018 10.6558
# 6 -7.9423 -26.3445 7.7992 -6.3439 10.6558 19.7465
#
#
#
# Elastic Compliance Matrix: (Units=1/GPa)
#
#
# Indices 1 2 3 4 5 6 
#
# 1 0.020980 -0.002275 -0.001811 0.001759 0.000403 0.006466
# 2 -0.002275 0.008104 -0.002255 -0.001891 -0.002430 0.011491
# 3 -0.001811 -0.002255 0.008384 -0.003925 0.005477 -0.011265
# 4 0.001759 -0.001891 -0.003925 0.023856 -0.004716 0.009943
# 5 0.000403 -0.002430 0.005477 -0.004716 0.032775 -0.024445
# 6 0.006466 0.011491 -0.011265 0.009943 -0.024445 0.089408
#
#
# Mechanical properties :
#
#
# Convention : Reuss Voigt Hill
#
# Bulk Modulus (GPa) = 40.34740 63.18375 51.76557
# Shear Modulus (GPa) = 24.45598 43.46839 33.96218
#
# Velocity S-wave (km/s) = 3.17999 4.23956 3.74741
# Velocity P-wave (km/s) = 5.49240 7.07751 6.33473
#
# Compressibility (1/GPa) = 0.02478475
#
# Stress axis : x y z
#
# Youngs Moduli (GPa) = 47.66506 123.39910 119.27967
#
# Poissons Ratio (x) = 0.28074 0.21603
# Poissons Ratio (y) = 0.10844 0.26897
# Poissons Ratio (z) = 0.08633 0.27826
#
# Static dielectric constant tensor:
#      x y z
#    x 2.058030 0.068830 0.021480 
#    y 0.068830 1.951140 -0.064010 
#    z 0.021480 -0.064010 2.066320 
# 
# From -- ./inp_files/337826.got.cif
#   From: 2010.05.17/outbox.cif.g08.bks.cpg/sg2_169_cif.got.tgz:337826.got - 2010.06.03 11:33:40.
