data_PCOD9101149
_publ_section_title
;
Structure prediction by ZEFSAII (Michael W. Deem and Ramdas Pophale) SiO2 
 PCOD9101149
Probable space group: P -1
;
_chemical_formula_sum "Si O2"
_cell_formula_units_Z 16
_cell_length_a 8.035568
_cell_length_b 18.231107
_cell_length_c 7.956822
_cell_angle_alpha 54.389428
_cell_angle_beta 117.950374
_cell_angle_gamma 80.657651
_cell_volume 665.866217
_symmetry_space_group_name_H-M "P -1"
_symmetry_group_IT_number 2
_symmetry_cell_setting 'triclinic'
loop_
_space_group_symop_operation_xyz
x,y,z
-x,-y,-z
loop_
_atom_site_type_symbol
_atom_site_label
_atom_site_fract_x
_atom_site_fract_y
_atom_site_fract_z
Si Si1 0.257441 0.199030 0.291665
Si Si2 0.069246 0.446472 0.884004
Si Si3 0.493663 0.403783 0.304623
Si Si4 0.421661 0.326916 0.681031
Si Si5 0.834949 0.966618 0.517072
Si Si6 0.522195 0.604827 0.062508
Si Si7 0.304522 0.171070 0.944679
Si Si8 0.205407 0.007584 0.136932
O O1 0.118673 0.150480 0.349642
O O2 0.260934 0.200517 0.085138
O O3 0.528567 0.109230 0.604589
O O4 0.140001 0.324889 0.126848
O O5 0.220268 0.428201 0.813843
O O6 0.795069 0.539552 0.602144
O O7 0.211261 0.471175 0.045966
O O8 0.564823 0.310437 0.602930
O O9 0.538964 0.493524 0.257892
O O10 0.600382 0.355344 0.233404
O O11 0.566780 0.308335 0.942659
O O12 0.292657 0.268200 0.710689
O O13 0.810263 0.974170 0.695489
O O14 0.577644 0.064782 0.194786
O O15 0.000000 0.000000 0.500000
O O16 0.174058 0.117336 0.900125
O O17 0.000000 0.000000 0.000000
#
# Coordination Sequence:
#
# PCOD9101149 Si02
#       8
#     2   2   2   2   2   2   2   2
#     4   9  18  38  62  78 115 157 187 232 293 349
#     4  10  20  38  56  85 118 153 189 236 289 347
#     4   9  21  38  53  82 120 153 195 238 277 341
#     4  12  20  37  61  86 119 153 198 230 288 356
#     4   9  19  40  60  82 112 147 195 240 287 344
#     4   9  20  38  56  77 119 160 189 236 283 337
#     4   9  19  37  60  82 113 155 189 235 288 349
#     4   9  19  40  60  83 110 148 196 238 290 344
#
# _framework density 24.028853000000002
#
# number of rings (size 3 to 8) (size 9 to 14) (size 15 to 20)
#    0.750    1.750    1.250    2.625    0.000    0.000 
#   13.500    1.250    0.000    0.000    0.000    0.000 
#    0.000    0.000    0.000    0.000    0.000    0.000 
#
# Total GULP energy -89275.448549 kJ/mol
# GULP energy per Si atom -5579.715534 kJ/mol
# Density = 2.397416 g / cm^3
# Si number density = 24.028853 Si / 1000 Ang^3
#
#
#
# Elastic Constant Matrix: (Units=GPa)
#
#
# Indices 1 2 3 4 5 6 
#
# 1 100.4923 46.8065 38.5188 -15.6086 -21.7673 34.7235
# 2 46.8065 96.7783 47.2740 -20.2464 -11.5924 42.8770
# 3 38.5188 47.2740 60.7793 -15.5137 -14.9797 10.4987
# 4 -15.6086 -20.2464 -15.5137 33.4467 1.2843 -13.1916
# 5 -21.7673 -11.5924 -14.9797 1.2843 48.2471 -0.1471
# 6 34.7235 42.8770 10.4987 -13.1916 -0.1471 42.1103
#
#
#
# Elastic Compliance Matrix: (Units=1/GPa)
#
#
# Indices 1 2 3 4 5 6 
#
# 1 0.020015 0.005341 -0.012147 -0.000868 0.006507 -0.019164
# 2 0.005341 0.034768 -0.024038 -0.001216 0.003228 -0.034182
# 3 -0.012147 -0.024038 0.040857 0.009437 0.001262 0.027266
# 4 -0.000868 -0.001216 0.009437 0.037571 0.001281 0.011376
# 5 0.006507 0.003228 0.001262 0.001281 0.024770 -0.008479
# 6 -0.019164 -0.034182 0.027266 0.011376 -0.008479 0.071090
#
#
# Mechanical properties :
#
#
# Convention : Reuss Voigt Hill
#
# Bulk Modulus (GPa) = 29.45165 58.13873 43.79519
# Shear Modulus (GPa) = 16.55216 33.12421 24.83819
#
# Velocity S-wave (km/s) = 2.62743 3.71687 3.21858
# Velocity P-wave (km/s) = 4.63551 6.53208 5.66374
#
# Compressibility (1/GPa) = 0.03395395
#
# Stress axis : x y z
#
# Youngs Moduli (GPa) = 49.96156 28.76234 24.47548
#
# Poissons Ratio (x) = -0.15362 0.29730
# Poissons Ratio (y) = -0.26685 0.58833
# Poissons Ratio (z) = 0.60687 0.69138
#
# Static dielectric constant tensor:
#      x y z
#    x 1.980720 -0.057880 -0.084530 
#    y -0.057880 1.966260 0.029150 
#    z -0.084530 0.029150 1.927250 
# 
# From -- ./inp_files/216812.got.cif
#   From: 2010.05.17/outbox.cif.g08.bks.cpg/sg2_109_cif.got.tgz:216812.got - 2010.06.03 11:33:40.
