data_PCOD9101056
_publ_section_title
;
Structure prediction by ZEFSAII (Michael W. Deem and Ramdas Pophale) SiO2 
 PCOD9101056
Probable space group: P -1
;
_chemical_formula_sum "Si O2"
_cell_formula_units_Z 14
_cell_length_a 11.094850
_cell_length_b 13.888165
_cell_length_c 7.931789
_cell_angle_alpha 66.799911
_cell_angle_beta 126.964941
_cell_angle_gamma 145.531764
_cell_volume 538.476342
_symmetry_space_group_name_H-M "P -1"
_symmetry_group_IT_number 2
_symmetry_cell_setting 'triclinic'
loop_
_space_group_symop_operation_xyz
x,y,z
-x,-y,-z
loop_
_atom_site_type_symbol
_atom_site_label
_atom_site_fract_x
_atom_site_fract_y
_atom_site_fract_z
Si Si1 0.580044 0.395268 0.299594
Si Si2 0.069461 0.039861 0.230306
Si Si3 0.119937 0.459887 0.055317
Si Si4 0.807091 0.090073 0.136016
Si Si5 0.182101 0.691711 0.433561
Si Si6 0.375722 0.340056 0.791751
Si Si7 0.604974 0.035929 0.342827
O O1 0.783347 0.414091 0.436698
O O2 0.626209 0.536049 0.318238
O O3 0.474288 0.364797 0.045723
O O4 0.365044 0.221759 0.350653
O O5 0.910182 0.859416 0.308191
O O6 0.962372 0.081220 0.204357
O O7 0.000000 0.000000 0.000000
O O8 0.011067 0.392113 0.820564
O O9 0.419413 0.605093 0.193097
O O10 0.000000 0.500000 0.000000
O O11 0.984810 0.290296 0.155240
O O12 0.676726 0.006654 0.262873
O O13 0.590664 0.990154 0.884595
O O14 0.174452 0.772327 0.522461
O O15 0.453542 0.881864 0.453839
#
# Coordination Sequence:
#
# PCOD9101056 Si02
#       7
#     2   2   2   2   2   2   2
#     4  10  21  42  64  99 134 176 224 277 334 408
#     4  10  20  37  69  95 128 179 225 269 327 407
#     4  11  25  42  67  99 135 180 225 282 340 407
#     4  10  20  39  68  95 132 175 234 270 335 406
#     4  10  22  42  67  99 142 168 231 285 343 396
#     4  10  22  40  68  97 133 178 229 268 336 412
#     4   9  20  38  66  99 127 180 225 283 333 403
#
# _framework density 25.999283999999999
#
# number of rings (size 3 to 8) (size 9 to 14) (size 15 to 20)
#    0.000    2.000    1.429    1.714    8.000    0.571 
#    0.000    1.429    0.000    0.000    0.000    0.000 
#    0.000    0.000    0.000    0.000    0.000    0.000 
#
# Total GULP energy -78343.983238 kJ/mol
# GULP energy per Si atom -5595.998803 kJ/mol
# Density = 2.594011 g / cm^3
# Si number density = 25.999284 Si / 1000 Ang^3
#
#
#
# Elastic Constant Matrix: (Units=GPa)
#
#
# Indices 1 2 3 4 5 6 
#
# 1 143.7013 35.9499 12.1013 -3.7756 18.7812 -4.4259
# 2 35.9499 114.8725 -1.4225 -9.1337 14.6709 -10.5390
# 3 12.1013 -1.4225 68.5730 10.2112 6.8745 -10.0544
# 4 -3.7756 -9.1337 10.2112 21.5146 0.3892 2.9509
# 5 18.7812 14.6709 6.8745 0.3892 48.3624 -1.9558
# 6 -4.4259 -10.5390 -10.0544 2.9509 -1.9558 41.7682
#
#
#
# Elastic Compliance Matrix: (Units=1/GPa)
#
#
# Indices 1 2 3 4 5 6 
#
# 1 0.007934 -0.002137 -0.001439 0.001241 -0.002248 -0.000238
# 2 -0.002137 0.010137 0.000625 0.003380 -0.002275 0.002137
# 3 -0.001439 0.000625 0.016996 -0.008656 -0.001790 0.004624
# 4 0.001241 0.003380 -0.008656 0.052927 -0.000900 -0.004881
# 5 -0.002248 -0.002275 -0.001790 -0.000900 0.022497 -0.000126
# 6 -0.000238 0.002137 0.004624 -0.004881 -0.000126 0.025908
#
#
# Mechanical properties :
#
#
# Convention : Reuss Voigt Hill
#
# Bulk Modulus (GPa) = 34.28546 46.71157 40.49852
# Shear Modulus (GPa) = 32.89030 41.03025 36.96028
#
# Velocity S-wave (km/s) = 3.56061 3.97688 3.77449
# Velocity P-wave (km/s) = 5.48813 6.25243 5.88271
#
# Compressibility (1/GPa) = 0.02916689
#
# Stress axis : x y z
#
# Youngs Moduli (GPa) = 126.04510 98.64791 58.83646
#
# Poissons Ratio (x) = 0.21078 0.08465
# Poissons Ratio (y) = 0.26932 -0.03680
# Poissons Ratio (z) = 0.18135 -0.06170
#
# Static dielectric constant tensor:
#      x y z
#    x 2.207500 0.137060 0.131710 
#    y 0.137060 2.162130 0.031240 
#    z 0.131710 0.031240 2.107400 
# 
# From -- ./inp_files/186138.got.cif
#   From: 2010.05.17/outbox.cif.g08.bks.cpg/sg2_94_cif.got.tgz:186138.got - 2010.06.03 11:33:40.
