data_PCOD9101148
_publ_section_title
;
Structure prediction by ZEFSAII (Michael W. Deem and Ramdas Pophale) SiO2 
 PCOD9101148
Probable space group: P -1
;
_chemical_formula_sum "Si O2"
_cell_formula_units_Z 16
_cell_length_a 8.696683
_cell_length_b 6.510215
_cell_length_c 31.798854
_cell_angle_alpha 66.589333
_cell_angle_beta 27.832080
_cell_angle_gamma 71.696100
_cell_volume 768.434715
_symmetry_space_group_name_H-M "P -1"
_symmetry_group_IT_number 2
_symmetry_cell_setting 'triclinic'
loop_
_space_group_symop_operation_xyz
x,y,z
-x,-y,-z
loop_
_atom_site_type_symbol
_atom_site_label
_atom_site_fract_x
_atom_site_fract_y
_atom_site_fract_z
Si Si1 0.658142 0.913125 0.068838
Si Si2 0.874266 0.490608 0.425622
Si Si3 0.275455 0.640146 0.689996
Si Si4 0.925088 0.378333 0.721448
Si Si5 0.581400 0.103026 0.582589
Si Si6 0.195400 0.306453 0.126003
Si Si7 0.356757 0.236924 0.006195
Si Si8 0.804339 0.313025 0.591957
O O1 0.408589 0.760655 0.171402
O O2 0.459483 0.126981 0.086834
O O3 0.738040 0.776551 0.018429
O O4 0.000000 0.000000 0.000000
O O5 0.500000 0.500000 0.500000
O O6 0.839278 0.261293 0.479565
O O7 0.092977 0.510920 0.329163
O O8 0.993471 0.688492 0.413607
O O9 0.468187 0.428539 0.674115
O O10 0.038719 0.558099 0.715552
O O11 0.088745 0.724288 0.768636
O O12 0.519271 0.853702 0.600111
O O13 0.231078 0.218036 0.657697
O O14 0.704149 0.112286 0.600505
O O15 0.098545 0.271911 0.103289
O O16 0.366113 0.557186 0.070965
O O17 0.500000 0.000000 0.000000
O O18 0.000000 0.500000 0.500000
#
# Coordination Sequence:
#
# PCOD9101148 Si02
#       8
#     2   2   2   2   2   2   2   2
#     4  11  22  39  59  87 124 165 194 248 312 364
#     4   9  19  38  58  82 119 157 188 239 296 359
#     4  11  20  36  64  86 114 157 202 252 291 357
#     4  10  20  38  56  84 120 158 199 241 301 362
#     4   9  19  37  63  82 114 155 202 247 297 344
#     4  10  20  39  62  86 114 155 208 246 299 357
#     4   9  20  39  62  84 112 151 202 254 301 349
#     4   9  20  37  57  87 115 151 198 247 295 347
#
# _framework density 20.821546999999999
#
# number of rings (size 3 to 8) (size 9 to 14) (size 15 to 20)
#    0.000    2.250    2.500    0.750    0.000    3.000 
#    9.000    2.500    0.000    0.000    0.000    0.000 
#    0.000    0.000    0.000    0.000    0.000    0.000 
#
# Total GULP energy -89218.872731 kJ/mol
# GULP energy per Si atom -5576.179546 kJ/mol
# Density = 2.077416 g / cm^3
# Si number density = 20.821547 Si / 1000 Ang^3
#
#
#
# Elastic Constant Matrix: (Units=GPa)
#
#
# Indices 1 2 3 4 5 6 
#
# 1 106.7218 32.2370 63.9718 4.6450 11.3336 37.3236
# 2 32.2370 90.1935 39.3705 -11.4176 6.6744 17.3570
# 3 63.9718 39.3705 113.6326 -4.8461 21.6801 22.6961
# 4 4.6450 -11.4176 -4.8461 36.9987 4.3254 -3.6952
# 5 11.3336 6.6744 21.6801 4.3254 31.7252 3.8421
# 6 37.3236 17.3570 22.6961 -3.6952 3.8421 30.1426
#
#
#
# Elastic Compliance Matrix: (Units=1/GPa)
#
#
# Indices 1 2 3 4 5 6 
#
# 1 0.022645 -0.001086 -0.008565 -0.006678 0.001564 -0.021984
# 2 -0.001086 0.014150 -0.003297 0.003735 -0.000383 -0.003814
# 3 -0.008565 -0.003297 0.016040 0.003262 -0.007875 0.001829
# 4 -0.006678 0.003735 0.003262 0.030948 -0.005842 0.008201
# 5 0.001564 -0.000383 -0.007875 -0.005842 0.037374 -0.001267
# 6 -0.021984 -0.003814 0.001829 0.008201 -0.001267 0.062382
#
#
# Mechanical properties :
#
#
# Convention : Reuss Voigt Hill
#
# Bulk Modulus (GPa) = 37.11950 64.63405 50.87677
# Shear Modulus (GPa) = 22.89233 31.43788 27.16511
#
# Velocity S-wave (km/s) = 3.31940 3.88992 3.61593
# Velocity P-wave (km/s) = 5.70591 7.16133 6.47464
#
# Compressibility (1/GPa) = 0.02694002
#
# Stress axis : x y z
#
# Youngs Moduli (GPa) = 44.16025 70.67292 62.34278
#
# Poissons Ratio (x) = 0.07674 0.53394
# Poissons Ratio (y) = 0.04795 0.20554
# Poissons Ratio (z) = 0.37822 0.23301
#
# Static dielectric constant tensor:
#      x y z
#    x 1.773970 -0.009580 0.020060 
#    y -0.009580 1.772460 0.003660 
#    z 0.020060 0.003660 1.796350 
# 
# From -- ./inp_files/54994.got.cif
#   From: 2010.05.17/outbox.cif.g08.bks.cpg/sg2_28_cif.got.tgz:54994.got - 2010.06.03 11:33:40.
