data_PCOD9101369
_publ_section_title
;
Structure prediction by ZEFSAII (Michael W. Deem and Ramdas Pophale) SiO2 
 PCOD9101369
Probable space group: P -1
;
_chemical_formula_sum "Si O2"
_cell_formula_units_Z 16
_cell_length_a 12.845785
_cell_length_b 13.514598
_cell_length_c 7.681210
_cell_angle_alpha 95.431287
_cell_angle_beta 47.302738
_cell_angle_gamma 122.804755
_cell_volume 739.117817
_symmetry_space_group_name_H-M "P -1"
_symmetry_group_IT_number 2
_symmetry_cell_setting 'triclinic'
loop_
_space_group_symop_operation_xyz
x,y,z
-x,-y,-z
loop_
_atom_site_type_symbol
_atom_site_label
_atom_site_fract_x
_atom_site_fract_y
_atom_site_fract_z
Si Si1 0.282408 0.959590 0.662197
Si Si2 0.182979 0.533200 0.379243
Si Si3 0.129320 0.239949 0.974959
Si Si4 0.527083 0.184826 0.004903
Si Si5 0.285045 0.483560 0.615657
Si Si6 0.382220 0.453835 0.952957
Si Si7 0.430589 0.237148 0.481431
Si Si8 0.372319 0.954682 0.920542
O O1 0.418756 0.957368 0.386530
O O2 0.394747 0.113477 0.587847
O O3 0.245392 0.898280 0.884932
O O4 0.084819 0.885168 0.784647
O O5 0.179160 0.474814 0.560618
O O6 0.000000 0.500000 0.500000
O O7 0.342319 0.690036 0.244224
O O8 0.257993 0.492874 0.138185
O O9 0.158100 0.360641 0.868850
O O10 0.238255 0.300628 0.043760
O O11 0.244703 0.214574 0.726578
O O12 0.453892 0.221302 0.249137
O O13 0.646264 0.151902 0.959371
O O14 0.370373 0.052022 0.056018
O O15 0.453448 0.485832 0.364727
O O16 0.392786 0.623180 0.614483
O O17 0.500000 0.500000 0.000000
#
# Coordination Sequence:
#
# PCOD9101369 Si02
#       8
#     2   2   2   2   2   2   2   2
#     4  10  21  37  61  87 120 151 206 240 298 351
#     4  11  23  35  57  91 119 151 203 258 287 349
#     4  11  21  36  65  91 118 151 207 248 288 355
#     4  10  20  38  59  77 118 157 204 230 303 358
#     4  10  21  39  62  84 122 163 197 238 314 359
#     4   9  20  40  58  84 122 165 189 238 309 361
#     4  10  20  40  61  86 113 162 197 245 295 365
#     4   9  21  39  58  80 117 172 182 241 308 366
#
# _framework density 21.647428000000001
#
# number of rings (size 3 to 8) (size 9 to 14) (size 15 to 20)
#    0.000    2.000    0.000    4.125    3.500    0.000 
#    0.000    1.875    0.000    0.000    0.000    0.000 
#    0.000    0.000    0.000    0.000    0.000    0.000 
#
# Total GULP energy -89243.935999 kJ/mol
# GULP energy per Si atom -5577.746000 kJ/mol
# Density = 2.159816 g / cm^3
# Si number density = 21.647428 Si / 1000 Ang^3
#
#
#
# Elastic Constant Matrix: (Units=GPa)
#
#
# Indices 1 2 3 4 5 6 
#
# 1 79.2592 7.0993 27.1660 12.9455 -0.0803 11.3225
# 2 7.0993 90.5775 41.4331 23.4100 -3.9338 6.3453
# 3 27.1660 41.4331 43.0724 20.8832 -9.4799 4.9926
# 4 12.9455 23.4100 20.8832 27.4855 -0.4680 6.5376
# 5 -0.0803 -3.9338 -9.4799 -0.4680 39.5553 -1.2576
# 6 11.3225 6.3453 4.9926 6.5376 -1.2576 29.8238
#
#
#
# Elastic Compliance Matrix: (Units=1/GPa)
#
#
# Indices 1 2 3 4 5 6 
#
# 1 0.019766 0.007971 -0.020981 0.001229 -0.004376 -0.006142
# 2 0.007971 0.023405 -0.026832 -0.002633 -0.004217 -0.003115
# 3 -0.020981 -0.026832 0.078830 -0.028654 0.016079 0.007437
# 4 0.001229 -0.002633 -0.028654 0.061831 -0.006679 -0.008945
# 5 -0.004376 -0.004217 0.016079 -0.006679 0.028708 0.002542
# 6 -0.006142 -0.003115 0.007437 -0.008945 0.002542 0.037348
#
#
# Mechanical properties :
#
#
# Convention : Reuss Voigt Hill
#
# Bulk Modulus (GPa) = 23.63161 40.47844 32.05503
# Shear Modulus (GPa) = 14.54849 28.52031 21.53440
#
# Velocity S-wave (km/s) = 2.59524 3.63366 3.15743
# Velocity P-wave (km/s) = 4.46325 6.02862 5.30400
#
# Compressibility (1/GPa) = 0.04231620
#
# Stress axis : x y z
#
# Youngs Moduli (GPa) = 50.59081 42.72623 12.68557
#
# Poissons Ratio (x) = -0.34057 0.26616
# Poissons Ratio (y) = -0.40325 0.34038
# Poissons Ratio (z) = 1.06147 1.14642
#
# Static dielectric constant tensor:
#      x y z
#    x 1.884020 -0.031240 0.108530 
#    y -0.031240 1.832920 -0.061370 
#    z 0.108530 -0.061370 2.006970 
# 
# From -- ./inp_files/313645.got.cif
#   From: 2010.05.17/outbox.cif.g08.bks.cpg/sg2_157_cif.got.tgz:313645.got - 2010.06.03 11:33:40.
