data_PCOD9101661
_publ_section_title
;
Structure prediction by ZEFSAII (Michael W. Deem and Ramdas Pophale) SiO2 
 PCOD9101661
Probable space group: P -1
;
_chemical_formula_sum "Si O2"
_cell_formula_units_Z 13
_cell_length_a 5.066306
_cell_length_b 15.394605
_cell_length_c 17.397943
_cell_angle_alpha 26.455632
_cell_angle_beta 81.857658
_cell_angle_gamma 66.280565
_cell_volume 467.336848
_symmetry_space_group_name_H-M "P -1"
_symmetry_group_IT_number 2
_symmetry_cell_setting 'triclinic'
loop_
_space_group_symop_operation_xyz
x,y,z
-x,-y,-z
loop_
_atom_site_type_symbol
_atom_site_label
_atom_site_fract_x
_atom_site_fract_y
_atom_site_fract_z
Si Si1 0.500000 0.000000 0.000000
Si Si2 0.975493 0.220647 0.077940
Si Si3 0.330431 0.349855 0.050612
Si Si4 0.991801 0.914659 0.183728
Si Si5 0.273342 0.131337 0.480153
Si Si6 0.324550 0.439577 0.654865
Si Si7 0.385734 0.716923 0.563859
O O1 0.678359 0.996731 0.079345
O O2 0.837094 0.693925 0.216085
O O3 0.592379 0.407088 0.981589
O O4 0.183088 0.324503 0.998350
O O5 0.936281 0.120128 0.080287
O O6 0.208629 0.966805 0.321260
O O7 0.577927 0.082666 0.292699
O O8 0.000000 0.500000 0.000000
O O9 0.118021 0.669183 0.422710
O O10 0.331915 0.815611 0.197222
O O11 0.319837 0.317824 0.371630
O O12 0.893725 0.230997 0.405085
O O13 0.500000 0.000000 0.500000
O O14 0.424711 0.525641 0.653337
#
# Coordination Sequence:
#
# PCOD9101661 Si02
#       7
#     1   2   2   2   2   2   2
#     4  12  24  40  64 100 136 160 232 276 326 382
#     4   9  20  38  62  86 120 166 212 255 318 392
#     4  10  20  38  60  87 120 157 206 263 320 384
#     4  10  23  43  66  92 131 180 217 267 332 395
#     4  10  20  38  60  87 120 157 206 263 320 384
#     4  10  23  43  66  92 131 180 217 267 332 395
#     4   9  20  38  62  86 120 166 212 255 318 392
#
# _framework density 27.817195999999999
#
# number of rings (size 3 to 8) (size 9 to 14) (size 15 to 20)
#    0.000    2.154    0.000    1.846    4.308    0.000 
#    5.538    0.000    0.000    0.000    0.000    0.000 
#    0.000    0.000    0.000    0.000    0.000    0.000 
#
# Total GULP energy -72623.051106 kJ/mol
# GULP energy per Si atom -5586.388547 kJ/mol
# Density = 2.775388 g / cm^3
# Si number density = 27.817196 Si / 1000 Ang^3
#
#
#
# Elastic Constant Matrix: (Units=GPa)
#
#
# Indices 1 2 3 4 5 6 
#
# 1 93.5675 9.6798 6.9951 8.2252 7.0929 16.5739
# 2 9.6798 110.1295 11.6872 3.8881 10.2072 18.6710
# 3 6.9951 11.6872 111.8255 34.0793 -6.6293 18.2572
# 4 8.2252 3.8881 34.0793 49.6892 10.5611 11.9409
# 5 7.0929 10.2072 -6.6293 10.5611 32.4216 0.4263
# 6 16.5739 18.6710 18.2572 11.9409 0.4263 48.9427
#
#
#
# Elastic Compliance Matrix: (Units=1/GPa)
#
#
# Indices 1 2 3 4 5 6 
#
# 1 0.011580 -0.000150 -0.000104 -0.000455 -0.002311 -0.003694
# 2 -0.000150 0.010167 -0.001226 0.001820 -0.003962 -0.003780
# 3 -0.000104 -0.001226 0.012607 -0.009346 0.006057 -0.001972
# 4 -0.000455 0.001820 -0.009346 0.030075 -0.012125 -0.004286
# 5 -0.002311 -0.003962 0.006057 -0.012125 0.037750 0.002664
# 6 -0.003694 -0.003780 -0.001972 -0.004286 0.002664 0.024883
#
#
# Mechanical properties :
#
#
# Convention : Reuss Voigt Hill
#
# Bulk Modulus (GPa) = 31.85268 41.36074 36.60671
# Shear Modulus (GPa) = 35.59048 45.35471 40.47260
#
# Velocity S-wave (km/s) = 3.58081 4.04227 3.81852
# Velocity P-wave (km/s) = 5.34526 6.05703 5.71224
#
# Compressibility (1/GPa) = 0.03139454
#
# Stress axis : x y z
#
# Youngs Moduli (GPa) = 86.35331 98.35417 79.32396
#
# Poissons Ratio (x) = 0.01478 0.00824
# Poissons Ratio (y) = 0.01298 0.09723
# Poissons Ratio (z) = 0.00897 0.12055
#
# Static dielectric constant tensor:
#      x y z
#    x 9.096160 -2.174610 -4.051470 
#    y -2.174610 2.807900 1.173560 
#    z -4.051470 1.173560 4.538890 
# 
# From -- ./inp_files/86471.got.cif
#   From: 2010.05.17/outbox.cif.g08.bks.cpg/sg2_44_cif.got.tgz:86471.got - 2010.06.03 11:33:40.
