data_PCOD9101839
_publ_section_title
;
Structure prediction by ZEFSAII (Michael W. Deem and Ramdas Pophale) SiO2 
 PCOD9101839
Probable space group: P -1
;
_chemical_formula_sum "Si O2"
_cell_formula_units_Z 16
_cell_length_a 11.415412
_cell_length_b 18.779235
_cell_length_c 7.177834
_cell_angle_alpha 134.849214
_cell_angle_beta 68.337684
_cell_angle_gamma 141.810399
_cell_volume 611.336657
_symmetry_space_group_name_H-M "P -1"
_symmetry_group_IT_number 2
_symmetry_cell_setting 'triclinic'
loop_
_space_group_symop_operation_xyz
x,y,z
-x,-y,-z
loop_
_atom_site_type_symbol
_atom_site_label
_atom_site_fract_x
_atom_site_fract_y
_atom_site_fract_z
Si Si1 0.828887 0.540053 0.954509
Si Si2 0.298065 0.752295 0.559321
Si Si3 0.791888 0.659015 0.747535
Si Si4 0.721394 0.196399 0.742745
Si Si5 0.765218 0.885435 0.879637
Si Si6 0.757125 0.058826 0.934834
Si Si7 0.649477 0.610128 0.328971
Si Si8 0.350829 0.629729 0.844206
O O1 0.794428 0.413532 0.632891
O O2 0.711146 0.571069 0.061522
O O3 0.736129 0.447436 0.041407
O O4 0.073091 0.724366 0.151961
O O5 0.210796 0.730714 0.371420
O O6 0.263411 0.833026 0.843022
O O7 0.548230 0.895245 0.647716
O O8 0.789198 0.683765 0.573119
O O9 0.578621 0.562691 0.780442
O O10 0.004883 0.819711 0.023638
O O11 0.763749 0.520873 0.501765
O O12 0.691732 0.283157 0.021798
O O13 0.500000 0.000000 0.500000
O O14 0.599446 0.771355 0.934983
O O15 0.738680 0.981508 0.994539
O O16 0.681769 0.748800 0.528030
O O17 0.000000 0.000000 0.000000
#
# Coordination Sequence:
#
# PCOD9101839 Si02
#       8
#     2   2   2   2   2   2   2   2
#     4  10  20  38  61  83 118 152 192 238 293 348
#     4  10  22  39  57  86 117 159 186 238 296 352
#     4   9  16  32  54  81 111 152 190 234 281 336
#     4  11  21  35  61  88 111 144 198 248 288 333
#     4  11  21  33  58  90 118 146 196 245 276 327
#     4  11  21  36  60  83 122 152 196 238 289 340
#     4   9  18  32  55  83 111 148 194 237 284 333
#     4   9  19  32  55  84 114 145 189 240 283 335
#
# _framework density 26.172158
#
# number of rings (size 3 to 8) (size 9 to 14) (size 15 to 20)
#    0.000    2.000    1.250    5.250    1.750    0.000 
#    0.000    3.750    0.000   14.250    0.000    0.000 
#    0.000    0.000    0.000    0.000    0.000    0.000 
#
# Total GULP energy -89350.690825 kJ/mol
# GULP energy per Si atom -5584.418177 kJ/mol
# Density = 2.611259 g / cm^3
# Si number density = 26.172158 Si / 1000 Ang^3
#
#
#
# Elastic Constant Matrix: (Units=GPa)
#
#
# Indices 1 2 3 4 5 6 
#
# 1 90.5650 31.9555 26.4121 -1.4491 -13.4655 -7.7229
# 2 31.9555 87.6552 27.2341 21.0522 5.1467 3.1359
# 3 26.4121 27.2341 85.3160 26.7781 -0.6400 11.4145
# 4 -1.4491 21.0522 26.7781 35.6895 3.3193 10.8313
# 5 -13.4655 5.1467 -0.6400 3.3193 52.9412 3.3855
# 6 -7.7229 3.1359 11.4145 10.8313 3.3855 48.2869
#
#
#
# Elastic Compliance Matrix: (Units=1/GPa)
#
#
# Indices 1 2 3 4 5 6 
#
# 1 0.015671 -0.006069 -0.005471 0.007262 0.003908 0.002291
# 2 -0.006069 0.016123 -0.000409 -0.009318 -0.002554 0.000348
# 3 -0.005471 -0.000409 0.017812 -0.012657 -0.000202 -0.002206
# 4 0.007262 -0.009318 -0.012657 0.044912 0.000125 -0.005324
# 5 0.003908 -0.002554 -0.000202 0.000125 0.020159 -0.000603
# 6 0.002291 0.000348 -0.002206 -0.005324 -0.000603 0.022811
#
#
# Mechanical properties :
#
#
# Convention : Reuss Voigt Hill
#
# Bulk Modulus (GPa) = 38.89726 48.30440 43.60083
# Shear Modulus (GPa) = 29.41941 39.24581 34.33261
#
# Velocity S-wave (km/s) = 3.35636 3.87657 3.62581
# Velocity P-wave (km/s) = 5.46942 6.20754 5.85013
#
# Compressibility (1/GPa) = 0.02570875
#
# Stress axis : x y z
#
# Youngs Moduli (GPa) = 63.81095 62.02162 56.14345
#
# Poissons Ratio (x) = 0.37641 0.30715
# Poissons Ratio (y) = 0.38727 0.02296
# Poissons Ratio (z) = 0.34910 0.02537
#
# Static dielectric constant tensor:
#      x y z
#    x 2.133350 -0.026280 -0.023680 
#    y -0.026280 2.091700 -0.012150 
#    z -0.023680 -0.012150 2.088270 
# 
# From -- ./inp_files/283236.got.cif
#   From: 2010.05.17/outbox.cif.g08.bks.cpg/sg2_142_cif.got.tgz:283236.got - 2010.06.03 11:33:40.
