data_PCOD9101565
_publ_section_title
;
Structure prediction by ZEFSAII (Michael W. Deem and Ramdas Pophale) SiO2 
 PCOD9101565
Probable space group: P -1
;
_chemical_formula_sum "Si O2"
_cell_formula_units_Z 16
_cell_length_a 11.150293
_cell_length_b 14.099204
_cell_length_c 7.207649
_cell_angle_alpha 67.763266
_cell_angle_beta 107.608498
_cell_angle_gamma 57.512537
_cell_volume 673.993067
_symmetry_space_group_name_H-M "P -1"
_symmetry_group_IT_number 2
_symmetry_cell_setting 'triclinic'
loop_
_space_group_symop_operation_xyz
x,y,z
-x,-y,-z
loop_
_atom_site_type_symbol
_atom_site_label
_atom_site_fract_x
_atom_site_fract_y
_atom_site_fract_z
Si Si1 0.774688 0.637116 0.781130
Si Si2 0.428059 0.038788 0.649599
Si Si3 0.194627 0.769776 0.889432
Si Si4 0.926642 0.157856 0.816885
Si Si5 0.768733 0.720457 0.114094
Si Si6 0.804988 0.507278 0.551152
Si Si7 0.839088 0.972344 0.309352
Si Si8 0.571238 0.462775 0.348704
O O1 0.691276 0.786075 0.525866
O O2 0.726564 0.569251 0.678119
O O3 0.711764 0.689322 0.925338
O O4 0.000000 0.500000 0.000000
O O5 0.297682 0.022495 0.656366
O O6 0.500000 0.000000 0.500000
O O7 0.618492 0.898911 0.950968
O O8 0.027089 0.864603 0.598101
O O9 0.241186 0.863338 0.866067
O O10 0.113984 0.777067 0.043572
O O11 0.381164 0.596393 0.049978
O O12 0.723895 0.281953 0.528736
O O13 0.084642 0.109387 0.794651
O O14 0.000000 0.000000 0.000000
O O15 0.782479 0.629357 0.348712
O O16 0.972951 0.643408 0.227261
O O17 0.701233 0.485466 0.397485
O O18 0.500000 0.500000 0.500000
#
# Coordination Sequence:
#
# PCOD9101565 Si02
#       8
#     2   2   2   2   2   2   2   2
#     4   9  20  37  56  81 113 149 191 235 284 338
#     4  10  21  38  59  89 120 153 199 244 289 350
#     4   9  20  39  61  89 119 154 195 238 292 350
#     4   9  20  38  58  85 117 150 194 239 285 346
#     4   9  20  38  59  85 115 149 192 238 284 340
#     4  10  20  38  60  82 115 152 186 237 292 339
#     4  10  20  38  63  85 119 158 190 241 297 343
#     4  10  21  38  60  87 118 151 191 239 290 350
#
# _framework density 23.739118000000001
#
# number of rings (size 3 to 8) (size 9 to 14) (size 15 to 20)
#    0.000    2.500    0.000    0.750    0.000   10.000 
#    0.000   26.250    0.000    0.000    0.000    0.000 
#    0.000    0.000    0.000    0.000    0.000    0.000 
#
# Total GULP energy -89282.902708 kJ/mol
# GULP energy per Si atom -5580.181419 kJ/mol
# Density = 2.368509 g / cm^3
# Si number density = 23.739118 Si / 1000 Ang^3
#
#
#
# Elastic Constant Matrix: (Units=GPa)
#
#
# Indices 1 2 3 4 5 6 
#
# 1 98.0431 40.6919 24.5612 -11.4740 0.2398 -17.2445
# 2 40.6919 100.4404 41.2687 -14.8051 -9.3980 -15.1976
# 3 24.5612 41.2687 144.5246 -50.4610 -4.4686 4.5300
# 4 -11.4740 -14.8051 -50.4610 46.3709 -0.3257 -0.4110
# 5 0.2398 -9.3980 -4.4686 -0.3257 20.8866 1.5498
# 6 -17.2445 -15.1976 4.5300 -0.4110 1.5498 29.2421
#
#
#
# Elastic Compliance Matrix: (Units=1/GPa)
#
#
# Indices 1 2 3 4 5 6 
#
# 1 0.013372 -0.004204 -0.001041 0.000868 -0.002701 0.006017
# 2 -0.004204 0.014339 -0.003407 -0.000085 0.005383 0.005215
# 3 -0.001041 -0.003407 0.012539 0.012274 0.001668 -0.004243
# 4 0.000868 -0.000085 0.012274 0.035122 0.003208 -0.001110
# 5 -0.002701 0.005383 0.001668 0.003208 0.050864 -0.001704
# 6 0.006017 0.005215 -0.004243 -0.001110 -0.001704 0.041188
#
#
# Mechanical properties :
#
#
# Convention : Reuss Voigt Hill
#
# Bulk Modulus (GPa) = 43.58054 61.78350 52.68202
# Shear Modulus (GPa) = 25.99075 35.06565 30.52820
#
# Velocity S-wave (km/s) = 3.31244 3.84751 3.58996
# Velocity P-wave (km/s) = 5.74697 6.76907 6.27885
#
# Compressibility (1/GPa) = 0.02294602
#
# Stress axis : x y z
#
# Youngs Moduli (GPa) = 74.78456 69.73878 79.75146
#
# Poissons Ratio (x) = 0.29317 0.08303
# Poissons Ratio (y) = 0.31438 0.27171
# Poissons Ratio (z) = 0.07786 0.23760
#
# Static dielectric constant tensor:
#      x y z
#    x 1.863310 0.040140 0.001080 
#    y 0.040140 1.949230 -0.040810 
#    z 0.001080 -0.040810 1.894620 
# 
# From -- ./inp_files/277604.got.cif
#   From: 2010.05.17/outbox.cif.g08.bks.cpg/sg2_139_cif.got.tgz:277604.got - 2010.06.03 11:33:40.
