data_PCOD9101486
_publ_section_title
;
Structure prediction by ZEFSAII (Michael W. Deem and Ramdas Pophale) SiO2 
 PCOD9101486
Probable space group: P -1
;
_chemical_formula_sum "Si O2"
_cell_formula_units_Z 16
_cell_length_a 17.826479
_cell_length_b 8.831799
_cell_length_c 9.517709
_cell_angle_alpha 84.219511
_cell_angle_beta 150.887928
_cell_angle_gamma 96.305974
_cell_volume 724.587302
_symmetry_space_group_name_H-M "P -1"
_symmetry_group_IT_number 2
_symmetry_cell_setting 'triclinic'
loop_
_space_group_symop_operation_xyz
x,y,z
-x,-y,-z
loop_
_atom_site_type_symbol
_atom_site_label
_atom_site_fract_x
_atom_site_fract_y
_atom_site_fract_z
Si Si1 0.964689 0.598698 0.204180
Si Si2 0.000771 0.241721 0.250774
Si Si3 0.343328 0.509389 0.156309
Si Si4 0.168354 0.942000 0.238243
Si Si5 0.798974 0.739137 0.682097
Si Si6 0.643095 0.110046 0.178385
Si Si7 0.160457 0.790554 0.737295
Si Si8 0.497812 0.568599 0.141171
O O1 0.003998 0.424022 0.260335
O O2 0.077338 0.685898 0.489543
O O3 0.795482 0.593174 0.998590
O O4 0.942647 0.678629 0.010643
O O5 0.150853 0.218501 0.400077
O O6 0.964812 0.171691 0.352323
O O7 0.862449 0.168687 0.932824
O O8 0.500000 0.500000 0.500000
O O9 0.391800 0.468781 0.081833
O O10 0.277233 0.679538 0.019850
O O11 0.250530 0.870709 0.511829
O O12 0.255120 0.108257 0.343603
O O13 0.000000 0.000000 0.000000
O O14 0.668445 0.605328 0.476396
O O15 0.747459 0.078546 0.214032
O O16 0.572939 0.268202 0.007449
O O17 0.500000 0.000000 0.000000
O O18 0.500000 0.500000 0.000000
#
# Coordination Sequence:
#
# PCOD9101486 Si02
#       8
#     2   2   2   2   2   2   2   2
#     4  11  22  40  66  91 127 165 206 261 312 362
#     4  10  22  38  65  91 125 158 215 251 308 368
#     4  10  20  38  59  88 131 158 195 256 318 365
#     4  10  22  42  63  89 124 168 207 252 304 373
#     4  11  22  39  61  93 125 165 208 256 306 369
#     4  11  23  45  66  85 130 166 203 257 316 370
#     4  10  23  39  64  94 121 163 209 259 313 364
#     4  11  25  37  64  95 125 160 211 254 315 368
#
# _framework density 22.081536
#
# number of rings (size 3 to 8) (size 9 to 14) (size 15 to 20)
#    0.000    1.500    2.500    3.375    7.000    0.000 
#    0.000    7.500    0.000    0.000    0.000    0.000 
#    0.000    0.000    0.000    0.000    0.000    0.000 
#
# Total GULP energy -89248.820816 kJ/mol
# GULP energy per Si atom -5578.051301 kJ/mol
# Density = 2.203128 g / cm^3
# Si number density = 22.081536 Si / 1000 Ang^3
#
#
#
# Elastic Constant Matrix: (Units=GPa)
#
#
# Indices 1 2 3 4 5 6 
#
# 1 134.3495 35.7100 12.9410 17.8777 -7.3103 7.2143
# 2 35.7100 37.4785 16.3466 9.8604 -6.0921 12.7141
# 3 12.9410 16.3466 113.6145 9.5148 -2.3675 -0.5738
# 4 17.8777 9.8604 9.5148 27.5991 3.8321 -1.7287
# 5 -7.3103 -6.0921 -2.3675 3.8321 34.9097 4.9592
# 6 7.2143 12.7141 -0.5738 -1.7287 4.9592 28.4524
#
#
#
# Elastic Compliance Matrix: (Units=1/GPa)
#
#
# Indices 1 2 3 4 5 6 
#
# 1 0.010352 -0.009461 0.000499 -0.003523 0.000757 0.001267
# 2 -0.009461 0.051249 -0.005046 -0.013495 0.011428 -0.023415
# 3 0.000499 -0.005046 0.009616 -0.001657 -0.000264 0.002267
# 4 -0.003523 -0.013495 -0.001657 0.045994 -0.009874 0.011406
# 5 0.000757 0.011428 -0.000264 -0.009874 0.033533 -0.011749
# 6 0.001267 -0.023415 0.002267 0.011406 -0.011749 0.048075
#
#
# Mechanical properties :
#
#
# Convention : Reuss Voigt Hill
#
# Bulk Modulus (GPa) = 23.14743 46.15974 34.65359
# Shear Modulus (GPa) = 20.72682 32.88857 26.80770
#
# Velocity S-wave (km/s) = 3.06706 3.86348 3.48808
# Velocity P-wave (km/s) = 4.80083 6.39152 5.65241
#
# Compressibility (1/GPa) = 0.04320133
#
# Stress axis : x y z
#
# Youngs Moduli (GPa) = 96.60044 19.51270 103.99855
#
# Poissons Ratio (x) = 0.18461 -0.05193
# Poissons Ratio (y) = 0.91392 0.52476
# Poissons Ratio (z) = -0.04824 0.09846
#
# Static dielectric constant tensor:
#      x y z
#    x 1.899650 0.038720 0.048670 
#    y 0.038720 1.814820 0.007450 
#    z 0.048670 0.007450 1.843030 
# 
# From -- ./inp_files/329087.got.cif
#   From: 2010.05.17/outbox.cif.g08.bks.cpg/sg2_165_cif.got.tgz:329087.got - 2010.06.03 11:33:40.
