data_PCOD9101033
_publ_section_title
;
Structure prediction by ZEFSAII (Michael W. Deem and Ramdas Pophale) SiO2 
 PCOD9101033
Probable space group: P -1
;
_chemical_formula_sum "Si O2"
_cell_formula_units_Z 14
_cell_length_a 9.346080
_cell_length_b 9.431144
_cell_length_c 7.655144
_cell_angle_alpha 128.998906
_cell_angle_beta 82.897185
_cell_angle_gamma 102.348001
_cell_volume 512.208633
_symmetry_space_group_name_H-M "P -1"
_symmetry_group_IT_number 2
_symmetry_cell_setting 'triclinic'
loop_
_space_group_symop_operation_xyz
x,y,z
-x,-y,-z
loop_
_atom_site_type_symbol
_atom_site_label
_atom_site_fract_x
_atom_site_fract_y
_atom_site_fract_z
Si Si1 0.455691 0.298281 0.254979
Si Si2 0.832032 0.730234 0.541115
Si Si3 0.198555 0.488281 0.151167
Si Si4 0.042802 0.798553 0.841824
Si Si5 0.388347 0.811240 0.545901
Si Si6 0.736241 0.332020 0.069112
Si Si7 0.312316 0.163004 0.684229
O O1 0.500000 0.500000 0.500000
O O2 0.281805 0.247977 0.267436
O O3 0.525123 0.163932 0.268343
O O4 0.558612 0.299585 0.071219
O O5 0.991723 0.738339 0.605728
O O6 0.783008 0.528601 0.310256
O O7 0.798312 0.857416 0.482426
O O8 0.055218 0.357304 0.142582
O O9 0.284501 0.613294 0.386292
O O10 0.194374 0.636418 0.109407
O O11 0.285622 0.338621 0.935262
O O12 0.197586 0.806202 0.920085
O O13 0.000000 0.000000 0.000000
O O14 0.522266 0.806209 0.388595
O O15 0.300129 0.974996 0.648753
#
# Coordination Sequence:
#
# PCOD9101033 Si02
#       7
#     2   2   2   2   2   2   2
#     4   9  18  37  68  95 120 161 214 257 320 389
#     4   9  20  42  65  91 127 164 210 265 323 381
#     4  11  23  41  64  92 131 169 215 265 320 377
#     4  12  27  42  61  92 132 169 221 263 315 382
#     4  10  20  37  68  96 134 164 209 262 332 379
#     4  10  22  42  66  94 123 169 212 261 327 384
#     4   9  21  39  63 103 128 165 210 268 320 389
#
# _framework density 27.332609999999999
#
# number of rings (size 3 to 8) (size 9 to 14) (size 15 to 20)
#    0.000    2.000    0.000    3.857    4.000    1.143 
#    0.000    2.143    0.000    0.000    0.000    0.000 
#    0.000    0.000    0.000    0.000    0.000    0.000 
#
# Total GULP energy -78333.287968 kJ/mol
# GULP energy per Si atom -5595.234855 kJ/mol
# Density = 2.727040 g / cm^3
# Si number density = 27.332610 Si / 1000 Ang^3
#
#
#
# Elastic Constant Matrix: (Units=GPa)
#
#
# Indices 1 2 3 4 5 6 
#
# 1 134.5180 38.6817 14.4315 -7.2072 0.7239 -15.7635
# 2 38.6817 121.2021 23.9987 -1.3263 -1.8664 -35.6389
# 3 14.4315 23.9987 66.8834 4.6483 15.9165 -11.1969
# 4 -7.2072 -1.3263 4.6483 40.6547 -10.0286 10.6643
# 5 0.7239 -1.8664 15.9165 -10.0286 26.4760 -1.7298
# 6 -15.7635 -35.6389 -11.1969 10.6643 -1.7298 59.1996
#
#
#
# Elastic Compliance Matrix: (Units=1/GPa)
#
#
# Indices 1 2 3 4 5 6 
#
# 1 0.008354 -0.002276 -0.001308 0.001737 0.001077 0.000326
# 2 -0.002276 0.011379 -0.003333 -0.000404 0.003092 0.005777
# 3 -0.001308 -0.003333 0.021002 -0.007183 -0.015385 0.002462
# 4 0.001737 -0.000404 -0.007183 0.031231 0.015660 -0.006308
# 5 0.001077 0.003092 -0.015385 0.015660 0.053006 -0.002034
# 6 0.000326 0.005777 0.002462 -0.006308 -0.002034 0.021999
#
#
# Mechanical properties :
#
#
# Convention : Reuss Voigt Hill
#
# Bulk Modulus (GPa) = 37.17274 52.98081 45.07678
# Shear Modulus (GPa) = 29.45134 41.63216 35.54175
#
# Velocity S-wave (km/s) = 3.28612 3.90701 3.60994
# Velocity P-wave (km/s) = 5.29412 6.30705 5.82265
#
# Compressibility (1/GPa) = 0.02690143
#
# Stress axis : x y z
#
# Youngs Moduli (GPa) = 119.70091 87.88314 47.61444
#
# Poissons Ratio (x) = 0.20001 0.06230
# Poissons Ratio (y) = 0.27242 0.15868
# Poissons Ratio (z) = 0.15662 0.29287
#
# Static dielectric constant tensor:
#      x y z
#    x 2.202160 -0.025890 -0.006610 
#    y -0.025890 2.210100 -0.085040 
#    z -0.006610 -0.085040 2.176970 
# 
# From -- ./inp_files/160190.got.cif
#   From: 2010.05.17/outbox.cif.g08.bks.cpg/sg2_81_cif.got.tgz:160190.got - 2010.06.03 11:33:40.
