data_PCOD9101942
_publ_section_title
;
Structure prediction by ZEFSAII (Michael W. Deem and Ramdas Pophale) SiO2 
 PCOD9101942
Probable space group: P -1
;
_chemical_formula_sum "Si O2"
_cell_formula_units_Z 14
_cell_length_a 6.837065
_cell_length_b 8.764497
_cell_length_c 12.250424
_cell_angle_alpha 50.693284
_cell_angle_beta 94.008815
_cell_angle_gamma 98.457796
_cell_volume 561.574927
_symmetry_space_group_name_H-M "P -1"
_symmetry_group_IT_number 2
_symmetry_cell_setting 'triclinic'
loop_
_space_group_symop_operation_xyz
x,y,z
-x,-y,-z
loop_
_atom_site_type_symbol
_atom_site_label
_atom_site_fract_x
_atom_site_fract_y
_atom_site_fract_z
Si Si1 0.801541 0.178182 0.134671
Si Si2 0.148827 0.143617 0.016676
Si Si3 0.516964 0.880849 0.665150
Si Si4 0.515970 0.141963 0.811984
Si Si5 0.945798 0.553101 0.292667
Si Si6 0.229667 0.753409 0.400192
Si Si7 0.311550 0.523370 0.172162
O O1 0.688484 0.142354 0.262266
O O2 0.694403 0.983739 0.153862
O O3 0.740175 0.379128 0.988416
O O4 0.029414 0.186666 0.102914
O O5 0.334599 0.026035 0.097221
O O6 0.170922 0.339487 0.852217
O O7 0.000000 0.000000 0.000000
O O8 0.576574 0.664114 0.750539
O O9 0.500000 0.000000 0.500000
O O10 0.703942 0.020926 0.662772
O O11 0.572759 0.275295 0.646469
O O12 0.567405 0.292685 0.842605
O O13 0.057326 0.698044 0.326964
O O14 0.117407 0.473061 0.263751
O O15 0.819626 0.384068 0.435112
#
# Coordination Sequence:
#
# PCOD9101942 Si02
#       7
#     2   2   2   2   2   2   2
#     4  10  22  41  65  91 126 166 206 263 311 363
#     4  11  19  36  67 102 118 146 210 269 312 367
#     4  11  25  42  56  86 131 174 212 244 308 384
#     4  10  20  39  65  96 122 159 209 263 316 363
#     4   9  19  37  64  94 118 154 212 264 311 365
#     4   9  19  39  60  85 123 165 202 256 312 361
#     4  10  20  38  61  88 121 164 201 252 319 368
#
# _framework density 24.929886
#
# number of rings (size 3 to 8) (size 9 to 14) (size 15 to 20)
#    0.000    2.000    4.286    0.857    0.000    2.857 
#    2.571    5.000    0.000   17.143    0.000    0.000 
#    0.000    0.000    0.000    0.000    0.000    0.000 
#
# Total GULP energy -78181.917116 kJ/mol
# GULP energy per Si atom -5584.422651 kJ/mol
# Density = 2.487314 g / cm^3
# Si number density = 24.929886 Si / 1000 Ang^3
#
#
#
# Elastic Constant Matrix: (Units=GPa)
#
#
# Indices 1 2 3 4 5 6 
#
# 1 99.9080 38.7914 62.8935 -0.8367 -21.9044 -23.0868
# 2 38.7914 108.4756 56.5811 -10.7930 -2.3709 -16.4729
# 3 62.8935 56.5811 214.4565 18.0421 -39.4167 -13.9955
# 4 -0.8367 -10.7930 18.0421 34.1589 -3.4447 -9.5447
# 5 -21.9044 -2.3709 -39.4167 -3.4447 42.0362 1.9073
# 6 -23.0868 -16.4729 -13.9955 -9.5447 1.9073 36.9667
#
#
#
# Elastic Compliance Matrix: (Units=1/GPa)
#
#
# Indices 1 2 3 4 5 6 
#
# 1 0.015930 -0.002401 -0.002815 0.004068 0.005470 0.008581
# 2 -0.002401 0.013490 -0.003812 0.007280 -0.003702 0.005139
# 3 -0.002815 -0.003812 0.007778 -0.005464 0.005263 -0.002195
# 4 0.004068 0.007280 -0.005464 0.038361 -0.000068 0.013624
# 5 0.005470 -0.003702 0.005263 -0.000068 0.031264 0.002129
# 6 0.008581 0.005139 -0.002195 0.013624 0.002129 0.037277
#
#
# Mechanical properties :
#
#
# Convention : Reuss Voigt Hill
#
# Bulk Modulus (GPa) = 52.24414 82.15247 67.19831
# Shear Modulus (GPa) = 29.66725 40.27064 34.96895
#
# Velocity S-wave (km/s) = 3.45342 4.02351 3.74932
# Velocity P-wave (km/s) = 6.07482 7.38984 6.76436
#
# Compressibility (1/GPa) = 0.01914090
#
# Stress axis : x y z
#
# Youngs Moduli (GPa) = 62.77579 74.13172 128.56307
#
# Poissons Ratio (x) = 0.17797 0.36193
# Poissons Ratio (y) = 0.15071 0.49013
# Poissons Ratio (z) = 0.17673 0.28262
#
# Static dielectric constant tensor:
#      x y z
#    x 2.027050 0.002000 -0.026700 
#    y 0.002000 2.032280 0.065020 
#    z -0.026700 0.065020 2.046290 
# 
# From -- ./inp_files/195292.got.cif
#   From: 2010.05.17/outbox.cif.g08.bks.cpg/sg2_98_cif.got.tgz:195292.got - 2010.06.03 11:33:40.
