data_PCOD9101119
_publ_section_title
;
Structure prediction by ZEFSAII (Michael W. Deem and Ramdas Pophale) SiO2 
 PCOD9101119
Probable space group: P -1
;
_chemical_formula_sum "Si O2"
_cell_formula_units_Z 14
_cell_length_a 12.139830
_cell_length_b 14.889659
_cell_length_c 5.285956
_cell_angle_alpha 87.397507
_cell_angle_beta 69.293328
_cell_angle_gamma 49.674595
_cell_volume 658.463687
_symmetry_space_group_name_H-M "P -1"
_symmetry_group_IT_number 2
_symmetry_cell_setting 'triclinic'
loop_
_space_group_symop_operation_xyz
x,y,z
-x,-y,-z
loop_
_atom_site_type_symbol
_atom_site_label
_atom_site_fract_x
_atom_site_fract_y
_atom_site_fract_z
Si Si1 0.590562 0.678581 0.958539
Si Si2 0.270767 0.541180 0.760418
Si Si3 0.909159 0.703844 0.913961
Si Si4 0.563686 0.392155 0.153410
Si Si5 0.667396 0.968527 0.319398
Si Si6 0.857220 0.629613 0.474333
Si Si7 0.573302 0.062753 0.884061
O O1 0.438422 0.699365 0.987360
O O2 0.696203 0.657172 0.639377
O O3 0.700256 0.552542 0.044613
O O4 0.542636 0.795946 0.120960
O O5 0.424492 0.453851 0.466477
O O6 0.284229 0.635805 0.850374
O O7 0.099086 0.620555 0.761753
O O8 0.804996 0.836612 0.105813
O O9 0.885243 0.640613 0.160749
O O10 0.848257 0.715181 0.677523
O O11 0.500000 0.500000 0.000000
O O12 0.500000 0.000000 0.500000
O O13 0.701117 0.988494 0.566960
O O14 0.631525 0.058040 0.117237
O O15 0.000000 0.500000 0.500000
O O16 0.500000 0.000000 0.000000
#
# Coordination Sequence:
#
# PCOD9101119 Si02
#       7
#     2   2   2   2   2   2   2
#     4  11  22  36  64  88 128 162 206 257 306 376
#     4  10  22  39  63  93 122 161 209 258 320 367
#     4  12  24  39  61  90 132 166 201 254 311 378
#     4   9  21  41  61  91 118 161 211 258 317 373
#     4  10  20  38  55  80 119 166 206 236 286 360
#     4  12  23  35  54  95 132 160 192 243 322 386
#     4  10  21  37  56  84 119 164 207 241 292 358
#
# _framework density 21.261614000000002
#
# number of rings (size 3 to 8) (size 9 to 14) (size 15 to 20)
#    0.000    1.429    1.429    5.571    6.000    0.000 
#    0.000    0.000    0.000    1.714    0.000    0.000 
#    0.000    0.000    0.000    0.000    0.000    0.000 
#
# Total GULP energy -78028.272713 kJ/mol
# GULP energy per Si atom -5573.448051 kJ/mol
# Density = 2.121322 g / cm^3
# Si number density = 21.261614 Si / 1000 Ang^3
#
#
#
# Elastic Constant Matrix: (Units=GPa)
#
#
# Indices 1 2 3 4 5 6 
#
# 1 101.1344 18.6306 11.6294 -6.9559 -1.2875 16.2719
# 2 18.6306 79.9127 1.2524 10.3566 -6.3662 10.3312
# 3 11.6294 1.2524 80.5817 -10.1312 10.1361 -1.0727
# 4 -6.9559 10.3566 -10.1312 34.3761 0.6855 8.2550
# 5 -1.2875 -6.3662 10.1361 0.6855 26.4957 -1.9338
# 6 16.2719 10.3312 -1.0727 8.2550 -1.9338 23.7051
#
#
#
# Elastic Compliance Matrix: (Units=1/GPa)
#
#
# Indices 1 2 3 4 5 6 
#
# 1 0.012289 -0.002331 -0.001183 0.005071 -0.000318 -0.009265
# 2 -0.002331 0.014300 -0.000934 -0.004446 0.003588 -0.002833
# 3 -0.001183 -0.000934 0.013846 0.004261 -0.005696 -0.000103
# 4 0.005071 -0.004446 0.004261 0.036242 -0.004436 -0.014333
# 5 -0.000318 0.003588 -0.005696 -0.004436 0.041123 0.003296
# 6 -0.009265 -0.002833 -0.000103 -0.014333 0.003296 0.055035
#
#
# Mechanical properties :
#
#
# Convention : Reuss Voigt Hill
#
# Bulk Modulus (GPa) = 31.70725 36.07262 33.88993
# Shear Modulus (GPa) = 26.00863 32.25647 29.13255
#
# Velocity S-wave (km/s) = 3.50132 3.89925 3.70563
# Velocity P-wave (km/s) = 5.59383 6.10534 5.85517
#
# Compressibility (1/GPa) = 0.03153853
#
# Stress axis : x y z
#
# Youngs Moduli (GPa) = 81.37535 69.92921 72.22362
#
# Poissons Ratio (x) = 0.16302 0.08544
# Poissons Ratio (y) = 0.18970 0.06745
# Poissons Ratio (z) = 0.09627 0.06531
#
# Static dielectric constant tensor:
#      x y z
#    x 1.954730 0.011700 0.112900 
#    y 0.011700 1.876330 -0.022240 
#    z 0.112900 -0.022240 1.892820 
# 
# From -- ./inp_files/65450.got.cif
#   From: 2010.05.17/outbox.cif.g08.bks.cpg/sg2_33_cif.got.tgz:65450.got - 2010.06.03 11:33:40.
