data_PCOD9101459
_publ_section_title
;
Structure prediction by ZEFSAII (Michael W. Deem and Ramdas Pophale) SiO2 
 PCOD9101459
Probable space group: P -1
;
_chemical_formula_sum "Si O2"
_cell_formula_units_Z 16
_cell_length_a 20.461225
_cell_length_b 11.100370
_cell_length_c 14.015739
_cell_angle_alpha 146.576769
_cell_angle_beta 29.103787
_cell_angle_gamma 148.745387
_cell_volume 753.296410
_symmetry_space_group_name_H-M "P -1"
_symmetry_group_IT_number 2
_symmetry_cell_setting 'triclinic'
loop_
_space_group_symop_operation_xyz
x,y,z
-x,-y,-z
loop_
_atom_site_type_symbol
_atom_site_label
_atom_site_fract_x
_atom_site_fract_y
_atom_site_fract_z
Si Si1 0.872510 0.785129 0.627910
Si Si2 0.382766 0.794590 0.630678
Si Si3 0.308410 0.743674 0.465941
Si Si4 0.189169 0.913591 0.246871
Si Si5 0.996135 0.228552 0.104302
Si Si6 0.929280 0.235244 0.969241
Si Si7 0.697090 0.455198 0.148549
Si Si8 0.647485 0.693759 0.550007
O O1 0.749086 0.542493 0.678292
O O2 0.007190 0.741326 0.380289
O O3 0.797139 0.869384 0.696732
O O4 0.959080 0.032676 0.743129
O O5 0.356658 0.754358 0.523104
O O6 0.356994 0.536986 0.537957
O O7 0.545000 0.017910 0.602818
O O8 0.250312 0.860344 0.870583
O O9 0.155105 0.766874 0.662121
O O10 0.261379 0.046416 0.341599
O O11 0.271434 0.765961 0.000217
O O12 0.172145 0.438270 0.028559
O O13 0.974285 0.233612 0.020526
O O14 0.000000 0.000000 0.000000
O O15 0.000000 0.500000 0.000000
O O16 0.711612 0.659164 0.343527
O O17 0.524799 0.351939 0.267797
#
# Coordination Sequence:
#
# PCOD9101459 Si02
#       8
#     2   2   2   2   2   2   2   2
#     4  11  21  36  63  92 121 161 208 268 317 372
#     4  10  20  38  59  87 121 160 207 260 312 374
#     4  10  21  37  60  87 121 163 207 252 317 382
#     4  11  21  37  61  94 126 158 212 269 321 373
#     4  11  22  41  63  88 125 171 208 251 319 392
#     4  11  23  39  67  98 124 161 214 265 314 373
#     4  11  23  38  61  89 124 166 212 259 317 381
#     4  11  22  38  62  91 123 164 211 267 320 369
#
# _framework density 21.239979000000002
#
# number of rings (size 3 to 8) (size 9 to 14) (size 15 to 20)
#    0.000    1.250    2.500    4.875    3.500    0.500 
#    0.000    1.250    5.500    0.000    0.000    0.000 
#    0.000    0.000    0.000    0.000    0.000    0.000 
#
# Total GULP energy -89218.314409 kJ/mol
# GULP energy per Si atom -5576.144651 kJ/mol
# Density = 2.119164 g / cm^3
# Si number density = 21.239979 Si / 1000 Ang^3
#
#
#
# Elastic Constant Matrix: (Units=GPa)
#
#
# Indices 1 2 3 4 5 6 
#
# 1 51.4000 7.2369 19.6667 7.5219 -14.4221 3.5123
# 2 7.2369 98.0394 17.6168 -0.0977 -12.8870 5.2888
# 3 19.6667 17.6168 93.2706 -5.3172 -26.8842 17.8177
# 4 7.5219 -0.0977 -5.3172 36.8900 11.3521 -4.8428
# 5 -14.4221 -12.8870 -26.8842 11.3521 37.0899 1.1928
# 6 3.5123 5.2888 17.8177 -4.8428 1.1928 29.2851
#
#
#
# Elastic Compliance Matrix: (Units=1/GPa)
#
#
# Indices 1 2 3 4 5 6 
#
# 1 0.024982 0.000191 -0.001760 -0.009414 0.011514 -0.003985
# 2 0.000191 0.010931 -0.000680 -0.001580 0.003927 -0.002004
# 3 -0.001760 -0.000680 0.016652 -0.002410 0.012231 -0.010694
# 4 -0.009414 -0.001580 -0.002410 0.035143 -0.017015 0.009385
# 5 0.011514 0.003927 0.012231 -0.017015 0.047335 -0.014273
# 6 -0.003985 -0.002004 -0.010694 0.009385 -0.014273 0.043627
#
#
# Mechanical properties :
#
#
# Convention : Reuss Voigt Hill
#
# Bulk Modulus (GPa) = 20.80418 36.86122 28.83270
# Shear Modulus (GPa) = 25.10142 33.86564 29.48353
#
# Velocity S-wave (km/s) = 3.44146 3.99736 3.72978
# Velocity P-wave (km/s) = 5.06040 6.22073 5.67032
#
# Compressibility (1/GPa) = 0.04806727
#
# Stress axis : x y z
#
# Youngs Moduli (GPa) = 40.02812 91.48405 60.05243
#
# Poissons Ratio (x) = -0.01750 0.10571
# Poissons Ratio (y) = -0.00766 0.04084
# Poissons Ratio (z) = 0.07046 0.06221
#
# Static dielectric constant tensor:
#      x y z
#    x 1.803230 0.005780 0.016210 
#    y 0.005780 1.829500 0.016790 
#    z 0.016210 0.016790 1.780540 
# 
# From -- ./inp_files/541170.got.cif
#   From: 2010.05.17/outbox.cif.g08.bks.cpg/sg2_271_cif.got.tgz:541170.got - 2010.06.03 11:33:40.
