data_PCOD9101294
_publ_section_title
;
Structure prediction by ZEFSAII (Michael W. Deem and Ramdas Pophale) SiO2 
 PCOD9101294
Probable space group: P -1
;
_chemical_formula_sum "Si O2"
_cell_formula_units_Z 12
_cell_length_a 14.038140
_cell_length_b 11.848888
_cell_length_c 10.695318
_cell_angle_alpha 60.161957
_cell_angle_beta 148.791005
_cell_angle_gamma 139.294153
_cell_volume 537.999383
_symmetry_space_group_name_H-M "P -1"
_symmetry_group_IT_number 2
_symmetry_cell_setting 'triclinic'
loop_
_space_group_symop_operation_xyz
x,y,z
-x,-y,-z
loop_
_atom_site_type_symbol
_atom_site_label
_atom_site_fract_x
_atom_site_fract_y
_atom_site_fract_z
Si Si1 0.920112 0.610021 0.868025
Si Si2 0.268884 0.054712 0.296842
Si Si3 0.882696 0.626255 0.101086
Si Si4 0.151444 0.686705 0.719888
Si Si5 0.463633 0.919545 0.199671
Si Si6 0.402110 0.556550 0.650982
O O1 0.722150 0.542743 0.570123
O O2 0.807397 0.571262 0.900410
O O3 0.000000 0.500000 0.000000
O O4 0.210562 0.833619 0.048549
O O5 0.385558 0.116540 0.535160
O O6 0.494251 0.240044 0.360129
O O7 0.166778 0.853645 0.283787
O O8 0.000000 0.000000 0.000000
O O9 0.882688 0.484916 0.240164
O O10 0.660438 0.599353 0.936139
O O11 0.848919 0.585187 0.458433
O O12 0.323389 0.856483 0.718950
O O13 0.321983 0.797176 0.979983
#
# Coordination Sequence:
#
# PCOD9101294 Si02
#       6
#     2   2   2   2   2   2
#     4  11  18  36  62  83 107 151 197 241 277 326
#     4  10  21  36  56  88 118 148 193 238 280 339
#     4  11  21  35  59  85 115 152 190 234 290 338
#     4  10  21  39  61  81 117 156 187 238 283 337
#     4  10  20  38  59  83 117 152 190 237 285 335
#     4  10  20  38  58  86 114 148 196 238 280 335
#
# _framework density 22.304859
#
# number of rings (size 3 to 8) (size 9 to 14) (size 15 to 20)
#    0.000    1.667    5.000    0.500    0.000    4.667 
#    0.000   14.167    0.000    0.000    0.000    0.000 
#    0.000    0.000    0.000    0.000    0.000    0.000 
#
# Total GULP energy -66999.519865 kJ/mol
# GULP energy per Si atom -5583.293322 kJ/mol
# Density = 2.225409 g / cm^3
# Si number density = 22.304859 Si / 1000 Ang^3
#
#
#
# Elastic Constant Matrix: (Units=GPa)
#
#
# Indices 1 2 3 4 5 6 
#
# 1 41.5041 44.0719 23.9059 -2.6016 17.6652 2.5608
# 2 44.0719 151.6820 23.4610 26.5422 29.0759 19.4841
# 3 23.9059 23.4610 75.3384 7.8070 8.7567 6.8798
# 4 -2.6016 26.5422 7.8070 39.2657 8.8542 2.2284
# 5 17.6652 29.0759 8.7567 8.8542 33.3806 5.6520
# 6 2.5608 19.4841 6.8798 2.2284 5.6520 30.3150
#
#
#
# Elastic Compliance Matrix: (Units=1/GPa)
#
#
# Indices 1 2 3 4 5 6 
#
# 1 0.059459 -0.016211 -0.014640 0.021962 -0.021203 0.011057
# 2 -0.016211 0.013649 0.002634 -0.010410 -0.000015 -0.007233
# 3 -0.014640 0.002634 0.017835 -0.006792 0.003360 -0.004631
# 4 0.021962 -0.010410 -0.006792 0.037627 -0.011735 0.005799
# 5 -0.021203 -0.000015 0.003360 -0.011735 0.044506 -0.006397
# 6 0.011057 -0.007233 -0.004631 0.005799 -0.006397 0.038519
#
#
# Mechanical properties :
#
#
# Convention : Reuss Voigt Hill
#
# Bulk Modulus (GPa) = 28.97705 50.15580 39.56642
# Shear Modulus (GPa) = 17.88720 32.39799 25.14259
#
# Velocity S-wave (km/s) = 2.83493 3.81531 3.36106
# Velocity P-wave (km/s) = 4.87189 6.47643 5.73060
#
# Compressibility (1/GPa) = 0.03451007
#
# Stress axis : x y z
#
# Youngs Moduli (GPa) = 16.81841 73.26578 56.07055
#
# Poissons Ratio (x) = 1.18768 0.82087
# Poissons Ratio (y) = 0.27264 -0.14771
# Poissons Ratio (z) = 0.24622 -0.19301
#
# Static dielectric constant tensor:
#      x y z
#    x 1.815650 -0.012150 -0.045600 
#    y -0.012150 1.849090 0.040860 
#    z -0.045600 0.040860 1.865970 
# 
# From -- ./inp_files/158096.got.cif
#   From: 2010.05.17/outbox.cif.g08.bks.cpg/sg2_80_cif.got.tgz:158096.got - 2010.06.03 11:33:40.
