data_PCOD9101634
_publ_section_title
;
Structure prediction by ZEFSAII (Michael W. Deem and Ramdas Pophale) SiO2 
 PCOD9101634
Probable space group: P -1
;
_chemical_formula_sum "Si O2"
_cell_formula_units_Z 16
_cell_length_a 13.011601
_cell_length_b 5.431529
_cell_length_c 13.339015
_cell_angle_alpha 111.583441
_cell_angle_beta 135.981294
_cell_angle_gamma 77.398145
_cell_volume 607.578613
_symmetry_space_group_name_H-M "P -1"
_symmetry_group_IT_number 2
_symmetry_cell_setting 'triclinic'
loop_
_space_group_symop_operation_xyz
x,y,z
-x,-y,-z
loop_
_atom_site_type_symbol
_atom_site_label
_atom_site_fract_x
_atom_site_fract_y
_atom_site_fract_z
Si Si1 0.719682 0.093551 0.198031
Si Si2 0.512337 0.609115 0.661808
Si Si3 0.012221 0.558306 0.191169
Si Si4 0.643703 0.911627 0.337598
Si Si5 0.031598 0.075873 0.417807
Si Si6 0.876756 0.199562 0.906808
Si Si7 0.292099 0.262580 0.359674
Si Si8 0.446548 0.394338 0.081226
O O1 0.697653 0.068036 0.297635
O O2 0.883441 0.217286 0.303405
O O3 0.587878 0.275559 0.104773
O O4 0.686744 0.791975 0.089216
O O5 0.404464 0.342827 0.539019
O O6 0.639690 0.584894 0.667052
O O7 0.568733 0.674107 0.821512
O O8 0.412673 0.852055 0.599088
O O9 0.067084 0.666311 0.136905
O O10 0.132013 0.363333 0.286447
O O11 0.016665 0.804476 0.303797
O O12 0.864603 0.386253 0.023869
O O13 0.508737 0.701771 0.181103
O O14 0.801423 0.797962 0.461573
O O15 0.000000 0.000000 0.500000
O O16 0.730770 0.030942 0.743806
O O17 0.000000 0.000000 0.000000
#
# Coordination Sequence:
#
# PCOD9101634 Si02
#       8
#     2   2   2   2   2   2   2   2
#     4   9  21  39  56  85 120 151 201 251 292 361
#     4  10  22  36  58  86 121 151 201 249 295 360
#     4  10  20  39  61  87 125 158 200 251 299 364
#     4  10  20  38  60  86 116 157 196 249 304 355
#     4  10  21  38  62  89 122 157 200 251 301 357
#     4   9  21  38  61  87 119 161 199 245 307 360
#     4  10  21  38  57  87 119 156 197 251 300 356
#     4  10  21  38  61  84 117 160 197 247 304 355
#
# _framework density 26.334040000000002
#
# number of rings (size 3 to 8) (size 9 to 14) (size 15 to 20)
#    0.000    2.250    1.250    0.375    1.750    5.500 
#    0.000   10.000    0.000    0.000    0.000    0.000 
#    0.000    0.000    0.000    0.000    0.000    0.000 
#
# Total GULP energy -89287.779668 kJ/mol
# GULP energy per Si atom -5580.486229 kJ/mol
# Density = 2.627410 g / cm^3
# Si number density = 26.334040 Si / 1000 Ang^3
#
#
#
# Elastic Constant Matrix: (Units=GPa)
#
#
# Indices 1 2 3 4 5 6 
#
# 1 63.2487 -0.9226 26.4344 0.4195 -5.2700 -13.5427
# 2 -0.9226 41.3053 18.1066 9.4026 -2.4112 -6.0573
# 3 26.4344 18.1066 110.9695 21.0306 -9.1116 -14.8730
# 4 0.4195 9.4026 21.0306 42.9107 -10.6812 -0.3594
# 5 -5.2700 -2.4112 -9.1116 -10.6812 53.5206 9.5616
# 6 -13.5427 -6.0573 -14.8730 -0.3594 9.5616 29.4021
#
#
#
# Elastic Compliance Matrix: (Units=1/GPa)
#
#
# Indices 1 2 3 4 5 6 
#
# 1 0.019239 0.003098 -0.004364 0.001402 0.000281 0.007218
# 2 0.003098 0.027687 -0.003756 -0.004448 -0.000955 0.005488
# 3 -0.004364 -0.003756 0.012051 -0.005049 -0.000144 0.003297
# 4 0.001402 -0.004448 -0.005049 0.028057 0.005437 -0.004250
# 5 0.000281 -0.000955 -0.000144 0.005437 0.020961 -0.006890
# 6 0.007218 0.005488 0.003297 -0.004250 -0.006890 0.042323
#
#
# Mechanical properties :
#
#
# Convention : Reuss Voigt Hill
#
# Bulk Modulus (GPa) = 20.43522 33.64002 27.03762
# Shear Modulus (GPa) = 28.30108 36.62702 32.46405
#
# Velocity S-wave (km/s) = 3.28181 3.73347 3.51490
# Velocity P-wave (km/s) = 4.70502 5.60243 5.17322
#
# Compressibility (1/GPa) = 0.04893512
#
# Stress axis : x y z
#
# Youngs Moduli (GPa) = 51.97690 36.11790 82.98263
#
# Poissons Ratio (x) = -0.11191 0.36212
# Poissons Ratio (y) = -0.16105 0.31165
# Poissons Ratio (z) = 0.22682 0.13565
#
# Static dielectric constant tensor:
#      x y z
#    x 1.911560 0.102230 -0.032830 
#    y 0.102230 2.130930 0.029640 
#    z -0.032830 0.029640 2.085380 
# 
# From -- ./inp_files/98521.got.cif
#   From: 2010.05.17/outbox.cif.g08.bks.cpg/sg2_50_cif.got.tgz:98521.got - 2010.06.03 11:33:40.
