data_PCOD9101965
_publ_section_title
;
Structure prediction by ZEFSAII (Michael W. Deem and Ramdas Pophale) SiO2 
 PCOD9101965
Probable space group: P -1
;
_chemical_formula_sum "Si O2"
_cell_formula_units_Z 16
_cell_length_a 21.025694
_cell_length_b 6.943437
_cell_length_c 11.327142
_cell_angle_alpha 119.279025
_cell_angle_beta 26.683296
_cell_angle_gamma 116.115775
_cell_volume 647.699760
_symmetry_space_group_name_H-M "P -1"
_symmetry_group_IT_number 2
_symmetry_cell_setting 'triclinic'
loop_
_space_group_symop_operation_xyz
x,y,z
-x,-y,-z
loop_
_atom_site_type_symbol
_atom_site_label
_atom_site_fract_x
_atom_site_fract_y
_atom_site_fract_z
Si Si1 0.859217 0.085189 0.200237
Si Si2 0.583411 0.930645 0.179780
Si Si3 0.153132 0.026530 0.394422
Si Si4 0.843093 0.310828 0.520250
Si Si5 0.594298 0.862039 0.640952
Si Si6 0.457382 0.654400 0.010140
Si Si7 0.083826 0.649430 0.210636
Si Si8 0.299150 0.792218 0.725459
O O1 0.830506 0.294428 0.394605
O O2 0.823291 0.155431 0.149692
O O3 0.750294 0.886281 0.343012
O O4 0.000000 0.000000 0.000000
O O5 0.448088 0.782188 0.401517
O O6 0.510150 0.140477 0.298564
O O7 0.666069 0.004589 0.182190
O O8 0.702726 0.869072 0.866838
O O9 0.158474 0.931840 0.489371
O O10 0.127978 0.800432 0.293879
O O11 0.028490 0.195282 0.625894
O O12 0.688851 0.407201 0.834835
O O13 0.988014 0.440411 0.345008
O O14 0.564240 0.102609 0.822967
O O15 0.571953 0.687744 0.727692
O O16 0.500000 0.500000 0.000000
O O17 0.223194 0.618844 0.888870
#
# Coordination Sequence:
#
# PCOD9101965 Si02
#       8
#     2   2   2   2   2   2   2   2
#     4  10  21  37  59  84 120 162 200 245 299 360
#     4   9  17  35  63  80 115 154 201 248 287 356
#     4  10  20  38  61  89 117 156 196 245 308 354
#     4  11  22  36  59  88 119 156 194 249 301 353
#     4   9  19  37  57  83 114 155 192 243 295 347
#     4  10  21  33  54  87 117 148 191 237 299 355
#     4  10  22  36  61  89 120 154 197 248 298 365
#     4   9  19  36  56  87 111 159 206 236 296 353
#
# _framework density 24.702805999999999
#
# number of rings (size 3 to 8) (size 9 to 14) (size 15 to 20)
#    0.000    2.250    1.250    1.125    1.750    1.500 
#    0.000    2.500    0.000    0.000    0.000   22.750 
#    0.000    0.000    0.000    0.000    0.000    0.000 
#
# Total GULP energy -89226.077560 kJ/mol
# GULP energy per Si atom -5576.629847 kJ/mol
# Density = 2.464658 g / cm^3
# Si number density = 24.702806 Si / 1000 Ang^3
#
#
#
# Elastic Constant Matrix: (Units=GPa)
#
#
# Indices 1 2 3 4 5 6 
#
# 1 100.8671 4.5563 2.8609 -0.2037 -0.4237 -9.5530
# 2 4.5563 80.0474 -8.2011 -13.4276 18.7411 -0.9739
# 3 2.8609 -8.2011 84.6404 -32.3107 7.0726 7.5690
# 4 -0.2037 -13.4276 -32.3107 25.5149 -12.0743 -2.7070
# 5 -0.4237 18.7411 7.0726 -12.0743 36.0662 -9.9001
# 6 -9.5530 -0.9739 7.5690 -2.7070 -9.9001 27.2393
#
#
#
# Elastic Compliance Matrix: (Units=1/GPa)
#
#
# Indices 1 2 3 4 5 6 
#
# 1 0.010465 -0.001333 -0.001448 -0.000985 0.002053 0.004673
# 2 -0.001333 0.017999 0.009630 0.018634 -0.005773 -0.002746
# 3 -0.001448 0.009630 0.029333 0.043258 0.002895 -0.002963
# 4 -0.000985 0.018634 0.043258 0.115323 0.022622 0.007983
# 5 0.002053 -0.005773 0.002895 0.022622 0.042537 0.017417
# 6 0.004673 -0.002746 -0.002963 0.007983 0.017417 0.046199
#
#
# Mechanical properties :
#
#
# Convention : Reuss Voigt Hill
#
# Bulk Modulus (GPa) = 13.98701 29.33189 21.65945
# Shear Modulus (GPa) = 18.38307 35.52000 26.95154
#
# Velocity S-wave (km/s) = 2.73091 3.79607 3.30666
# Velocity P-wave (km/s) = 3.95199 5.57792 4.83381
#
# Compressibility (1/GPa) = 0.07149489
#
# Stress axis : x y z
#
# Youngs Moduli (GPa) = 95.56105 55.55894 34.09114
#
# Poissons Ratio (x) = 0.07405 0.04937
# Poissons Ratio (y) = 0.12737 -0.32830
# Poissons Ratio (z) = 0.13838 -0.53504
#
# Static dielectric constant tensor:
#      x y z
#    x 1.987180 0.059590 0.035520 
#    y 0.059590 1.966890 0.038320 
#    z 0.035520 0.038320 2.167070 
# 
# From -- ./inp_files/468388.got.cif
#   From: 2010.05.17/outbox.cif.g08.bks.cpg/sg2_235_cif.got.tgz:468388.got - 2010.06.03 11:33:40.
