data_PCOD9101939
_publ_section_title
;
Structure prediction by ZEFSAII (Michael W. Deem and Ramdas Pophale) SiO2 
 PCOD9101939
Probable space group: P -1
;
_chemical_formula_sum "Si O2"
_cell_formula_units_Z 16
_cell_length_a 23.458493
_cell_length_b 6.177017
_cell_length_c 18.102933
_cell_angle_alpha 61.318304
_cell_angle_beta 22.264394
_cell_angle_gamma 74.710117
_cell_volume 732.234888
_symmetry_space_group_name_H-M "P -1"
_symmetry_group_IT_number 2
_symmetry_cell_setting 'triclinic'
loop_
_space_group_symop_operation_xyz
x,y,z
-x,-y,-z
loop_
_atom_site_type_symbol
_atom_site_label
_atom_site_fract_x
_atom_site_fract_y
_atom_site_fract_z
Si Si1 0.514826 0.228624 0.049471
Si Si2 0.756760 0.109033 0.687156
Si Si3 0.659702 0.971815 0.281778
Si Si4 0.087105 0.737968 0.949306
Si Si5 0.842751 0.824246 0.326387
Si Si6 0.857496 0.781698 0.989721
Si Si7 0.567936 0.477465 0.095669
Si Si8 0.834219 0.580253 0.891206
O O1 0.541656 0.243408 0.102618
O O2 0.337357 0.950755 0.270924
O O3 0.500000 0.500000 0.000000
O O4 0.684313 0.267115 0.797630
O O5 0.967751 0.269104 0.403562
O O6 0.671537 0.793298 0.880050
O O7 0.760683 0.979825 0.233443
O O8 0.500000 0.000000 0.500000
O O9 0.776195 0.270720 0.046898
O O10 0.680750 0.752662 0.240143
O O11 0.107226 0.868633 0.822989
O O12 0.129466 0.490893 0.953806
O O13 0.908608 0.670906 0.215899
O O14 0.633317 0.626241 0.624874
O O15 0.965514 0.930435 0.235410
O O16 0.846672 0.772575 0.915663
O O17 0.686604 0.513586 0.018028
#
# Coordination Sequence:
#
# PCOD9101939 Si02
#       8
#     2   2   2   2   2   2   2   2
#     4   9  21  39  62  85 114 155 197 246 292 343
#     4  10  22  41  61  87 118 154 200 243 292 352
#     4  10  22  40  59  87 123 156 195 244 297 355
#     4   9  20  37  61  89 118 154 198 247 295 351
#     4  10  20  38  61  88 119 153 199 248 294 348
#     4  10  22  39  63  87 117 159 196 241 299 356
#     4  11  23  38  60  88 120 155 197 245 293 350
#     4  11  24  39  59  88 121 156 196 243 297 355
#
# _framework density 21.850911
#
# number of rings (size 3 to 8) (size 9 to 14) (size 15 to 20)
#    0.000    2.000    0.000    2.250    0.000   15.500 
#    0.000    2.500    0.000    0.000    0.000    0.000 
#    0.000    0.000    0.000    0.000    0.000    0.000 
#
# Total GULP energy -89267.773499 kJ/mol
# GULP energy per Si atom -5579.235844 kJ/mol
# Density = 2.180118 g / cm^3
# Si number density = 21.850911 Si / 1000 Ang^3
#
#
#
# Elastic Constant Matrix: (Units=GPa)
#
#
# Indices 1 2 3 4 5 6 
#
# 1 156.6410 26.6078 49.7162 6.2333 -21.1066 20.5516
# 2 26.6078 81.9279 50.7962 31.0256 0.7070 -2.9223
# 3 49.7162 50.7962 176.7903 18.8531 -24.6033 5.6004
# 4 6.2333 31.0256 18.8531 33.4378 -6.3402 5.6352
# 5 -21.1066 0.7070 -24.6033 -6.3402 24.4141 -5.0543
# 6 20.5516 -2.9223 5.6004 5.6352 -5.0543 21.5006
#
#
#
# Elastic Compliance Matrix: (Units=1/GPa)
#
#
# Indices 1 2 3 4 5 6 
#
# 1 0.009610 -0.006104 -0.000290 0.007232 0.008011 -0.009953
# 2 -0.006104 0.029836 -0.006675 -0.028579 -0.017168 0.015084
# 3 -0.000290 -0.006675 0.008622 0.003398 0.009181 -0.001609
# 4 0.007232 -0.028579 0.003398 0.061080 0.021690 -0.022593
# 5 0.008011 -0.017168 0.009181 0.021690 0.062573 -0.003358
# 6 -0.009953 0.015084 -0.001609 -0.022593 -0.003358 0.063625
#
#
# Mechanical properties :
#
#
# Convention : Reuss Voigt Hill
#
# Bulk Modulus (GPa) = 45.60013 74.39994 60.00004
# Shear Modulus (GPa) = 18.60155 35.08644 26.84400
#
# Velocity S-wave (km/s) = 2.92086 4.01149 3.50881
# Velocity P-wave (km/s) = 5.68237 7.45513 6.62828
#
# Compressibility (1/GPa) = 0.02192976
#
# Stress axis : x y z
#
# Youngs Moduli (GPa) = 104.05420 33.51648 115.98044
#
# Poissons Ratio (x) = 0.20460 0.03360
# Poissons Ratio (y) = 0.63519 0.77419
# Poissons Ratio (z) = 0.03015 0.22373
#
# Static dielectric constant tensor:
#      x y z
#    x 1.879370 0.043460 -0.005140 
#    y 0.043460 1.883370 -0.005420 
#    z -0.005140 -0.005420 1.806450 
# 
# From -- ./inp_files/578684.got.cif
#   From: 2010.05.17/outbox.cif.g08.bks.cpg/sg2_290_cif.got.tgz:578684.got - 2010.06.03 11:33:40.
