data_PCOD9101218
_publ_section_title
;
Structure prediction by ZEFSAII (Michael W. Deem and Ramdas Pophale) SiO2 
 PCOD9101218
Probable space group: P -1
;
_chemical_formula_sum "Si O2"
_cell_formula_units_Z 16
_cell_length_a 14.696461
_cell_length_b 11.426784
_cell_length_c 14.240464
_cell_angle_alpha 139.020361
_cell_angle_beta 45.636792
_cell_angle_gamma 149.582152
_cell_volume 785.626355
_symmetry_space_group_name_H-M "P -1"
_symmetry_group_IT_number 2
_symmetry_cell_setting 'triclinic'
loop_
_space_group_symop_operation_xyz
x,y,z
-x,-y,-z
loop_
_atom_site_type_symbol
_atom_site_label
_atom_site_fract_x
_atom_site_fract_y
_atom_site_fract_z
Si Si1 0.186696 0.894127 0.041938
Si Si2 0.187597 0.152897 0.897725
Si Si3 0.793149 0.380669 0.647431
Si Si4 0.848989 0.335462 0.877029
Si Si5 0.038863 0.126664 0.284720
Si Si6 0.965749 0.606478 0.390555
Si Si7 0.681738 0.110123 0.383823
Si Si8 0.427096 0.742109 0.106468
O O1 0.209671 0.808406 0.069825
O O2 0.153912 0.068345 0.190516
O O3 0.005635 0.637658 0.967537
O O4 0.363924 0.053460 0.947196
O O5 0.281637 0.052092 0.779373
O O6 0.329687 0.451032 0.999213
O O7 0.125537 0.095562 0.798849
O O8 0.000000 0.000000 0.000000
O O9 0.842009 0.616333 0.707518
O O10 0.803736 0.248194 0.476196
O O11 0.606358 0.211033 0.737138
O O12 0.928143 0.456477 0.678379
O O13 0.681946 0.250944 0.888544
O O14 0.956053 0.300714 0.713175
O O15 0.990277 0.181565 0.447963
O O16 0.759741 0.337332 0.393591
O O17 0.500000 0.000000 0.500000
#
# Coordination Sequence:
#
# PCOD9101218 Si02
#       8
#     2   2   2   2   2   2   2   2
#     4  11  25  39  62  90 116 154 214 260 298 363
#     4  12  21  38  60  91 130 166 197 243 313 372
#     4  10  20  38  57  88 119 163 193 235 308 376
#     4  10  23  45  62  82 115 164 207 258 311 349
#     4  11  20  37  58  87 121 154 199 241 303 370
#     4  10  20  39  62  79 117 166 197 238 302 369
#     4  11  23  34  57  93 130 158 196 246 304 379
#     4  11  23  38  65  87 123 158 202 257 305 363
#
# _framework density 20.365915000000001
#
# number of rings (size 3 to 8) (size 9 to 14) (size 15 to 20)
#    0.000    1.250    5.000    1.875    5.250    1.000 
#    0.000    0.000    0.000    0.750    0.000    0.000 
#    0.000    0.000    0.000    0.000    0.000    0.000 
#
# Total GULP energy -89292.409464 kJ/mol
# GULP energy per Si atom -5580.775592 kJ/mol
# Density = 2.031956 g / cm^3
# Si number density = 20.365915 Si / 1000 Ang^3
#
#
#
# Elastic Constant Matrix: (Units=GPa)
#
#
# Indices 1 2 3 4 5 6 
#
# 1 38.3528 3.5362 17.8368 2.6280 -12.0017 -0.2908
# 2 3.5362 79.2273 32.7182 -18.9610 -8.9270 -9.2295
# 3 17.8368 32.7182 127.7264 -6.2379 -0.2724 -14.6804
# 4 2.6280 -18.9610 -6.2379 24.0992 1.3762 -1.1019
# 5 -12.0017 -8.9270 -0.2724 1.3762 30.9652 -7.4184
# 6 -0.2908 -9.2295 -14.6804 -1.1019 -7.4184 12.5481
#
#
#
# Elastic Compliance Matrix: (Units=1/GPa)
#
#
# Indices 1 2 3 4 5 6 
#
# 1 0.032947 0.001663 -0.004646 -0.004099 0.014537 0.004785
# 2 0.001663 0.021002 -0.002457 0.016021 0.010862 0.020440
# 3 -0.004646 -0.002457 0.010386 0.001737 -0.000007 0.010384
# 4 -0.004099 0.016021 0.001737 0.055672 0.005859 0.022074
# 5 0.014537 0.010862 -0.000007 0.005859 0.049997 0.038390
# 6 0.004785 0.020440 0.010384 0.022074 0.038390 0.131621
#
#
# Mechanical properties :
#
#
# Convention : Reuss Voigt Hill
#
# Bulk Modulus (GPa) = 18.70791 39.27656 28.99223
# Shear Modulus (GPa) = 15.13668 26.27017 20.70343
#
# Velocity S-wave (km/s) = 2.72919 3.59543 3.19183
# Velocity P-wave (km/s) = 4.37460 6.04677 5.27734
#
# Compressibility (1/GPa) = 0.05345332
#
# Stress axis : x y z
#
# Youngs Moduli (GPa) = 30.35146 47.61555 96.28570
#
# Poissons Ratio (x) = -0.07916 0.44736
# Poissons Ratio (y) = -0.05046 0.23658
# Poissons Ratio (z) = 0.14102 0.11699
#
# Static dielectric constant tensor:
#      x y z
#    x 1.763680 0.088880 0.012710 
#    y 0.088880 1.823330 0.001030 
#    z 0.012710 0.001030 1.748000 
# 
# From -- ./inp_files/179367.got.cif
#   From: 2010.05.17/outbox.cif.g08.bks.cpg/sg2_90_cif.got.tgz:179367.got - 2010.06.03 11:33:40.
