data_PCOD9101513
_publ_section_title
;
Structure prediction by ZEFSAII (Michael W. Deem and Ramdas Pophale) SiO2 
 PCOD9101513
Probable space group: P -1
;
_chemical_formula_sum "Si O2"
_cell_formula_units_Z 15
_cell_length_a 9.655909
_cell_length_b 13.721270
_cell_length_c 5.059516
_cell_angle_alpha 98.137818
_cell_angle_beta 90.963121
_cell_angle_gamma 101.701891
_cell_volume 649.083146
_symmetry_space_group_name_H-M "P -1"
_symmetry_group_IT_number 2
_symmetry_cell_setting 'triclinic'
loop_
_space_group_symop_operation_xyz
x,y,z
-x,-y,-z
loop_
_atom_site_type_symbol
_atom_site_label
_atom_site_fract_x
_atom_site_fract_y
_atom_site_fract_z
Si Si1 0.482931 0.386291 0.178003
Si Si2 0.723711 0.482754 0.616604
Si Si3 0.543743 0.752229 0.393707
Si Si4 0.836039 0.870804 0.480899
Si Si5 0.960303 0.170547 0.906822
Si Si6 0.060473 0.316410 0.348775
Si Si7 0.000000 0.000000 0.000000
Si Si8 0.227413 0.724344 0.408080
O O1 0.632876 0.437551 0.337445
O O2 0.384316 0.468179 0.192487
O O3 0.414049 0.311143 0.383391
O O4 0.478854 0.319273 0.892375
O O5 0.854323 0.571328 0.580051
O O6 0.769479 0.389635 0.728051
O O7 0.672763 0.844791 0.388086
O O8 0.391084 0.772524 0.479946
O O9 0.883505 0.764285 0.498977
O O10 0.941461 0.905548 0.244967
O O11 0.868170 0.940212 0.760928
O O12 0.838113 0.204461 0.759248
O O13 0.909719 0.092621 0.108842
O O14 0.068045 0.270495 0.041791
O O15 0.891760 0.301130 0.378971
#
# Coordination Sequence:
#
# PCOD9101513 Si02
#       8
#     2   2   2   2   2   2   1   2
#     4  10  23  39  61  93 136 178 226 260 307 374
#     4  10  20  38  59  92 132 179 222 260 306 370
#     4  11  23  43  65  94 133 175 216 268 318 378
#     4  10  21  40  69  94 119 162 214 265 321 393
#     4  10  22  41  64  92 125 161 211 270 329 384
#     4  10  20  40  58  91 129 172 215 261 309 380
#     4  10  22  42  72  94 120 152 214 274 328 396
#     4  10  24  37  58  93 132 172 209 268 319 373
#
# _framework density 23.109521000000001
#
# number of rings (size 3 to 8) (size 9 to 14) (size 15 to 20)
#    0.000    1.867    1.333    1.600    5.600    5.333 
#    9.600    0.667    0.000    8.000    0.000    0.000 
#    0.000    0.000    0.000    0.000    0.000    0.000 
#
# Total GULP energy -83502.881343 kJ/mol
# GULP energy per Si atom -5566.858756 kJ/mol
# Density = 2.305692 g / cm^3
# Si number density = 23.109521 Si / 1000 Ang^3
#
#
#
# Elastic Constant Matrix: (Units=GPa)
#
#
# Indices 1 2 3 4 5 6 
#
# 1 137.7976 56.8916 28.5063 8.5769 4.0555 20.7793
# 2 56.8916 118.3196 14.8273 6.0546 12.8055 -0.2634
# 3 28.5063 14.8273 100.8432 7.3919 -1.3674 13.1953
# 4 8.5769 6.0546 7.3919 23.1871 2.6096 12.1537
# 5 4.0555 12.8055 -1.3674 2.6096 17.6203 -1.0451
# 6 20.7793 -0.2634 13.1953 12.1537 -1.0451 39.7054
#
#
#
# Elastic Compliance Matrix: (Units=1/GPa)
#
#
# Indices 1 2 3 4 5 6 
#
# 1 0.010298 -0.004866 -0.001565 0.000530 0.000667 -0.005046
# 2 -0.004866 0.011748 -0.000732 -0.001971 -0.006988 0.003287
# 3 -0.001565 -0.000732 0.010912 -0.001751 0.001866 -0.002227
# 4 0.000530 -0.001971 -0.001751 0.053390 -0.007697 -0.016254
# 5 0.000667 -0.006988 0.001866 -0.007697 0.063140 0.003002
# 6 -0.005046 0.003287 -0.002227 -0.016254 0.003002 0.033642
#
#
# Mechanical properties :
#
#
# Convention : Reuss Voigt Hill
#
# Bulk Modulus (GPa) = 53.67523 61.93452 57.80488
# Shear Modulus (GPa) = 24.54987 33.21824 28.88405
#
# Velocity S-wave (km/s) = 3.26287 3.79545 3.53919
# Velocity P-wave (km/s) = 6.12144 6.78719 6.46289
#
# Compressibility (1/GPa) = 0.01863057
#
# Stress axis : x y z
#
# Youngs Moduli (GPa) = 97.10484 85.12374 91.64627
#
# Poissons Ratio (x) = 0.41422 0.14344
# Poissons Ratio (y) = 0.47252 0.06710
# Poissons Ratio (z) = 0.15198 0.06232
#
# Static dielectric constant tensor:
#      x y z
#    x 1.934130 0.043520 -0.128650 
#    y 0.043520 2.028320 -0.191460 
#    z -0.128650 -0.191460 2.124240 
# 
# From -- ./inp_files/39906.got.cif
#   From: 2010.05.17/outbox.cif.g08.bks.cpg/sg2_20_cif.got.tgz:39906.got - 2010.06.03 11:33:40.
