data_PCOD9101500
_publ_section_title
;
Structure prediction by ZEFSAII (Michael W. Deem and Ramdas Pophale) SiO2 
 PCOD9101500
Probable space group: P -1
;
_chemical_formula_sum "Si O2"
_cell_formula_units_Z 12
_cell_length_a 8.486831
_cell_length_b 8.122186
_cell_length_c 13.555433
_cell_angle_alpha 134.262356
_cell_angle_beta 68.572484
_cell_angle_gamma 133.976343
_cell_volume 468.472319
_symmetry_space_group_name_H-M "P -1"
_symmetry_group_IT_number 2
_symmetry_cell_setting 'triclinic'
loop_
_space_group_symop_operation_xyz
x,y,z
-x,-y,-z
loop_
_atom_site_type_symbol
_atom_site_label
_atom_site_fract_x
_atom_site_fract_y
_atom_site_fract_z
Si Si1 0.663019 0.580084 0.179680
Si Si2 0.126510 0.885029 0.242172
Si Si3 0.270561 0.548898 0.337358
Si Si4 0.766780 0.973770 0.151118
Si Si5 0.496903 0.117225 0.391448
Si Si6 0.789784 0.190214 0.026972
O O1 0.468492 0.558238 0.259311
O O2 0.642940 0.292055 0.086343
O O3 0.907180 0.848913 0.286306
O O4 0.696585 0.675877 0.097312
O O5 0.028267 0.538408 0.140770
O O6 0.336177 0.125337 0.363207
O O7 0.189383 0.920156 0.127593
O O8 0.023571 0.252981 0.239368
O O9 0.308324 0.602687 0.468327
O O10 0.331894 0.843290 0.392733
O O11 0.611156 0.031735 0.258550
O O12 0.750109 0.988667 0.044119
#
# Coordination Sequence:
#
# PCOD9101500 Si02
#       6
#     2   2   2   2   2   2
#     4   9  21  38  61  91 115 153 197 242 291 349
#     4   9  19  42  58  85 121 154 194 242 295 338
#     4  10  20  38  59  91 122 150 196 247 288 348
#     4  11  21  38  62  88 117 159 194 235 300 347
#     4  10  21  37  63  86 120 159 194 240 293 351
#     4   9  20  41  61  84 122 153 192 249 286 346
#
# _framework density 25.615172999999999
#
# number of rings (size 3 to 8) (size 9 to 14) (size 15 to 20)
#    1.000    1.333    1.667    0.500    0.000    3.333 
#    0.000    9.167    0.000    1.000    0.000    0.000 
#    0.000    0.000    0.000    0.000    0.000    0.000 
#
# Total GULP energy -67161.529101 kJ/mol
# GULP energy per Si atom -5596.794092 kJ/mol
# Density = 2.555687 g / cm^3
# Si number density = 25.615173 Si / 1000 Ang^3
#
#
#
# Elastic Constant Matrix: (Units=GPa)
#
#
# Indices 1 2 3 4 5 6 
#
# 1 110.8543 21.1826 25.7161 5.7609 32.4951 1.5611
# 2 21.1826 112.6673 19.4795 -5.7924 4.4543 -28.7023
# 3 25.7161 19.4795 104.6716 -6.6385 42.7630 -9.2675
# 4 5.7609 -5.7924 -6.6385 28.9622 4.5257 9.2475
# 5 32.4951 4.4543 42.7630 4.5257 42.8480 -0.3569
# 6 1.5611 -28.7023 -9.2675 9.2475 -0.3569 39.9799
#
#
#
# Elastic Compliance Matrix: (Units=1/GPa)
#
#
# Indices 1 2 3 4 5 6 
#
# 1 0.012343 -0.002729 0.001647 -0.000283 -0.010709 -0.002089
# 2 -0.002729 0.011679 -0.002074 -0.000694 0.003067 0.008198
# 3 0.001647 -0.002074 0.018067 0.006147 -0.019706 0.001037
# 4 -0.000283 -0.000694 0.006147 0.040135 -0.010158 -0.008436
# 5 -0.010709 0.003067 -0.019706 -0.010158 0.051888 0.000865
# 6 -0.002089 0.008198 0.001037 -0.008436 0.000865 0.033179
#
#
# Mechanical properties :
#
#
# Convention : Reuss Voigt Hill
#
# Bulk Modulus (GPa) = 27.94991 51.21661 39.58326
# Shear Modulus (GPa) = 26.94990 39.81236 33.38113
#
# Velocity S-wave (km/s) = 3.24714 3.94667 3.61387
# Velocity P-wave (km/s) = 4.99937 6.38799 5.73585
#
# Compressibility (1/GPa) = 0.03577829
#
# Stress axis : x y z
#
# Youngs Moduli (GPa) = 81.01470 85.62398 55.34849
#
# Poissons Ratio (x) = 0.23367 -0.09119
# Poissons Ratio (y) = 0.22109 0.11481
# Poissons Ratio (z) = -0.13347 0.17760
#
# Static dielectric constant tensor:
#      x y z
#    x 2.018450 0.014670 0.035700 
#    y 0.014670 2.118770 0.060670 
#    z 0.035700 0.060670 1.962530 
# 
# From -- ./inp_files/221167.got.cif
#   From: 2010.05.17/outbox.cif.g08.bks.cpg/sg2_111_cif.got.tgz:221167.got - 2010.06.03 11:33:40.
