data_PCOD9101599
_publ_section_title
;
Structure prediction by ZEFSAII (Michael W. Deem and Ramdas Pophale) SiO2 
 PCOD9101599
Probable space group: P -1
;
_chemical_formula_sum "Si O2"
_cell_formula_units_Z 16
_cell_length_a 9.960239
_cell_length_b 5.719187
_cell_length_c 18.714022
_cell_angle_alpha 48.020682
_cell_angle_beta 48.880776
_cell_angle_gamma 64.724623
_cell_volume 596.847333
_symmetry_space_group_name_H-M "P -1"
_symmetry_group_IT_number 2
_symmetry_cell_setting 'triclinic'
loop_
_space_group_symop_operation_xyz
x,y,z
-x,-y,-z
loop_
_atom_site_type_symbol
_atom_site_label
_atom_site_fract_x
_atom_site_fract_y
_atom_site_fract_z
Si Si1 0.421605 0.837396 0.735701
Si Si2 0.911668 0.910808 0.124931
Si Si3 0.065999 0.809739 0.585082
Si Si4 0.250886 0.970244 0.266332
Si Si5 0.787977 0.994565 0.885340
Si Si6 0.498416 0.486367 0.901221
Si Si7 0.707237 0.259170 0.355450
Si Si8 0.665751 0.427564 0.553720
O O1 0.491329 0.515739 0.810523
O O2 0.332679 0.852441 0.687320
O O3 0.272518 0.920532 0.828895
O O4 0.583184 0.085029 0.630235
O O5 0.847386 0.549364 0.233928
O O6 0.047587 0.012553 0.118473
O O7 0.000000 0.000000 0.000000
O O8 0.201445 0.943112 0.572864
O O9 0.178250 0.527149 0.568458
O O10 0.883148 0.790618 0.696488
O O11 0.000000 0.000000 0.500000
O O12 0.175078 0.897663 0.230105
O O13 0.433527 0.179098 0.159975
O O14 0.265493 0.657557 0.373719
O O15 0.642794 0.225996 0.921894
O O16 0.691066 0.654747 0.980146
O O17 0.510677 0.366486 0.428193
#
# Coordination Sequence:
#
# PCOD9101599 Si02
#       8
#     2   2   2   2   2   2   2   2
#     4  10  22  40  62  87 118 157 199 240 295 356
#     4  11  25  40  59  91 125 156 197 244 291 351
#     4  10  21  38  61  88 119 156 198 247 299 347
#     4  10  20  38  60  84 119 156 195 245 295 350
#     4  11  22  37  59  87 119 158 202 239 292 355
#     4  10  22  37  58  87 119 153 197 246 293 350
#     4  11  21  39  64  86 120 161 196 243 295 349
#     4   9  21  39  60  88 118 151 197 247 296 350
#
# _framework density 26.807525999999999
#
# number of rings (size 3 to 8) (size 9 to 14) (size 15 to 20)
#    0.000    1.750    0.000    3.750    0.000    9.500 
#    0.000    2.500    0.000   18.000    0.000    0.000 
#    0.000    0.000    0.000    0.000    0.000    0.000 
#
# Total GULP energy -89522.412953 kJ/mol
# GULP energy per Si atom -5595.150810 kJ/mol
# Density = 2.674651 g / cm^3
# Si number density = 26.807526 Si / 1000 Ang^3
#
#
#
# Elastic Constant Matrix: (Units=GPa)
#
#
# Indices 1 2 3 4 5 6 
#
# 1 191.2917 21.5123 71.8489 13.1654 21.8935 -2.3365
# 2 21.5123 46.2730 37.2025 5.4875 5.5493 -10.3852
# 3 71.8489 37.2025 132.5762 20.3311 6.4207 2.9434
# 4 13.1654 5.4875 20.3311 45.5627 3.8310 8.5590
# 5 21.8935 5.5493 6.4207 3.8310 54.8612 6.3776
# 6 -2.3365 -10.3852 2.9434 8.5590 6.3776 32.0823
#
#
#
# Elastic Compliance Matrix: (Units=1/GPa)
#
#
# Indices 1 2 3 4 5 6 
#
# 1 0.006915 0.000517 -0.003731 -0.000492 -0.002532 0.001648
# 2 0.000517 0.032197 -0.009105 -0.002013 -0.003718 0.012572
# 3 -0.003731 -0.009105 0.012563 -0.002826 0.001594 -0.003935
# 4 -0.000492 -0.002013 -0.002826 0.024932 -0.000192 -0.007042
# 5 -0.002532 -0.003718 0.001594 -0.000192 0.020078 -0.005474
# 6 0.001648 0.012572 -0.003935 -0.007042 -0.005474 0.038687
#
#
# Mechanical properties :
#
#
# Convention : Reuss Voigt Hill
#
# Bulk Modulus (GPa) = 36.98710 70.14091 53.56400
# Shear Modulus (GPa) = 29.58172 42.47307 36.02739
#
# Velocity S-wave (km/s) = 3.32548 3.98473 3.66994
# Velocity P-wave (km/s) = 5.34531 6.88420 6.16298
#
# Compressibility (1/GPa) = 0.02703646
#
# Stress axis : x y z
#
# Youngs Moduli (GPa) = 144.62133 31.05859 79.59654
#
# Poissons Ratio (x) = -0.01605 0.29696
# Poissons Ratio (y) = -0.07474 0.72475
# Poissons Ratio (z) = 0.53956 0.28280
#
# Static dielectric constant tensor:
#      x y z
#    x 2.046540 0.025110 0.022230 
#    y 0.025110 2.175810 -0.060620 
#    z 0.022230 -0.060620 2.154210 
# 
# From -- ./inp_files/99705.got.cif
#   From: 2010.05.17/outbox.cif.g08.bks.cpg/sg2_50_cif.got.tgz:99705.got - 2010.06.03 11:33:40.
