data_PCOD9101452
_publ_section_title
;
Structure prediction by ZEFSAII (Michael W. Deem and Ramdas Pophale) SiO2 
 PCOD9101452
Probable space group: P -1
;
_chemical_formula_sum "Si O2"
_cell_formula_units_Z 16
_cell_length_a 8.464125
_cell_length_b 11.002824
_cell_length_c 16.184568
_cell_angle_alpha 53.149266
_cell_angle_beta 135.563272
_cell_angle_gamma 93.258985
_cell_volume 632.235224
_symmetry_space_group_name_H-M "P -1"
_symmetry_group_IT_number 2
_symmetry_cell_setting 'triclinic'
loop_
_space_group_symop_operation_xyz
x,y,z
-x,-y,-z
loop_
_atom_site_type_symbol
_atom_site_label
_atom_site_fract_x
_atom_site_fract_y
_atom_site_fract_z
Si Si1 0.235551 0.779640 0.637511
Si Si2 0.617271 0.750360 0.917030
Si Si3 0.527270 0.453015 0.369751
Si Si4 0.847342 0.645145 0.654693
Si Si5 0.192980 0.051244 0.380258
Si Si6 0.599389 0.201756 0.724805
Si Si7 0.851150 0.806037 0.369831
Si Si8 0.008986 0.822277 0.932667
O O1 0.507574 0.665447 0.849306
O O2 0.074896 0.701091 0.576953
O O3 0.276301 0.858005 0.536241
O O4 0.000000 0.000000 0.500000
O O5 0.778926 0.796135 0.894672
O O6 0.346869 0.954878 0.781191
O O7 0.849642 0.587639 0.137346
O O8 0.368066 0.364137 0.364033
O O9 0.416335 0.614946 0.335821
O O10 0.892098 0.304162 0.560121
O O11 0.341081 0.608294 0.159822
O O12 0.942496 0.765370 0.680050
O O13 0.624854 0.747898 0.452862
O O14 0.037147 0.115233 0.205956
O O15 0.500000 0.000000 0.500000
O O16 0.411867 0.202228 0.729049
O O17 0.917503 0.000885 0.887989
#
# Coordination Sequence:
#
# PCOD9101452 Si02
#       8
#     2   2   2   2   2   2   2   2
#     4  10  20  38  59  86 126 167 187 243 316 367
#     4   9  20  38  60  87 128 161 191 246 319 369
#     4  11  24  40  65  91 120 164 211 251 298 361
#     4  11  23  38  64  95 121 158 204 253 309 365
#     4  12  20  37  64  93 126 153 201 257 306 362
#     4  11  22  45  62  85 127 166 205 253 301 357
#     4  10  22  41  61  85 121 166 206 246 304 358
#     4  10  22  38  65  93 120 159 206 253 307 363
#
# _framework density 25.307037999999999
#
# number of rings (size 3 to 8) (size 9 to 14) (size 15 to 20)
#    0.000    1.500    2.500    3.375    1.750    1.000 
#    4.500    3.750    0.000    0.000    0.000    0.000 
#    0.000    0.000    0.000    0.000    0.000    0.000 
#
# Total GULP energy -89146.388484 kJ/mol
# GULP energy per Si atom -5571.649280 kJ/mol
# Density = 2.524944 g / cm^3
# Si number density = 25.307038 Si / 1000 Ang^3
#
#
#
# Elastic Constant Matrix: (Units=GPa)
#
#
# Indices 1 2 3 4 5 6 
#
# 1 51.8612 -4.5910 24.1500 -10.3361 14.8430 4.0726
# 2 -4.5910 69.6278 -24.2948 3.8706 6.9567 12.1330
# 3 24.1500 -24.2948 84.8087 -14.0641 16.0902 13.6723
# 4 -10.3361 3.8706 -14.0641 24.6396 -11.3356 3.8045
# 5 14.8430 6.9567 16.0902 -11.3356 43.0290 -5.6898
# 6 4.0726 12.1330 13.6723 3.8045 -5.6898 24.3300
#
#
#
# Elastic Compliance Matrix: (Units=1/GPa)
#
#
# Indices 1 2 3 4 5 6 
#
# 1 0.024517 0.001776 -0.003320 0.005898 -0.006691 -0.005611
# 2 0.001776 0.023640 0.012351 0.002251 -0.011374 -0.022039
# 3 -0.003320 0.012351 0.023277 0.008713 -0.010227 -0.022438
# 4 0.005898 0.002251 0.008713 0.052758 0.006423 -0.013754
# 5 -0.006691 -0.011374 -0.010227 0.006423 0.035527 0.019843
# 6 -0.005611 -0.022039 -0.022438 -0.013754 0.019843 0.072431
#
#
# Mechanical properties :
#
#
# Convention : Reuss Voigt Hill
#
# Bulk Modulus (GPa) = 10.74726 21.86956 16.30841
# Shear Modulus (GPa) = 20.69929 32.46861 26.58395
#
# Velocity S-wave (km/s) = 2.86304 3.58577 3.24459
# Velocity P-wave (km/s) = 3.89684 5.07977 4.52711
#
# Compressibility (1/GPa) = 0.09304698
#
# Stress axis : x y z
#
# Youngs Moduli (GPa) = 40.78835 42.30079 42.96017
#
# Poissons Ratio (x) = -0.07514 0.14265
# Poissons Ratio (y) = -0.07245 -0.53058
# Poissons Ratio (z) = 0.13544 -0.52244
#
# Static dielectric constant tensor:
#      x y z
#    x 2.199540 -0.056510 -0.021010 
#    y -0.056510 2.180380 -0.029880 
#    z -0.021010 -0.029880 2.024970 
# 
# From -- ./inp_files/493092.got.cif
#   From: 2010.05.17/outbox.cif.g08.bks.cpg/sg2_247_cif.got.tgz:493092.got - 2010.06.03 11:33:40.
