data_PCOD9101115
_publ_section_title
;
Structure prediction by ZEFSAII (Michael W. Deem and Ramdas Pophale) SiO2 
 PCOD9101115
Probable space group: P -1
;
_chemical_formula_sum "Si O2"
_cell_formula_units_Z 14
_cell_length_a 8.571787
_cell_length_b 23.256358
_cell_length_c 7.497956
_cell_angle_alpha 132.980331
_cell_angle_beta 51.629794
_cell_angle_gamma 152.550541
_cell_volume 503.520795
_symmetry_space_group_name_H-M "P -1"
_symmetry_group_IT_number 2
_symmetry_cell_setting 'triclinic'
loop_
_space_group_symop_operation_xyz
x,y,z
-x,-y,-z
loop_
_atom_site_type_symbol
_atom_site_label
_atom_site_fract_x
_atom_site_fract_y
_atom_site_fract_z
Si Si1 0.565266 0.213585 0.526872
Si Si2 0.212869 0.893330 0.334802
Si Si3 0.638705 0.406112 0.928310
Si Si4 0.986985 0.129856 0.907922
Si Si5 0.078989 0.335315 0.733935
Si Si6 0.446397 0.317510 0.263465
Si Si7 0.727816 0.869951 0.791388
O O1 0.831038 0.264369 0.586385
O O2 0.447582 0.137282 0.261386
O O3 0.225936 0.129344 0.701441
O O4 0.711338 0.347315 0.653665
O O5 0.316500 0.957493 0.199479
O O6 0.108287 0.771520 0.203243
O O7 0.929368 0.865803 0.536487
O O8 0.500000 0.000000 0.500000
O O9 0.683091 0.405106 0.108877
O O10 0.778570 0.533802 0.043804
O O11 0.225185 0.274307 0.947675
O O12 0.070048 0.176695 0.150280
O O13 0.389552 0.377632 0.542229
O O14 0.531275 0.265093 0.194683
O O15 0.000000 0.000000 0.000000
#
# Coordination Sequence:
#
# PCOD9101115 Si02
#       7
#     2   2   2   2   2   2   2
#     4   8  19  34  51  81 103 135 177 209 258 314
#     4  10  22  36  52  80 106 135 181 217 253 311
#     4   8  18  36  56  73 111 136 173 206 268 314
#     4   7  18  37  51  71 110 136 171 206 266 307
#     4  11  18  33  58  81 104 136 171 222 258 301
#     4   8  19  34  53  78 103 133 178 212 256 304
#     4  10  20  38  55  72 106 147 173 211 261 310
#
# _framework density 27.804214999999999
#
# number of rings (size 3 to 8) (size 9 to 14) (size 15 to 20)
#    1.714    1.143    0.000    0.857    0.000    5.143 
#    0.000    8.571    0.000    0.000    0.000    0.000 
#    0.000    0.000    0.000    0.000    0.000    0.000 
#
# Total GULP energy -78058.006757 kJ/mol
# GULP energy per Si atom -5575.571911 kJ/mol
# Density = 2.774093 g / cm^3
# Si number density = 27.804215 Si / 1000 Ang^3
#
#
#
# Elastic Constant Matrix: (Units=GPa)
#
#
# Indices 1 2 3 4 5 6 
#
# 1 124.7176 17.8784 15.7980 -3.3537 -0.2626 -35.4814
# 2 17.8784 90.4287 14.7707 2.4535 -11.1878 -30.2444
# 3 15.7980 14.7707 89.7160 -1.4590 -12.6265 -11.7941
# 4 -3.3537 2.4535 -1.4590 34.2822 -8.3140 1.8642
# 5 -0.2626 -11.1878 -12.6265 -8.3140 57.3958 1.4731
# 6 -35.4814 -30.2444 -11.7941 1.8642 1.4731 48.1497
#
#
#
# Elastic Compliance Matrix: (Units=1/GPa)
#
#
# Indices 1 2 3 4 5 6 
#
# 1 0.010252 0.000682 -0.000913 0.000457 -0.000154 0.007746
# 2 0.000682 0.014513 -0.000982 -0.000980 0.002234 0.009348
# 3 -0.000913 -0.000982 0.012049 0.001032 0.002565 0.001543
# 4 0.000457 -0.000980 0.001032 0.030490 0.004489 -0.001344
# 5 -0.000154 0.002234 0.002565 0.004489 0.019042 0.001162
# 6 0.007746 0.009348 0.001543 -0.001344 0.001162 0.032743
#
#
# Mechanical properties :
#
#
# Convention : Reuss Voigt Hill
#
# Bulk Modulus (GPa) = 29.08095 44.63961 36.86028
# Shear Modulus (GPa) = 37.59967 45.05989 41.32978
#
# Velocity S-wave (km/s) = 3.68135 4.03005 3.85964
# Velocity P-wave (km/s) = 5.34338 6.14369 5.75746
#
# Compressibility (1/GPa) = 0.03438677
#
# Stress axis : x y z
#
# Youngs Moduli (GPa) = 97.54454 68.90141 82.99138
#
# Poissons Ratio (x) = -0.04696 0.07580
# Poissons Ratio (y) = -0.06649 0.08151
# Poissons Ratio (z) = 0.08910 0.06767
#
# Static dielectric constant tensor:
#      x y z
#    x 2.467920 0.221160 0.152110 
#    y 0.221160 2.443940 0.029940 
#    z 0.152110 0.029940 2.283860 
# 
# From -- ./inp_files/215729.got.cif
#   From: 2010.05.17/outbox.cif.g08.bks.cpg/sg2_108_cif.got.tgz:215729.got - 2010.06.03 11:33:40.
