data_PCOD9101129
_publ_section_title
;
Structure prediction by ZEFSAII (Michael W. Deem and Ramdas Pophale) SiO2 
 PCOD9101129
Probable space group: P -1
;
_chemical_formula_sum "Si O2"
_cell_formula_units_Z 12
_cell_length_a 5.556644
_cell_length_b 8.695881
_cell_length_c 11.436759
_cell_angle_alpha 109.533449
_cell_angle_beta 80.547729
_cell_angle_gamma 86.883185
_cell_volume 510.184600
_symmetry_space_group_name_H-M "P -1"
_symmetry_group_IT_number 2
_symmetry_cell_setting 'triclinic'
loop_
_space_group_symop_operation_xyz
x,y,z
-x,-y,-z
loop_
_atom_site_type_symbol
_atom_site_label
_atom_site_fract_x
_atom_site_fract_y
_atom_site_fract_z
Si Si1 0.707097 0.564965 0.419184
Si Si2 0.523022 0.679712 0.991184
Si Si3 0.806266 0.096653 0.774106
Si Si4 0.005393 0.254232 0.364556
Si Si5 0.635762 0.156887 0.554079
Si Si6 0.016372 0.809601 0.990384
O O1 0.500000 0.500000 0.500000
O O2 0.846819 0.674712 0.523785
O O3 0.561089 0.683230 0.367753
O O4 0.897234 0.407261 0.332867
O O5 0.448037 0.817130 0.131883
O O6 0.795650 0.711924 0.940885
O O7 0.297869 0.724113 0.928354
O O8 0.500000 0.500000 0.000000
O O9 0.812202 0.128779 0.644430
O O10 0.993881 0.178919 0.862951
O O11 0.839674 0.902031 0.743422
O O12 0.780747 0.185202 0.431411
O O13 0.500000 0.000000 0.500000
O O14 0.000000 0.000000 0.000000
#
# Coordination Sequence:
#
# PCOD9101129 Si02
#       6
#     2   2   2   2   2   2
#     4   9  20  35  55  76 124 166 211 251 303 357
#     4  10  23  44  70  95 132 164 220 279 333 386
#     4  10  24  35  65  93 127 168 218 257 328 378
#     4  10  20  38  55  87 124 168 207 257 302 381
#     4  11  21  35  60  90 129 167 206 257 310 379
#     4  10  23  44  70  94 129 169 220 274 333 389
#
# _framework density 23.520900999999999
#
# number of rings (size 3 to 8) (size 9 to 14) (size 15 to 20)
#    1.000    1.000    1.667    1.500    2.333    0.000 
#    3.000    5.000    0.000    0.000    0.000    0.000 
#    0.000    0.000    0.000    0.000    0.000    0.000 
#
# Total GULP energy -66929.079788 kJ/mol
# GULP energy per Si atom -5577.423316 kJ/mol
# Density = 2.346737 g / cm^3
# Si number density = 23.520901 Si / 1000 Ang^3
#
#
#
# Elastic Constant Matrix: (Units=GPa)
#
#
# Indices 1 2 3 4 5 6 
#
# 1 146.5056 71.7239 15.4075 13.6013 18.4966 1.5476
# 2 71.7239 119.8113 21.2579 20.9531 2.3172 -22.0338
# 3 15.4075 21.2579 75.1993 5.0396 -4.1326 -8.3539
# 4 13.6013 20.9531 5.0396 30.7848 -10.1466 -2.9706
# 5 18.4966 2.3172 -4.1326 -10.1466 24.2193 8.2531
# 6 1.5476 -22.0338 -8.3539 -2.9706 8.2531 57.4546
#
#
#
# Elastic Compliance Matrix: (Units=1/GPa)
#
#
# Indices 1 2 3 4 5 6 
#
# 1 0.011536 -0.006127 -0.001068 -0.004057 -0.009542 -0.001655
# 2 -0.006127 0.014601 -0.001904 -0.006996 -0.001809 0.005386
# 3 -0.001068 -0.001904 0.014302 0.000633 0.003388 0.000924
# 4 -0.004057 -0.006996 0.000633 0.046719 0.024679 -0.003611
# 5 -0.009542 -0.001809 0.003388 0.024679 0.062261 -0.007611
# 6 -0.001655 0.005386 0.000924 -0.003611 -0.007611 0.020556
#
#
# Mechanical properties :
#
#
# Convention : Reuss Voigt Hill
#
# Bulk Modulus (GPa) = 44.96362 62.03274 53.49818
# Shear Modulus (GPa) = 25.56397 38.03354 31.79875
#
# Velocity S-wave (km/s) = 3.30034 4.02557 3.68086
# Velocity P-wave (km/s) = 5.80353 6.93092 6.39213
#
# Compressibility (1/GPa) = 0.02224020
#
# Stress axis : x y z
#
# Youngs Moduli (GPa) = 86.68268 68.48811 69.92215
#
# Poissons Ratio (x) = 0.41962 0.07468
# Poissons Ratio (y) = 0.53110 0.13316
# Poissons Ratio (z) = 0.09258 0.13043
#
# Static dielectric constant tensor:
#      x y z
#    x 1.907220 -0.125340 -0.002530 
#    y -0.125340 1.869840 -0.032450 
#    z -0.002530 -0.032450 1.944320 
# 
# From -- ./inp_files/40475.got.cif
#   From: 2010.05.17/outbox.cif.g08.bks.cpg/sg2_21_cif.got.tgz:40475.got - 2010.06.03 11:33:40.
