data_PCOD9101377
_publ_section_title
;
Structure prediction by ZEFSAII (Michael W. Deem and Ramdas Pophale) SiO2 
 PCOD9101377
Probable space group: P -1
;
_chemical_formula_sum "Si O2"
_cell_formula_units_Z 14
_cell_length_a 19.833270
_cell_length_b 7.725885
_cell_length_c 6.538145
_cell_angle_alpha 118.686595
_cell_angle_beta 112.404788
_cell_angle_gamma 38.497439
_cell_volume 547.051333
_symmetry_space_group_name_H-M "P -1"
_symmetry_group_IT_number 2
_symmetry_cell_setting 'triclinic'
loop_
_space_group_symop_operation_xyz
x,y,z
-x,-y,-z
loop_
_atom_site_type_symbol
_atom_site_label
_atom_site_fract_x
_atom_site_fract_y
_atom_site_fract_z
Si Si1 0.646502 0.583783 0.727941
Si Si2 0.623463 0.205920 0.510093
Si Si3 0.053356 0.177950 0.911085
Si Si4 0.165669 0.511057 0.985103
Si Si5 0.816601 0.399552 0.415125
Si Si6 0.224503 0.118456 0.143100
Si Si7 0.406052 0.178103 0.758752
O O1 0.675131 0.303106 0.540584
O O2 0.532970 0.904462 0.692758
O O3 0.755099 0.496184 0.808364
O O4 0.609251 0.653800 0.967041
O O5 0.500000 0.500000 0.500000
O O6 0.662310 0.107847 0.735453
O O7 0.630224 0.971226 0.299671
O O8 0.163183 0.036740 0.067452
O O9 0.959753 0.249967 0.960585
O O10 0.000000 0.500000 0.000000
O O11 0.100052 0.946560 0.653167
O O12 0.165024 0.577737 0.788507
O O13 0.216630 0.197869 0.941994
O O14 0.833914 0.574115 0.645163
O O15 0.689932 0.581803 0.377614
#
# Coordination Sequence:
#
# PCOD9101377 Si02
#       7
#     2   2   2   2   2   2   2
#     4   9  16  32  55  76 111 146 178 231 276 322
#     4   9  17  32  55  80 108 147 186 222 278 338
#     4  10  22  39  59  85 115 150 193 236 282 340
#     4  10  21  36  58  88 113 147 198 232 275 343
#     4  10  20  38  59  81 113 148 192 236 281 341
#     4  10  21  38  59  82 116 154 185 236 290 326
#     4   8  16  30  54  79 102 144 184 217 278 332
#
# _framework density 25.591746000000001
#
# number of rings (size 3 to 8) (size 9 to 14) (size 15 to 20)
#    0.000    2.571    0.000    2.143    0.000    2.857 
#    0.000   20.714    0.000   44.571    0.000    0.000 
#    0.000    0.000    0.000    0.000    0.000    0.000 
#
# Total GULP energy -77979.160573 kJ/mol
# GULP energy per Si atom -5569.940041 kJ/mol
# Density = 2.553350 g / cm^3
# Si number density = 25.591746 Si / 1000 Ang^3
#
#
#
# Elastic Constant Matrix: (Units=GPa)
#
#
# Indices 1 2 3 4 5 6 
#
# 1 134.2179 22.8140 21.9743 7.2377 25.7611 -23.7128
# 2 22.8140 105.0747 21.4915 18.4287 2.8455 8.1936
# 3 21.9743 21.4915 99.0399 15.1374 28.9930 -2.2175
# 4 7.2377 18.4287 15.1374 61.4898 4.0184 1.6250
# 5 25.7611 2.8455 28.9930 4.0184 31.6553 1.5395
# 6 -23.7128 8.1936 -2.2175 1.6250 1.5395 39.6050
#
#
#
# Elastic Compliance Matrix: (Units=1/GPa)
#
#
# Indices 1 2 3 4 5 6 
#
# 1 0.011114 -0.002983 0.001461 -0.000296 -0.010455 0.007772
# 2 -0.002983 0.011414 -0.002857 -0.002548 0.004555 -0.004380
# 3 0.001461 -0.002857 0.015061 -0.002148 -0.014598 0.002965
# 4 -0.000296 -0.002548 -0.002148 0.017588 0.000229 -0.000501
# 5 -0.010455 0.004555 -0.014598 0.000229 0.053522 -0.010109
# 6 0.007772 -0.004380 0.002965 -0.000501 -0.010109 0.031388
#
#
# Mechanical properties :
#
#
# Convention : Reuss Voigt Hill
#
# Bulk Modulus (GPa) = 34.68374 52.32134 43.50254
# Shear Modulus (GPa) = 31.55448 44.68687 38.12068
#
# Velocity S-wave (km/s) = 3.51521 4.18322 3.86368
# Velocity P-wave (km/s) = 5.48249 6.61978 6.07780
#
# Compressibility (1/GPa) = 0.02883195
#
# Stress axis : x y z
#
# Youngs Moduli (GPa) = 89.97520 87.61018 66.39770
#
# Poissons Ratio (x) = 0.26134 -0.09703
# Poissons Ratio (y) = 0.26840 0.18969
# Poissons Ratio (z) = -0.13149 0.25030
#
# Static dielectric constant tensor:
#      x y z
#    x 2.090720 0.010630 -0.038870 
#    y 0.010630 2.155770 -0.007760 
#    z -0.038870 -0.007760 2.141780 
# 
# From -- ./inp_files/342256.got.cif
#   From: 2010.05.17/outbox.cif.g08.bks.cpg/sg2_172_cif.got.tgz:342256.got - 2010.06.03 11:33:40.
