data_PCOD9101726
_publ_section_title
;
Structure prediction by ZEFSAII (Michael W. Deem and Ramdas Pophale) SiO2 
 PCOD9101726
Probable space group: P -1
;
_chemical_formula_sum "Si O2"
_cell_formula_units_Z 14
_cell_length_a 8.272371
_cell_length_b 17.716904
_cell_length_c 8.910539
_cell_angle_alpha 35.039376
_cell_angle_beta 67.012777
_cell_angle_gamma 90.787606
_cell_volume 535.507096
_symmetry_space_group_name_H-M "P -1"
_symmetry_group_IT_number 2
_symmetry_cell_setting 'triclinic'
loop_
_space_group_symop_operation_xyz
x,y,z
-x,-y,-z
loop_
_atom_site_type_symbol
_atom_site_label
_atom_site_fract_x
_atom_site_fract_y
_atom_site_fract_z
Si Si1 0.417151 0.971003 0.407028
Si Si2 0.038342 0.162233 0.147688
Si Si3 0.480923 0.648029 0.775368
Si Si4 0.025079 0.546305 0.741773
Si Si5 0.499104 0.702457 0.312828
Si Si6 0.089044 0.065881 0.693567
Si Si7 0.275688 0.928398 0.106599
O O1 0.500000 0.000000 0.500000
O O2 0.452564 0.134177 0.055980
O O3 0.578947 0.949996 0.287025
O O4 0.145488 0.823239 0.746713
O O5 0.307201 0.304097 0.806040
O O6 0.000000 0.000000 0.500000
O O7 0.952431 0.083748 0.140632
O O8 0.516467 0.711881 0.478411
O O9 0.665618 0.758990 0.660574
O O10 0.500000 0.500000 0.000000
O O11 0.226873 0.569687 0.042302
O O12 0.237726 0.556683 0.599584
O O13 0.125482 0.741634 0.393972
O O14 0.000000 0.500000 0.000000
O O15 0.897641 0.083913 0.696559
O O16 0.000000 0.000000 0.000000
O O17 0.500000 0.000000 0.000000
#
# Coordination Sequence:
#
# PCOD9101726 Si02
#       7
#     2   2   2   2   2   2   2
#     4  10  21  37  57  89 124 162 195 250 318 364
#     4  10  20  38  60  89 125 162 196 256 317 361
#     4  11  21  36  58  93 127 159 201 263 310 363
#     4   9  19  36  54  86 122 164 192 250 317 355
#     4   9  19  35  59  81 118 163 200 246 307 350
#     4  12  22  35  62  97 119 155 210 265 299 358
#     4  11  22  37  61  95 120 151 212 262 298 360
#
# _framework density 26.143446000000001
#
# number of rings (size 3 to 8) (size 9 to 14) (size 15 to 20)
#    0.000    1.714    2.857    3.429    2.000    0.000 
#    0.000    0.000    0.000   11.143    3.714    0.000 
#    0.000    0.000    0.000    0.000    0.000    0.000 
#
# Total GULP energy -77942.581257 kJ/mol
# GULP energy per Si atom -5567.327233 kJ/mol
# Density = 2.608394 g / cm^3
# Si number density = 26.143446 Si / 1000 Ang^3
#
#
#
# Elastic Constant Matrix: (Units=GPa)
#
#
# Indices 1 2 3 4 5 6 
#
# 1 161.1787 30.6928 70.1781 -3.0670 -54.4742 6.8961
# 2 30.6928 46.8678 22.6977 7.7066 -6.4201 4.6065
# 3 70.1781 22.6977 116.0135 -3.5420 -62.8658 6.7708
# 4 -3.0670 7.7066 -3.5420 41.8133 16.9804 -8.1221
# 5 -54.4742 -6.4201 -62.8658 16.9804 86.1481 7.1205
# 6 6.8961 4.6065 6.7708 -8.1221 7.1205 49.7597
#
#
#
# Elastic Compliance Matrix: (Units=1/GPa)
#
#
# Indices 1 2 3 4 5 6 
#
# 1 0.009585 -0.004163 -0.002805 -0.000597 0.003922 -0.001220
# 2 -0.004163 0.026691 -0.004132 -0.004881 -0.002551 -0.001764
# 3 -0.002805 -0.004132 0.017641 -0.003498 0.011802 -0.003889
# 4 -0.000597 -0.004881 -0.003498 0.029863 -0.009782 0.007285
# 5 0.003922 -0.002551 0.011802 -0.009782 0.025025 -0.007091
# 6 -0.001220 -0.001764 -0.003889 0.007285 -0.007091 0.023162
#
#
# Mechanical properties :
#
#
# Convention : Reuss Voigt Hill
#
# Bulk Modulus (GPa) = 31.53031 63.46634 47.49832
# Shear Modulus (GPa) = 30.35122 48.91031 39.63077
#
# Velocity S-wave (km/s) = 3.41097 4.33002 3.89768
# Velocity P-wave (km/s) = 5.25353 7.02336 6.20191
#
# Compressibility (1/GPa) = 0.03171552
#
# Stress axis : x y z
#
# Youngs Moduli (GPa) = 104.33148 37.46643 56.68721
#
# Poissons Ratio (x) = 0.15597 0.15903
# Poissons Ratio (y) = 0.43434 0.23422
# Poissons Ratio (z) = 0.29269 0.15481
#
# Static dielectric constant tensor:
#      x y z
#    x 10.779840 -4.442600 3.102560 
#    y -4.442600 4.106660 -1.340720 
#    z 3.102560 -1.340720 3.026810 
# 
# From -- ./inp_files/221680.got.cif
#   From: 2010.05.17/outbox.cif.g08.bks.cpg/sg2_111_cif.got.tgz:221680.got - 2010.06.03 11:33:40.
