data_PCOD9101543
_publ_section_title
;
Structure prediction by ZEFSAII (Michael W. Deem and Ramdas Pophale) SiO2 
 PCOD9101543
Probable space group: P -1
;
_chemical_formula_sum "Si O2"
_cell_formula_units_Z 14
_cell_length_a 11.557439
_cell_length_b 11.542729
_cell_length_c 11.912046
_cell_angle_alpha 40.356042
_cell_angle_beta 139.202754
_cell_angle_gamma 117.202115
_cell_volume 644.846822
_symmetry_space_group_name_H-M "P -1"
_symmetry_group_IT_number 2
_symmetry_cell_setting 'triclinic'
loop_
_space_group_symop_operation_xyz
x,y,z
-x,-y,-z
loop_
_atom_site_type_symbol
_atom_site_label
_atom_site_fract_x
_atom_site_fract_y
_atom_site_fract_z
Si Si1 0.027281 0.331384 0.381835
Si Si2 0.221772 0.540185 0.234335
Si Si3 0.754886 0.578242 0.167572
Si Si4 0.475752 0.657118 0.720362
Si Si5 0.411404 0.756824 0.359785
Si Si6 0.348891 0.146029 0.910112
Si Si7 0.716640 0.264878 0.080583
O O1 0.932897 0.479839 0.298822
O O2 0.891912 0.209627 0.333494
O O3 0.055250 0.457993 0.204109
O O4 0.222751 0.206796 0.662936
O O5 0.281972 0.625828 0.329053
O O6 0.388384 0.365542 0.445010
O O7 0.210589 0.695997 0.016553
O O8 0.684373 0.406020 0.288495
O O9 0.752146 0.707956 0.175509
O O10 0.602794 0.701405 0.878093
O O11 0.412271 0.789440 0.469856
O O12 0.602779 0.466421 0.898423
O O13 0.355943 0.944944 0.110334
O O14 0.558175 0.159889 0.037825
#
# Coordination Sequence:
#
# PCOD9101543 Si02
#       7
#     2   2   2   2   2   2   2
#     4  11  21  37  61  87 115 150 187 230 283 341
#     4  10  20  38  60  80 112 153 192 234 280 335
#     4   9  18  35  59  84 112 149 189 229 279 335
#     4   8  16  35  59  81 111 151 190 228 275 336
#     4  10  21  37  59  85 113 151 192 232 283 334
#     4  11  22  37  59  86 117 149 186 236 283 331
#     4   9  20  38  60  85 111 148 193 233 279 333
#
# _framework density 21.710581999999999
#
# number of rings (size 3 to 8) (size 9 to 14) (size 15 to 20)
#    0.000    2.286    0.000    5.143    0.000    2.857 
#    0.000   10.000    0.000    0.000    0.000    0.000 
#    0.000    0.000    0.000    0.000    0.000    0.000 
#
# Total GULP energy -78127.650376 kJ/mol
# GULP energy per Si atom -5580.546455 kJ/mol
# Density = 2.166117 g / cm^3
# Si number density = 21.710582 Si / 1000 Ang^3
#
#
#
# Elastic Constant Matrix: (Units=GPa)
#
#
# Indices 1 2 3 4 5 6 
#
# 1 95.5153 35.0140 40.4324 11.9761 -15.9187 9.1064
# 2 35.0140 31.9499 53.1803 10.0364 14.0393 9.2250
# 3 40.4324 53.1803 61.8523 7.8663 -26.0091 1.7338
# 4 11.9761 10.0364 7.8663 24.9119 0.0572 -1.7181
# 5 -15.9187 14.0393 -26.0091 0.0572 27.8035 3.9613
# 6 9.1064 9.2250 1.7338 -1.7181 3.9613 28.8299
#
#
#
# Elastic Compliance Matrix: (Units=1/GPa)
#
#
# Indices 1 2 3 4 5 6 
#
# 1 0.015510 -0.000008 -0.008780 -0.005019 0.001373 -0.004856
# 2 -0.000008 -0.010715 0.019524 -0.001978 0.023836 -0.001136
# 3 -0.008780 0.019524 -0.000942 -0.003414 -0.015549 -0.001484
# 4 -0.005019 -0.001978 -0.003414 0.044851 -0.006004 0.005921
# 5 0.001373 0.023836 -0.015549 -0.006004 0.011475 -0.009060
# 6 -0.004856 -0.001136 -0.001484 0.005921 -0.009060 0.038271
#
#
# Mechanical properties :
#
#
# Convention : Reuss Voigt Hill
#
# Bulk Modulus (GPa) = 39.48639 49.61900 44.55269
# Shear Modulus (GPa) = 58.53492 20.35513 39.44502
#
# Velocity S-wave (km/s) = 5.19808 3.06529 4.26708
# Velocity P-wave (km/s) = 7.36572 5.95251 6.69650
#
# Compressibility (1/GPa) = 0.02532518
#
# Stress axis : x y z
#
# Youngs Moduli (GPa) = 64.47299 -93.32844 -1061.02507
#
# Poissons Ratio (x) = -0.00076 -9.31592
# Poissons Ratio (y) = 0.00053 20.71585
# Poissons Ratio (z) = 0.56608 1.82218
#
# Static dielectric constant tensor:
#      x y z
#    x 1.797110 -0.002770 -0.016030 
#    y -0.002770 1.800730 0.063890 
#    z -0.016030 0.063890 1.833940 
# 
# From -- ./inp_files/278727.got.cif
#   From: 2010.05.17/outbox.cif.g08.bks.cpg/sg2_140_cif.got.tgz:278727.got - 2010.06.03 11:33:40.
