data_PCOD9101071
_publ_section_title
;
Structure prediction by ZEFSAII (Michael W. Deem and Ramdas Pophale) SiO2 
 PCOD9101071
Probable space group: P -1
;
_chemical_formula_sum "Si O2"
_cell_formula_units_Z 16
_cell_length_a 13.261157
_cell_length_b 7.263232
_cell_length_c 13.525090
_cell_angle_alpha 57.230996
_cell_angle_beta 45.750293
_cell_angle_gamma 42.267891
_cell_volume 626.794510
_symmetry_space_group_name_H-M "P -1"
_symmetry_group_IT_number 2
_symmetry_cell_setting 'triclinic'
loop_
_space_group_symop_operation_xyz
x,y,z
-x,-y,-z
loop_
_atom_site_type_symbol
_atom_site_label
_atom_site_fract_x
_atom_site_fract_y
_atom_site_fract_z
Si Si1 0.185419 0.728374 0.987463
Si Si2 0.497510 0.545990 0.700854
Si Si3 0.386885 0.277504 0.712607
Si Si4 0.236506 0.072714 0.482777
Si Si5 0.344158 0.137048 0.984483
Si Si6 0.884259 0.410799 0.710990
Si Si7 0.181913 0.937805 0.272263
Si Si8 0.193569 0.605444 0.580353
O O1 0.349514 0.722895 0.834871
O O2 0.224715 0.462538 0.984035
O O3 0.182718 0.647090 0.127312
O O4 0.000000 0.000000 0.000000
O O5 0.403057 0.502912 0.688724
O O6 0.637607 0.240845 0.739043
O O7 0.642384 0.582968 0.551152
O O8 0.398226 0.093980 0.846447
O O9 0.221974 0.432239 0.708086
O O10 0.560926 0.088605 0.583524
O O11 0.196160 0.286803 0.361196
O O12 0.095905 0.242834 0.616448
O O13 0.217999 0.837609 0.529537
O O14 0.500000 0.000000 0.000000
O O15 0.225176 0.042443 0.117765
O O16 0.853012 0.271986 0.682367
O O17 0.010866 0.199509 0.366194
#
# Coordination Sequence:
#
# PCOD9101071 Si02
#       8
#     2   2   2   2   2   2   2   2
#     4  11  25  40  67  94 134 171 214 270 329 385
#     4  10  21  40  64  90 127 172 215 259 323 382
#     4  10  20  37  70  92 125 171 221 263 319 384
#     4   9  19  38  63  90 128 169 216 256 317 398
#     4  11  22  44  69  96 124 178 223 258 321 400
#     4  10  23  39  63  98 129 171 214 265 329 386
#     4  11  23  41  68  96 129 164 224 277 311 387
#     4  10  22  38  68  98 126 168 223 276 315 379
#
# _framework density 25.526706999999998
#
# number of rings (size 3 to 8) (size 9 to 14) (size 15 to 20)
#    0.000    1.750    2.500    2.625   10.500    1.000 
#    2.250    0.000    0.000    3.750    0.000    0.000 
#    0.000    0.000    0.000    0.000    0.000    0.000 
#
# Total GULP energy -89324.523917 kJ/mol
# GULP energy per Si atom -5582.782745 kJ/mol
# Density = 2.546861 g / cm^3
# Si number density = 25.526707 Si / 1000 Ang^3
#
#
#
# Elastic Constant Matrix: (Units=GPa)
#
#
# Indices 1 2 3 4 5 6 
#
# 1 58.5149 36.5827 29.8173 1.2059 5.5762 -13.9027
# 2 36.5827 115.6819 40.0930 14.3043 2.2001 -23.5941
# 3 29.8173 40.0930 165.1429 14.3119 16.4057 -25.1144
# 4 1.2059 14.3043 14.3119 47.6622 -0.3379 -2.8261
# 5 5.5762 2.2001 16.4057 -0.3379 25.9023 -5.8181
# 6 -13.9027 -23.5941 -25.1144 -2.8261 -5.8181 44.7528
#
#
#
# Elastic Compliance Matrix: (Units=1/GPa)
#
#
# Indices 1 2 3 4 5 6 
#
# 1 0.022832 -0.006175 -0.002192 0.002060 -0.002432 0.002421
# 2 -0.006175 0.012115 -0.001174 -0.002884 0.001876 0.003872
# 3 -0.002192 -0.001174 0.007623 -0.001767 -0.003745 0.002380
# 4 0.002060 -0.002884 -0.001767 0.022314 0.001141 -0.000315
# 5 -0.002432 0.001876 -0.003745 0.001141 0.042186 0.003688
# 6 0.002421 0.003872 0.002380 -0.000315 0.003688 0.026933
#
#
# Mechanical properties :
#
#
# Convention : Reuss Voigt Hill
#
# Bulk Modulus (GPa) = 42.57566 61.36954 51.97260
# Shear Modulus (GPa) = 31.07235 39.18657 35.12946
#
# Velocity S-wave (km/s) = 3.49269 3.92231 3.71372
# Velocity P-wave (km/s) = 5.74285 6.67879 6.22842
#
# Compressibility (1/GPa) = 0.02348760
#
# Stress axis : x y z
#
# Youngs Moduli (GPa) = 43.79864 82.54468 131.17888
#
# Poissons Ratio (x) = 0.50973 0.28754
# Poissons Ratio (y) = 0.27047 0.15398
# Poissons Ratio (z) = 0.09600 0.09689
#
# Static dielectric constant tensor:
#      x y z
#    x 2.031960 0.018490 0.009900 
#    y 0.018490 1.997660 0.008470 
#    z 0.009900 0.008470 2.137740 
# 
# From -- ./inp_files/528143.got.cif
#   From: 2010.05.17/outbox.cif.g08.bks.cpg/sg2_265_cif.got.tgz:528143.got - 2010.06.03 11:33:40.
