data_PCOD9101155
_publ_section_title
;
Structure prediction by ZEFSAII (Michael W. Deem and Ramdas Pophale) SiO2 
 PCOD9101155
Probable space group: P -1
;
_chemical_formula_sum "Si O2"
_cell_formula_units_Z 16
_cell_length_a 8.663232
_cell_length_b 14.857599
_cell_length_c 18.891999
_cell_angle_alpha 139.055095
_cell_angle_beta 139.297617
_cell_angle_gamma 23.797370
_cell_volume 622.032138
_symmetry_space_group_name_H-M "P -1"
_symmetry_group_IT_number 2
_symmetry_cell_setting 'triclinic'
loop_
_space_group_symop_operation_xyz
x,y,z
-x,-y,-z
loop_
_atom_site_type_symbol
_atom_site_label
_atom_site_fract_x
_atom_site_fract_y
_atom_site_fract_z
Si Si1 0.910930 0.742540 0.462824
Si Si2 0.333214 0.289178 0.416912
Si Si3 0.431112 0.824009 0.226181
Si Si4 0.474345 0.531042 0.143954
Si Si5 0.464092 0.801281 0.058582
Si Si6 0.634266 0.276119 0.296451
Si Si7 0.495935 0.585969 0.341240
Si Si8 0.583502 0.886513 0.795648
O O1 0.782729 0.736395 0.339779
O O2 0.086468 0.529551 0.438551
O O3 0.228680 0.712305 0.575879
O O4 0.500000 0.000000 0.500000
O O5 0.584297 0.240922 0.537921
O O6 0.563741 0.103132 0.325174
O O7 0.980164 0.362985 0.370785
O O8 0.384035 0.683250 0.142647
O O9 0.491690 0.815847 0.160097
O O10 0.023565 0.068607 0.261911
O O11 0.356448 0.648597 0.249163
O O12 0.952200 0.309419 0.175382
O O13 0.344296 0.434243 0.032606
O O14 0.582165 0.886101 0.110081
O O15 0.000000 0.000000 0.000000
O O16 0.393337 0.497011 0.296394
O O17 0.462270 0.209005 0.218210
#
# Coordination Sequence:
#
# PCOD9101155 Si02
#       8
#     2   2   2   2   2   2   2   2
#     4   9  18  31  54  86 117 146 184 227 282 341
#     4   9  16  32  57  82 113 150 191 224 274 346
#     4  11  19  38  60  83 114 152 195 236 286 343
#     4  10  20  39  61  85 109 153 202 240 275 338
#     4  10  22  39  62  83 109 154 204 237 280 344
#     4  10  21  34  57  89 122 152 184 232 291 343
#     4   9  17  32  57  84 109 147 194 222 274 343
#     4  10  20  38  56  86 123 147 193 237 282 336
#
# _framework density 25.722142000000002
#
# number of rings (size 3 to 8) (size 9 to 14) (size 15 to 20)
#    0.000    2.250    2.500    2.625    0.000    3.000 
#    0.000    8.125    0.000    0.000    0.000    0.000 
#    0.000    0.000    0.000    0.000    0.000    0.000 
#
# Total GULP energy -89482.116934 kJ/mol
# GULP energy per Si atom -5592.632308 kJ/mol
# Density = 2.566360 g / cm^3
# Si number density = 25.722142 Si / 1000 Ang^3
#
#
#
# Elastic Constant Matrix: (Units=GPa)
#
#
# Indices 1 2 3 4 5 6 
#
# 1 105.8973 20.6913 41.0050 9.2419 27.6086 14.3042
# 2 20.6913 49.6478 22.7505 6.6435 11.2542 -1.5802
# 3 41.0050 22.7505 93.3911 21.2660 18.4860 15.2572
# 4 9.2419 6.6435 21.2660 46.3450 12.0864 5.1206
# 5 27.6086 11.2542 18.4860 12.0864 50.3159 12.9324
# 6 14.3042 -1.5802 15.2572 5.1206 12.9324 39.0629
#
#
#
# Elastic Compliance Matrix: (Units=1/GPa)
#
#
# Indices 1 2 3 4 5 6 
#
# 1 0.012928 -0.002654 -0.004032 0.001110 -0.004818 -0.001817
# 2 -0.002654 0.024462 -0.004843 -0.000417 -0.003432 0.005044
# 3 -0.004032 -0.004843 0.015517 -0.005140 -0.000126 -0.004065
# 4 0.001110 -0.000417 -0.005140 0.024989 -0.004585 -0.000173
# 5 -0.004818 -0.003432 -0.000126 -0.004585 0.026067 -0.006354
# 6 -0.001817 0.005044 -0.004065 -0.000173 -0.006354 0.030183
#
#
# Mechanical properties :
#
#
# Convention : Reuss Voigt Hill
#
# Bulk Modulus (GPa) = 33.50341 46.42556 39.96449
# Shear Modulus (GPa) = 29.91264 38.11072 34.01168
#
# Velocity S-wave (km/s) = 3.41385 3.85337 3.64025
# Velocity P-wave (km/s) = 5.34720 6.15516 5.76535
#
# Compressibility (1/GPa) = 0.02984771
#
# Stress axis : x y z
#
# Youngs Moduli (GPa) = 77.35410 40.88008 64.44503
#
# Poissons Ratio (x) = 0.10851 0.25982
# Poissons Ratio (y) = 0.20533 0.31213
# Poissons Ratio (z) = 0.31186 0.19799
#
# Static dielectric constant tensor:
#      x y z
#    x 2.004500 -0.028220 0.025600 
#    y -0.028220 2.033500 0.012050 
#    z 0.025600 0.012050 2.066260 
# 
# From -- ./inp_files/590289.got.cif
#   From: 2010.05.17/outbox.cif.g08.bks.cpg/sg2_296_cif.got.tgz:590289.got - 2010.06.03 11:33:40.
