data_PCOD9101141
_publ_section_title
;
Structure prediction by ZEFSAII (Michael W. Deem and Ramdas Pophale) SiO2 
 PCOD9101141
Probable space group: P -1
;
_chemical_formula_sum "Si O2"
_cell_formula_units_Z 15
_cell_length_a 15.378641
_cell_length_b 15.413637
_cell_length_c 16.533400
_cell_angle_alpha 146.349975
_cell_angle_beta 155.084529
_cell_angle_gamma 26.243654
_cell_volume 726.266847
_symmetry_space_group_name_H-M "P -1"
_symmetry_group_IT_number 2
_symmetry_cell_setting 'triclinic'
loop_
_space_group_symop_operation_xyz
x,y,z
-x,-y,-z
loop_
_atom_site_type_symbol
_atom_site_label
_atom_site_fract_x
_atom_site_fract_y
_atom_site_fract_z
Si Si1 0.231662 0.672907 0.009814
Si Si2 0.500000 0.000000 0.000000
Si Si3 0.313868 0.127696 0.242121
Si Si4 0.364652 0.307579 0.265108
Si Si5 0.941110 0.058677 0.611758
Si Si6 0.179028 0.953121 0.319958
Si Si7 0.917359 0.770336 0.260538
Si Si8 0.291331 0.768988 0.955756
O O1 0.245359 0.783446 0.182827
O O2 0.248379 0.760293 0.008003
O O3 0.465069 0.444290 0.030788
O O4 0.953593 0.717208 0.815943
O O5 0.377937 0.146860 0.924321
O O6 0.604127 0.797746 0.873612
O O7 0.301704 0.219018 0.216772
O O8 0.563287 0.076551 0.459481
O O9 0.334313 0.931698 0.101235
O O10 0.652955 0.241111 0.479476
O O11 0.140108 0.542708 0.258782
O O12 0.944098 0.054150 0.706160
O O13 0.136331 0.092283 0.759841
O O14 0.983116 0.866815 0.459861
O O15 0.968013 0.156098 0.253761
#
# Coordination Sequence:
#
# PCOD9101141 Si02
#       8
#     2   1   2   2   2   2   2   2
#     4  10  23  41  62  91 122 159 200 247 314 368
#     4  10  22  34  52  84 112 152 194 238 286 348
#     4  10  22  39  62  89 123 158 202 253 299 359
#     4  10  21  38  56  83 117 154 200 240 297 350
#     4   9  21  37  57  82 114 152 201 242 294 346
#     4  10  21  39  62  91 120 159 205 248 300 366
#     4  10  20  38  56  81 118 155 194 246 291 350
#     4  10  23  42  61  90 126 156 198 254 307 370
#
# _framework density 20.653566999999999
#
# number of rings (size 3 to 8) (size 9 to 14) (size 15 to 20)
#    0.000    2.133    0.000    2.400    3.733    8.533 
#    2.400    2.667    0.000    0.000    0.000    0.000 
#    0.000    0.000    0.000    0.000    0.000    0.000 
#
# Total GULP energy -83591.825769 kJ/mol
# GULP energy per Si atom -5572.788385 kJ/mol
# Density = 2.060656 g / cm^3
# Si number density = 20.653567 Si / 1000 Ang^3
#
#
#
# Elastic Constant Matrix: (Units=GPa)
#
#
# Indices 1 2 3 4 5 6 
#
# 1 123.0755 60.4967 51.5797 11.2576 -13.9596 -12.8524
# 2 60.4967 195.4295 51.3636 -17.9758 -10.3762 -16.0788
# 3 51.5797 51.3636 97.5860 -6.3738 -12.6441 -4.2992
# 4 11.2576 -17.9758 -6.3738 15.6612 -6.7058 -2.3378
# 5 -13.9596 -10.3762 -12.6441 -6.7058 38.4661 2.6664
# 6 -12.8524 -16.0788 -4.2992 -2.3378 2.6664 35.4318
#
#
#
# Elastic Compliance Matrix: (Units=1/GPa)
#
#
# Indices 1 2 3 4 5 6 
#
# 1 0.015009 -0.004569 -0.006926 -0.019298 -0.001521 0.001372
# 2 -0.004569 0.008367 -0.000588 0.014219 0.002690 0.002804
# 3 -0.006926 -0.000588 0.015632 0.012614 0.004693 -0.000403
# 4 -0.019298 0.014219 0.012614 0.108494 0.019429 0.006679
# 5 -0.001521 0.002690 0.004693 0.019429 0.031088 0.000181
# 6 0.001372 0.002804 -0.000403 0.006679 0.000181 0.030372
#
#
# Mechanical properties :
#
#
# Convention : Reuss Voigt Hill
#
# Bulk Modulus (GPa) = 67.37330 82.55235 74.96282
# Shear Modulus (GPa) = 21.00178 34.75522 27.87850
#
# Velocity S-wave (km/s) = 3.19228 4.10661 3.67797
# Velocity P-wave (km/s) = 6.80287 7.90838 7.37636
#
# Compressibility (1/GPa) = 0.01484267
#
# Stress axis : x y z
#
# Youngs Moduli (GPa) = 66.62542 119.51207 63.97233
#
# Poissons Ratio (x) = 0.54605 0.44304
# Poissons Ratio (y) = 0.30441 0.03764
# Poissons Ratio (z) = 0.46142 0.07031
#
# Static dielectric constant tensor:
#      x y z
#    x 1.826770 -0.053150 0.150530 
#    y -0.053150 1.771650 -0.140680 
#    z 0.150530 -0.140680 2.002030 
# 
# From -- ./inp_files/533432.got.cif
#   From: 2010.05.17/outbox.cif.g08.bks.cpg/sg2_267_cif.got.tgz:533432.got - 2010.06.03 11:33:40.
