data_PCOD9101943
_publ_section_title
;
Structure prediction by ZEFSAII (Michael W. Deem and Ramdas Pophale) SiO2 
 PCOD9101943
Probable space group: P -1
;
_chemical_formula_sum "Si O2"
_cell_formula_units_Z 16
_cell_length_a 8.388390
_cell_length_b 18.629685
_cell_length_c 23.408168
_cell_angle_alpha 16.084821
_cell_angle_beta 37.716851
_cell_angle_gamma 42.189030
_cell_volume 616.053839
_symmetry_space_group_name_H-M "P -1"
_symmetry_group_IT_number 2
_symmetry_cell_setting 'triclinic'
loop_
_space_group_symop_operation_xyz
x,y,z
-x,-y,-z
loop_
_atom_site_type_symbol
_atom_site_label
_atom_site_fract_x
_atom_site_fract_y
_atom_site_fract_z
Si Si1 0.563555 0.638482 0.110882
Si Si2 0.213646 0.776393 0.200189
Si Si3 0.971127 0.582918 0.809176
Si Si4 0.972842 0.430501 0.325357
Si Si5 0.271631 0.952852 0.879568
Si Si6 0.515659 0.360904 0.664282
Si Si7 0.360631 0.118110 0.502423
Si Si8 0.578482 0.922443 0.700245
O O1 0.360804 0.596439 0.253545
O O2 0.860463 0.637926 0.047166
O O3 0.507726 0.401713 0.262604
O O4 0.489491 0.903362 0.901433
O O5 0.237299 0.685566 0.328856
O O6 0.923381 0.831685 0.221195
O O7 0.378849 0.062873 0.928827
O O8 0.899272 0.543434 0.793519
O O9 0.732089 0.667126 0.849406
O O10 0.192077 0.836128 0.552316
O O11 0.073603 0.181582 0.516519
O O12 0.668425 0.464853 0.379866
O O13 0.083172 0.678707 0.142065
O O14 0.410099 0.963074 0.771879
O O15 0.500000 0.500000 0.500000
O O16 0.500000 0.000000 0.500000
O O17 0.398850 0.939096 0.682814
#
# Coordination Sequence:
#
# PCOD9101943 Si02
#       8
#     2   2   2   2   2   2   2   2
#     4  10  21  40  62  86 127 169 204 261 330 371
#     4  10  21  42  64  91 138 166 211 272 316 385
#     4  10  20  39  61  84 125 165 207 265 310 382
#     4  10  20  39  61  87 125 165 206 259 323 380
#     4  10  23  39  61  91 124 166 208 261 323 380
#     4  10  22  38  65  98 128 170 215 264 326 382
#     4  10  20  38  61  88 121 164 205 262 320 377
#     4  10  22  38  60  91 122 160 216 261 318 379
#
# _framework density 25.971754000000001
#
# number of rings (size 3 to 8) (size 9 to 14) (size 15 to 20)
#    0.000    2.000    2.500    0.375    1.750    2.000 
#    0.000    3.750    0.000    0.000    0.000    0.000 
#    0.000    0.000    0.000    0.000    0.000    0.000 
#
# Total GULP energy -89490.103250 kJ/mol
# GULP energy per Si atom -5593.131453 kJ/mol
# Density = 2.591264 g / cm^3
# Si number density = 25.971754 Si / 1000 Ang^3
#
#
#
# Elastic Constant Matrix: (Units=GPa)
#
#
# Indices 1 2 3 4 5 6 
#
# 1 115.9673 48.2614 45.4685 -13.2631 40.6971 -16.0956
# 2 48.2614 155.2760 32.9146 -17.0506 19.3401 -6.2552
# 3 45.4685 32.9146 110.2066 -15.3557 24.7529 -1.4584
# 4 -13.2631 -17.0506 -15.3557 34.3609 2.4363 11.8810
# 5 40.6971 19.3401 24.7529 2.4363 52.9715 -4.1075
# 6 -16.0956 -6.2552 -1.4584 11.8810 -4.1075 47.8808
#
#
#
# Elastic Compliance Matrix: (Units=1/GPa)
#
#
# Indices 1 2 3 4 5 6 
#
# 1 0.014613 -0.002398 -0.002897 0.002723 -0.008884 0.003073
# 2 -0.002398 0.007733 -0.000751 0.002838 -0.000806 -0.000592
# 3 -0.002897 -0.000751 0.011917 0.004843 -0.003462 -0.002208
# 4 0.002723 0.002838 0.004843 0.037203 -0.007759 -0.008463
# 5 -0.008884 -0.000806 -0.003462 -0.007759 0.028061 0.001135
# 6 0.003073 -0.000592 -0.002208 -0.008463 0.001135 0.023971
#
#
# Mechanical properties :
#
#
# Convention : Reuss Voigt Hill
#
# Bulk Modulus (GPa) = 45.10802 70.52656 57.81729
# Shear Modulus (GPa) = 34.96965 44.02967 39.49966
#
# Velocity S-wave (km/s) = 3.67338 4.12186 3.90406
# Velocity P-wave (km/s) = 5.94957 7.06166 6.52934
#
# Compressibility (1/GPa) = 0.02216901
#
# Stress axis : x y z
#
# Youngs Moduli (GPa) = 68.43262 129.31593 83.91468
#
# Poissons Ratio (x) = 0.31014 0.24310
# Poissons Ratio (y) = 0.16413 0.06306
# Poissons Ratio (z) = 0.19825 0.09718
#
# Static dielectric constant tensor:
#      x y z
#    x 2.088610 -0.018350 -0.043920 
#    y -0.018350 1.984490 -0.004840 
#    z -0.043920 -0.004840 2.122170 
# 
# From -- ./inp_files/201782.got.cif
#   From: 2010.05.17/outbox.cif.g08.bks.cpg/sg2_101_cif.got.tgz:201782.got - 2010.06.03 11:33:40.
