data_PCOD9101233
_publ_section_title
;
Structure prediction by ZEFSAII (Michael W. Deem and Ramdas Pophale) SiO2 
 PCOD9101233
Probable space group: P -1
;
_chemical_formula_sum "Si O2"
_cell_formula_units_Z 16
_cell_length_a 11.833566
_cell_length_b 13.252427
_cell_length_c 15.280568
_cell_angle_alpha 137.908894
_cell_angle_beta 153.587976
_cell_angle_gamma 40.205101
_cell_volume 673.886176
_symmetry_space_group_name_H-M "P -1"
_symmetry_group_IT_number 2
_symmetry_cell_setting 'triclinic'
loop_
_space_group_symop_operation_xyz
x,y,z
-x,-y,-z
loop_
_atom_site_type_symbol
_atom_site_label
_atom_site_fract_x
_atom_site_fract_y
_atom_site_fract_z
Si Si1 0.885082 0.743715 0.551819
Si Si2 0.370434 0.471441 0.653944
Si Si3 0.270085 0.207366 0.704899
Si Si4 0.129331 0.126528 0.203754
Si Si5 0.502930 0.248927 0.445506
Si Si6 0.731755 0.453105 0.055389
Si Si7 0.928330 0.976011 0.304373
Si Si8 0.599412 0.955896 0.898774
O O1 0.806272 0.626766 0.488714
O O2 0.671479 0.785954 0.353379
O O3 0.881951 0.880473 0.703911
O O4 0.174699 0.652177 0.650332
O O5 0.435667 0.409960 0.560237
O O6 0.619580 0.436087 0.870576
O O7 0.173112 0.391898 0.784364
O O8 0.518384 0.102213 0.867670
O O9 0.050575 0.117442 0.496835
O O10 0.423833 0.127904 0.379543
O O11 0.945432 0.293562 0.138539
O O12 0.000000 0.000000 0.000000
O O13 0.364582 0.209215 0.235511
O O14 0.820070 0.182213 0.603254
O O15 0.500000 0.500000 0.000000
O O16 0.671368 0.005626 0.206323
O O17 0.831906 0.958436 0.127847
#
# Coordination Sequence:
#
# PCOD9101233 Si02
#       8
#     2   2   2   2   2   2   2   2
#     4  10  20  38  57  92 136 181 218 263 323 393
#     4  10  21  38  59  91 141 181 220 263 318 397
#     4  11  22  37  70  95 127 180 227 265 331 408
#     4  11  26  39  63 100 147 185 225 271 321 398
#     4  10  22  39  67  97 131 174 225 278 333 393
#     4  12  23  39  62  95 143 193 227 262 320 400
#     4  10  24  45  72  97 131 166 230 294 352 407
#     4  10  24  46  70 100 126 172 225 295 357 404
#
# _framework density 23.742882000000002
#
# number of rings (size 3 to 8) (size 9 to 14) (size 15 to 20)
#    0.000    1.500    2.500    3.000    8.750    1.000 
#    0.000    6.250    0.000   15.000    0.000    0.000 
#    0.000    0.000    0.000    0.000    0.000    0.000 
#
# Total GULP energy -89323.307380 kJ/mol
# GULP energy per Si atom -5582.706711 kJ/mol
# Density = 2.368884 g / cm^3
# Si number density = 23.742882 Si / 1000 Ang^3
#
#
#
# Elastic Constant Matrix: (Units=GPa)
#
#
# Indices 1 2 3 4 5 6 
#
# 1 61.0518 -5.6685 17.8897 5.4408 -22.4126 -25.0073
# 2 -5.6685 37.0242 16.5768 5.6813 -15.3489 -5.6128
# 3 17.8897 16.5768 158.4715 13.1131 -42.2485 -7.8712
# 4 5.4408 5.6813 13.1131 38.0508 -6.5064 -11.0178
# 5 -22.4126 -15.3489 -42.2485 -6.5064 54.8763 -2.3305
# 6 -25.0073 -5.6128 -7.8712 -11.0178 -2.3305 30.0625
#
#
#
# Elastic Compliance Matrix: (Units=1/GPa)
#
#
# Indices 1 2 3 4 5 6 
#
# 1 0.054302 0.029329 0.002410 0.009855 0.035854 0.057669
# 2 0.029329 0.047789 0.000638 0.003961 0.027882 0.037100
# 3 0.002410 0.000638 0.008302 -0.000640 0.007676 0.004658
# 4 0.009855 0.003961 -0.000640 0.032279 0.009373 0.021327
# 5 0.035854 0.027882 0.007676 0.009373 0.049568 0.044319
# 6 0.057669 0.037100 0.004658 0.021327 0.044319 0.100634
#
#
# Mechanical properties :
#
#
# Convention : Reuss Voigt Hill
#
# Bulk Modulus (GPa) = 5.70945 34.90486 20.30715
# Shear Modulus (GPa) = 17.45178 39.78122 28.61650
#
# Velocity S-wave (km/s) = 2.71409 4.09773 3.47546
# Velocity P-wave (km/s) = 3.49737 6.09275 4.96756
#
# Compressibility (1/GPa) = 0.17514830
#
# Stress axis : x y z
#
# Youngs Moduli (GPa) = 18.41537 20.92520 120.44795
#
# Poissons Ratio (x) = -0.61372 -0.29022
# Poissons Ratio (y) = -0.54011 -0.07689
# Poissons Ratio (z) = -0.04437 -0.01336
#
# Static dielectric constant tensor:
#      x y z
#    x 1.966180 -0.067750 -0.015760 
#    y -0.067750 2.000890 0.014240 
#    z -0.015760 0.014240 1.949360 
# 
# From -- ./inp_files/521803.got.cif
#   From: 2010.05.17/outbox.cif.g08.bks.cpg/sg2_261_cif.got.tgz:521803.got - 2010.06.03 11:33:40.
