data_PCOD9101069
_publ_section_title
;
Structure prediction by ZEFSAII (Michael W. Deem and Ramdas Pophale) SiO2 
 PCOD9101069
Probable space group: P -1
;
_chemical_formula_sum "Si O2"
_cell_formula_units_Z 14
_cell_length_a 13.560792
_cell_length_b 16.126806
_cell_length_c 13.446785
_cell_angle_alpha 144.765936
_cell_angle_beta 158.470817
_cell_angle_gamma 35.987784
_cell_volume 605.455997
_symmetry_space_group_name_H-M "P -1"
_symmetry_group_IT_number 2
_symmetry_cell_setting 'triclinic'
loop_
_space_group_symop_operation_xyz
x,y,z
-x,-y,-z
loop_
_atom_site_type_symbol
_atom_site_label
_atom_site_fract_x
_atom_site_fract_y
_atom_site_fract_z
Si Si1 0.683721 0.107904 0.815432
Si Si2 0.544226 0.490151 0.354045
Si Si3 0.431448 0.837735 0.010620
Si Si4 0.459172 0.272224 0.578802
Si Si5 0.058604 0.137736 0.955699
Si Si6 0.919086 0.640930 0.971815
Si Si7 0.232133 0.088336 0.773725
O O1 0.575480 0.164550 0.878475
O O2 0.582089 0.248915 0.783178
O O3 0.500000 0.000000 0.500000
O O4 0.000000 0.000000 0.000000
O O5 0.599651 0.571592 0.381895
O O6 0.734662 0.528940 0.658387
O O7 0.586755 0.318351 0.203717
O O8 0.232708 0.560428 0.165106
O O9 0.667345 0.895993 0.229572
O O10 0.163092 0.967219 0.867923
O O11 0.203323 0.196342 0.244514
O O12 0.731181 0.179291 0.687885
O O13 0.165055 0.228947 0.060132
O O14 0.866695 0.739600 0.117150
O O15 0.000000 0.000000 0.500000
O O16 0.500000 0.000000 0.000000
#
# Coordination Sequence:
#
# PCOD9101069 Si02
#       7
#     2   2   2   2   2   2   2
#     4  12  24  40  68  99 134 174 227 281 328 391
#     4  10  25  41  69  98 141 174 217 273 343 410
#     4  12  26  43  69 108 131 174 236 283 324 406
#     4  10  20  42  62  95 130 181 207 267 338 391
#     4  10  20  37  70  90 126 170 229 260 318 396
#     4  10  22  45  64  94 135 184 211 271 346 393
#     4  12  27  43  72 102 132 175 234 285 325 394
#
# _framework density 23.123068
#
# number of rings (size 3 to 8) (size 9 to 14) (size 15 to 20)
#    0.000    1.143    4.286    0.857    4.000    6.286 
#    0.000    0.000    0.000    6.857    0.000    0.000 
#    0.000    0.000    0.000    0.000    0.000    0.000 
#
# Total GULP energy -78110.588535 kJ/mol
# GULP energy per Si atom -5579.327752 kJ/mol
# Density = 2.307044 g / cm^3
# Si number density = 23.123068 Si / 1000 Ang^3
#
#
#
# Elastic Constant Matrix: (Units=GPa)
#
#
# Indices 1 2 3 4 5 6 
#
# 1 128.8080 30.0365 33.0470 18.6652 0.4878 12.0672
# 2 30.0365 118.9535 46.7760 26.9420 0.2364 9.5214
# 3 33.0470 46.7760 158.3934 3.7560 14.2480 -9.3275
# 4 18.6652 26.9420 3.7560 35.9207 -2.5133 -5.7502
# 5 0.4878 0.2364 14.2480 -2.5133 23.1207 4.0517
# 6 12.0672 9.5214 -9.3275 -5.7502 4.0517 40.7147
#
#
#
# Elastic Compliance Matrix: (Units=1/GPa)
#
#
# Indices 1 2 3 4 5 6 
#
# 1 0.009486 0.000010 -0.002224 -0.005283 0.001332 -0.004202
# 2 0.000010 0.012639 -0.004028 -0.009784 0.002251 -0.005487
# 3 -0.002224 -0.004028 0.008666 0.003620 -0.005676 0.004663
# 4 -0.005283 -0.009784 0.003620 0.039206 0.000460 0.010175
# 5 0.001332 0.002251 -0.005676 0.000460 0.047962 -0.006930
# 6 -0.004202 -0.005487 0.004663 0.010175 -0.006930 0.030285
#
#
# Mechanical properties :
#
#
# Convention : Reuss Voigt Hill
#
# Bulk Modulus (GPa) = 54.62594 69.54156 62.08375
# Shear Modulus (GPa) = 29.97043 39.70422 34.83732
#
# Velocity S-wave (km/s) = 3.60408 4.14827 3.88571
# Velocity P-wave (km/s) = 6.40269 7.28587 6.85852
#
# Compressibility (1/GPa) = 0.01830632
#
# Stress axis : x y z
#
# Youngs Moduli (GPa) = 105.41795 79.11998 115.38990
#
# Poissons Ratio (x) = -0.00076 0.25663
# Poissons Ratio (y) = -0.00101 0.46480
# Poissons Ratio (z) = 0.23445 0.31870
#
# Static dielectric constant tensor:
#      x y z
#    x 2.096510 0.072250 -0.042450 
#    y 0.072250 1.855180 -0.020490 
#    z -0.042450 -0.020490 1.873420 
# 
# From -- ./inp_files/534933.got.cif
#   From: 2010.05.17/outbox.cif.g08.bks.cpg/sg2_268_cif.got.tgz:534933.got - 2010.06.03 11:33:40.
