data_PCOD9101036
_publ_section_title
;
Structure prediction by ZEFSAII (Michael W. Deem and Ramdas Pophale) SiO2 
 PCOD9101036
Probable space group: P -1
;
_chemical_formula_sum "Si O2"
_cell_formula_units_Z 16
_cell_length_a 8.592366
_cell_length_b 14.364817
_cell_length_c 8.379448
_cell_angle_alpha 75.751777
_cell_angle_beta 70.093897
_cell_angle_gamma 46.421647
_cell_volume 704.383746
_symmetry_space_group_name_H-M "P -1"
_symmetry_group_IT_number 2
_symmetry_cell_setting 'triclinic'
loop_
_space_group_symop_operation_xyz
x,y,z
-x,-y,-z
loop_
_atom_site_type_symbol
_atom_site_label
_atom_site_fract_x
_atom_site_fract_y
_atom_site_fract_z
Si Si1 0.637785 0.139609 0.534373
Si Si2 0.664613 0.023176 0.896641
Si Si3 0.988613 0.144261 0.576381
Si Si4 0.696526 0.211642 0.939289
Si Si5 0.415028 0.597666 0.842708
Si Si6 0.750713 0.596840 0.607395
Si Si7 0.970764 0.754181 0.769995
Si Si8 0.781305 0.630922 0.953840
O O1 0.577383 0.108485 0.731479
O O2 0.803854 0.160268 0.525523
O O3 0.418374 0.264467 0.476274
O O4 0.790706 0.006776 0.436372
O O5 0.718518 0.086980 0.977483
O O6 0.889661 0.884488 0.821987
O O7 0.500000 0.000000 0.000000
O O8 0.877463 0.189809 0.769921
O O9 0.037263 0.222596 0.427172
O O10 0.681455 0.269508 0.090134
O O11 0.445552 0.319624 0.911845
O O12 0.616822 0.547849 0.677572
O O13 0.213855 0.633621 0.796600
O O14 0.500000 0.500000 0.000000
O O15 0.768688 0.612207 0.780674
O O16 0.000000 0.500000 0.500000
O O17 0.809026 0.734449 0.900229
O O18 0.000000 0.500000 0.000000
#
# Coordination Sequence:
#
# PCOD9101036 Si02
#       8
#     2   2   2   2   2   2   2   2
#     4   9  19  39  64  97 130 168 217 270 330 391
#     4  10  20  37  68  98 129 169 213 271 337 396
#     4   9  19  38  69  93 125 169 213 272 330 391
#     4  10  22  41  66  94 129 165 218 267 340 376
#     4  11  25  44  62  94 132 172 225 273 318 391
#     4  11  25  43  66  93 134 177 220 272 330 387
#     4  11  21  41  65  94 128 168 223 267 326 394
#     4  11  25  42  63  94 136 178 220 267 327 398
#
# _framework density 22.714891999999999
#
# number of rings (size 3 to 8) (size 9 to 14) (size 15 to 20)
#    0.000    1.750    2.500    2.250    3.500    2.500 
#    2.250    4.375    0.000    0.000    0.000    0.000 
#    0.000    0.000    0.000    0.000    0.000    0.000 
#
# Total GULP energy -89322.880265 kJ/mol
# GULP energy per Si atom -5582.680017 kJ/mol
# Density = 2.266319 g / cm^3
# Si number density = 22.714892 Si / 1000 Ang^3
#
#
#
# Elastic Constant Matrix: (Units=GPa)
#
#
# Indices 1 2 3 4 5 6 
#
# 1 41.0859 13.1694 18.8170 -2.7217 -12.4153 -14.4752
# 2 13.1694 89.6176 45.3293 -4.8468 -4.2234 -31.3955
# 3 18.8170 45.3293 87.3479 -1.9088 -27.6980 -17.5759
# 4 -2.7217 -4.8468 -1.9088 46.7723 -2.6862 3.6145
# 5 -12.4153 -4.2234 -27.6980 -2.6862 32.8826 -1.2926
# 6 -14.4752 -31.3955 -17.5759 3.6145 -1.2926 45.0550
#
#
#
# Elastic Compliance Matrix: (Units=1/GPa)
#
#
# Indices 1 2 3 4 5 6 
#
# 1 0.032042 0.000054 -0.001171 0.001713 0.011654 0.010072
# 2 0.000054 0.019127 -0.009723 0.000561 -0.005300 0.009355
# 3 -0.001171 -0.009723 0.022804 0.000700 0.017661 0.002195
# 4 0.001713 0.000561 0.000700 0.021777 0.003070 -0.000445
# 5 0.011654 -0.005300 0.017661 0.003070 0.049577 0.008117
# 6 0.010072 0.009355 0.002195 -0.000445 0.008117 0.033075
#
#
# Mechanical properties :
#
#
# Convention : Reuss Voigt Hill
#
# Bulk Modulus (GPa) = 19.12337 41.40923 30.26630
# Shear Modulus (GPa) = 22.98721 34.32435 28.65578
#
# Velocity S-wave (km/s) = 3.18463 3.89150 3.55567
# Velocity P-wave (km/s) = 4.68611 6.20171 5.49640
#
# Compressibility (1/GPa) = 0.05229203
#
# Stress axis : x y z
#
# Youngs Moduli (GPa) = 31.20906 52.28300 43.85241
#
# Poissons Ratio (x) = -0.00283 0.05135
# Poissons Ratio (y) = -0.00169 0.42639
# Poissons Ratio (z) = 0.03655 0.50836
#
# Static dielectric constant tensor:
#      x y z
#    x 1.920390 0.047120 -0.060200 
#    y 0.047120 2.003000 -0.046150 
#    z -0.060200 -0.046150 1.886920 
# 
# From -- ./inp_files/206264.got.cif
#   From: 2010.05.17/outbox.cif.g08.bks.cpg/sg2_104_cif.got.tgz:206264.got - 2010.06.03 11:33:40.
