data_PCOD9101479
_publ_section_title
;
Structure prediction by ZEFSAII (Michael W. Deem and Ramdas Pophale) SiO2 
 PCOD9101479
Probable space group: P -1
;
_chemical_formula_sum "Si O2"
_cell_formula_units_Z 16
_cell_length_a 8.627060
_cell_length_b 10.935882
_cell_length_c 16.369473
_cell_angle_alpha 124.576669
_cell_angle_beta 142.728634
_cell_angle_gamma 72.896282
_cell_volume 730.630755
_symmetry_space_group_name_H-M "P -1"
_symmetry_group_IT_number 2
_symmetry_cell_setting 'triclinic'
loop_
_space_group_symop_operation_xyz
x,y,z
-x,-y,-z
loop_
_atom_site_type_symbol
_atom_site_label
_atom_site_fract_x
_atom_site_fract_y
_atom_site_fract_z
Si Si1 0.053257 0.716866 0.443030
Si Si2 0.643512 0.574760 0.350972
Si Si3 0.448937 0.752645 0.906299
Si Si4 0.122261 0.660965 0.160235
Si Si5 0.144031 0.403542 0.375787
Si Si6 0.332931 0.190790 0.261637
Si Si7 0.084546 0.119202 0.958016
Si Si8 0.716998 0.669108 0.135065
O O1 0.060539 0.543800 0.353951
O O2 0.364593 0.818477 0.617993
O O3 0.902636 0.686336 0.454752
O O4 0.859078 0.755217 0.309092
O O5 0.543952 0.414529 0.194761
O O6 0.427732 0.666419 0.303835
O O7 0.718474 0.534031 0.456845
O O8 0.135158 0.731599 0.770597
O O9 0.656797 0.882768 0.987962
O O10 0.561005 0.759069 0.047519
O O11 0.073409 0.792743 0.131481
O O12 0.956901 0.655012 0.171662
O O13 0.000000 0.500000 0.000000
O O14 0.322357 0.334837 0.367161
O O15 0.215766 0.206988 0.129437
O O16 0.126816 0.040246 0.160704
O O17 0.500000 0.500000 0.000000
#
# Coordination Sequence:
#
# PCOD9101479 Si02
#       8
#     2   2   2   2   2   2   2   2
#     4  11  22  36  60  87 128 149 198 252 292 345
#     4  11  20  37  58  92 117 152 197 250 300 344
#     4  10  20  38  59  88 121 154 194 248 299 345
#     4  11  21  35  63  87 114 154 199 243 295 355
#     4  11  22  34  61  88 117 155 201 247 295 347
#     4  11  24  40  59  88 120 162 199 241 292 357
#     4  10  23  42  61  83 123 159 197 241 299 351
#     4  11  19  35  56  94 120 149 193 249 301 336
#
# _framework density 21.898886000000001
#
# number of rings (size 3 to 8) (size 9 to 14) (size 15 to 20)
#    0.000    1.250    5.000    4.125    1.750    1.500 
#    0.000    6.250    0.000    0.000    0.000    0.000 
#    0.000    0.000    0.000    0.000    0.000    0.000 
#
# Total GULP energy -89416.319515 kJ/mol
# GULP energy per Si atom -5588.519970 kJ/mol
# Density = 2.184904 g / cm^3
# Si number density = 21.898886 Si / 1000 Ang^3
#
#
#
# Elastic Constant Matrix: (Units=GPa)
#
#
# Indices 1 2 3 4 5 6 
#
# 1 85.3668 30.0320 27.0404 -2.6430 22.6588 16.9073
# 2 30.0320 48.3972 24.0102 -9.9952 0.3544 24.9084
# 3 27.0404 24.0102 96.4064 -13.9584 13.0647 12.4556
# 4 -2.6430 -9.9952 -13.9584 35.3702 12.8217 4.7523
# 5 22.6588 0.3544 13.0647 12.8217 48.3110 -2.5734
# 6 16.9073 24.9084 12.4556 4.7523 -2.5734 34.9099
#
#
#
# Elastic Compliance Matrix: (Units=1/GPa)
#
#
# Indices 1 2 3 4 5 6 
#
# 1 0.018125 -0.008525 -0.000999 0.002234 -0.008937 -0.003302
# 2 -0.008525 0.046017 -0.002710 0.015838 -0.001408 -0.029997
# 3 -0.000999 -0.002710 0.013505 0.006868 -0.005185 -0.003718
# 4 0.002234 0.015838 0.006868 0.044379 -0.015974 -0.022052
# 5 -0.008937 -0.001408 -0.005185 -0.015974 0.031164 0.011654
# 6 -0.003302 -0.029997 -0.003718 -0.022052 0.011654 0.056835
#
#
# Mechanical properties :
#
#
# Convention : Reuss Voigt Hill
#
# Bulk Modulus (GPa) = 18.80469 43.59285 31.19877
# Shear Modulus (GPa) = 19.82396 33.65743 26.74069
#
# Velocity S-wave (km/s) = 3.01200 3.92464 3.49821
# Velocity P-wave (km/s) = 4.54993 6.36292 5.53121
#
# Compressibility (1/GPa) = 0.05317822
#
# Stress axis : x y z
#
# Youngs Moduli (GPa) = 55.17201 21.73121 74.04450
#
# Poissons Ratio (x) = 0.18526 0.07400
# Poissons Ratio (y) = 0.47036 0.20065
# Poissons Ratio (z) = 0.05514 0.05889
#
# Static dielectric constant tensor:
#      x y z
#    x 1.795270 0.001590 0.028450 
#    y 0.001590 1.847150 0.007790 
#    z 0.028450 0.007790 1.817040 
# 
# From -- ./inp_files/399067.got.cif
#   From: 2010.05.17/outbox.cif.g08.bks.cpg/sg2_200_cif.got.tgz:399067.got - 2010.06.03 11:33:40.
