data_PCOD9101933
_publ_section_title
;
Structure prediction by ZEFSAII (Michael W. Deem and Ramdas Pophale) SiO2 
 PCOD9101933
Probable space group: P -1
;
_chemical_formula_sum "Si O2"
_cell_formula_units_Z 12
_cell_length_a 12.521998
_cell_length_b 9.979491
_cell_length_c 5.044997
_cell_angle_alpha 86.228800
_cell_angle_beta 103.231634
_cell_angle_gamma 136.902903
_cell_volume 414.406055
_symmetry_space_group_name_H-M "P -1"
_symmetry_group_IT_number 2
_symmetry_cell_setting 'triclinic'
loop_
_space_group_symop_operation_xyz
x,y,z
-x,-y,-z
loop_
_atom_site_type_symbol
_atom_site_label
_atom_site_fract_x
_atom_site_fract_y
_atom_site_fract_z
Si Si1 0.719955 0.103800 0.001921
Si Si2 0.687795 0.553242 0.987795
Si Si3 0.107569 0.191084 0.353298
Si Si4 0.611363 0.229201 0.346788
Si Si5 0.355863 0.234336 0.682287
Si Si6 0.059544 0.447626 0.317901
O O1 0.659082 0.160281 0.167064
O O2 0.911213 0.305429 0.040329
O O3 0.708887 0.956967 0.190142
O O4 0.584121 0.960586 0.710846
O O5 0.864929 0.722571 0.936724
O O6 0.546726 0.398508 0.708604
O O7 0.643291 0.395284 0.185870
O O8 0.663541 0.665591 0.125107
O O9 0.253387 0.210457 0.397063
O O10 0.073549 0.306500 0.450537
O O11 0.000000 0.000000 0.500000
O O12 0.747394 0.346593 0.641158
O O13 0.000000 0.500000 0.500000
#
# Coordination Sequence:
#
# PCOD9101933 Si02
#       6
#     2   2   2   2   2   2
#     4   9  18  35  63  89 118 164 205 258 308 367
#     4  10  22  38  64  91 123 170 209 255 319 372
#     4  12  23  39  60  92 131 165 208 263 312 374
#     4   9  18  37  63  84 122 164 208 256 307 368
#     4  10  20  40  62  90 126 163 209 260 314 376
#     4  10  20  38  61  87 126 166 205 257 310 372
#
# _framework density 28.957104999999999
#
# number of rings (size 3 to 8) (size 9 to 14) (size 15 to 20)
#    0.000    2.000    3.333    0.500    0.000    0.667 
#    0.000    5.000    0.000    9.000    0.000    0.000 
#    0.000    0.000    0.000    0.000    0.000    0.000 
#
# Total GULP energy -66880.692833 kJ/mol
# GULP energy per Si atom -5573.391069 kJ/mol
# Density = 2.889120 g / cm^3
# Si number density = 28.957105 Si / 1000 Ang^3
#
#
#
# Elastic Constant Matrix: (Units=GPa)
#
#
# Indices 1 2 3 4 5 6 
#
# 1 152.5651 48.5469 27.8756 -9.2198 15.2145 -32.2421
# 2 48.5469 240.0738 48.0136 -17.5667 25.1670 -8.7161
# 3 27.8756 48.0136 112.3059 17.2710 6.0097 39.0929
# 4 -9.2198 -17.5667 17.2710 54.3955 22.3548 29.3659
# 5 15.2145 25.1670 6.0097 22.3548 56.9544 -8.3367
# 6 -32.2421 -8.7161 39.0929 29.3659 -8.3367 103.3401
#
#
#
# Elastic Compliance Matrix: (Units=1/GPa)
#
#
# Indices 1 2 3 4 5 6 
#
# 1 0.008201 -0.000740 -0.002903 0.000938 -0.001456 0.003211
# 2 -0.000740 0.005478 -0.002497 0.004056 -0.003590 -0.000266
# 3 -0.002903 -0.002497 0.012863 -0.003076 0.000993 -0.005028
# 4 0.000938 0.004056 -0.003076 0.031731 -0.015411 -0.008462
# 5 -0.001456 -0.003590 0.000993 -0.015411 0.026263 0.005365
# 6 0.003211 -0.000266 -0.005028 -0.008462 0.005365 0.015395
#
#
# Mechanical properties :
#
#
# Convention : Reuss Voigt Hill
#
# Bulk Modulus (GPa) = 70.12209 83.75745 76.93977
# Shear Modulus (GPa) = 42.74800 68.30522 55.52661
#
# Velocity S-wave (km/s) = 3.84637 4.86206 4.38373
# Velocity P-wave (km/s) = 6.63284 7.77862 7.22847
#
# Compressibility (1/GPa) = 0.01426084
#
# Stress axis : x y z
#
# Youngs Moduli (GPa) = 121.93956 182.55117 77.74519
#
# Poissons Ratio (x) = 0.13508 0.22570
# Poissons Ratio (y) = 0.09023 0.19414
# Poissons Ratio (z) = 0.35400 0.45586
#
# Static dielectric constant tensor:
#      x y z
#    x 2.326610 0.129030 0.218810 
#    y 0.129030 2.383340 0.156480 
#    z 0.218810 0.156480 2.452360 
# 
# From -- ./inp_files/92231.got.cif
#   From: 2010.05.17/outbox.cif.g08.bks.cpg/sg2_47_cif.got.tgz:92231.got - 2010.06.03 11:33:40.
