data_PCOD9101125
_publ_section_title
;
Structure prediction by ZEFSAII (Michael W. Deem and Ramdas Pophale) SiO2 
 PCOD9101125
Probable space group: P -1
;
_chemical_formula_sum "Si O2"
_cell_formula_units_Z 16
_cell_length_a 9.157589
_cell_length_b 15.294109
_cell_length_c 7.923475
_cell_angle_alpha 118.791987
_cell_angle_beta 105.064037
_cell_angle_gamma 61.509374
_cell_volume 854.111485
_symmetry_space_group_name_H-M "P -1"
_symmetry_group_IT_number 2
_symmetry_cell_setting 'triclinic'
loop_
_space_group_symop_operation_xyz
x,y,z
-x,-y,-z
loop_
_atom_site_type_symbol
_atom_site_label
_atom_site_fract_x
_atom_site_fract_y
_atom_site_fract_z
Si Si1 0.704179 0.765090 0.890459
Si Si2 0.950263 0.301603 0.185820
Si Si3 0.860012 0.101732 0.953919
Si Si4 0.237385 0.057752 0.399118
Si Si5 0.895578 0.274930 0.509764
Si Si6 0.427972 0.006431 0.754862
Si Si7 0.997826 0.614284 0.050497
Si Si8 0.372009 0.807972 0.714742
O O1 0.563559 0.732381 0.743156
O O2 0.851200 0.739907 0.777488
O O3 0.618172 0.892854 0.035804
O O4 0.808466 0.696702 0.019057
O O5 0.870421 0.335668 0.376950
O O6 0.921239 0.195644 0.017199
O O7 0.905719 0.387123 0.097547
O O8 0.802172 0.048868 0.734127
O O9 0.713882 0.154500 0.094280
O O10 0.000000 0.000000 0.000000
O O11 0.321459 0.056833 0.601724
O O12 0.062712 0.162758 0.429960
O O13 0.378610 0.043944 0.289394
O O14 0.739331 0.244207 0.459243
O O15 0.930673 0.337923 0.733605
O O16 0.373696 0.912917 0.716678
O O17 0.000000 0.500000 0.000000
#
# Coordination Sequence:
#
# PCOD9101125 Si02
#       8
#     2   2   2   2   2   2   2   2
#     4  10  20  38  55  85 117 158 192 238 285 345
#     4   9  21  36  62  83 118 150 196 238 289 343
#     4  11  19  31  52  84 122 155 184 228 279 350
#     4  11  21  33  49  87 124 160 193 226 275 356
#     4  11  22  38  60  89 116 152 202 236 290 352
#     4  11  22  31  53  86 124 163 192 222 279 356
#     4  10  24  44  66  83 107 152 207 258 295 336
#     4  11  22  32  55  87 124 158 184 231 290 353
#
# _framework density 18.732918000000002
#
# number of rings (size 3 to 8) (size 9 to 14) (size 15 to 20)
#    0.750    0.750    5.000    1.875    1.750    1.000 
#    0.000    0.625    0.000    3.000    0.000    0.000 
#    0.000    0.000    0.000    0.000    0.000    0.000 
#
# Total GULP energy -89176.951470 kJ/mol
# GULP energy per Si atom -5573.559467 kJ/mol
# Density = 1.869028 g / cm^3
# Si number density = 18.732918 Si / 1000 Ang^3
#
#
#
# Elastic Constant Matrix: (Units=GPa)
#
#
# Indices 1 2 3 4 5 6 
#
# 1 115.9001 33.1797 26.3897 2.4276 25.3094 11.8299
# 2 33.1797 87.2837 29.4823 -8.2701 14.0875 23.8708
# 3 26.3897 29.4823 62.2820 -10.2778 23.1768 0.2276
# 4 2.4276 -8.2701 -10.2778 15.3534 4.0069 -2.8538
# 5 25.3094 14.0875 23.1768 4.0069 27.7655 -2.6886
# 6 11.8299 23.8708 0.2276 -2.8538 -2.6886 18.2848
#
#
#
# Elastic Compliance Matrix: (Units=1/GPa)
#
#
# Indices 1 2 3 4 5 6 
#
# 1 0.012353 0.000110 -0.001645 -0.002085 -0.010610 -0.010000
# 2 0.000110 0.025337 -0.006653 0.005895 -0.011529 -0.033841
# 3 -0.001645 -0.006653 0.034882 0.029021 -0.027481 0.009805
# 4 -0.002085 0.005895 0.029021 0.098868 -0.039298 0.002944
# 5 -0.010610 -0.011529 -0.027481 -0.039298 0.082888 0.028312
# 6 -0.010000 -0.033841 0.009805 0.002944 0.028312 0.109840
#
#
# Mechanical properties :
#
#
# Convention : Reuss Voigt Hill
#
# Bulk Modulus (GPa) = 17.79555 49.28548 33.54052
# Shear Modulus (GPa) = 12.52264 24.04168 18.28216
#
# Velocity S-wave (km/s) = 2.58831 3.58633 3.12739
# Velocity P-wave (km/s) = 4.29566 6.59664 5.56635
#
# Compressibility (1/GPa) = 0.05619382
#
# Stress axis : x y z
#
# Youngs Moduli (GPa) = 80.95491 39.46822 28.66786
#
# Poissons Ratio (x) = -0.00434 0.04717
# Poissons Ratio (y) = -0.00889 0.19074
# Poissons Ratio (z) = 0.13321 0.26259
#
# Static dielectric constant tensor:
#      x y z
#    x 1.680870 -0.005170 0.013460 
#    y -0.005170 1.678300 -0.026200 
#    z 0.013460 -0.026200 1.650030 
# 
# From -- ./inp_files/203751.got.cif
#   From: 2010.05.17/outbox.cif.g08.bks.cpg/sg2_102_cif.got.tgz:203751.got - 2010.06.03 11:33:40.
