data_PCOD9101900
_publ_section_title
;
Structure prediction by ZEFSAII (Michael W. Deem and Ramdas Pophale) SiO2 
 PCOD9101900
Probable space group: P -1
;
_chemical_formula_sum "Si O2"
_cell_formula_units_Z 16
_cell_length_a 16.339553
_cell_length_b 12.230141
_cell_length_c 6.020689
_cell_angle_alpha 80.562858
_cell_angle_beta 116.998500
_cell_angle_gamma 134.555164
_cell_volume 740.925263
_symmetry_space_group_name_H-M "P -1"
_symmetry_group_IT_number 2
_symmetry_cell_setting 'triclinic'
loop_
_space_group_symop_operation_xyz
x,y,z
-x,-y,-z
loop_
_atom_site_type_symbol
_atom_site_label
_atom_site_fract_x
_atom_site_fract_y
_atom_site_fract_z
Si Si1 0.090629 0.635037 0.758337
Si Si2 0.090946 0.027111 0.409915
Si Si3 0.878183 0.753327 0.990213
Si Si4 0.578431 0.235509 0.484053
Si Si5 0.139307 0.481920 0.227102
Si Si6 0.391466 0.936432 0.069526
Si Si7 0.699571 0.709529 0.161951
Si Si8 0.463961 0.559743 0.617454
O O1 0.000000 0.500000 0.500000
O O2 0.990380 0.637913 0.741639
O O3 0.115449 0.562225 0.000062
O O4 0.239344 0.809009 0.839789
O O5 0.110053 0.138217 0.210931
O O6 0.224305 0.127065 0.672248
O O7 0.000000 0.000000 0.500000
O O8 0.017969 0.865110 0.251644
O O9 0.843797 0.611848 0.871611
O O10 0.779449 0.711800 0.071292
O O11 0.725854 0.378587 0.517332
O O12 0.598365 0.154880 0.710420
O O13 0.548943 0.328466 0.528063
O O14 0.457804 0.098731 0.222011
O O15 0.500000 0.000000 0.000000
O O16 0.659440 0.588758 0.343947
O O17 0.576889 0.655297 0.907560
O O18 0.500000 0.500000 0.500000
#
# Coordination Sequence:
#
# PCOD9101900 Si02
#       8
#     2   2   2   2   2   2   2   2
#     4  10  22  40  61  92 122 154 203 262 314 374
#     4   9  19  36  57  83 120 159 204 250 305 369
#     4  10  20  38  61  86 120 166 206 256 313 372
#     4  10  22  41  65  89 122 167 209 259 316 377
#     4  10  21  39  64  87 118 158 208 257 311 370
#     4  10  22  42  66  91 125 163 208 257 321 384
#     4  10  21  37  59  88 126 160 215 257 311 374
#     4  11  23  39  61  91 127 167 212 264 312 377
#
# _framework density 21.594622999999999
#
# number of rings (size 3 to 8) (size 9 to 14) (size 15 to 20)
#    0.000    2.000    0.000    3.000    0.000    8.000 
#   11.250    0.000    0.000    0.000    0.000    0.000 
#    0.000    0.000    0.000    0.000    0.000    0.000 
#
# Total GULP energy -89172.284677 kJ/mol
# GULP energy per Si atom -5573.267792 kJ/mol
# Density = 2.154547 g / cm^3
# Si number density = 21.594623 Si / 1000 Ang^3
#
#
#
# Elastic Constant Matrix: (Units=GPa)
#
#
# Indices 1 2 3 4 5 6 
#
# 1 87.5888 54.9722 23.6824 11.5781 -13.5755 13.7034
# 2 54.9722 93.6459 40.6762 32.4390 -2.9426 18.0195
# 3 23.6824 40.6762 97.6741 48.0606 4.9579 17.2501
# 4 11.5781 32.4390 48.0606 50.1722 14.5994 4.6789
# 5 -13.5755 -2.9426 4.9579 14.5994 33.6355 -0.7353
# 6 13.7034 18.0195 17.2501 4.6789 -0.7353 41.7972
#
#
#
# Elastic Compliance Matrix: (Units=1/GPa)
#
#
# Indices 1 2 3 4 5 6 
#
# 1 0.019773 -0.011470 -0.001341 0.002478 0.006074 -0.001155
# 2 -0.011470 0.022637 0.000197 -0.012518 0.002654 -0.004632
# 3 -0.001341 0.000197 0.022189 -0.022145 0.005681 -0.006224
# 4 0.002478 -0.012518 -0.022145 0.053808 -0.020025 0.007348
# 5 0.006074 0.002654 0.005681 -0.020025 0.040213 -0.002531
# 6 -0.001155 -0.004632 -0.006224 0.007348 -0.002531 0.028002
#
#
# Mechanical properties :
#
#
# Convention : Reuss Voigt Hill
#
# Bulk Modulus (GPa) = 25.40019 57.50782 41.45401
# Shear Modulus (GPa) = 22.22475 35.75949 28.99212
#
# Velocity S-wave (km/s) = 3.21156 4.07374 3.66807
# Velocity P-wave (km/s) = 5.05371 6.98682 6.09736
#
# Compressibility (1/GPa) = 0.03936978
#
# Stress axis : x y z
#
# Youngs Moduli (GPa) = 50.57457 44.17544 45.06757
#
# Poissons Ratio (x) = 0.50668 0.06045
# Poissons Ratio (y) = 0.58008 -0.00886
# Poissons Ratio (z) = 0.06783 -0.00868
#
# Static dielectric constant tensor:
#      x y z
#    x 1.804160 0.067620 0.038620 
#    y 0.067620 1.869430 0.074170 
#    z 0.038620 0.074170 1.826870 
# 
# From -- ./inp_files/95029.got.cif
#   From: 2010.05.17/outbox.cif.g08.bks.cpg/sg2_48_cif.got.tgz:95029.got - 2010.06.03 11:33:40.
