data_PCOD9101336
_publ_section_title
;
Structure prediction by ZEFSAII (Michael W. Deem and Ramdas Pophale) SiO2 
 PCOD9101336
Probable space group: P -1
;
_chemical_formula_sum "Si O2"
_cell_formula_units_Z 10
_cell_length_a 9.120360
_cell_length_b 7.540396
_cell_length_c 7.514651
_cell_angle_alpha 88.467926
_cell_angle_beta 50.375236
_cell_angle_gamma 94.387591
_cell_volume 394.961406
_symmetry_space_group_name_H-M "P -1"
_symmetry_group_IT_number 2
_symmetry_cell_setting 'triclinic'
loop_
_space_group_symop_operation_xyz
x,y,z
-x,-y,-z
loop_
_atom_site_type_symbol
_atom_site_label
_atom_site_fract_x
_atom_site_fract_y
_atom_site_fract_z
Si Si1 0.833096 0.184777 0.427944
Si Si2 0.267641 0.151801 0.068175
Si Si3 0.174914 0.132777 0.769703
Si Si4 0.633149 0.238319 0.952632
Si Si5 0.999968 0.550409 0.287060
O O1 0.711302 0.221936 0.691483
O O2 0.891395 0.375081 0.281519
O O3 0.728423 0.014929 0.410526
O O4 0.048963 0.137838 0.305629
O O5 0.279328 0.227125 0.856734
O O6 0.410515 0.253276 0.098363
O O7 0.331250 0.954732 0.996927
O O8 0.100571 0.278115 0.694352
O O9 0.000000 0.000000 0.000000
O O10 0.775255 0.392793 0.929853
O O11 0.000000 0.500000 0.500000
#
# Coordination Sequence:
#
# PCOD9101336 Si02
#       5
#     2   2   2   2   2
#     4  10  21  37  65  78 119 159 184 237 301 331
#     4  10  21  36  61  85 117 149 196 240 281 344
#     4  10  20  38  59  88 116 151 196 238 285 345
#     4  10  20  38  58  89 113 151 199 233 282 356
#     4  10  21  36  61  89 114 151 200 233 284 357
#
# _framework density 25.318930000000002
#
# number of rings (size 3 to 8) (size 9 to 14) (size 15 to 20)
#    0.000    2.000    4.000    0.600    2.800    4.800 
#    0.000    4.000    0.000    0.000    0.000    0.000 
#    0.000    0.000    0.000    0.000    0.000    0.000 
#
# Total GULP energy -55814.765168 kJ/mol
# GULP energy per Si atom -5581.476517 kJ/mol
# Density = 2.526130 g / cm^3
# Si number density = 25.318930 Si / 1000 Ang^3
#
#
#
# Elastic Constant Matrix: (Units=GPa)
#
#
# Indices 1 2 3 4 5 6 
#
# 1 86.8434 33.2256 8.5207 -15.3503 2.7830 -1.3776
# 2 33.2256 158.8550 9.5924 -4.4314 16.0040 -10.1540
# 3 8.5207 9.5924 46.7068 -2.5041 -2.5572 -1.5071
# 4 -15.3503 -4.4314 -2.5041 28.2220 0.5663 6.2011
# 5 2.7830 16.0040 -2.5572 0.5663 30.1505 -6.1104
# 6 -1.3776 -10.1540 -1.5071 6.2011 -6.1104 26.6877
#
#
#
# Elastic Compliance Matrix: (Units=1/GPa)
#
#
# Indices 1 2 3 4 5 6 
#
# 1 0.014041 -0.002708 -0.001707 0.007579 -0.000613 -0.002303
# 2 -0.002708 0.007376 -0.001181 -0.000796 -0.003341 0.002020
# 3 -0.001707 -0.001181 0.022192 0.000519 0.002913 0.001262
# 4 0.007579 -0.000796 0.000519 0.041804 -0.003107 -0.010307
# 5 -0.000613 -0.003341 0.002913 -0.003107 0.036932 0.008039
# 6 -0.002303 0.002020 0.001262 -0.010307 0.008039 0.042427
#
#
# Mechanical properties :
#
#
# Convention : Reuss Voigt Hill
#
# Bulk Modulus (GPa) = 30.84758 43.89807 37.37282
# Shear Modulus (GPa) = 26.77085 33.08312 29.92698
#
# Velocity S-wave (km/s) = 3.25521 3.61869 3.44175
# Velocity P-wave (km/s) = 5.13211 5.90217 5.53056
#
# Compressibility (1/GPa) = 0.03241745
#
# Stress axis : x y z
#
# Youngs Moduli (GPa) = 71.21914 135.56992 45.06077
#
# Poissons Ratio (x) = 0.36710 0.07692
# Poissons Ratio (y) = 0.19285 0.05323
# Poissons Ratio (z) = 0.12157 0.16016
#
# Static dielectric constant tensor:
#      x y z
#    x 2.132670 0.067010 0.054070 
#    y 0.067010 2.083050 0.028120 
#    z 0.054070 0.028120 2.064680 
# 
# From -- ./inp_files/147173.got.cif
#   From: 2010.05.17/outbox.cif.g08.bks.cpg/sg2_74_cif.got.tgz:147173.got - 2010.06.03 11:33:40.
