data_PCOD9101313
_publ_section_title
;
Structure prediction by ZEFSAII (Michael W. Deem and Ramdas Pophale) SiO2 
 PCOD9101313
Probable space group: P -1
;
_chemical_formula_sum "Si O2"
_cell_formula_units_Z 12
_cell_length_a 17.881527
_cell_length_b 9.070076
_cell_length_c 5.579616
_cell_angle_alpha 44.895806
_cell_angle_beta 126.432527
_cell_angle_gamma 127.350130
_cell_volume 485.546760
_symmetry_space_group_name_H-M "P -1"
_symmetry_group_IT_number 2
_symmetry_cell_setting 'triclinic'
loop_
_space_group_symop_operation_xyz
x,y,z
-x,-y,-z
loop_
_atom_site_type_symbol
_atom_site_label
_atom_site_fract_x
_atom_site_fract_y
_atom_site_fract_z
Si Si1 0.894319 0.469145 0.093893
Si Si2 0.716582 0.342934 0.214186
Si Si3 0.929907 0.143597 0.135040
Si Si4 0.457955 0.058684 0.595228
Si Si5 0.240824 0.289327 0.721693
Si Si6 0.422547 0.497643 0.562492
O O1 0.830445 0.599678 0.681783
O O2 0.998899 0.658124 0.118965
O O3 0.826072 0.376234 0.298988
O O4 0.906029 0.275512 0.167157
O O5 0.719660 0.534191 0.191512
O O6 0.655557 0.091941 0.452714
O O7 0.652805 0.388579 0.823318
O O8 0.831172 0.956331 0.071343
O O9 0.000000 0.000000 0.500000
O O10 0.500599 0.320465 0.341463
O O11 0.500000 0.000000 0.500000
O O12 0.500000 0.000000 0.000000
O O13 0.337865 0.289720 0.754900
O O14 0.500000 0.500000 0.500000
#
# Coordination Sequence:
#
# PCOD9101313 Si02
#       6
#     2   2   2   2   2   2
#     4   9  20  39  60  85 117 158 195 249 320 375
#     4  10  21  38  57  84 119 159 203 255 309 378
#     4   9  19  39  63  84 118 153 196 255 313 384
#     4  10  20  39  60  84 124 169 208 257 314 376
#     4  10  20  38  58  87 119 152 206 252 308 372
#     4  10  22  38  55  85 121 162 208 257 310 372
#
# _framework density 24.714403999999998
#
# number of rings (size 3 to 8) (size 9 to 14) (size 15 to 20)
#    0.000    2.333    1.667    0.000    2.333    1.333 
#    3.000    7.500    0.000    0.000    0.000    0.000 
#    0.000    0.000    0.000    0.000    0.000    0.000 
#
# Total GULP energy -66850.877267 kJ/mol
# GULP energy per Si atom -5570.906439 kJ/mol
# Density = 2.465815 g / cm^3
# Si number density = 24.714404 Si / 1000 Ang^3
#
#
#
# Elastic Constant Matrix: (Units=GPa)
#
#
# Indices 1 2 3 4 5 6 
#
# 1 202.8043 78.5068 25.0916 -24.4635 -11.3159 38.1072
# 2 78.5068 201.1496 28.4922 -39.8067 -19.6435 48.0848
# 3 25.0916 28.4922 89.6330 -20.6140 7.6566 25.7537
# 4 -24.4635 -39.8067 -20.6140 32.7991 14.8371 -5.2172
# 5 -11.3159 -19.6435 7.6566 14.8371 43.9565 -5.0839
# 6 38.1072 48.0848 25.7537 -5.2172 -5.0839 59.4913
#
#
#
# Elastic Compliance Matrix: (Units=1/GPa)
#
#
# Indices 1 2 3 4 5 6 
#
# 1 0.006263 -0.001227 0.000165 0.002966 -0.000296 -0.002857
# 2 -0.001227 0.008545 0.001742 0.009978 -0.000871 -0.006074
# 3 0.000165 0.001742 0.017243 0.015545 -0.008393 -0.008332
# 4 0.002966 0.009978 0.015545 0.061437 -0.019725 -0.012992
# 5 -0.000296 -0.000871 -0.008393 -0.019725 0.031035 0.005449
# 6 -0.002857 -0.006074 -0.008332 -0.012992 0.005449 0.026482
#
#
# Mechanical properties :
#
#
# Convention : Reuss Voigt Hill
#
# Bulk Modulus (GPa) = 29.93070 84.19646 57.06358
# Shear Modulus (GPa) = 31.09776 51.34914 41.22345
#
# Velocity S-wave (km/s) = 3.55108 4.56313 4.08854
# Velocity P-wave (km/s) = 5.38056 7.86794 6.73999
#
# Compressibility (1/GPa) = 0.03341052
#
# Stress axis : x y z
#
# Youngs Moduli (GPa) = 159.65571 117.02426 57.99503
#
# Poissons Ratio (x) = 0.14359 -0.00956
# Poissons Ratio (y) = 0.19590 -0.10101
# Poissons Ratio (z) = -0.02632 -0.20381
#
# Static dielectric constant tensor:
#      x y z
#    x 2.063790 -0.041630 -0.058150 
#    y -0.041630 1.962440 0.040710 
#    z -0.058150 0.040710 2.076550 
# 
# From -- ./inp_files/36009.got.cif
#   From: 2010.05.17/outbox.cif.g08.bks.cpg/sg2_19_cif.got.tgz:36009.got - 2010.06.03 11:33:40.
