data_PCOD9101267
_publ_section_title
;
Structure prediction by ZEFSAII (Michael W. Deem and Ramdas Pophale) SiO2 
 PCOD9101267
Probable space group: P -1
;
_chemical_formula_sum "Si O2"
_cell_formula_units_Z 14
_cell_length_a 11.623856
_cell_length_b 17.415841
_cell_length_c 5.262634
_cell_angle_alpha 83.383213
_cell_angle_beta 78.059023
_cell_angle_gamma 137.892828
_cell_volume 637.559763
_symmetry_space_group_name_H-M "P -1"
_symmetry_group_IT_number 2
_symmetry_cell_setting 'triclinic'
loop_
_space_group_symop_operation_xyz
x,y,z
-x,-y,-z
loop_
_atom_site_type_symbol
_atom_site_label
_atom_site_fract_x
_atom_site_fract_y
_atom_site_fract_z
Si Si1 0.592650 0.763081 0.574845
Si Si2 0.213269 0.646188 0.799999
Si Si3 0.898657 0.029854 0.491672
Si Si4 0.884690 0.359307 0.652799
Si Si5 0.794907 0.582770 0.292538
Si Si6 0.901795 0.815221 0.169887
Si Si7 0.423821 0.546778 0.057099
O O1 0.378524 0.674130 0.619772
O O2 0.739766 0.796775 0.303447
O O3 0.567113 0.687058 0.841986
O O4 0.686869 0.891921 0.574515
O O5 0.192981 0.698718 0.568443
O O6 0.267439 0.701574 0.035769
O O7 0.000000 0.500000 0.000000
O O8 0.947219 0.100625 0.698918
O O9 0.000000 0.000000 0.500000
O O10 0.994233 0.117898 0.169564
O O11 0.000000 0.500000 0.500000
O O12 0.019129 0.364132 0.708794
O O13 0.811476 0.683627 0.263281
O O14 0.747459 0.536671 0.040685
O O15 0.637089 0.477878 0.614955
O O16 0.500000 0.500000 0.000000
#
# Coordination Sequence:
#
# PCOD9101267 Si02
#       7
#     2   2   2   2   2   2   2
#     4  11  23  40  67  92 133 165 211 268 313 380
#     4  10  21  37  58  89 119 162 211 252 304 370
#     4  10  23  41  63  92 125 171 216 258 309 381
#     4  10  20  38  58  83 119 164 209 243 300 375
#     4  12  24  41  63  91 136 167 202 267 323 386
#     4  11  24  41  64  95 128 165 215 258 326 374
#     4  12  24  37  57  97 133 161 199 250 333 397
#
# _framework density 21.958722999999999
#
# number of rings (size 3 to 8) (size 9 to 14) (size 15 to 20)
#    0.000    1.143    1.429    7.286    2.000    4.571 
#    0.000    0.000    0.000    5.143    0.000    0.000 
#    0.000    0.000    0.000    0.000    0.000    0.000 
#
# Total GULP energy -78171.740832 kJ/mol
# GULP energy per Si atom -5583.695774 kJ/mol
# Density = 2.190874 g / cm^3
# Si number density = 21.958723 Si / 1000 Ang^3
#
#
#
# Elastic Constant Matrix: (Units=GPa)
#
#
# Indices 1 2 3 4 5 6 
#
# 1 91.7100 8.6105 27.2977 -0.6569 -1.7578 22.4645
# 2 8.6105 80.0736 20.4075 11.0304 8.7866 11.4284
# 3 27.2977 20.4075 112.1795 22.3017 27.6835 11.9000
# 4 -0.6569 11.0304 22.3017 28.2310 6.3856 -3.7428
# 5 -1.7578 8.7866 27.6835 6.3856 37.4863 2.9916
# 6 22.4645 11.4284 11.9000 -3.7428 2.9916 17.3827
#
#
#
# Elastic Compliance Matrix: (Units=1/GPa)
#
#
# Indices 1 2 3 4 5 6 
#
# 1 0.017246 0.001927 -0.002827 -0.002205 0.004647 -0.022893
# 2 0.001927 0.015466 0.000004 -0.007620 -0.001114 -0.014111
# 3 -0.002827 0.000004 0.014566 -0.010594 -0.008517 -0.007136
# 4 -0.002205 -0.007620 -0.010594 0.050454 -0.001177 0.026178
# 5 0.004647 -0.001114 -0.008517 -0.001177 0.034089 -0.005564
# 6 -0.022893 -0.014111 -0.007136 0.026178 -0.005564 0.107872
#
#
# Mechanical properties :
#
#
# Convention : Reuss Voigt Hill
#
# Bulk Modulus (GPa) = 21.98459 44.06609 33.02534
# Shear Modulus (GPa) = 19.48201 31.79649 25.63925
#
# Velocity S-wave (km/s) = 2.98184 3.80940 3.42074
# Velocity P-wave (km/s) = 4.67853 6.28172 5.53844
#
# Compressibility (1/GPa) = 0.04548640
#
# Stress axis : x y z
#
# Youngs Moduli (GPa) = 57.98599 64.65760 68.65112
#
# Poissons Ratio (x) = -0.12461 0.19409
# Poissons Ratio (y) = -0.11175 -0.00028
# Poissons Ratio (z) = 0.16394 -0.00026
#
# Static dielectric constant tensor:
#      x y z
#    x 1.841210 0.038020 -0.032060 
#    y 0.038020 2.032700 0.062950 
#    z -0.032060 0.062950 1.843530 
# 
# From -- ./inp_files/80473.got.cif
#   From: 2010.05.17/outbox.cif.g08.bks.cpg/sg2_41_cif.got.tgz:80473.got - 2010.06.03 11:33:40.
