data_PCOD9101335
_publ_section_title
;
Structure prediction by ZEFSAII (Michael W. Deem and Ramdas Pophale) SiO2 
 PCOD9101335
Probable space group: P -1
;
_chemical_formula_sum "Si O2"
_cell_formula_units_Z 14
_cell_length_a 6.457329
_cell_length_b 8.552635
_cell_length_c 21.269168
_cell_angle_alpha 38.566679
_cell_angle_beta 64.194213
_cell_angle_gamma 59.536236
_cell_volume 629.546699
_symmetry_space_group_name_H-M "P -1"
_symmetry_group_IT_number 2
_symmetry_cell_setting 'triclinic'
loop_
_space_group_symop_operation_xyz
x,y,z
-x,-y,-z
loop_
_atom_site_type_symbol
_atom_site_label
_atom_site_fract_x
_atom_site_fract_y
_atom_site_fract_z
Si Si1 0.579341 0.377630 0.332620
Si Si2 0.706347 0.732760 0.880349
Si Si3 0.391254 0.901219 0.452980
Si Si4 0.847251 0.114804 0.047500
Si Si5 0.875137 0.165245 0.784413
Si Si6 0.882913 0.716305 0.396748
Si Si7 0.080560 0.141732 0.305660
O O1 0.605162 0.299058 0.427830
O O2 0.392542 0.642881 0.249751
O O3 0.841648 0.379451 0.274324
O O4 0.475721 0.145687 0.391875
O O5 0.441847 0.838920 0.914829
O O6 0.713548 0.801133 0.782909
O O7 0.868491 0.887903 0.844053
O O8 0.834495 0.420545 0.964432
O O9 0.602558 0.760401 0.421704
O O10 0.163626 0.013531 0.402959
O O11 0.999003 0.910729 0.142535
O O12 0.000000 0.000000 0.000000
O O13 0.021870 0.316125 0.675551
O O14 0.000000 0.500000 0.500000
O O15 0.969501 0.952047 0.339531
#
# Coordination Sequence:
#
# PCOD9101335 Si02
#       7
#     2   2   2   2   2   2   2
#     4  10  22  36  60  95 130 170 218 256 318 380
#     4  10  25  47  66  99 127 163 221 268 331 390
#     4  10  20  38  58  88 134 177 212 261 308 375
#     4  11  26  47  71  96 124 167 220 274 332 385
#     4  11  23  43  67  95 134 169 210 272 322 383
#     4  10  20  39  59  91 129 171 214 256 319 379
#     4  10  22  39  63  91 128 173 214 263 315 385
#
# _framework density 22.238223000000001
#
# number of rings (size 3 to 8) (size 9 to 14) (size 15 to 20)
#    0.000    1.714    1.429    1.714    4.000    1.143 
#    7.714    0.000    0.000    0.000    0.000    0.000 
#    0.000    0.000    0.000    0.000    0.000    0.000 
#
# Total GULP energy -77994.268742 kJ/mol
# GULP energy per Si atom -5571.019196 kJ/mol
# Density = 2.218761 g / cm^3
# Si number density = 22.238223 Si / 1000 Ang^3
#
#
#
# Elastic Constant Matrix: (Units=GPa)
#
#
# Indices 1 2 3 4 5 6 
#
# 1 48.0808 40.3993 28.1661 11.4440 11.0852 -12.0419
# 2 40.3993 111.3972 57.8510 14.3372 7.8507 -36.0013
# 3 28.1661 57.8510 125.8325 13.4843 24.8959 -11.4858
# 4 11.4440 14.3372 13.4843 40.3088 3.9664 -0.2293
# 5 11.0852 7.8507 24.8959 3.9664 43.4457 -1.9194
# 6 -12.0419 -36.0013 -11.4858 -0.2293 -1.9194 30.4622
#
#
#
# Elastic Compliance Matrix: (Units=1/GPa)
#
#
# Indices 1 2 3 4 5 6 
#
# 1 0.032330 -0.010287 -0.000943 -0.004671 -0.005428 -0.000110
# 2 -0.010287 0.023186 -0.006794 -0.003284 0.003555 0.020973
# 3 -0.000943 -0.006794 0.012090 -0.000836 -0.005569 -0.004201
# 4 -0.004671 -0.003284 -0.000836 0.027600 -0.000515 -0.005868
# 5 -0.005428 0.003555 -0.005569 -0.000515 0.027071 0.001657
# 6 -0.000110 0.020973 -0.004201 -0.005868 0.001657 0.056047
#
#
# Mechanical properties :
#
#
# Convention : Reuss Voigt Hill
#
# Bulk Modulus (GPa) = 31.68775 59.79370 45.74073
# Shear Modulus (GPa) = 22.23304 33.43628 27.83466
#
# Velocity S-wave (km/s) = 3.16534 3.88177 3.54172
# Velocity P-wave (km/s) = 5.25731 6.85835 6.11050
#
# Compressibility (1/GPa) = 0.03155794
#
# Stress axis : x y z
#
# Youngs Moduli (GPa) = 30.93121 43.12924 82.71605
#
# Poissons Ratio (x) = 0.44367 0.07798
# Poissons Ratio (y) = 0.31819 0.56198
# Poissons Ratio (z) = 0.02916 0.29302
#
# Static dielectric constant tensor:
#      x y z
#    x 1.938770 0.081090 -0.071750 
#    y 0.081090 1.969940 -0.001760 
#    z -0.071750 -0.001760 1.834250 
# 
# From -- ./inp_files/553387.got.cif
#   From: 2010.05.17/outbox.cif.g08.bks.cpg/sg2_277_cif.got.tgz:553387.got - 2010.06.03 11:33:40.
