data_PCOD9101402
_publ_section_title
;
Structure prediction by ZEFSAII (Michael W. Deem and Ramdas Pophale) SiO2 
 PCOD9101402
Probable space group: P -1
;
_chemical_formula_sum "Si O2"
_cell_formula_units_Z 16
_cell_length_a 11.626135
_cell_length_b 9.136605
_cell_length_c 20.036429
_cell_angle_alpha 39.781364
_cell_angle_beta 137.504562
_cell_angle_gamma 142.667673
_cell_volume 780.912882
_symmetry_space_group_name_H-M "P -1"
_symmetry_group_IT_number 2
_symmetry_cell_setting 'triclinic'
loop_
_space_group_symop_operation_xyz
x,y,z
-x,-y,-z
loop_
_atom_site_type_symbol
_atom_site_label
_atom_site_fract_x
_atom_site_fract_y
_atom_site_fract_z
Si Si1 0.908497 0.221597 0.772209
Si Si2 0.161118 0.310382 0.444254
Si Si3 0.575165 0.314052 0.931931
Si Si4 0.336419 0.295827 0.949013
Si Si5 0.548569 0.546051 0.608350
Si Si6 0.778444 0.804613 0.745473
Si Si7 0.688732 0.173236 0.822834
Si Si8 0.038812 0.613083 0.900717
O O1 0.939563 0.514142 0.672194
O O2 0.743614 0.087769 0.807597
O O3 0.115679 0.247369 0.874158
O O4 0.818414 0.034795 0.733789
O O5 0.330504 0.468478 0.518287
O O6 0.293897 0.335456 0.427356
O O7 0.000000 0.000000 0.500000
O O8 0.420502 0.364410 0.886323
O O9 0.656718 0.513363 0.833734
O O10 0.765536 0.390304 0.033103
O O11 0.500000 0.000000 0.000000
O O12 0.500000 0.500000 0.000000
O O13 0.335161 0.026681 0.059740
O O14 0.649446 0.747793 0.643257
O O15 0.527589 0.258199 0.716339
O O16 0.000143 0.856540 0.805462
O O17 0.884038 0.445284 0.835714
O O18 0.000000 0.500000 0.000000
#
# Coordination Sequence:
#
# PCOD9101402 Si02
#       8
#     2   2   2   2   2   2   2   2
#     4  11  23  40  60  87 125 166 200 253 319 365
#     4  10  23  45  70  91 117 158 216 263 305 377
#     4  11  20  33  53  87 125 166 199 243 289 362
#     4  12  23  33  54  93 127 157 201 250 300 359
#     4   9  21  43  69  91 115 164 209 253 314 371
#     4  10  20  39  59  87 124 159 204 250 310 371
#     4  10  20  38  59  83 119 169 200 240 305 378
#     4   9  17  33  55  74 115 166 200 228 284 368
#
# _framework density 20.488842000000002
#
# number of rings (size 3 to 8) (size 9 to 14) (size 15 to 20)
#    0.000    1.750    0.000    6.375    1.750    0.500 
#   11.250    0.625    0.000    0.000    0.000    0.000 
#    0.000    0.000    0.000    0.000    0.000    0.000 
#
# Total GULP energy -89116.932391 kJ/mol
# GULP energy per Si atom -5569.808274 kJ/mol
# Density = 2.044221 g / cm^3
# Si number density = 20.488842 Si / 1000 Ang^3
#
#
#
# Elastic Constant Matrix: (Units=GPa)
#
#
# Indices 1 2 3 4 5 6 
#
# 1 58.8764 19.7977 4.8387 2.7078 -2.8215 -18.9426
# 2 19.7977 76.5205 16.7807 3.5957 -12.8787 -18.8794
# 3 4.8387 16.7807 65.1153 3.2923 -10.1229 6.3951
# 4 2.7078 3.5957 3.2923 35.2199 -3.0115 -10.4151
# 5 -2.8215 -12.8787 -10.1229 -3.0115 18.6136 4.9082
# 6 -18.9426 -18.8794 6.3951 -10.4151 4.9082 29.0938
#
#
#
# Elastic Compliance Matrix: (Units=1/GPa)
#
#
# Indices 1 2 3 4 5 6 
#
# 1 0.022777 -0.001888 -0.003494 0.003237 -0.003480 0.016119
# 2 -0.001888 0.018584 -0.004789 0.002764 0.007347 0.011633
# 3 -0.003494 -0.004789 0.019817 -0.004061 0.009658 -0.012821
# 4 0.003237 0.002764 -0.004061 0.033219 0.001224 0.016479
# 5 -0.003480 0.007347 0.009658 0.001224 0.066472 -0.010397
# 6 0.016119 0.011633 -0.012821 0.016479 -0.010397 0.062887
#
#
# Mechanical properties :
#
#
# Convention : Reuss Voigt Hill
#
# Bulk Modulus (GPa) = 24.48765 31.48293 27.98529
# Shear Modulus (GPa) = 19.40171 27.19180 23.29675
#
# Velocity S-wave (km/s) = 3.08058 3.64696 3.37567
# Velocity P-wave (km/s) = 4.96296 5.75613 5.37419
#
# Compressibility (1/GPa) = 0.04083691
#
# Stress axis : x y z
#
# Youngs Moduli (GPa) = 43.90401 53.81051 50.46137
#
# Poissons Ratio (x) = 0.10158 0.17630
# Poissons Ratio (y) = 0.08288 0.24165
# Poissons Ratio (z) = 0.15339 0.25769
#
# Static dielectric constant tensor:
#      x y z
#    x 1.743090 0.264340 -0.105340 
#    y 0.264340 1.391580 0.545390 
#    z -0.105340 0.545390 1.552800 
# 
# From -- ./inp_files/469782.got.cif
#   From: 2010.05.17/outbox.cif.g08.bks.cpg/sg2_235_cif.got.tgz:469782.got - 2010.06.03 11:33:40.
