data_PCOD9101841
_publ_section_title
;
Structure prediction by ZEFSAII (Michael W. Deem and Ramdas Pophale) SiO2 
 PCOD9101841
Probable space group: P -1
;
_chemical_formula_sum "Si O2"
_cell_formula_units_Z 16
_cell_length_a 13.525803
_cell_length_b 10.683460
_cell_length_c 7.817099
_cell_angle_alpha 89.953722
_cell_angle_beta 57.364830
_cell_angle_gamma 132.245493
_cell_volume 572.183001
_symmetry_space_group_name_H-M "P -1"
_symmetry_group_IT_number 2
_symmetry_cell_setting 'triclinic'
loop_
_space_group_symop_operation_xyz
x,y,z
-x,-y,-z
loop_
_atom_site_type_symbol
_atom_site_label
_atom_site_fract_x
_atom_site_fract_y
_atom_site_fract_z
Si Si1 0.059639 0.714761 0.447274
Si Si2 0.359861 0.686829 0.008585
Si Si3 0.907584 0.525823 0.211912
Si Si4 0.801766 0.062991 0.193402
Si Si5 0.531972 0.502235 0.196911
Si Si6 0.679610 0.874949 0.932083
Si Si7 0.210513 0.204842 0.717677
Si Si8 0.390411 0.899234 0.395427
O O1 0.014248 0.630639 0.296370
O O2 0.232262 0.793686 0.390535
O O3 0.864255 0.525541 0.736033
O O4 0.137122 0.922522 0.350634
O O5 0.428146 0.609700 0.873836
O O6 0.498060 0.807385 0.047086
O O7 0.417733 0.861223 0.849236
O O8 0.685642 0.300592 0.461238
O O9 0.000000 0.500000 0.000000
O O10 0.971619 0.705740 0.050711
O O11 0.681147 0.075444 0.378138
O O12 0.758407 0.914596 0.360937
O O13 0.728954 0.954684 0.078548
O O14 0.308593 0.351413 0.458740
O O15 0.658912 0.637921 0.248066
O O16 0.621634 0.680523 0.981237
O O17 0.000000 0.000000 0.000000
#
# Coordination Sequence:
#
# PCOD9101841 Si02
#       8
#     2   2   2   2   2   2   2   2
#     4  10  22  37  59  90 113 151 196 235 297 347
#     4  11  22  36  59  86 121 153 192 240 287 350
#     4   9  19  38  63  82 113 154 192 242 291 340
#     4   9  18  38  59  84 112 155 195 233 295 335
#     4  10  21  36  54  85 117 157 194 235 288 335
#     4   9  21  38  56  81 122 156 193 240 281 340
#     4  10  21  35  59  87 119 152 194 237 284 346
#     4  10  20  38  61  83 119 151 189 247 291 339
#
# _framework density 27.963080000000001
#
# number of rings (size 3 to 8) (size 9 to 14) (size 15 to 20)
#    0.000    2.250    1.250    0.750    1.750    4.000 
#    0.000    3.750    0.000   11.250    0.000    0.000 
#    0.000    0.000    0.000    0.000    0.000    0.000 
#
# Total GULP energy -89331.084827 kJ/mol
# GULP energy per Si atom -5583.192802 kJ/mol
# Density = 2.789943 g / cm^3
# Si number density = 27.963080 Si / 1000 Ang^3
#
#
#
# Elastic Constant Matrix: (Units=GPa)
#
#
# Indices 1 2 3 4 5 6 
#
# 1 58.0798 22.8437 38.1877 -16.7534 7.6759 5.0415
# 2 22.8437 118.3952 57.5945 -21.6621 18.7638 0.8649
# 3 38.1877 57.5945 226.3608 -52.0108 2.4309 -3.1155
# 4 -16.7534 -21.6621 -52.0108 51.1380 -1.3560 9.6911
# 5 7.6759 18.7638 2.4309 -1.3560 44.4329 -7.2988
# 6 5.0415 0.8649 -3.1155 9.6911 -7.2988 34.8420
#
#
#
# Elastic Compliance Matrix: (Units=1/GPa)
#
#
# Indices 1 2 3 4 5 6 
#
# 1 0.021701 -0.001580 -0.002084 0.005270 -0.003716 -0.005531
# 2 -0.001580 0.010829 -0.001931 0.002327 -0.004417 -0.001785
# 3 -0.002084 -0.001931 0.006421 0.005112 0.000931 -0.000303
# 4 0.005270 0.002327 0.005112 0.029106 -0.002769 -0.009039
# 5 -0.003716 -0.004417 0.000931 -0.002769 0.026019 0.006951
# 6 -0.005531 -0.001785 -0.000303 -0.009039 0.006951 0.033489
#
#
# Mechanical properties :
#
#
# Convention : Reuss Voigt Hill
#
# Bulk Modulus (GPa) = 36.02238 71.12085 53.57161
# Shear Modulus (GPa) = 33.78154 45.02990 39.40572
#
# Velocity S-wave (km/s) = 3.47951 4.01725 3.75801
# Velocity P-wave (km/s) = 5.39006 6.85615 6.16683
#
# Compressibility (1/GPa) = 0.02776052
#
# Stress axis : x y z
#
# Youngs Moduli (GPa) = 46.08115 92.34132 155.73431
#
# Poissons Ratio (x) = 0.14586 0.32462
# Poissons Ratio (y) = 0.07279 0.30080
# Poissons Ratio (z) = 0.09605 0.17835
#
# Static dielectric constant tensor:
#      x y z
#    x 2.301420 -0.041180 -0.071780 
#    y -0.041180 2.283040 0.053430 
#    z -0.071780 0.053430 2.217000 
# 
# From -- ./inp_files/52257.got.cif
#   From: 2010.05.17/outbox.cif.g08.bks.cpg/sg2_27_cif.got.tgz:52257.got - 2010.06.03 11:33:40.
