data_PCOD9101018
_publ_section_title
;
Structure prediction by ZEFSAII (Michael W. Deem and Ramdas Pophale) SiO2 
 PCOD9101018
Probable space group: P -1
;
_chemical_formula_sum "Si O2"
_cell_formula_units_Z 16
_cell_length_a 13.309156
_cell_length_b 5.587357
_cell_length_c 8.040407
_cell_angle_alpha 92.485805
_cell_angle_beta 99.688907
_cell_angle_gamma 76.774344
_cell_volume 573.740527
_symmetry_space_group_name_H-M "P -1"
_symmetry_group_IT_number 2
_symmetry_cell_setting 'triclinic'
loop_
_space_group_symop_operation_xyz
x,y,z
-x,-y,-z
loop_
_atom_site_type_symbol
_atom_site_label
_atom_site_fract_x
_atom_site_fract_y
_atom_site_fract_z
Si Si1 0.694716 0.990376 0.842292
Si Si2 0.894955 0.190724 0.858344
Si Si3 0.325779 0.135859 0.690258
Si Si4 0.485713 0.749612 0.403000
Si Si5 0.401880 0.696261 0.903563
Si Si6 0.156758 0.469313 0.457111
Si Si7 0.225796 0.432023 0.961658
Si Si8 0.022931 0.822588 0.660269
O O1 0.811077 0.035568 0.884560
O O2 0.631842 0.166545 0.691616
O O3 0.716918 0.698402 0.859353
O O4 0.609943 0.070432 0.968714
O O5 0.846132 0.331982 0.680898
O O6 0.884509 0.406444 0.001046
O O7 0.001216 0.007803 0.817948
O O8 0.419965 0.280871 0.707819
O O9 0.255993 0.247775 0.515011
O O10 0.379726 0.848383 0.727968
O O11 0.241648 0.220342 0.819747
O O12 0.500000 0.500000 0.500000
O O13 0.500000 0.000000 0.500000
O O14 0.500000 0.500000 0.000000
O O15 0.298827 0.603155 0.920129
O O16 0.064363 0.338086 0.373575
O O17 0.127744 0.628326 0.625729
O O18 0.000000 0.000000 0.500000
#
# Coordination Sequence:
#
# PCOD9101018 Si02
#       8
#     2   2   2   2   2   2   2   2
#     4  10  22  39  60  89 125 173 219 263 329 389
#     4  10  20  37  68  93 124 165 220 265 326 400
#     4  11  25  41  63  95 131 175 216 277 334 390
#     4  12  29  42  63  99 139 177 226 284 339 397
#     4  10  21  38  63  83 122 174 223 268 317 389
#     4  10  21  40  65  93 132 159 212 268 332 401
#     4  10  22  39  62  88 124 170 220 267 325 395
#     4   9  20  38  64  95 122 168 205 263 333 401
#
# _framework density 27.887169
#
# number of rings (size 3 to 8) (size 9 to 14) (size 15 to 20)
#    0.000    1.750    0.000    3.000   10.500    4.000 
#    0.000    0.625    0.000   19.500    0.000    0.000 
#    0.000    0.000    0.000    0.000    0.000    0.000 
#
# Total GULP energy -89269.299425 kJ/mol
# GULP energy per Si atom -5579.331214 kJ/mol
# Density = 2.782370 g / cm^3
# Si number density = 27.887169 Si / 1000 Ang^3
#
#
#
# Elastic Constant Matrix: (Units=GPa)
#
#
# Indices 1 2 3 4 5 6 
#
# 1 97.2808 38.9318 26.7683 -24.5728 -6.6065 -9.2975
# 2 38.9318 177.1175 61.6236 -36.6003 -16.4255 -45.8041
# 3 26.7683 61.6236 83.7604 -21.9956 -18.9475 -14.0045
# 4 -24.5728 -36.6003 -21.9956 92.2206 -18.0545 -11.1270
# 5 -6.6065 -16.4255 -18.9475 -18.0545 50.5618 -8.5267
# 6 -9.2975 -45.8041 -14.0045 -11.1270 -8.5267 66.0327
#
#
#
# Elastic Compliance Matrix: (Units=1/GPa)
#
#
# Indices 1 2 3 4 5 6 
#
# 1 0.012156 -0.000851 -0.001745 0.003063 0.002009 0.001527
# 2 -0.000851 0.010786 -0.003791 0.005139 0.005171 0.008092
# 3 -0.001745 -0.003791 0.018549 0.004247 0.007470 0.002739
# 4 0.003063 0.005139 0.004247 0.018153 0.011741 0.009471
# 5 0.002009 0.005171 0.007470 0.011741 0.030632 0.011388
# 6 0.001527 0.008092 0.002739 0.009471 0.011388 0.024619
#
#
# Mechanical properties :
#
#
# Convention : Reuss Voigt Hill
#
# Bulk Modulus (GPa) = 34.82262 68.08956 51.45609
# Shear Modulus (GPa) = 36.43186 57.15200 46.79193
#
# Velocity S-wave (km/s) = 3.61834 4.53194 4.10066
# Velocity P-wave (km/s) = 5.47454 7.20096 6.39626
#
# Compressibility (1/GPa) = 0.02871697
#
# Stress axis : x y z
#
# Youngs Moduli (GPa) = 82.26265 92.71157 53.91187
#
# Poissons Ratio (x) = 0.07888 0.09406
# Poissons Ratio (y) = 0.06999 0.20441
# Poissons Ratio (z) = 0.14353 0.35151
#
# Static dielectric constant tensor:
#      x y z
#    x 2.181210 -0.071750 -0.054150 
#    y -0.071750 2.396140 0.186980 
#    z -0.054150 0.186980 2.566610 
# 
# From -- ./inp_files/37272.got.cif
#   From: 2010.05.17/outbox.cif.g08.bks.cpg/sg2_19_cif.got.tgz:37272.got - 2010.06.03 11:33:40.
