data_PCOD9101100
_publ_section_title
;
Structure prediction by ZEFSAII (Michael W. Deem and Ramdas Pophale) SiO2 
 PCOD9101100
Probable space group: P -1
;
_chemical_formula_sum "Si O2"
_cell_formula_units_Z 16
_cell_length_a 5.754098
_cell_length_b 23.028010
_cell_length_c 14.976300
_cell_angle_alpha 159.407614
_cell_angle_beta 89.109804
_cell_angle_gamma 82.712033
_cell_volume 638.981529
_symmetry_space_group_name_H-M "P -1"
_symmetry_group_IT_number 2
_symmetry_cell_setting 'triclinic'
loop_
_space_group_symop_operation_xyz
x,y,z
-x,-y,-z
loop_
_atom_site_type_symbol
_atom_site_label
_atom_site_fract_x
_atom_site_fract_y
_atom_site_fract_z
Si Si1 0.592124 0.116766 0.602331
Si Si2 0.622083 0.713689 0.746267
Si Si3 0.851590 0.357859 0.347741
Si Si4 0.333488 0.536172 0.224155
Si Si5 0.873089 0.358998 0.808643
Si Si6 0.834598 0.486881 0.192444
Si Si7 0.651917 0.979793 0.689363
Si Si8 0.091548 0.812244 0.091857
O O1 0.500000 0.000000 0.500000
O O2 0.471770 0.130447 0.524192
O O3 0.469137 0.320379 0.930867
O O4 0.881263 0.987075 0.391540
O O5 0.721587 0.563264 0.608913
O O6 0.377587 0.682648 0.667441
O O7 0.893287 0.680073 0.652422
O O8 0.503594 0.915438 0.074967
O O9 0.943014 0.239744 0.085181
O O10 0.329900 0.583915 0.187947
O O11 0.531737 0.610293 0.372235
O O12 0.042224 0.573961 0.306831
O O13 0.853808 0.369044 0.931193
O O14 0.065292 0.158698 0.492164
O O15 0.000000 0.500000 0.000000
O O16 0.886251 0.353827 0.085070
O O17 0.670627 0.133919 0.845887
#
# Coordination Sequence:
#
# PCOD9101100 Si02
#       8
#     2   2   2   2   2   2   2   2
#     4  12  20  31  49  75 110 136 172 209 259 309
#     4   9  18  33  50  77 101 138 168 217 264 316
#     4   9  18  32  52  73 109 131 169 213 271 320
#     4  11  23  37  52  70 107 142 182 217 252 297
#     4  10  20  38  51  74 103 146 185 219 251 301
#     4  11  22  36  52  74 104 140 178 215 258 313
#     4  11  20  34  52  76 107 142 180 217 261 317
#     4  11  22  32  52  80 108 142 172 217 273 321
#
# _framework density 25.039850000000001
#
# number of rings (size 3 to 8) (size 9 to 14) (size 15 to 20)
#    0.000    1.500    5.000    1.875    0.000    1.500 
#    0.000    0.000    0.000    0.000    0.000    4.375 
#    0.000    0.000    0.000    0.000    0.000    0.000 
#
# Total GULP energy -89167.252523 kJ/mol
# GULP energy per Si atom -5572.953283 kJ/mol
# Density = 2.498286 g / cm^3
# Si number density = 25.039850 Si / 1000 Ang^3
#
#
#
# Elastic Constant Matrix: (Units=GPa)
#
#
# Indices 1 2 3 4 5 6 
#
# 1 183.3069 27.0494 2.4008 -6.1639 -19.2251 -2.3574
# 2 27.0494 89.7695 25.3751 -6.6967 -18.8199 17.4880
# 3 2.4008 25.3751 73.3479 -12.2031 -10.3649 3.4754
# 4 -6.1639 -6.6967 -12.2031 25.3734 5.7076 -1.2558
# 5 -19.2251 -18.8199 -10.3649 5.7076 27.5138 0.3257
# 6 -2.3574 17.4880 3.4754 -1.2558 0.3257 12.0453
#
#
#
# Elastic Compliance Matrix: (Units=1/GPa)
#
#
# Indices 1 2 3 4 5 6 
#
# 1 0.006167 -0.002292 0.000944 0.000917 0.002856 0.004280
# 2 -0.002292 0.021541 -0.004410 -0.001243 0.012095 -0.030907
# 3 0.000944 -0.004410 0.016448 0.006546 0.002452 0.002459
# 4 0.000917 -0.001243 0.006546 0.044268 -0.006985 0.004900
# 5 0.002856 0.012095 0.002452 -0.006985 0.049221 -0.019769
# 6 0.004280 -0.030907 0.002459 0.004900 -0.019769 0.129066
#
#
# Mechanical properties :
#
#
# Convention : Reuss Voigt Hill
#
# Bulk Modulus (GPa) = 30.63750 50.67499 40.65624
# Shear Modulus (GPa) = 17.29472 32.42644 24.86058
#
# Velocity S-wave (km/s) = 2.63094 3.60251 3.15436
# Velocity P-wave (km/s) = 4.63586 6.13072 5.43493
#
# Compressibility (1/GPa) = 0.03263974
#
# Stress axis : x y z
#
# Youngs Moduli (GPa) = 162.16532 46.42345 60.79918
#
# Poissons Ratio (x) = 0.10638 -0.05741
# Poissons Ratio (y) = 0.37162 0.26814
# Poissons Ratio (z) = -0.15313 0.20474
#
# Static dielectric constant tensor:
#      x y z
#    x 2.204720 -0.066400 0.041730 
#    y -0.066400 2.036550 -0.073580 
#    z 0.041730 -0.073580 2.047790 
# 
# From -- ./inp_files/83726.got.cif
#   From: 2010.05.17/outbox.cif.g08.bks.cpg/sg2_42_cif.got.tgz:83726.got - 2010.06.03 11:33:40.
