data_PCOD9101075
_publ_section_title
;
Structure prediction by ZEFSAII (Michael W. Deem and Ramdas Pophale) SiO2 
 PCOD9101075
Probable space group: P -1
;
_chemical_formula_sum "Si O2"
_cell_formula_units_Z 12
_cell_length_a 14.959725
_cell_length_b 14.056330
_cell_length_c 9.404764
_cell_angle_alpha 138.913400
_cell_angle_beta 29.422409
_cell_angle_gamma 150.309079
_cell_volume 481.167181
_symmetry_space_group_name_H-M "P -1"
_symmetry_group_IT_number 2
_symmetry_cell_setting 'triclinic'
loop_
_space_group_symop_operation_xyz
x,y,z
-x,-y,-z
loop_
_atom_site_type_symbol
_atom_site_label
_atom_site_fract_x
_atom_site_fract_y
_atom_site_fract_z
Si Si1 0.045336 0.861864 0.228950
Si Si2 0.441425 0.527901 0.454481
Si Si3 0.719583 0.003451 0.235893
Si Si4 0.245548 0.722069 0.941097
Si Si5 0.363803 0.598904 0.165533
Si Si6 0.847110 0.266536 0.599697
O O1 0.832634 0.670878 0.391563
O O2 0.266218 0.872492 0.980919
O O3 0.000000 0.000000 0.500000
O O4 0.071372 0.873684 0.035667
O O5 0.500000 0.500000 0.500000
O O6 0.448846 0.704198 0.630106
O O7 0.578046 0.516089 0.128535
O O8 0.591450 0.782101 0.141159
O O9 0.500000 0.000000 0.500000
O O10 0.818684 0.107181 0.366239
O O11 0.241234 0.780133 0.171162
O O12 0.000000 0.500000 0.000000
O O13 0.287601 0.675714 0.236007
O O14 0.129505 0.458144 0.428095
#
# Coordination Sequence:
#
# PCOD9101075 Si02
#       6
#     2   2   2   2   2   2
#     4  11  23  44  66  94 137 173 219 284 331 390
#     4  11  20  39  66  98 128 173 226 267 337 401
#     4  10  22  39  66  97 128 179 223 269 339 397
#     4  10  24  40  68  98 134 176 223 278 333 398
#     4  10  20  37  70  96 129 179 221 269 339 401
#     4  10  21  41  65  98 136 174 220 279 334 395
#
# _framework density 24.939357999999999
#
# number of rings (size 3 to 8) (size 9 to 14) (size 15 to 20)
#    0.000    1.667    3.333    1.000   11.667    0.000 
#    0.000   13.333    0.000    0.000    0.000    1.167 
#    0.000    0.000    0.000    0.000    0.000    0.000 
#
# Total GULP energy -67086.075185 kJ/mol
# GULP energy per Si atom -5590.506265 kJ/mol
# Density = 2.488259 g / cm^3
# Si number density = 24.939358 Si / 1000 Ang^3
#
#
#
# Elastic Constant Matrix: (Units=GPa)
#
#
# Indices 1 2 3 4 5 6 
#
# 1 66.5072 43.1658 50.3303 32.2215 6.5980 -9.6672
# 2 43.1658 74.5344 34.6370 20.7193 6.3331 -3.6320
# 3 50.3303 34.6370 150.7507 43.9760 18.4835 -18.6490
# 4 32.2215 20.7193 43.9760 49.9790 -2.1211 -1.3216
# 5 6.5980 6.3331 18.4835 -2.1211 42.1503 11.2698
# 6 -9.6672 -3.6320 -18.6490 -1.3216 11.2698 29.8092
#
#
#
# Elastic Compliance Matrix: (Units=1/GPa)
#
#
# Indices 1 2 3 4 5 6 
#
# 1 0.035088 -0.014221 -0.002238 -0.014742 -0.005725 0.009757
# 2 -0.014221 0.021670 -0.000755 0.000785 -0.000017 -0.002403
# 3 -0.002238 -0.000755 0.012421 -0.009260 -0.008008 0.009570
# 4 -0.014742 0.000785 -0.009260 0.037480 0.011674 -0.013230
# 5 -0.005725 -0.000017 -0.008008 0.011674 0.033841 -0.019145
# 6 0.009757 -0.002403 0.009570 -0.013230 -0.019145 0.049057
#
#
# Mechanical properties :
#
#
# Convention : Reuss Voigt Hill
#
# Bulk Modulus (GPa) = 28.77670 60.89538 44.83604
# Shear Modulus (GPa) = 21.22533 35.29833 28.26183
#
# Velocity S-wave (km/s) = 2.92049 3.76622 3.36999
# Velocity P-wave (km/s) = 4.78916 6.58657 5.75843
#
# Compressibility (1/GPa) = 0.03475034
#
# Stress axis : x y z
#
# Youngs Moduli (GPa) = 28.50017 46.14781 80.50772
#
# Poissons Ratio (x) = 0.65626 0.18016
# Poissons Ratio (y) = 0.40530 0.06081
# Poissons Ratio (z) = 0.06378 0.03486
#
# Static dielectric constant tensor:
#      x y z
#    x 2.134160 0.052510 -0.240180 
#    y 0.052510 2.050210 -0.081340 
#    z -0.240180 -0.081340 2.123160 
# 
# From -- ./inp_files/145264.got.cif
#   From: 2010.05.17/outbox.cif.g08.bks.cpg/sg2_73_cif.got.tgz:145264.got - 2010.06.03 11:33:40.
