data_PCOD9101593
_publ_section_title
;
Structure prediction by ZEFSAII (Michael W. Deem and Ramdas Pophale) SiO2 
 PCOD9101593
Probable space group: P -1
;
_chemical_formula_sum "Si O2"
_cell_formula_units_Z 14
_cell_length_a 9.040375
_cell_length_b 10.818064
_cell_length_c 7.906053
_cell_angle_alpha 55.350093
_cell_angle_beta 70.901735
_cell_angle_gamma 60.327796
_cell_volume 551.532736
_symmetry_space_group_name_H-M "P -1"
_symmetry_group_IT_number 2
_symmetry_cell_setting 'triclinic'
loop_
_space_group_symop_operation_xyz
x,y,z
-x,-y,-z
loop_
_atom_site_type_symbol
_atom_site_label
_atom_site_fract_x
_atom_site_fract_y
_atom_site_fract_z
Si Si1 0.709298 0.854466 0.693431
Si Si2 0.665113 0.450777 0.590269
Si Si3 0.014592 0.409089 0.385681
Si Si4 0.604755 0.927760 0.189643
Si Si5 0.918918 0.740554 0.037915
Si Si6 0.510312 0.659419 0.790706
Si Si7 0.218373 0.834643 0.955038
O O1 0.548042 0.029739 0.646800
O O2 0.606959 0.735947 0.819851
O O3 0.838851 0.772412 0.552811
O O4 0.838568 0.817184 0.830071
O O5 0.500000 0.500000 0.500000
O O6 0.830473 0.402897 0.448197
O O7 0.614555 0.602063 0.624341
O O8 0.705199 0.296533 0.819716
O O9 0.031068 0.545176 0.146807
O O10 0.000000 0.500000 0.500000
O O11 0.722371 0.023423 0.124207
O O12 0.753034 0.761178 0.197964
O O13 0.500000 0.000000 0.000000
O O14 0.033114 0.833220 0.995586
O O15 0.500000 0.500000 0.000000
O O16 0.312675 0.780288 0.780040
#
# Coordination Sequence:
#
# PCOD9101593 Si02
#       7
#     2   2   2   2   2   2   2
#     4  10  21  38  60  86 115 156 197 238 288 345
#     4  11  24  34  56  87 123 155 186 241 301 342
#     4  12  22  38  58  89 125 148 193 243 296 344
#     4   9  21  39  63  84 114 156 202 237 283 344
#     4  11  22  37  64  89 114 157 196 243 287 343
#     4   9  18  34  53  81 114 151 190 236 279 341
#     4  10  20  38  60  84 117 150 202 238 283 346
#
# _framework density 25.383804999999999
#
# number of rings (size 3 to 8) (size 9 to 14) (size 15 to 20)
#    0.000    1.714    2.857    1.714   10.000    0.000 
#    0.000    0.714    0.000    3.429    0.000    0.000 
#    0.000    0.000    0.000    0.000    0.000    0.000 
#
# Total GULP energy -78045.584844 kJ/mol
# GULP energy per Si atom -5574.684632 kJ/mol
# Density = 2.532603 g / cm^3
# Si number density = 25.383805 Si / 1000 Ang^3
#
#
#
# Elastic Constant Matrix: (Units=GPa)
#
#
# Indices 1 2 3 4 5 6 
#
# 1 154.5027 25.4584 46.7133 7.4076 -2.4283 -18.3186
# 2 25.4584 96.6142 20.7348 18.2521 -4.7113 -33.0217
# 3 46.7133 20.7348 72.1682 14.6690 -8.9223 -2.1204
# 4 7.4076 18.2521 14.6690 38.1647 -9.3149 -11.9517
# 5 -2.4283 -4.7113 -8.9223 -9.3149 45.7516 19.2232
# 6 -18.3186 -33.0217 -2.1204 -11.9517 19.2232 46.9886
#
#
#
# Elastic Compliance Matrix: (Units=1/GPa)
#
#
# Indices 1 2 3 4 5 6 
#
# 1 0.008743 0.000208 -0.006169 0.001442 -0.002360 0.004608
# 2 0.000208 0.015744 -0.004234 -0.003356 -0.004976 0.012136
# 3 -0.006169 -0.004234 0.020720 -0.005970 0.005516 -0.008220
# 4 0.001442 -0.003356 -0.005970 0.032086 0.003065 0.004841
# 5 -0.002360 -0.004976 0.005516 0.003065 0.029396 -0.015414
# 6 0.004608 0.012136 -0.008220 0.004841 -0.015414 0.038773
#
#
# Mechanical properties :
#
#
# Convention : Reuss Voigt Hill
#
# Bulk Modulus (GPa) = 40.29571 56.56646 48.43108
# Shear Modulus (GPa) = 28.71506 41.53957 35.12731
#
# Velocity S-wave (km/s) = 3.36703 4.04971 3.72405
# Velocity P-wave (km/s) = 5.57000 6.64828 6.13289
#
# Compressibility (1/GPa) = 0.02481654
#
# Stress axis : x y z
#
# Youngs Moduli (GPa) = 114.37196 63.51716 48.26337
#
# Poissons Ratio (x) = -0.01319 0.29772
# Poissons Ratio (y) = -0.02374 0.20436
# Poissons Ratio (z) = 0.70551 0.26894
#
# Static dielectric constant tensor:
#      x y z
#    x 1.936830 -0.025190 0.002920 
#    y -0.025190 2.113670 0.047940 
#    z 0.002920 0.047940 2.067870 
# 
# From -- ./inp_files/176030.got.cif
#   From: 2010.05.17/outbox.cif.g08.bks.cpg/sg2_89_cif.got.tgz:176030.got - 2010.06.03 11:33:40.
