data_PCOD9101489
_publ_section_title
;
Structure prediction by ZEFSAII (Michael W. Deem and Ramdas Pophale) SiO2 
 PCOD9101489
Probable space group: P -1
;
_chemical_formula_sum "Si O2"
_cell_formula_units_Z 16
_cell_length_a 30.635588
_cell_length_b 16.414042
_cell_length_c 20.121779
_cell_angle_alpha 163.443699
_cell_angle_beta 163.282857
_cell_angle_gamma 17.060402
_cell_volume 735.032251
_symmetry_space_group_name_H-M "P -1"
_symmetry_group_IT_number 2
_symmetry_cell_setting 'triclinic'
loop_
_space_group_symop_operation_xyz
x,y,z
-x,-y,-z
loop_
_atom_site_type_symbol
_atom_site_label
_atom_site_fract_x
_atom_site_fract_y
_atom_site_fract_z
Si Si1 0.948058 0.231067 0.694048
Si Si2 0.198282 0.208361 0.276035
Si Si3 0.300307 0.394223 0.954926
Si Si4 0.922998 0.177594 0.763961
Si Si5 0.065981 0.439700 0.413868
Si Si6 0.639574 0.564270 0.080182
Si Si7 0.565990 0.363294 0.417518
Si Si8 0.713707 0.340113 0.320817
O O1 0.925987 0.102027 0.631581
O O2 0.776911 0.378453 0.516193
O O3 0.115971 0.959616 0.692153
O O4 0.000000 0.500000 0.000000
O O5 0.119743 0.335156 0.333950
O O6 0.312328 0.369766 0.540370
O O7 0.295971 0.820906 0.117362
O O8 0.046965 0.306872 0.077207
O O9 0.096755 0.608568 0.838804
O O10 0.356382 0.025699 0.770841
O O11 0.348236 0.387877 0.943028
O O12 0.415840 0.498427 0.250457
O O13 0.727922 0.421619 0.685121
O O14 0.990936 0.824077 0.617563
O O15 0.238615 0.311075 0.608321
O O16 0.449783 0.718673 0.954962
O O17 0.500000 0.500000 0.500000
#
# Coordination Sequence:
#
# PCOD9101489 Si02
#       8
#     2   2   2   2   2   2   2   2
#     4  11  22  39  64  88 120 162 197 256 300 358
#     4  11  22  40  62  87 123 168 198 244 302 362
#     4  10  22  41  60  91 122 153 207 248 302 360
#     4  10  20  38  59  89 121 156 204 243 308 358
#     4  10  22  40  62  84 121 163 198 251 298 355
#     4  11  25  40  61  91 123 161 204 252 291 361
#     4  10  21  37  64  91 120 157 194 257 305 359
#     4  11  24  40  60  93 123 158 207 245 305 358
#
# _framework density 21.767751000000001
#
# number of rings (size 3 to 8) (size 9 to 14) (size 15 to 20)
#    0.000    1.500    2.500    2.250    0.000    4.000 
#    0.000    0.000    0.000    0.000    0.000    0.000 
#    0.000    0.000    0.000    0.000    0.000    0.000 
#
# Total GULP energy -89293.950020 kJ/mol
# GULP energy per Si atom -5580.871876 kJ/mol
# Density = 2.171821 g / cm^3
# Si number density = 21.767751 Si / 1000 Ang^3
#
#
#
# Elastic Constant Matrix: (Units=GPa)
#
#
# Indices 1 2 3 4 5 6 
#
# 1 114.9282 19.4904 17.2315 -41.8095 -7.7308 -9.7063
# 2 19.4904 54.6074 22.2042 -16.0409 7.5209 -7.3533
# 3 17.2315 22.2042 34.0691 -25.6578 -6.1243 -0.4023
# 4 -41.8095 -16.0409 -25.6578 41.0687 -2.7611 7.9728
# 5 -7.7308 7.5209 -6.1243 -2.7611 38.1586 -1.1570
# 6 -9.7063 -7.3533 -0.4023 7.9728 -1.1570 33.7175
#
#
#
# Elastic Compliance Matrix: (Units=1/GPa)
#
#
# Indices 1 2 3 4 5 6 
#
# 1 0.017895 -0.007529 0.018971 0.028318 0.010124 -0.002613
# 2 -0.007529 0.032442 -0.034079 -0.018904 -0.014500 0.008474
# 3 0.018971 -0.034079 0.106665 0.078361 0.032801 -0.018102
# 4 0.028318 -0.018904 0.078361 0.100124 0.028747 -0.017725
# 5 0.010124 -0.014500 0.032801 0.028747 0.038298 -0.005340
# 6 -0.002613 0.008474 -0.018102 -0.017725 -0.005340 0.034546
#
#
# Mechanical properties :
#
#
# Convention : Reuss Voigt Hill
#
# Bulk Modulus (GPa) = 8.95033 35.71744 22.33389
# Shear Modulus (GPa) = 12.12161 32.23420 22.17791
#
# Velocity S-wave (km/s) = 2.36235 3.85232 3.19539
# Velocity P-wave (km/s) = 3.40023 6.01924 4.88840
#
# Compressibility (1/GPa) = 0.11172770
#
# Stress axis : x y z
#
# Youngs Moduli (GPa) = 55.87997 30.82446 9.37519
#
# Poissons Ratio (x) = 0.23208 -0.17786
# Poissons Ratio (y) = 0.42072 0.31950
# Poissons Ratio (z) = -1.06011 1.05047
#
# Static dielectric constant tensor:
#      x y z
#    x 1.826280 0.052840 -0.005250 
#    y 0.052840 1.836130 -0.016750 
#    z -0.005250 -0.016750 1.812770 
# 
# From -- ./inp_files/109503.got.cif
#   From: 2010.05.17/outbox.cif.g08.bks.cpg/sg2_55_cif.got.tgz:109503.got - 2010.06.03 11:33:40.
