data_PCOD9101132
_publ_section_title
;
Structure prediction by ZEFSAII (Michael W. Deem and Ramdas Pophale) SiO2 
 PCOD9101132
Probable space group: P -1
;
_chemical_formula_sum "Si O2"
_cell_formula_units_Z 10
_cell_length_a 9.152544
_cell_length_b 10.573331
_cell_length_c 13.392258
_cell_angle_alpha 148.521887
_cell_angle_beta 45.091232
_cell_angle_gamma 117.350880
_cell_volume 442.197971
_symmetry_space_group_name_H-M "P -1"
_symmetry_group_IT_number 2
_symmetry_cell_setting 'triclinic'
loop_
_space_group_symop_operation_xyz
x,y,z
-x,-y,-z
loop_
_atom_site_type_symbol
_atom_site_label
_atom_site_fract_x
_atom_site_fract_y
_atom_site_fract_z
Si Si1 0.121158 0.334898 0.193998
Si Si2 0.342252 0.298009 0.403689
Si Si3 0.509296 0.917653 0.602481
Si Si4 0.216018 0.957549 0.081344
Si Si5 0.744026 0.170185 0.511453
O O1 0.200173 0.577266 0.322261
O O2 0.864920 0.445374 0.357167
O O3 0.149914 0.195752 0.193395
O O4 0.282037 0.121903 0.898106
O O5 0.353732 0.244442 0.479230
O O6 0.304238 0.054712 0.202941
O O7 0.579815 0.271907 0.225137
O O8 0.641104 0.072560 0.587807
O O9 0.432068 0.769098 0.453303
O O10 0.981658 0.941439 0.211307
#
# Coordination Sequence:
#
# PCOD9101132 Si02
#       5
#     2   2   2   2   2
#     4  10  20  38  58  79 108 144 177 221 272 314
#     4   9  18  35  56  81 107 139 183 219 263 322
#     4  10  22  37  55  81 110 143 180 218 266 321
#     4   9  19  36  57  81 109 140 178 224 268 314
#     4  10  20  38  56  78 114 142 174 226 268 312
#
# _framework density 22.614305000000002
#
# number of rings (size 3 to 8) (size 9 to 14) (size 15 to 20)
#    0.000    2.400    0.000    3.000    0.000    6.400 
#    0.000   25.000    0.000    0.000    0.000    0.000 
#    0.000    0.000    0.000    0.000    0.000    0.000 
#
# Total GULP energy -55955.458088 kJ/mol
# GULP energy per Si atom -5595.545809 kJ/mol
# Density = 2.256283 g / cm^3
# Si number density = 22.614305 Si / 1000 Ang^3
#
#
#
# Elastic Constant Matrix: (Units=GPa)
#
#
# Indices 1 2 3 4 5 6 
#
# 1 123.1672 52.6821 15.0799 9.9160 -3.4474 -31.4537
# 2 52.6821 79.8359 30.4035 -5.2206 5.7331 -29.5803
# 3 15.0799 30.4035 47.6687 2.9416 -19.3099 -12.8682
# 4 9.9160 -5.2206 2.9416 26.0993 -2.0753 5.0120
# 5 -3.4474 5.7331 -19.3099 -2.0753 38.8997 0.9019
# 6 -31.4537 -29.5803 -12.8682 5.0120 0.9019 32.4061
#
#
#
# Elastic Compliance Matrix: (Units=1/GPa)
#
#
# Indices 1 2 3 4 5 6 
#
# 1 0.014956 -0.010150 0.007202 -0.009896 0.005649 0.009484
# 2 -0.010150 0.033858 -0.022929 0.009766 -0.017004 0.010912
# 3 0.007202 -0.022929 0.046089 -0.011476 0.026158 0.005409
# 4 -0.009896 0.009766 -0.011476 0.047293 -0.005202 -0.012418
# 5 0.005649 -0.017004 0.026158 -0.005202 0.041421 0.000001
# 6 0.009484 0.010912 0.005409 -0.012418 0.000001 0.054092
#
#
# Mechanical properties :
#
#
# Convention : Reuss Voigt Hill
#
# Bulk Modulus (GPa) = 23.17616 49.66698 36.42157
# Shear Modulus (GPa) = 16.45566 29.64811 23.05188
#
# Velocity S-wave (km/s) = 2.70045 3.62475 3.19619
# Velocity P-wave (km/s) = 4.47146 6.28719 5.45540
#
# Compressibility (1/GPa) = 0.04314778
#
# Stress axis : x y z
#
# Youngs Moduli (GPa) = 66.86394 29.53493 21.69726
#
# Poissons Ratio (x) = 0.29979 -0.15626
# Poissons Ratio (y) = 0.67870 0.49749
# Poissons Ratio (z) = -0.48154 0.67720
#
# Static dielectric constant tensor:
#      x y z
#    x 1.880160 0.019540 0.029330 
#    y 0.019540 1.767180 0.007700 
#    z 0.029330 0.007700 1.905300 
# 
# From -- ./inp_files/144088.got.cif
#   From: 2010.05.17/outbox.cif.g08.bks.cpg/sg2_73_cif.got.tgz:144088.got - 2010.06.03 11:33:40.
