data_PCOD9101594
_publ_section_title
;
Structure prediction by ZEFSAII (Michael W. Deem and Ramdas Pophale) SiO2 
 PCOD9101594
Probable space group: P -1
;
_chemical_formula_sum "Si O2"
_cell_formula_units_Z 16
_cell_length_a 18.198480
_cell_length_b 7.495269
_cell_length_c 7.431160
_cell_angle_alpha 54.421242
_cell_angle_beta 127.870611
_cell_angle_gamma 108.118560
_cell_volume 649.095477
_symmetry_space_group_name_H-M "P -1"
_symmetry_group_IT_number 2
_symmetry_cell_setting 'triclinic'
loop_
_space_group_symop_operation_xyz
x,y,z
-x,-y,-z
loop_
_atom_site_type_symbol
_atom_site_label
_atom_site_fract_x
_atom_site_fract_y
_atom_site_fract_z
Si Si1 0.675753 0.830838 0.168440
Si Si2 0.730055 0.260016 0.839690
Si Si3 0.920036 0.348995 0.125002
Si Si4 0.393296 0.601165 0.761727
Si Si5 0.961619 0.997490 0.675752
Si Si6 0.524543 0.984841 0.332788
Si Si7 0.880022 0.806806 0.997875
Si Si8 0.309946 0.310229 0.317120
O O1 0.666330 0.607520 0.169187
O O2 0.706510 0.762047 0.456486
O O3 0.571372 0.952491 0.949341
O O4 0.732268 0.010039 0.050077
O O5 0.646704 0.321351 0.539191
O O6 0.709025 0.427648 0.874650
O O7 0.828760 0.336197 0.870238
O O8 0.010440 0.248793 0.211919
O O9 0.917145 0.569694 0.108737
O O10 0.908151 0.151889 0.363215
O O11 0.402161 0.837934 0.724825
O O12 0.500000 0.500000 0.000000
O O13 0.056225 0.119675 0.787488
O O14 0.902647 0.980524 0.776077
O O15 0.500000 0.000000 0.500000
O O16 0.583269 0.756700 0.526714
O O17 0.769416 0.797628 0.854541
#
# Coordination Sequence:
#
# PCOD9101594 Si02
#       8
#     2   2   2   2   2   2   2   2
#     4  10  20  39  58  80 115 157 194 239 291 349
#     4  10  20  38  60  84 117 156 195 241 292 349
#     4  10  21  37  62  90 120 153 199 244 296 357
#     4   9  20  36  57  82 114 151 192 243 285 337
#     4  10  21  37  63  88 117 160 191 244 304 357
#     4  11  21  38  59  82 118 152 196 248 291 344
#     4  10  21  39  60  86 123 152 198 243 299 359
#     4  10  23  38  57  85 115 154 197 244 293 351
#
# _framework density 24.649688999999999
#
# number of rings (size 3 to 8) (size 9 to 14) (size 15 to 20)
#    0.000    2.000    1.250    1.875    1.750    0.500 
#    6.750    0.000    2.750    0.000    0.000    0.000 
#    0.000    0.000    0.000    0.000    0.000    0.000 
#
# Total GULP energy -89263.232212 kJ/mol
# GULP energy per Si atom -5578.952013 kJ/mol
# Density = 2.459359 g / cm^3
# Si number density = 24.649689 Si / 1000 Ang^3
#
#
#
# Elastic Constant Matrix: (Units=GPa)
#
#
# Indices 1 2 3 4 5 6 
#
# 1 40.2855 12.2623 14.8000 -7.1734 -1.8760 -4.4356
# 2 12.2623 94.4627 12.0973 3.5550 -1.4910 1.8365
# 3 14.8000 12.0973 88.2929 9.4202 -1.2385 1.8948
# 4 -7.1734 3.5550 9.4202 43.6256 1.7905 6.4525
# 5 -1.8760 -1.4910 -1.2385 1.7905 24.6933 -2.9362
# 6 -4.4356 1.8365 1.8948 6.4525 -2.9362 19.7837
#
#
#
# Elastic Compliance Matrix: (Units=1/GPa)
#
#
# Indices 1 2 3 4 5 6 
#
# 1 0.029451 -0.003448 -0.005124 0.005254 0.002106 0.006013
# 2 -0.003448 0.011210 -0.000805 -0.001123 0.000298 -0.001326
# 3 -0.005124 -0.000805 0.012682 -0.003358 0.000305 -0.001148
# 4 0.005254 -0.001123 -0.003358 0.025770 -0.002559 -0.007181
# 5 0.002106 0.000298 0.000305 -0.002559 0.041761 0.007448
# 6 0.006013 -0.001326 -0.001148 -0.007181 0.007448 0.055575
#
#
# Mechanical properties :
#
#
# Convention : Reuss Voigt Hill
#
# Bulk Modulus (GPa) = 28.91259 33.48446 31.19852
# Shear Modulus (GPa) = 24.18563 29.87929 27.03246
#
# Velocity S-wave (km/s) = 3.13577 3.48538 3.31519
# Velocity P-wave (km/s) = 4.98654 5.45993 5.22859
#
# Compressibility (1/GPa) = 0.03458701
#
# Stress axis : x y z
#
# Youngs Moduli (GPa) = 33.95510 89.20855 78.84908
#
# Poissons Ratio (x) = 0.30761 0.40404
# Poissons Ratio (y) = 0.11708 0.06351
# Poissons Ratio (z) = 0.17399 0.07185
#
# Static dielectric constant tensor:
#      x y z
#    x 1.977410 0.012530 -0.003990 
#    y 0.012530 2.028450 0.031440 
#    z -0.003990 0.031440 1.992500 
# 
# From -- ./inp_files/343351.got.cif
#   From: 2010.05.17/outbox.cif.g08.bks.cpg/sg2_172_cif.got.tgz:343351.got - 2010.06.03 11:33:40.
