data_PCOD9101731
_publ_section_title
;
Structure prediction by ZEFSAII (Michael W. Deem and Ramdas Pophale) SiO2 
 PCOD9101731
Probable space group: P -1
;
_chemical_formula_sum "Si O2"
_cell_formula_units_Z 16
_cell_length_a 11.196757
_cell_length_b 8.861784
_cell_length_c 19.579344
_cell_angle_alpha 66.467753
_cell_angle_beta 151.649677
_cell_angle_gamma 123.729930
_cell_volume 747.308458
_symmetry_space_group_name_H-M "P -1"
_symmetry_group_IT_number 2
_symmetry_cell_setting 'triclinic'
loop_
_space_group_symop_operation_xyz
x,y,z
-x,-y,-z
loop_
_atom_site_type_symbol
_atom_site_label
_atom_site_fract_x
_atom_site_fract_y
_atom_site_fract_z
Si Si1 0.471298 0.956289 0.887036
Si Si2 0.584709 0.385333 0.280015
Si Si3 0.008339 0.397797 0.953449
Si Si4 0.689138 0.978773 0.853827
Si Si5 0.146395 0.513258 0.458532
Si Si6 0.096840 0.735958 0.857040
Si Si7 0.063549 0.111211 0.441101
Si Si8 0.558924 0.703068 0.519788
O O1 0.327353 0.804013 0.900407
O O2 0.220701 0.999667 0.727360
O O3 0.565608 0.886423 0.881110
O O4 0.739531 0.133081 0.020786
O O5 0.310359 0.396201 0.111183
O O6 0.645947 0.444905 0.378901
O O7 0.862288 0.500720 0.352155
O O8 0.510293 0.167400 0.275720
O O9 0.998785 0.524720 0.864729
O O10 0.000000 0.500000 0.000000
O O11 0.748163 0.190857 0.850686
O O12 0.000000 0.000000 0.000000
O O13 0.295707 0.660897 0.445517
O O14 0.082969 0.311465 0.433775
O O15 0.834404 0.766068 0.695597
O O16 0.331632 0.162024 0.515904
O O17 0.000000 0.000000 0.500000
O O18 0.500000 0.500000 0.500000
#
# Coordination Sequence:
#
# PCOD9101731 Si02
#       8
#     2   2   2   2   2   2   2   2
#     4  10  20  38  60  89 128 155 198 255 323 361
#     4  10  22  38  60  90 130 172 201 250 322 373
#     4  11  21  36  64  95 119 152 216 263 294 370
#     4  10  21  37  58  84 125 160 193 250 312 368
#     4  10  20  38  63  83 126 176 206 240 317 385
#     4  10  21  36  62  95 120 157 203 265 307 361
#     4  10  21  36  64  96 122 157 211 267 305 365
#     4   9  20  38  61  91 120 164 205 258 312 367
#
# _framework density 21.410167999999999
#
# number of rings (size 3 to 8) (size 9 to 14) (size 15 to 20)
#    0.000    2.000    2.500    0.750    3.500    2.000 
#    0.000    2.500    2.750    4.500    0.000    0.000 
#    0.000    0.000    0.000    0.000    0.000    0.000 
#
# Total GULP energy -89235.456581 kJ/mol
# GULP energy per Si atom -5577.216036 kJ/mol
# Density = 2.136144 g / cm^3
# Si number density = 21.410168 Si / 1000 Ang^3
#
#
#
# Elastic Constant Matrix: (Units=GPa)
#
#
# Indices 1 2 3 4 5 6 
#
# 1 105.5233 26.9144 17.7913 0.5425 12.3330 27.7957
# 2 26.9144 71.9894 16.5356 6.2731 -6.7954 16.7493
# 3 17.7913 16.5356 69.1655 16.3517 -12.3487 5.9897
# 4 0.5425 6.2731 16.3517 29.8882 -0.2474 -7.1343
# 5 12.3330 -6.7954 -12.3487 -0.2474 32.4435 6.6970
# 6 27.7957 16.7493 5.9897 -7.1343 6.6970 35.2643
#
#
#
# Elastic Compliance Matrix: (Units=1/GPa)
#
#
# Indices 1 2 3 4 5 6 
#
# 1 0.013378 -0.003080 -0.003070 0.000250 -0.005350 -0.007493
# 2 -0.003080 0.018213 -0.000330 -0.005571 0.006581 -0.008544
# 3 -0.003070 -0.000330 0.020431 -0.012221 0.009863 -0.005239
# 4 0.000250 -0.005571 -0.012221 0.044879 -0.008722 0.015260
# 5 -0.005350 0.006581 0.009863 -0.008722 0.039974 -0.009940
# 6 -0.007493 -0.008544 -0.005239 0.015260 -0.009940 0.044186
#
#
# Mechanical properties :
#
#
# Convention : Reuss Voigt Hill
#
# Bulk Modulus (GPa) = 25.60118 41.01785 33.30952
# Shear Modulus (GPa) = 24.14980 31.88166 28.01573
#
# Velocity S-wave (km/s) = 3.36215 3.86306 3.62128
# Velocity P-wave (km/s) = 5.20150 6.25279 5.75121
#
# Compressibility (1/GPa) = 0.03906070
#
# Stress axis : x y z
#
# Youngs Moduli (GPa) = 74.75208 54.90713 48.94622
#
# Poissons Ratio (x) = 0.16909 0.15028
# Poissons Ratio (y) = 0.23021 0.01616
# Poissons Ratio (z) = 0.22951 0.01812
#
# Static dielectric constant tensor:
#      x y z
#    x 1.817950 -0.008100 0.010670 
#    y -0.008100 1.826800 0.022720 
#    z 0.010670 0.022720 1.838310 
# 
# From -- ./inp_files/593531.got.cif
#   From: 2010.05.17/outbox.cif.g08.bks.cpg/sg2_297_cif.got.tgz:593531.got - 2010.06.03 11:33:40.
