data_PCOD9101212
_publ_section_title
;
Structure prediction by ZEFSAII (Michael W. Deem and Ramdas Pophale) SiO2 
 PCOD9101212
Probable space group: P -1
;
_chemical_formula_sum "Si O2"
_cell_formula_units_Z 16
_cell_length_a 5.577475
_cell_length_b 12.658517
_cell_length_c 10.297216
_cell_angle_alpha 113.904547
_cell_angle_beta 100.692456
_cell_angle_gamma 72.628561
_cell_volume 632.594626
_symmetry_space_group_name_H-M "P -1"
_symmetry_group_IT_number 2
_symmetry_cell_setting 'triclinic'
loop_
_space_group_symop_operation_xyz
x,y,z
-x,-y,-z
loop_
_atom_site_type_symbol
_atom_site_label
_atom_site_fract_x
_atom_site_fract_y
_atom_site_fract_z
Si Si1 0.960113 0.044424 0.868608
Si Si2 0.491700 0.045374 0.172168
Si Si3 0.293640 0.553511 0.612776
Si Si4 0.347381 0.703989 0.052427
Si Si5 0.924489 0.491229 0.137168
Si Si6 0.620575 0.708302 0.833594
Si Si7 0.005377 0.307314 0.567967
Si Si8 0.494133 0.701083 0.366203
O O1 0.900467 0.187491 0.933198
O O2 0.699111 0.009611 0.790770
O O3 0.210168 0.987212 0.783174
O O4 0.000000 0.000000 0.000000
O O5 0.373414 0.184925 0.207611
O O6 0.500000 0.000000 0.000000
O O7 0.500000 0.500000 0.500000
O O8 0.383328 0.660301 0.740892
O O9 0.053858 0.613897 0.530900
O O10 0.356215 0.438650 0.657230
O O11 0.428590 0.702926 0.209152
O O12 0.553252 0.736264 0.992173
O O13 0.295557 0.578878 0.941522
O O14 0.126675 0.395203 0.195355
O O15 0.972271 0.613249 0.262630
O O16 0.000000 0.500000 0.000000
O O17 0.757521 0.262335 0.554449
O O18 0.291419 0.229396 0.546823
#
# Coordination Sequence:
#
# PCOD9101212 Si02
#       8
#     2   2   2   2   2   2   2   2
#     4  10  20  39  56  83 127 151 195 257 311 367
#     4  10  20  38  57  87 121 150 200 258 307 364
#     4  10  21  43  59  88 124 169 213 249 286 363
#     4  12  24  34  62  91 127 165 199 252 325 373
#     4  12  22  35  55  89 131 157 198 244 304 369
#     4  12  22  36  63  89 124 169 204 250 316 364
#     4  11  23  42  59  79 131 163 205 252 285 349
#     4  11  23  40  58  89 121 167 202 250 301 367
#
# _framework density 25.292656999999998
#
# number of rings (size 3 to 8) (size 9 to 14) (size 15 to 20)
#    0.000    1.000    6.250    3.375    0.000    1.500 
#    0.000    0.000    0.000    0.000    0.000   12.250 
#    0.000    0.000    0.000    0.000    0.000    0.000 
#
# Total GULP energy -89284.103207 kJ/mol
# GULP energy per Si atom -5580.256450 kJ/mol
# Density = 2.523509 g / cm^3
# Si number density = 25.292657 Si / 1000 Ang^3
#
#
#
# Elastic Constant Matrix: (Units=GPa)
#
#
# Indices 1 2 3 4 5 6 
#
# 1 163.0212 15.8264 3.2104 -1.1970 30.6857 5.7314
# 2 15.8264 56.5472 21.0432 -1.9468 9.5710 -9.1165
# 3 3.2104 21.0432 77.1528 -31.4733 6.3567 4.6150
# 4 -1.1970 -1.9468 -31.4733 27.3019 -4.4547 4.7270
# 5 30.6857 9.5710 6.3567 -4.4547 21.6357 -7.9100
# 6 5.7314 -9.1165 4.6150 4.7270 -7.9100 37.9311
#
#
#
# Elastic Compliance Matrix: (Units=1/GPa)
#
#
# Indices 1 2 3 4 5 6 
#
# 1 0.009192 -0.001687 0.002090 0.001222 -0.014569 -0.005239
# 2 -0.001687 0.024808 -0.013376 -0.016028 -0.004713 0.008860
# 3 0.002090 -0.013376 0.033939 0.039983 -0.003689 -0.013412
# 4 0.001222 -0.016028 0.039983 0.085578 0.004414 -0.018646
# 5 -0.014569 -0.004713 -0.003689 0.004414 0.077200 0.017067
# 6 -0.005239 0.008860 -0.013412 -0.018646 0.017067 0.036799
#
#
# Mechanical properties :
#
#
# Convention : Reuss Voigt Hill
#
# Bulk Modulus (GPa) = 23.81354 41.87570 32.84462
# Shear Modulus (GPa) = 16.26219 34.48315 25.37267
#
# Velocity S-wave (km/s) = 2.53842 3.69638 3.17071
# Velocity P-wave (km/s) = 4.24583 5.90001 5.13990
#
# Compressibility (1/GPa) = 0.04199292
#
# Stress axis : x y z
#
# Youngs Moduli (GPa) = 108.78675 40.30886 29.46449
#
# Poissons Ratio (x) = 0.06801 -0.06157
# Poissons Ratio (y) = 0.18353 0.39412
# Poissons Ratio (z) = -0.22734 0.53918
#
# Static dielectric constant tensor:
#      x y z
#    x 2.264190 0.009970 -0.081080 
#    y 0.009970 2.064480 -0.064870 
#    z -0.081080 -0.064870 2.228700 
# 
# From -- ./inp_files/365095.got.cif
#   From: 2010.05.17/outbox.cif.g08.bks.cpg/sg2_183_cif.got.tgz:365095.got - 2010.06.03 11:33:40.
