data_PCOD9101440
_publ_section_title
;
Structure prediction by ZEFSAII (Michael W. Deem and Ramdas Pophale) SiO2 
 PCOD9101440
Probable space group: P -1
;
_chemical_formula_sum "Si O2"
_cell_formula_units_Z 15
_cell_length_a 8.842908
_cell_length_b 10.878252
_cell_length_c 8.221266
_cell_angle_alpha 108.894422
_cell_angle_beta 107.181966
_cell_angle_gamma 107.891195
_cell_volume 639.911581
_symmetry_space_group_name_H-M "P -1"
_symmetry_group_IT_number 2
_symmetry_cell_setting 'triclinic'
loop_
_space_group_symop_operation_xyz
x,y,z
-x,-y,-z
loop_
_atom_site_type_symbol
_atom_site_label
_atom_site_fract_x
_atom_site_fract_y
_atom_site_fract_z
Si Si1 0.000000 0.500000 0.000000
Si Si2 0.371782 0.497608 0.187362
Si Si3 0.526721 0.261608 0.441995
Si Si4 0.141947 0.035987 0.206159
Si Si5 0.138223 0.947926 0.672818
Si Si6 0.766145 0.176653 0.669888
Si Si7 0.446776 0.274156 0.927152
Si Si8 0.655499 0.164615 0.126890
O O1 0.825560 0.536566 0.942728
O O2 0.887031 0.344799 0.809647
O O3 0.405615 0.574652 0.405980
O O4 0.514440 0.626546 0.175288
O O5 0.407803 0.361075 0.097566
O O6 0.320345 0.181634 0.303641
O O7 0.576520 0.171101 0.558779
O O8 0.626540 0.243600 0.309103
O O9 0.046266 0.054747 0.345386
O O10 0.210168 0.914538 0.212216
O O11 0.000000 0.000000 0.000000
O O12 0.165661 0.876608 0.488665
O O13 0.173613 0.857725 0.792663
O O14 0.285978 0.114971 0.795558
O O15 0.622651 0.251691 0.007481
O O16 0.500000 0.000000 0.000000
#
# Coordination Sequence:
#
# PCOD9101440 Si02
#       8
#     1   2   2   2   2   2   2   2
#     4  10  22  38  60  90 114 150 202 250 290 332
#     4  10  22  38  61  85 118 159 199 241 292 361
#     4  10  22  39  60  88 119 159 198 238 297 355
#     4  12  23  36  61  95 122 149 196 253 295 339
#     4  10  21  37  61  86 116 155 198 243 290 349
#     4  10  22  41  62  83 121 160 195 240 294 362
#     4  10  20  38  59  86 119 158 196 237 299 355
#     4   9  19  37  57  81 116 153 193 240 292 346
#
# _framework density 23.440740999999999
#
# number of rings (size 3 to 8) (size 9 to 14) (size 15 to 20)
#    0.000    1.867    0.000    4.000    0.000   10.133 
#    0.000    2.667    0.000    8.800    0.000    0.000 
#    0.000    0.000    0.000    0.000    0.000    0.000 
#
# Total GULP energy -83581.476769 kJ/mol
# GULP energy per Si atom -5572.098451 kJ/mol
# Density = 2.338739 g / cm^3
# Si number density = 23.440741 Si / 1000 Ang^3
#
#
#
# Elastic Constant Matrix: (Units=GPa)
#
#
# Indices 1 2 3 4 5 6 
#
# 1 116.3525 18.6260 33.2607 11.3335 6.3313 -26.1303
# 2 18.6260 69.0598 39.2625 2.5018 -2.7983 -24.9653
# 3 33.2607 39.2625 111.9830 22.1102 -9.6380 -11.6953
# 4 11.3335 2.5018 22.1102 36.4291 -15.8995 -3.9623
# 5 6.3313 -2.7983 -9.6380 -15.8995 51.5243 2.2507
# 6 -26.1303 -24.9653 -11.6953 -3.9623 2.2507 35.5442
#
#
#
# Elastic Compliance Matrix: (Units=1/GPa)
#
#
# Indices 1 2 3 4 5 6 
#
# 1 0.011458 0.001587 -0.002871 -0.002286 -0.002936 0.008525
# 2 0.001587 0.024407 -0.008254 0.004742 0.000347 0.016101
# 3 -0.002871 -0.008254 0.013676 -0.007102 0.000456 -0.004228
# 4 -0.002286 0.004742 -0.007102 0.037039 0.010518 0.002777
# 5 -0.002936 0.000347 0.000456 0.010518 0.023209 -0.002062
# 6 0.008525 0.016101 -0.004228 0.002777 -0.002062 0.044759
#
#
# Mechanical properties :
#
#
# Convention : Reuss Voigt Hill
#
# Bulk Modulus (GPa) = 32.82231 53.29929 43.06080
# Shear Modulus (GPa) = 27.20654 38.44927 32.82791
#
# Velocity S-wave (km/s) = 3.41053 4.05443 3.74634
# Velocity P-wave (km/s) = 5.43522 6.68618 6.09289
#
# Compressibility (1/GPa) = 0.03046708
#
# Stress axis : x y z
#
# Youngs Moduli (GPa) = 87.27472 40.97104 73.11888
#
# Poissons Ratio (x) = -0.06504 0.20992
# Poissons Ratio (y) = -0.13854 0.60352
# Poissons Ratio (z) = 0.25056 0.33817
#
# Static dielectric constant tensor:
#      x y z
#    x 1.857460 -0.028080 -0.011510 
#    y -0.028080 1.923090 -0.122660 
#    z -0.011510 -0.122660 1.946960 
# 
# From -- ./inp_files/181905.got.cif
#   From: 2010.05.17/outbox.cif.g08.bks.cpg/sg2_91_cif.got.tgz:181905.got - 2010.06.03 11:33:40.
