data_PCOD9101145
_publ_section_title
;
Structure prediction by ZEFSAII (Michael W. Deem and Ramdas Pophale) SiO2 
 PCOD9101145
Probable space group: P -1
;
_chemical_formula_sum "Si O2"
_cell_formula_units_Z 12
_cell_length_a 7.579631
_cell_length_b 8.730958
_cell_length_c 9.261426
_cell_angle_alpha 70.109119
_cell_angle_beta 68.435186
_cell_angle_gamma 54.030492
_cell_volume 454.976018
_symmetry_space_group_name_H-M "P -1"
_symmetry_group_IT_number 2
_symmetry_cell_setting 'triclinic'
loop_
_space_group_symop_operation_xyz
x,y,z
-x,-y,-z
loop_
_atom_site_type_symbol
_atom_site_label
_atom_site_fract_x
_atom_site_fract_y
_atom_site_fract_z
Si Si1 0.449106 0.255028 0.339257
Si Si2 0.783071 0.375539 0.146804
Si Si3 0.951797 0.992331 0.352838
Si Si4 0.995028 0.187385 0.875122
Si Si5 0.392411 0.375471 0.617865
Si Si6 0.488778 0.985523 0.179831
O O1 0.549443 0.381425 0.212037
O O2 0.315368 0.925201 0.610665
O O3 0.306514 0.345880 0.498429
O O4 0.377207 0.175265 0.252705
O O5 0.763910 0.516384 0.232207
O O6 0.966452 0.164162 0.219414
O O7 0.853299 0.368049 0.963531
O O8 0.071301 0.807739 0.272878
O O9 0.000000 0.000000 0.500000
O O10 0.249179 0.126046 0.822973
O O11 0.000000 0.000000 0.000000
O O12 0.500000 0.500000 0.500000
O O13 0.570065 0.168196 0.699544
O O14 0.500000 0.000000 0.000000
#
# Coordination Sequence:
#
# PCOD9101145 Si02
#       6
#     2   2   2   2   2   2
#     4   8  18  36  57  80 116 151 190 232 284 341
#     4   8  17  34  56  80 111 152 181 232 296 329
#     4   8  15  28  55  83 101 145 194 223 272 340
#     4   9  17  36  57  80 117 145 187 240 285 330
#     4  10  20  38  56  82 120 157 178 237 299 336
#     4  11  22  36  61  90 109 151 201 234 275 346
#
# _framework density 26.375018000000001
#
# number of rings (size 3 to 8) (size 9 to 14) (size 15 to 20)
#    1.000    2.000    1.667    0.500    0.000    3.333 
#    0.000    5.000    0.000    5.000    0.000    0.000 
#    0.000    0.000    0.000    0.000    0.000    0.000 
#
# Total GULP energy -66891.562298 kJ/mol
# GULP energy per Si atom -5574.296858 kJ/mol
# Density = 2.631499 g / cm^3
# Si number density = 26.375018 Si / 1000 Ang^3
#
#
#
# Elastic Constant Matrix: (Units=GPa)
#
#
# Indices 1 2 3 4 5 6 
#
# 1 69.3616 18.7805 52.2642 15.0674 19.4157 22.0927
# 2 18.7805 128.8241 85.5206 48.7852 14.7911 23.3017
# 3 52.2642 85.5206 177.0453 70.4988 33.9248 22.9954
# 4 15.0674 48.7852 70.4988 89.4564 17.6993 6.3179
# 5 19.4157 14.7911 33.9248 17.6993 44.6886 8.0812
# 6 22.0927 23.3017 22.9954 6.3179 8.0812 31.8362
#
#
#
# Elastic Compliance Matrix: (Units=1/GPa)
#
#
# Indices 1 2 3 4 5 6 
#
# 1 0.023602 0.003319 -0.006427 0.001108 -0.004519 -0.013239
# 2 0.003319 0.013336 -0.005251 -0.003311 0.000857 -0.007833
# 3 -0.006427 -0.005251 0.012773 -0.005569 -0.003138 0.000978
# 4 0.001108 -0.003311 -0.005569 0.017500 -0.002607 0.002865
# 5 -0.004519 0.000857 -0.003138 -0.002607 0.027790 -0.001762
# 6 -0.013239 -0.007833 0.000978 0.002865 -0.001762 0.045503
#
#
# Mechanical properties :
#
#
# Convention : Reuss Voigt Hill
#
# Bulk Modulus (GPa) = 30.30647 76.48461 53.39554
# Shear Modulus (GPa) = 29.72323 47.77393 38.74858
#
# Velocity S-wave (km/s) = 3.36064 4.26059 3.83709
# Velocity P-wave (km/s) = 5.15501 7.29831 6.31821
#
# Compressibility (1/GPa) = 0.03299626
#
# Stress axis : x y z
#
# Youngs Moduli (GPa) = 42.36931 74.98326 78.28769
#
# Poissons Ratio (x) = -0.24890 0.50312
# Poissons Ratio (y) = -0.14064 0.41105
# Poissons Ratio (z) = 0.27229 0.39370
#
# Static dielectric constant tensor:
#      x y z
#    x 2.515800 0.141620 -0.133750 
#    y 0.141620 2.268640 -0.102200 
#    z -0.133750 -0.102200 2.198950 
# 
# From -- ./inp_files/149856.got.cif
#   From: 2010.05.17/outbox.cif.g08.bks.cpg/sg2_75_cif.got.tgz:149856.got - 2010.06.03 11:33:40.
