data_PCOD9101549
_publ_section_title
;
Structure prediction by ZEFSAII (Michael W. Deem and Ramdas Pophale) SiO2 
 PCOD9101549
Probable space group: P -1
;
_chemical_formula_sum "Si O2"
_cell_formula_units_Z 11
_cell_length_a 7.552863
_cell_length_b 20.153786
_cell_length_c 19.881744
_cell_angle_alpha 13.971934
_cell_angle_beta 143.064228
_cell_angle_gamma 142.364579
_cell_volume 436.333510
_symmetry_space_group_name_H-M "P -1"
_symmetry_group_IT_number 2
_symmetry_cell_setting 'triclinic'
loop_
_space_group_symop_operation_xyz
x,y,z
-x,-y,-z
loop_
_atom_site_type_symbol
_atom_site_label
_atom_site_fract_x
_atom_site_fract_y
_atom_site_fract_z
Si Si1 0.000000 0.000000 0.000000
Si Si2 0.941956 0.486608 0.680260
Si Si3 0.670933 0.975246 0.743494
Si Si4 0.085004 0.915658 0.685280
Si Si5 0.632821 0.480124 0.451738
Si Si6 0.278556 0.645664 0.835481
O O1 0.281387 0.821385 0.242652
O O2 0.220407 0.293994 0.777332
O O3 0.789655 0.566672 0.486024
O O4 0.712532 0.501855 0.656105
O O5 0.224061 0.713365 0.551767
O O6 0.046700 0.185209 0.998117
O O7 0.439015 0.970813 0.738520
O O8 0.494716 0.799292 0.805383
O O9 0.000000 0.000000 0.500000
O O10 0.912052 0.113830 0.484854
O O11 0.959768 0.599812 0.968816
O O12 0.500000 0.500000 0.000000
#
# Coordination Sequence:
#
# PCOD9101549 Si02
#       6
#     1   2   2   2   2   2
#     4  10  20  40  62  84 114 154 192 230 304 348
#     4  11  22  39  62  87 116 156 206 235 280 351
#     4  11  21  37  61  88 115 155 202 245 279 349
#     4  10  20  38  60  81 112 154 195 237 293 349
#     4  10  22  40  62  87 120 159 189 240 295 345
#     4  11  22  39  60  86 120 154 193 245 304 343
#
# _framework density 25.210073000000001
#
# number of rings (size 3 to 8) (size 9 to 14) (size 15 to 20)
#    0.000    1.455    0.000    8.182    0.000    2.909 
#    0.000   18.182    0.000    0.000    0.000    0.000 
#    0.000    0.000    0.000    0.000    0.000    0.000 
#
# Total GULP energy -61335.386975 kJ/mol
# GULP energy per Si atom -5575.944270 kJ/mol
# Density = 2.515269 g / cm^3
# Si number density = 25.210073 Si / 1000 Ang^3
#
#
#
# Elastic Constant Matrix: (Units=GPa)
#
#
# Indices 1 2 3 4 5 6 
#
# 1 88.5138 31.9911 10.7639 3.9573 29.0332 27.0854
# 2 31.9911 45.8127 15.3949 -11.2005 8.5688 5.4560
# 3 10.7639 15.3949 143.0196 -22.8384 32.7585 11.1530
# 4 3.9573 -11.2005 -22.8384 41.7423 12.9674 0.5634
# 5 29.0332 8.5688 32.7585 12.9674 45.6481 2.8638
# 6 27.0854 5.4560 11.1530 0.5634 2.8638 40.0193
#
#
#
# Elastic Compliance Matrix: (Units=1/GPa)
#
#
# Indices 1 2 3 4 5 6 
#
# 1 0.026473 -0.014556 0.005121 0.001989 -0.017332 -0.016148
# 2 -0.014556 0.033904 -0.001857 0.008973 0.001330 0.005525
# 3 0.005121 -0.001857 0.012091 0.010086 -0.014092 -0.005716
# 4 0.001989 0.008973 0.010086 0.038204 -0.020762 -0.004432
# 5 -0.017332 0.001330 -0.014092 -0.020762 0.047917 0.012340
# 6 -0.016148 0.005525 -0.005716 -0.004432 0.012340 0.035936
#
#
# Mechanical properties :
#
#
# Convention : Reuss Voigt Hill
#
# Bulk Modulus (GPa) = 20.04640 43.73840 31.89240
# Shear Modulus (GPa) = 21.39166 40.09501 30.74334
#
# Velocity S-wave (km/s) = 2.91612 3.99235 3.49590
# Velocity P-wave (km/s) = 4.39402 6.21604 5.38268
#
# Compressibility (1/GPa) = 0.04988427
#
# Stress axis : x y z
#
# Youngs Moduli (GPa) = 37.77385 29.49547 82.70877
#
# Poissons Ratio (x) = 0.42934 -0.42357
# Poissons Ratio (y) = 0.54984 0.15356
# Poissons Ratio (z) = -0.19345 0.05476
#
# Static dielectric constant tensor:
#      x y z
#    x 2.096710 -0.026790 0.020830 
#    y -0.026790 2.157020 0.106050 
#    z 0.020830 0.106050 1.917090 
# 
# From -- ./inp_files/310217.got.cif
#   From: 2010.05.17/outbox.cif.g08.bks.cpg/sg2_156_cif.got.tgz:310217.got - 2010.06.03 11:33:40.
