data_PCOD9101003
_publ_section_title
;
Structure prediction by ZEFSAII (Michael W. Deem and Ramdas Pophale) SiO2 
 PCOD9101003
Probable space group: P -1
;
_chemical_formula_sum "Si O2"
_cell_formula_units_Z 16
_cell_length_a 8.716572
_cell_length_b 23.282318
_cell_length_c 11.905356
_cell_angle_alpha 41.505241
_cell_angle_beta 108.902278
_cell_angle_gamma 142.485367
_cell_volume 724.503847
_symmetry_space_group_name_H-M "P -1"
_symmetry_group_IT_number 2
_symmetry_cell_setting 'triclinic'
loop_
_space_group_symop_operation_xyz
x,y,z
-x,-y,-z
loop_
_atom_site_type_symbol
_atom_site_label
_atom_site_fract_x
_atom_site_fract_y
_atom_site_fract_z
Si Si1 0.380845 0.170925 0.969979
Si Si2 0.263179 0.678781 0.377406
Si Si3 0.737499 0.495269 0.871636
Si Si4 0.085638 0.265684 0.298077
Si Si5 0.321315 0.499399 0.408669
Si Si6 0.492966 0.792266 0.682138
Si Si7 0.712510 0.828027 0.459929
Si Si8 0.581257 0.125708 0.241144
O O1 0.418574 0.158777 0.868024
O O2 0.478634 0.317396 0.785729
O O3 0.637227 0.227741 0.015876
O O4 0.033187 0.992849 0.214120
O O5 0.390495 0.693039 0.500744
O O6 0.000000 0.500000 0.500000
O O7 0.051144 0.662495 0.389029
O O8 0.700908 0.512863 0.712379
O O9 0.694964 0.555386 0.857487
O O10 0.117690 0.638480 0.773197
O O11 0.510460 0.304847 0.121365
O O12 0.908777 0.223009 0.207573
O O13 0.274825 0.263420 0.355144
O O14 0.740502 0.085604 0.555279
O O15 0.500000 0.500000 0.500000
O O16 0.715608 0.891382 0.477297
O O17 0.547667 0.885436 0.659251
#
# Coordination Sequence:
#
# PCOD9101003 Si02
#       8
#     2   2   2   2   2   2   2   2
#     4  10  22  41  66  90 128 169 208 260 310 382
#     4  10  23  41  64  87 123 168 210 259 314 368
#     4  10  20  38  60  91 127 163 206 263 313 366
#     4   9  21  33  61  92 125 163 198 259 305 379
#     4  11  23  43  63  91 121 167 217 265 311 371
#     4  10  20  37  68  88 123 169 206 256 315 380
#     4  11  22  41  65  98 125 165 215 255 319 378
#     4   9  18  41  57  89 129 167 203 245 321 367
#
# _framework density 22.084078999999999
#
# number of rings (size 3 to 8) (size 9 to 14) (size 15 to 20)
#    0.000    2.000    2.500    0.375    3.500    2.500 
#    2.250    5.625    0.000    0.000    0.000    0.000 
#    0.000    0.000    0.000    0.000    0.000    0.000 
#
# Total GULP energy -89302.921793 kJ/mol
# GULP energy per Si atom -5581.432612 kJ/mol
# Density = 2.203381 g / cm^3
# Si number density = 22.084079 Si / 1000 Ang^3
#
#
#
# Elastic Constant Matrix: (Units=GPa)
#
#
# Indices 1 2 3 4 5 6 
#
# 1 95.6651 36.4226 39.5491 19.7292 17.3718 19.5899
# 2 36.4226 96.4510 26.9100 28.9940 12.8322 11.6671
# 3 39.5491 26.9100 93.3549 15.2412 7.5218 0.4723
# 4 19.7292 28.9940 15.2412 41.3650 4.4711 4.7571
# 5 17.3718 12.8322 7.5218 4.4711 46.9904 12.0808
# 6 19.5899 11.6671 0.4723 4.7571 12.0808 33.1924
#
#
#
# Elastic Compliance Matrix: (Units=1/GPa)
#
#
# Indices 1 2 3 4 5 6 
#
# 1 0.016167 -0.002549 -0.005433 -0.002834 -0.002254 -0.007342
# 2 -0.002549 0.014659 -0.001699 -0.008048 -0.001531 -0.001913
# 3 -0.005433 -0.001699 0.013812 -0.001709 -0.000625 0.004079
# 4 -0.002834 -0.008048 -0.001709 0.031764 0.000555 -0.000229
# 5 -0.002254 -0.001531 -0.000625 0.000555 0.024400 -0.007083
# 6 -0.007342 -0.001913 0.004079 -0.000229 -0.007083 0.037685
#
#
# Mechanical properties :
#
#
# Convention : Reuss Voigt Hill
#
# Bulk Modulus (GPa) = 39.56302 54.58161 47.07231
# Shear Modulus (GPa) = 30.07097 36.48219 33.27658
#
# Velocity S-wave (km/s) = 3.69407 4.06885 3.88598
# Velocity P-wave (km/s) = 6.01236 6.84420 6.44172
#
# Compressibility (1/GPa) = 0.02527613
#
# Stress axis : x y z
#
# Youngs Moduli (GPa) = 61.85498 68.21799 72.40284
#
# Poissons Ratio (x) = 0.17392 0.39334
# Poissons Ratio (y) = 0.15769 0.12298
# Poissons Ratio (z) = 0.33604 0.11587
#
# Static dielectric constant tensor:
#      x y z
#    x 1.847330 0.011960 -0.048040 
#    y 0.011960 1.838620 -0.030690 
#    z -0.048040 -0.030690 1.842170 
# 
# From -- ./inp_files/216422.got.cif
#   From: 2010.05.17/outbox.cif.g08.bks.cpg/sg2_109_cif.got.tgz:216422.got - 2010.06.03 11:33:40.
