data_PCOD9101809
_publ_section_title
;
Structure prediction by ZEFSAII (Michael W. Deem and Ramdas Pophale) SiO2 
 PCOD9101809
Probable space group: P -1
;
_chemical_formula_sum "Si O2"
_cell_formula_units_Z 13
_cell_length_a 11.744776
_cell_length_b 12.305415
_cell_length_c 5.146001
_cell_angle_alpha 64.034504
_cell_angle_beta 66.737793
_cell_angle_gamma 45.616861
_cell_volume 473.294394
_symmetry_space_group_name_H-M "P -1"
_symmetry_group_IT_number 2
_symmetry_cell_setting 'triclinic'
loop_
_space_group_symop_operation_xyz
x,y,z
-x,-y,-z
loop_
_atom_site_type_symbol
_atom_site_label
_atom_site_fract_x
_atom_site_fract_y
_atom_site_fract_z
Si Si1 0.948162 0.356725 0.747387
Si Si2 0.495507 0.363141 0.757489
Si Si3 0.000000 0.500000 0.000000
Si Si4 0.760154 0.046456 0.699018
Si Si5 0.656268 0.658528 0.588849
Si Si6 0.091774 0.859644 0.869099
Si Si7 0.267112 0.171169 0.356371
O O1 0.852898 0.519775 0.500664
O O2 0.954491 0.405441 0.974866
O O3 0.123003 0.216444 0.627880
O O4 0.850916 0.294474 0.876971
O O5 0.500000 0.500000 0.500000
O O6 0.656741 0.182342 0.863210
O O7 0.425328 0.330562 0.612284
O O8 0.393806 0.401569 0.070384
O O9 0.826537 0.671268 0.891657
O O10 0.772102 0.147822 0.376270
O O11 0.688769 0.968595 0.720971
O O12 0.948006 0.909145 0.748477
O O13 0.623828 0.813136 0.569435
O O14 0.000000 0.000000 0.000000
#
# Coordination Sequence:
#
# PCOD9101809 Si02
#       7
#     2   2   1   2   2   2   2
#     4  11  23  40  73 103 143 174 240 291 358 413
#     4  12  29  50  71 101 146 192 240 283 348 435
#     4  10  20  38  60  98 136 172 212 290 352 398
#     4  11  26  44  70 102 140 184 234 296 353 418
#     4  11  28  44  75 102 141 197 231 288 352 426
#     4  11  23  41  71 103 134 177 229 298 359 408
#     4  11  24  42  70 104 137 180 235 303 350 412
#
# _framework density 27.467046
#
# number of rings (size 3 to 8) (size 9 to 14) (size 15 to 20)
#    0.000    0.923    3.077    3.231   12.923    1.231 
#    0.000    0.000    0.000    0.000    0.000    0.000 
#    0.000    0.000    0.000    0.000    0.000    0.000 
#
# Total GULP energy -72494.155871 kJ/mol
# GULP energy per Si atom -5576.473529 kJ/mol
# Density = 2.740453 g / cm^3
# Si number density = 27.467046 Si / 1000 Ang^3
#
#
#
# Elastic Constant Matrix: (Units=GPa)
#
#
# Indices 1 2 3 4 5 6 
#
# 1 106.7368 26.2169 13.3044 -9.9339 17.3295 18.4319
# 2 26.2169 160.8588 6.9874 3.7418 -15.9638 38.8137
# 3 13.3044 6.9874 89.2763 -6.8080 -10.2690 14.4376
# 4 -9.9339 3.7418 -6.8080 36.1271 9.2442 -11.4263
# 5 17.3295 -15.9638 -10.2690 9.2442 47.7932 -2.2687
# 6 18.4319 38.8137 14.4376 -11.4263 -2.2687 54.1146
#
#
#
# Elastic Compliance Matrix: (Units=1/GPa)
#
#
# Indices 1 2 3 4 5 6 
#
# 1 0.011797 -0.002270 -0.001771 0.004364 -0.006320 -0.001261
# 2 -0.002270 0.008650 0.000870 -0.004535 0.004471 -0.006434
# 3 -0.001771 0.000870 0.012298 -0.000152 0.003453 -0.003189
# 4 0.004364 -0.004535 -0.000152 0.034472 -0.009385 0.008692
# 5 -0.006320 0.004471 0.003453 -0.009385 0.027132 -0.002820
# 6 -0.001261 -0.006434 -0.003189 0.008692 -0.002820 0.026091
#
#
# Mechanical properties :
#
#
# Convention : Reuss Voigt Hill
#
# Bulk Modulus (GPa) = 37.87234 49.98770 43.93002
# Shear Modulus (GPa) = 36.87752 48.29787 42.58769
#
# Velocity S-wave (km/s) = 3.66814 4.19787 3.94191
# Velocity P-wave (km/s) = 5.63547 6.46025 6.06190
#
# Compressibility (1/GPa) = 0.02640449
#
# Stress axis : x y z
#
# Youngs Moduli (GPa) = 84.76579 115.60112 81.31162
#
# Poissons Ratio (x) = 0.26245 0.14398
# Poissons Ratio (y) = 0.19244 -0.07076
# Poissons Ratio (z) = 0.15009 -0.10059
#
# Static dielectric constant tensor:
#      x y z
#    x 2.592280 -0.589490 -0.422160 
#    y -0.589490 2.762480 0.526920 
#    z -0.422160 0.526920 2.752050 
# 
# From -- ./inp_files/65127.got.cif
#   From: 2010.05.17/outbox.cif.g08.bks.cpg/sg2_33_cif.got.tgz:65127.got - 2010.06.03 11:33:40.
