data_PCOD9101455
_publ_section_title
;
Structure prediction by ZEFSAII (Michael W. Deem and Ramdas Pophale) SiO2 
 PCOD9101455
Probable space group: P -1
;
_chemical_formula_sum "Si O2"
_cell_formula_units_Z 16
_cell_length_a 15.962511
_cell_length_b 7.918321
_cell_length_c 9.099994
_cell_angle_alpha 132.055048
_cell_angle_beta 61.315335
_cell_angle_gamma 125.871767
_cell_volume 684.692501
_symmetry_space_group_name_H-M "P -1"
_symmetry_group_IT_number 2
_symmetry_cell_setting 'triclinic'
loop_
_space_group_symop_operation_xyz
x,y,z
-x,-y,-z
loop_
_atom_site_type_symbol
_atom_site_label
_atom_site_fract_x
_atom_site_fract_y
_atom_site_fract_z
Si Si1 0.912993 0.608764 0.057669
Si Si2 0.363370 0.194975 0.469823
Si Si3 0.533360 0.539065 0.744612
Si Si4 0.052767 0.131161 0.323235
Si Si5 0.568578 0.265463 0.822330
Si Si6 0.796604 0.621642 0.888718
Si Si7 0.886190 0.426570 0.260835
Si Si8 0.843044 0.177476 0.445022
O O1 0.845389 0.408327 0.117786
O O2 0.987595 0.840319 0.228861
O O3 0.842989 0.678064 0.044095
O O4 0.995941 0.552057 0.855229
O O5 0.431890 0.407530 0.650035
O O6 0.378136 0.310538 0.361270
O O7 0.409230 0.980000 0.316457
O O8 0.244305 0.061136 0.544060
O O9 0.547833 0.326313 0.707873
O O10 0.517236 0.722810 0.985186
O O11 0.960747 0.205957 0.383927
O O12 0.139157 0.155922 0.143626
O O13 0.107871 0.322810 0.517182
O O14 0.673320 0.507292 0.917383
O O15 0.827009 0.402736 0.670878
O O16 0.828047 0.214333 0.305930
#
# Coordination Sequence:
#
# PCOD9101455 Si02
#       8
#     2   2   2   2   2   2   2   2
#     4  11  21  34  58  81 117 159 203 236 284 342
#     4  10  22  41  66  91 119 158 201 248 306 361
#     4  10  22  43  65  92 117 155 204 256 304 364
#     4  11  20  37  57  81 122 160 190 233 293 347
#     4  10  22  41  66  89 125 154 199 253 311 349
#     4  10  20  38  59  87 118 162 191 240 293 359
#     4  10  21  38  52  84 121 158 195 245 283 343
#     4  10  20  39  59  82 123 157 191 237 299 349
#
# _framework density 23.368154000000001
#
# number of rings (size 3 to 8) (size 9 to 14) (size 15 to 20)
#    0.000    1.750    2.500    2.250    1.750    0.000 
#    9.000    6.250    0.000    0.000    0.000    0.000 
#    0.000    0.000    0.000    0.000    0.000    0.000 
#
# Total GULP energy -89324.701976 kJ/mol
# GULP energy per Si atom -5582.793873 kJ/mol
# Density = 2.331497 g / cm^3
# Si number density = 23.368154 Si / 1000 Ang^3
#
#
#
# Elastic Constant Matrix: (Units=GPa)
#
#
# Indices 1 2 3 4 5 6 
#
# 1 17.1692 4.5899 9.5128 -14.9402 7.4262 -4.0319
# 2 4.5899 110.4084 42.7179 -41.8400 18.3487 -2.8283
# 3 9.5128 42.7179 100.6506 -29.6768 -6.6506 -14.3016
# 4 -14.9402 -41.8400 -29.6768 44.5383 -17.4305 5.6704
# 5 7.4262 18.3487 -6.6506 -17.4305 26.4403 -1.9479
# 6 -4.0319 -2.8283 -14.3016 5.6704 -1.9479 31.6799
#
#
#
# Elastic Compliance Matrix: (Units=1/GPa)
#
#
# Indices 1 2 3 4 5 6 
#
# 1 0.095260 0.013820 -0.004494 0.036225 -0.013298 0.004027
# 2 0.013820 0.017239 -0.005060 0.014778 -0.007529 -0.002095
# 3 -0.004494 -0.005060 0.018027 0.011853 0.017570 0.006073
# 4 0.036225 0.014778 0.011853 0.066657 0.026567 0.000983
# 5 -0.013298 -0.007529 0.017570 0.026567 0.069087 0.005060
# 6 0.004027 -0.002095 0.006073 0.000983 0.005060 0.034768
#
#
# Mechanical properties :
#
#
# Convention : Reuss Voigt Hill
#
# Bulk Modulus (GPa) = 7.19138 37.98548 22.58843
# Shear Modulus (GPa) = 14.75542 31.95886 23.35714
#
# Velocity S-wave (km/s) = 2.51556 3.70215 3.16496
# Velocity P-wave (km/s) = 3.39433 5.87921 4.80034
#
# Compressibility (1/GPa) = 0.13905546
#
# Stress axis : x y z
#
# Youngs Moduli (GPa) = 10.49763 58.00945 55.47381
#
# Poissons Ratio (x) = -0.80167 0.24930
# Poissons Ratio (y) = -0.14507 0.28071
# Poissons Ratio (z) = 0.04718 0.29354
#
# Static dielectric constant tensor:
#      x y z
#    x 1.868280 -0.054730 -0.017280 
#    y -0.054730 1.943800 0.036790 
#    z -0.017280 0.036790 1.896290 
# 
# From -- ./inp_files/205819.got.cif
#   From: 2010.05.17/outbox.cif.g08.bks.cpg/sg2_103_cif.got.tgz:205819.got - 2010.06.03 11:33:40.
