data_PCOD9101143
_publ_section_title
;
Structure prediction by ZEFSAII (Michael W. Deem and Ramdas Pophale) SiO2 
 PCOD9101143
Probable space group: P -1
;
_chemical_formula_sum "Si O2"
_cell_formula_units_Z 16
_cell_length_a 20.295942
_cell_length_b 5.005819
_cell_length_c 12.825099
_cell_angle_alpha 89.257371
_cell_angle_beta 138.027534
_cell_angle_gamma 87.115096
_cell_volume 867.829490
_symmetry_space_group_name_H-M "P -1"
_symmetry_group_IT_number 2
_symmetry_cell_setting 'triclinic'
loop_
_space_group_symop_operation_xyz
x,y,z
-x,-y,-z
loop_
_atom_site_type_symbol
_atom_site_label
_atom_site_fract_x
_atom_site_fract_y
_atom_site_fract_z
Si Si1 0.314142 0.123030 0.189780
Si Si2 0.428789 0.726317 0.976981
Si Si3 0.380814 0.630909 0.146999
Si Si4 0.561919 0.680791 0.497249
Si Si5 0.111705 0.173856 0.065625
Si Si6 0.104137 0.671395 0.202218
Si Si7 0.385920 0.013937 0.731576
Si Si8 0.309282 0.550068 0.523721
O O1 0.358036 0.349539 0.170222
O O2 0.391577 0.093644 0.379230
O O3 0.206585 0.211973 0.107920
O O4 0.308668 0.858197 0.116728
O O5 0.378151 0.615686 0.019597
O O6 0.502409 0.927295 0.112285
O O7 0.500000 0.500000 0.000000
O O8 0.356624 0.883893 0.808002
O O9 0.486610 0.726232 0.311518
O O10 0.500000 0.500000 0.500000
O O11 0.657296 0.529353 0.553920
O O12 0.106861 0.376879 0.156882
O O13 0.120783 0.877475 0.126794
O O14 0.005321 0.237000 0.885369
O O15 0.195660 0.666429 0.388168
O O16 0.375677 0.781335 0.637492
O O17 0.329131 0.288178 0.621498
#
# Coordination Sequence:
#
# PCOD9101143 Si02
#       8
#     2   2   2   2   2   2   2   2
#     4  11  23  36  53  82 116 155 185 223 267 343
#     4  11  23  41  59  80 113 150 192 248 281 324
#     4  11  24  35  55  80 112 153 191 219 280 336
#     4  10  22  33  50  77 120 156 182 216 254 336
#     4  10  20  38  56  82 114 151 192 230 276 322
#     4  10  21  35  60  82 111 152 190 236 275 326
#     4  11  24  35  59  79 111 144 188 243 281 326
#     4  12  22  37  55  86 112 151 190 227 286 331
#
# _framework density 18.436800999999999
#
# number of rings (size 3 to 8) (size 9 to 14) (size 15 to 20)
#    0.000    1.250    3.750    1.875    8.750    0.000 
#    0.000    0.000    0.000    0.000    0.000    5.250 
#    0.000    0.000    0.000    0.000    0.000    0.000 
#
# Total GULP energy -89269.090216 kJ/mol
# GULP energy per Si atom -5579.318139 kJ/mol
# Density = 1.839484 g / cm^3
# Si number density = 18.436801 Si / 1000 Ang^3
#
#
#
# Elastic Constant Matrix: (Units=GPa)
#
#
# Indices 1 2 3 4 5 6 
#
# 1 63.4324 1.7646 35.9470 -12.8776 -0.9444 -0.6259
# 2 1.7646 78.9461 18.9916 -0.1601 -6.2530 -0.0292
# 3 35.9470 18.9916 60.8607 -12.5985 -0.0770 -2.2456
# 4 -12.8776 -0.1601 -12.5985 29.8151 -5.3602 -1.3222
# 5 -0.9444 -6.2530 -0.0770 -5.3602 23.5914 -0.8440
# 6 -0.6259 -0.0292 -2.2456 -1.3222 -0.8440 22.0588
#
#
#
# Elastic Compliance Matrix: (Units=1/GPa)
#
#
# Indices 1 2 3 4 5 6 
#
# 1 0.025156 0.003248 -0.014817 0.005140 0.002974 -0.000369
# 2 0.003248 0.014475 -0.006580 -0.000639 0.003784 -0.000452
# 3 -0.014817 -0.006580 0.028490 0.005568 -0.000880 0.002771
# 4 0.005140 -0.000639 0.005568 0.039926 0.009250 0.003459
# 5 0.002974 0.003784 -0.000880 0.009250 0.045691 0.002302
# 6 -0.000369 -0.000452 0.002771 0.003459 0.002302 0.045900
#
#
# Mechanical properties :
#
#
# Convention : Reuss Voigt Hill
#
# Bulk Modulus (GPa) = 31.42432 35.18284 33.30358
# Shear Modulus (GPa) = 20.28042 24.86214 22.57128
#
# Velocity S-wave (km/s) = 3.32022 3.67619 3.50273
# Velocity P-wave (km/s) = 5.63736 6.09455 5.87040
#
# Compressibility (1/GPa) = 0.03182249
#
# Stress axis : x y z
#
# Youngs Moduli (GPa) = 39.75265 69.08291 35.10037
#
# Poissons Ratio (x) = -0.22439 0.52010
# Poissons Ratio (y) = -0.12912 0.23095
# Poissons Ratio (z) = 0.58903 0.45455
#
# Static dielectric constant tensor:
#      x y z
#    x 1.667500 -0.004240 -0.004490 
#    y -0.004240 1.687150 -0.022910 
#    z -0.004490 -0.022910 1.686240 
# 
# From -- ./inp_files/82368.got.cif
#   From: 2010.05.17/outbox.cif.g08.bks.cpg/sg2_42_cif.got.tgz:82368.got - 2010.06.03 11:33:40.
