data_PCOD9101281
_publ_section_title
;
Structure prediction by ZEFSAII (Michael W. Deem and Ramdas Pophale) SiO2 
 PCOD9101281
Probable space group: P -1
;
_chemical_formula_sum "Si O2"
_cell_formula_units_Z 13
_cell_length_a 16.601664
_cell_length_b 8.615348
_cell_length_c 18.207139
_cell_angle_alpha 141.182512
_cell_angle_beta 19.219354
_cell_angle_gamma 136.534787
_cell_volume 536.736986
_symmetry_space_group_name_H-M "P -1"
_symmetry_group_IT_number 2
_symmetry_cell_setting 'triclinic'
loop_
_space_group_symop_operation_xyz
x,y,z
-x,-y,-z
loop_
_atom_site_type_symbol
_atom_site_label
_atom_site_fract_x
_atom_site_fract_y
_atom_site_fract_z
Si Si1 0.923966 0.142322 0.851898
Si Si2 0.382206 0.366504 0.740304
Si Si3 0.469787 0.414733 0.163461
Si Si4 0.572629 0.749371 0.492172
Si Si5 0.258024 0.183294 0.991631
Si Si6 0.883868 0.987549 0.675709
Si Si7 0.000000 0.000000 0.000000
O O1 0.138059 0.242038 0.753892
O O2 0.024661 0.075140 0.658963
O O3 0.715546 0.362700 0.104830
O O4 0.836127 0.899508 0.878948
O O5 0.541930 0.404646 0.689209
O O6 0.530987 0.236932 0.496727
O O7 0.149294 0.213092 0.905669
O O8 0.606536 0.560477 0.036135
O O9 0.217965 0.282617 0.320276
O O10 0.659175 0.190946 0.940507
O O11 0.500000 0.500000 0.500000
O O12 0.463822 0.974631 0.715113
O O13 0.065541 0.145193 0.077196
O O14 0.000000 0.000000 0.500000
#
# Coordination Sequence:
#
# PCOD9101281 Si02
#       7
#     2   2   2   2   2   2   1
#     4  11  23  41  62  89 126 163 203 254 307 355
#     4  10  20  40  61  90 128 164 199 247 305 360
#     4   9  23  42  63  90 120 160 204 259 303 350
#     4  12  23  35  64  95 126 165 203 237 303 381
#     4  11  23  41  61  94 126 162 200 253 303 363
#     4  10  23  44  67  86 117 161 210 256 306 363
#     4  10  20  38  58  84 132 156 194 244 300 358
#
# _framework density 24.220428999999999
#
# number of rings (size 3 to 8) (size 9 to 14) (size 15 to 20)
#    0.000    1.538    3.077    1.385    2.154    5.538 
#    2.769    1.538    0.000    0.000    0.000    0.000 
#    0.000    0.000    0.000    0.000    0.000    0.000 
#
# Total GULP energy -72441.913346 kJ/mol
# GULP energy per Si atom -5572.454873 kJ/mol
# Density = 2.416530 g / cm^3
# Si number density = 24.220429 Si / 1000 Ang^3
#
#
#
# Elastic Constant Matrix: (Units=GPa)
#
#
# Indices 1 2 3 4 5 6 
#
# 1 84.7080 21.5441 23.3306 -6.9987 29.8018 -12.3343
# 2 21.5441 154.8244 1.0309 -33.6851 8.7034 -16.0797
# 3 23.3306 1.0309 33.5969 -1.9694 23.2925 0.2179
# 4 -6.9987 -33.6851 -1.9694 25.1271 -7.3052 12.3117
# 5 29.8018 8.7034 23.2925 -7.3052 44.0818 -2.9461
# 6 -12.3343 -16.0797 0.2179 12.3117 -2.9461 35.4651
#
#
#
# Elastic Compliance Matrix: (Units=1/GPa)
#
#
# Indices 1 2 3 4 5 6 
#
# 1 0.017623 -0.002157 -0.006792 -0.003726 -0.008128 0.005811
# 2 -0.002157 0.009390 0.001277 0.012798 0.000993 -0.000861
# 3 -0.006792 0.001277 0.049997 -0.001036 -0.022491 -0.003599
# 4 -0.003726 0.012798 -0.001036 0.067796 0.010562 -0.018145
# 5 -0.008128 0.000993 -0.022491 0.010562 0.041454 -0.002462
# 6 0.005811 -0.000861 -0.003599 -0.018145 -0.002462 0.035944
#
#
# Mechanical properties :
#
#
# Convention : Reuss Voigt Hill
#
# Bulk Modulus (GPa) = 16.21662 40.54894 28.38278
# Shear Modulus (GPa) = 19.37208 36.08306 27.72757
#
# Velocity S-wave (km/s) = 2.83118 3.86395 3.38716
# Velocity P-wave (km/s) = 4.17102 6.05680 5.20011
#
# Compressibility (1/GPa) = 0.06166513
#
# Stress axis : x y z
#
# Youngs Moduli (GPa) = 56.74544 106.49926 20.00102
#
# Poissons Ratio (x) = 0.22975 0.13586
# Poissons Ratio (y) = 0.12242 -0.02555
# Poissons Ratio (z) = 0.38544 -0.13604
#
# Static dielectric constant tensor:
#      x y z
#    x 1.950780 0.006220 -0.017550 
#    y 0.006220 1.939900 0.000860 
#    z -0.017550 0.000860 2.045550 
# 
# From -- ./inp_files/19269.got.cif
#   From: 2010.05.17/outbox.cif.g08.bks.cpg/sg2_10_cif.got.tgz:19269.got - 2010.06.03 11:33:40.
