data_PCOD9101435
_publ_section_title
;
Structure prediction by ZEFSAII (Michael W. Deem and Ramdas Pophale) SiO2 
 PCOD9101435
Probable space group: P -1
;
_chemical_formula_sum "Si O2"
_cell_formula_units_Z 16
_cell_length_a 30.762919
_cell_length_b 9.549730
_cell_length_c 6.863695
_cell_angle_alpha 45.413315
_cell_angle_beta 132.749111
_cell_angle_gamma 149.188989
_cell_volume 719.471391
_symmetry_space_group_name_H-M "P -1"
_symmetry_group_IT_number 2
_symmetry_cell_setting 'triclinic'
loop_
_space_group_symop_operation_xyz
x,y,z
-x,-y,-z
loop_
_atom_site_type_symbol
_atom_site_label
_atom_site_fract_x
_atom_site_fract_y
_atom_site_fract_z
Si Si1 0.270492 0.931239 0.884149
Si Si2 0.140364 0.879867 0.350182
Si Si3 0.601671 0.912723 0.581894
Si Si4 0.744625 0.465085 0.027162
Si Si5 0.409086 0.365181 0.546039
Si Si6 0.602369 0.264440 0.030679
Si Si7 0.007207 0.891908 0.932866
Si Si8 0.876482 0.546258 0.544003
O O1 0.189516 0.882577 0.670658
O O2 0.242039 0.643494 0.010502
O O3 0.339386 0.164514 0.698567
O O4 0.326152 0.040378 0.139425
O O5 0.125496 0.673801 0.345011
O O6 0.053841 0.796082 0.208421
O O7 0.205046 0.208414 0.154913
O O8 0.505527 0.654407 0.635280
O O9 0.584352 0.802429 0.415256
O O10 0.632594 0.213952 0.359715
O O11 0.646273 0.279748 0.956284
O O12 0.783631 0.426063 0.359167
O O13 0.378568 0.462280 0.210954
O O14 0.500000 0.000000 0.000000
O O15 0.917803 0.642679 0.788288
O O16 0.065219 0.167593 0.694136
O O17 0.000000 0.000000 0.000000
#
# Coordination Sequence:
#
# PCOD9101435 Si02
#       8
#     2   2   2   2   2   2   2   2
#     4  11  21  38  60  87 121 161 205 258 311 365
#     4  10  21  40  64  92 128 165 205 247 311 382
#     4  10  22  37  57  86 118 157 211 264 307 363
#     4  10  20  39  61  85 127 166 203 257 308 360
#     4  10  20  39  59  81 117 162 209 258 315 363
#     4  10  20  38  59  85 122 163 210 260 305 357
#     4  10  21  42  68  95 124 156 199 253 307 368
#     4   9  21  41  65  92 125 164 199 247 308 371
#
# _framework density 22.238548999999999
#
# number of rings (size 3 to 8) (size 9 to 14) (size 15 to 20)
#    0.000    2.000    2.500    0.750    0.000    1.500 
#    9.000    1.250    0.000    0.000    0.000    0.000 
#    0.000    0.000    0.000    0.000    0.000    0.000 
#
# Total GULP energy -89212.486485 kJ/mol
# GULP energy per Si atom -5575.780405 kJ/mol
# Density = 2.218793 g / cm^3
# Si number density = 22.238549 Si / 1000 Ang^3
#
#
#
# Elastic Constant Matrix: (Units=GPa)
#
#
# Indices 1 2 3 4 5 6 
#
# 1 68.5977 7.7225 30.3294 12.0818 28.2592 -7.1996
# 2 7.7225 63.4252 36.6782 3.8062 11.0262 -20.8516
# 3 30.3294 36.6782 115.2834 14.3704 23.2030 -16.5227
# 4 12.0818 3.8062 14.3704 46.5693 2.7520 7.9274
# 5 28.2592 11.0262 23.2030 2.7520 35.7008 -9.1023
# 6 -7.1996 -20.8516 -16.5227 7.9274 -9.1023 20.8732
#
#
#
# Elastic Compliance Matrix: (Units=1/GPa)
#
#
# Indices 1 2 3 4 5 6 
#
# 1 0.023510 0.003155 -0.002656 -0.005244 -0.016438 0.003981
# 2 0.003155 0.027439 -0.004866 -0.006078 -0.000527 0.026726
# 3 -0.002656 -0.004866 0.012561 -0.003271 -0.003294 0.003972
# 4 -0.005244 -0.006078 -0.003271 0.027824 0.000726 -0.020720
# 5 -0.016438 -0.000527 -0.003294 0.000726 0.046078 0.011014
# 6 0.003981 0.026726 0.003972 -0.020720 0.011014 0.091796
#
#
# Mechanical properties :
#
#
# Convention : Reuss Voigt Hill
#
# Bulk Modulus (GPa) = 18.25612 44.08516 31.17064
# Shear Modulus (GPa) = 19.51587 32.13373 25.82480
#
# Velocity S-wave (km/s) = 2.96559 3.80538 3.41143
# Velocity P-wave (km/s) = 4.46692 6.25897 5.43728
#
# Compressibility (1/GPa) = 0.05477615
#
# Stress axis : x y z
#
# Youngs Moduli (GPa) = 42.53445 36.44446 79.61105
#
# Poissons Ratio (x) = -0.11498 0.21145
# Poissons Ratio (y) = -0.13419 0.38738
# Poissons Ratio (z) = 0.11298 0.17733
#
# Static dielectric constant tensor:
#      x y z
#    x 1.817480 0.041270 0.015750 
#    y 0.041270 1.874360 -0.022670 
#    z 0.015750 -0.022670 1.844220 
# 
# From -- ./inp_files/128205.got.cif
#   From: 2010.05.17/outbox.cif.g08.bks.cpg/sg2_65_cif.got.tgz:128205.got - 2010.06.03 11:33:40.
