data_PCOD9101901
_publ_section_title
;
Structure prediction by ZEFSAII (Michael W. Deem and Ramdas Pophale) SiO2 
 PCOD9101901
Probable space group: P -1
;
_chemical_formula_sum "Si O2"
_cell_formula_units_Z 16
_cell_length_a 22.120504
_cell_length_b 9.592661
_cell_length_c 8.388866
_cell_angle_alpha 138.496185
_cell_angle_beta 147.306970
_cell_angle_gamma 43.729325
_cell_volume 615.575735
_symmetry_space_group_name_H-M "P -1"
_symmetry_group_IT_number 2
_symmetry_cell_setting 'triclinic'
loop_
_space_group_symop_operation_xyz
x,y,z
-x,-y,-z
loop_
_atom_site_type_symbol
_atom_site_label
_atom_site_fract_x
_atom_site_fract_y
_atom_site_fract_z
Si Si1 0.663888 0.319939 0.653297
Si Si2 0.202224 0.318492 0.317734
Si Si3 0.917750 0.640907 0.246953
Si Si4 0.889883 0.152405 0.808224
Si Si5 0.227355 0.739397 0.643875
Si Si6 0.398554 0.929100 0.402125
Si Si7 0.573469 0.556578 0.356938
Si Si8 0.832630 0.595247 0.351895
O O1 0.776349 0.182090 0.690139
O O2 0.569185 0.426179 0.399987
O O3 0.616961 0.176251 0.552276
O O4 0.716053 0.509769 0.008735
O O5 0.178275 0.579275 0.505741
O O6 0.168015 0.258876 0.367094
O O7 0.131004 0.284144 0.973981
O O8 0.338023 0.185617 0.490320
O O9 0.844978 0.711294 0.309962
O O10 0.054010 0.611379 0.557022
O O11 0.916364 0.384147 0.030183
O O12 0.861821 0.086844 0.510457
O O13 0.000000 0.000000 0.000000
O O14 0.313119 0.841727 0.020089
O O15 0.298922 0.556472 0.520380
O O16 0.526500 0.810261 0.518858
O O17 0.500000 0.500000 0.000000
#
# Coordination Sequence:
#
# PCOD9101901 Si02
#       8
#     2   2   2   2   2   2   2   2
#     4  10  20  38  61  86 121 153 197 251 303 358
#     4  11  22  39  61  91 124 158 203 249 299 356
#     4   9  21  38  59  84 125 168 201 243 298 357
#     4   9  19  35  59  86 118 161 201 242 298 356
#     4   9  20  41  60  84 123 157 196 255 297 351
#     4  11  22  37  62  90 115 156 204 245 305 364
#     4   9  20  41  66  84 115 161 195 252 313 353
#     4  10  20  39  61  82 123 166 193 251 301 344
#
# _framework density 25.991928000000001
#
# number of rings (size 3 to 8) (size 9 to 14) (size 15 to 20)
#    0.000    2.250    1.250    1.500    1.750    3.500 
#    4.500    1.875    0.000    0.000    0.000    0.000 
#    0.000    0.000    0.000    0.000    0.000    0.000 
#
# Total GULP energy -89316.151392 kJ/mol
# GULP energy per Si atom -5582.259462 kJ/mol
# Density = 2.593277 g / cm^3
# Si number density = 25.991928 Si / 1000 Ang^3
#
#
#
# Elastic Constant Matrix: (Units=GPa)
#
#
# Indices 1 2 3 4 5 6 
#
# 1 108.6480 26.2801 24.1948 -11.2643 -29.7813 2.7388
# 2 26.2801 92.8774 25.1902 -31.3348 -21.9843 12.1288
# 3 24.1948 25.1902 108.3584 -27.9523 -31.0167 10.6375
# 4 -11.2643 -31.3348 -27.9523 47.3402 6.4982 -4.9749
# 5 -29.7813 -21.9843 -31.0167 6.4982 45.3160 -8.0490
# 6 2.7388 12.1288 10.6375 -4.9749 -8.0490 39.9491
#
#
#
# Elastic Compliance Matrix: (Units=1/GPa)
#
#
# Indices 1 2 3 4 5 6 
#
# 1 0.011529 -0.001462 -0.000172 0.000860 0.006837 0.001184
# 2 -0.001462 0.015835 0.000987 0.009678 0.005539 -0.002649
# 3 -0.000172 0.000987 0.013403 0.007256 0.008271 -0.001287
# 4 0.000860 0.009678 0.007256 0.031239 0.005769 0.000123
# 5 0.006837 0.005539 0.008271 0.005769 0.034677 0.003353
# 6 0.001184 -0.002649 -0.001287 0.000123 0.003353 0.026788
#
#
# Mechanical properties :
#
#
# Convention : Reuss Voigt Hill
#
# Bulk Modulus (GPa) = 25.33269 51.24601 38.28935
# Shear Modulus (GPa) = 33.80153 42.13565 37.96859
#
# Velocity S-wave (km/s) = 3.61010 4.03066 3.82617
# Velocity P-wave (km/s) = 5.21005 6.43588 5.85514
#
# Compressibility (1/GPa) = 0.03947469
#
# Stress axis : x y z
#
# Youngs Moduli (GPa) = 86.73529 63.15251 74.61022
#
# Poissons Ratio (x) = 0.09231 0.01281
# Poissons Ratio (y) = 0.12678 -0.07365
# Poissons Ratio (z) = 0.01489 -0.06234
#
# Static dielectric constant tensor:
#      x y z
#    x 2.129500 0.001160 -0.033150 
#    y 0.001160 2.170010 0.010930 
#    z -0.033150 0.010930 2.057480 
# 
# From -- ./inp_files/351866.got.cif
#   From: 2010.05.17/outbox.cif.g08.bks.cpg/sg2_176_cif.got.tgz:351866.got - 2010.06.03 11:33:40.
