data_PCOD9101651
_publ_section_title
;
Structure prediction by ZEFSAII (Michael W. Deem and Ramdas Pophale) SiO2 
 PCOD9101651
Probable space group: P -1
;
_chemical_formula_sum "Si O2"
_cell_formula_units_Z 16
_cell_length_a 15.224017
_cell_length_b 16.850102
_cell_length_c 11.972857
_cell_angle_alpha 125.620890
_cell_angle_beta 148.839259
_cell_angle_gamma 33.688349
_cell_volume 786.533041
_symmetry_space_group_name_H-M "P -1"
_symmetry_group_IT_number 2
_symmetry_cell_setting 'triclinic'
loop_
_space_group_symop_operation_xyz
x,y,z
-x,-y,-z
loop_
_atom_site_type_symbol
_atom_site_label
_atom_site_fract_x
_atom_site_fract_y
_atom_site_fract_z
Si Si1 0.592454 0.039893 0.719797
Si Si2 0.740415 0.164543 0.921482
Si Si3 0.743227 0.287705 0.829944
Si Si4 0.031669 0.890765 0.634705
Si Si5 0.540796 0.260797 0.386995
Si Si6 0.396198 0.087296 0.790160
Si Si7 0.175026 0.254439 0.911673
Si Si8 0.623762 0.382842 0.393329
O O1 0.500000 0.000000 0.500000
O O2 0.524470 0.174613 0.698920
O O3 0.462789 0.095995 0.747762
O O4 0.926067 0.873117 0.961035
O O5 0.671995 0.293045 0.884581
O O6 0.821446 0.143720 0.120398
O O7 0.000000 0.000000 0.000000
O O8 0.590642 0.275194 0.578530
O O9 0.631432 0.442794 0.796225
O O10 0.241009 0.755793 0.659211
O O11 0.838962 0.887567 0.455579
O O12 0.818843 0.070185 0.505991
O O13 0.540131 0.356720 0.387398
O O14 0.279056 0.307336 0.124638
O O15 0.287909 0.208167 0.868700
O O16 0.660688 0.909138 0.982913
O O17 0.860041 0.358322 0.653411
#
# Coordination Sequence:
#
# PCOD9101651 Si02
#       8
#     2   2   2   2   2   2   2   2
#     4  11  22  36  65  89 114 157 209 258 294 361
#     4  10  20  38  60  87 111 156 206 245 299 353
#     4  11  24  41  58  89 127 159 199 252 309 364
#     4  10  20  38  67  87 118 160 201 257 291 364
#     4  11  21  38  65  90 122 165 209 242 293 366
#     4   9  18  35  57  92 118 146 205 253 294 342
#     4   9  21  35  59  89 124 158 193 251 297 358
#     4  11  24  40  59  93 131 159 196 247 319 359
#
# _framework density 20.342437
#
# number of rings (size 3 to 8) (size 9 to 14) (size 15 to 20)
#    0.000    1.750    2.500    3.750    3.500    1.000 
#    2.250    0.000    0.000    2.250    0.000    0.000 
#    0.000    0.000    0.000    0.000    0.000    0.000 
#
# Total GULP energy -89295.833537 kJ/mol
# GULP energy per Si atom -5580.989596 kJ/mol
# Density = 2.029614 g / cm^3
# Si number density = 20.342437 Si / 1000 Ang^3
#
#
#
# Elastic Constant Matrix: (Units=GPa)
#
#
# Indices 1 2 3 4 5 6 
#
# 1 99.5290 14.0292 0.8443 0.2774 -16.2051 11.1728
# 2 14.0292 63.2182 18.3240 -4.3805 -6.5742 2.3003
# 3 0.8443 18.3240 64.0011 24.3746 -12.8180 3.2242
# 4 0.2774 -4.3805 24.3746 23.8749 -2.8239 -7.6128
# 5 -16.2051 -6.5742 -12.8180 -2.8239 15.0241 0.3059
# 6 11.1728 2.3003 3.2242 -7.6128 0.3059 33.2454
#
#
#
# Elastic Compliance Matrix: (Units=1/GPa)
#
#
# Indices 1 2 3 4 5 6 
#
# 1 0.014992 -0.004605 0.010162 -0.011665 0.020808 -0.008568
# 2 -0.004605 0.022259 -0.016017 0.022032 -0.004886 0.006651
# 3 0.010162 -0.016017 0.049645 -0.055918 0.036210 -0.020259
# 4 -0.011665 0.022032 -0.055918 0.110156 -0.030622 0.033325
# 5 0.020808 -0.004886 0.036210 -0.030622 0.112373 -0.018213
# 6 -0.008568 0.006651 -0.020259 0.033325 -0.018213 0.042262
#
#
# Mechanical properties :
#
#
# Convention : Reuss Voigt Hill
#
# Bulk Modulus (GPa) = 15.15672 32.57147 23.86410
# Shear Modulus (GPa) = 12.67105 27.33227 20.00166
#
# Velocity S-wave (km/s) = 2.49848 3.66950 3.13908
# Velocity P-wave (km/s) = 3.97368 5.83095 4.98950
#
# Compressibility (1/GPa) = 0.06597734
#
# Stress axis : x y z
#
# Youngs Moduli (GPa) = 66.70016 44.92510 20.14284
#
# Poissons Ratio (x) = 0.20689 -0.20470
# Poissons Ratio (y) = 0.30718 0.32263
# Poissons Ratio (z) = -0.67783 0.71956
#
# Static dielectric constant tensor:
#      x y z
#    x 1.740400 -0.000600 0.020260 
#    y -0.000600 1.754990 0.020420 
#    z 0.020260 0.020420 1.851700 
# 
# From -- ./inp_files/254285.got.cif
#   From: 2010.05.17/outbox.cif.g08.bks.cpg/sg2_128_cif.got.tgz:254285.got - 2010.06.03 11:33:40.
