data_PCOD9101284
_publ_section_title
;
Structure prediction by ZEFSAII (Michael W. Deem and Ramdas Pophale) SiO2 
 PCOD9101284
Probable space group: P -1
;
_chemical_formula_sum "Si O2"
_cell_formula_units_Z 14
_cell_length_a 12.482528
_cell_length_b 10.896365
_cell_length_c 10.689023
_cell_angle_alpha 57.962345
_cell_angle_beta 135.486648
_cell_angle_gamma 143.406348
_cell_volume 604.537060
_symmetry_space_group_name_H-M "P -1"
_symmetry_group_IT_number 2
_symmetry_cell_setting 'triclinic'
loop_
_space_group_symop_operation_xyz
x,y,z
-x,-y,-z
loop_
_atom_site_type_symbol
_atom_site_label
_atom_site_fract_x
_atom_site_fract_y
_atom_site_fract_z
Si Si1 0.432947 0.323130 0.129183
Si Si2 0.847950 0.266233 0.159714
Si Si3 0.994509 0.803947 0.111773
Si Si4 0.698619 0.335747 0.779089
Si Si5 0.644105 0.844211 0.601176
Si Si6 0.802419 0.387857 0.297642
Si Si7 0.097376 0.237148 0.227259
O O1 0.484036 0.352800 0.304710
O O2 0.566736 0.274131 0.218486
O O3 0.500000 0.500000 0.000000
O O4 0.172968 0.179248 0.997224
O O5 0.793874 0.251156 0.266285
O O6 0.065104 0.510166 0.175559
O O7 0.925332 0.161763 0.232569
O O8 0.679487 0.220804 0.945429
O O9 0.871994 0.575517 0.174421
O O10 0.212750 0.962198 0.290583
O O11 0.013059 0.811427 0.973528
O O12 0.520694 0.186374 0.607686
O O13 0.709150 0.512035 0.734391
O O14 0.804470 0.855319 0.645029
O O15 0.000000 0.500000 0.500000
#
# Coordination Sequence:
#
# PCOD9101284 Si02
#       7
#     2   2   2   2   2   2   2
#     4   9  20  34  55  82 115 149 182 220 279 335
#     4   9  18  34  54  79 113 145 189 225 277 322
#     4  10  20  38  58  85 115 141 186 245 281 315
#     4   9  17  32  55  86 110 140 193 232 271 322
#     4  11  20  34  60  92 108 140 191 244 278 314
#     4  11  20  37  59  84 110 152 194 223 269 354
#     4   9  17  33  57  82 111 142 185 233 273 325
#
# _framework density 23.158217
#
# number of rings (size 3 to 8) (size 9 to 14) (size 15 to 20)
#    0.857    1.429    1.429    3.000    0.000    0.000 
#    0.000    7.857    0.000    9.429    0.000    0.000 
#    0.000    0.000    0.000    0.000    0.000    0.000 
#
# Total GULP energy -77997.112716 kJ/mol
# GULP energy per Si atom -5571.222337 kJ/mol
# Density = 2.310551 g / cm^3
# Si number density = 23.158217 Si / 1000 Ang^3
#
#
#
# Elastic Constant Matrix: (Units=GPa)
#
#
# Indices 1 2 3 4 5 6 
#
# 1 161.4831 17.9027 36.3536 11.1063 -13.9659 9.0921
# 2 17.9027 44.9102 13.5079 13.1383 -8.2623 8.2241
# 3 36.3536 13.5079 118.4230 28.2595 -13.5690 18.4482
# 4 11.1063 13.1383 28.2595 29.7257 -6.3796 1.8383
# 5 -13.9659 -8.2623 -13.5690 -6.3796 23.6135 1.4590
# 6 9.0921 8.2241 18.4482 1.8383 1.4590 11.9859
#
#
#
# Elastic Compliance Matrix: (Units=1/GPa)
#
#
# Indices 1 2 3 4 5 6 
#
# 1 0.007052 -0.001278 -0.001144 -0.000098 0.003230 -0.003089
# 2 -0.001278 0.033511 0.006741 -0.016131 0.012427 -0.031437
# 3 -0.001144 0.006741 0.017239 -0.015146 0.009294 -0.029099
# 4 -0.000098 -0.016131 -0.015146 0.053210 -0.001667 0.026497
# 5 0.003230 0.012427 0.009294 -0.001667 0.055461 -0.031777
# 6 -0.003089 -0.031437 -0.029099 0.026497 -0.031777 0.151937
#
#
# Mechanical properties :
#
#
# Convention : Reuss Voigt Hill
#
# Bulk Modulus (GPa) = 15.05169 51.14939 33.10054
# Shear Modulus (GPa) = 15.06385 30.20184 22.63284
#
# Velocity S-wave (km/s) = 2.55321 3.61522 3.12959
# Velocity P-wave (km/s) = 3.89942 6.28978 5.23291
#
# Compressibility (1/GPa) = 0.06643773
#
# Stress axis : x y z
#
# Youngs Moduli (GPa) = 141.80439 29.84096 58.00749
#
# Poissons Ratio (x) = 0.03815 0.06638
# Poissons Ratio (y) = 0.18129 -0.39100
# Poissons Ratio (z) = 0.16227 -0.20115
#
# Static dielectric constant tensor:
#      x y z
#    x 1.916550 -0.012260 0.041280 
#    y -0.012260 1.965210 -0.025490 
#    z 0.041280 -0.025490 1.884790 
# 
# From -- ./inp_files/262208.got.cif
#   From: 2010.05.17/outbox.cif.g08.bks.cpg/sg2_132_cif.got.tgz:262208.got - 2010.06.03 11:33:40.
