data_PCOD9101556
_publ_section_title
;
Structure prediction by ZEFSAII (Michael W. Deem and Ramdas Pophale) SiO2 
 PCOD9101556
Probable space group: P -1
;
_chemical_formula_sum "Si O2"
_cell_formula_units_Z 16
_cell_length_a 23.522291
_cell_length_b 20.167428
_cell_length_c 8.010348
_cell_angle_alpha 136.048863
_cell_angle_beta 35.872283
_cell_angle_gamma 162.172452
_cell_volume 653.041242
_symmetry_space_group_name_H-M "P -1"
_symmetry_group_IT_number 2
_symmetry_cell_setting 'triclinic'
loop_
_space_group_symop_operation_xyz
x,y,z
-x,-y,-z
loop_
_atom_site_type_symbol
_atom_site_label
_atom_site_fract_x
_atom_site_fract_y
_atom_site_fract_z
Si Si1 0.122046 0.173546 0.882301
Si Si2 0.095880 0.453666 0.629734
Si Si3 0.039656 0.921635 0.450770
Si Si4 0.373941 0.506854 0.133104
Si Si5 0.351078 0.045161 0.084072
Si Si6 0.783233 0.352197 0.657959
Si Si7 0.528269 0.926517 0.520552
Si Si8 0.196299 0.994682 0.870478
O O1 0.119517 0.102470 0.598338
O O2 0.351779 0.420082 0.865537
O O3 0.956837 0.114102 0.118496
O O4 0.000000 0.000000 0.000000
O O5 0.242901 0.487522 0.359493
O O6 0.107667 0.506895 0.513834
O O7 0.258881 0.672713 0.743100
O O8 0.845060 0.202158 0.833864
O O9 0.046302 0.870615 0.169899
O O10 0.221322 0.028945 0.333627
O O11 0.784948 0.684702 0.698483
O O12 0.610287 0.752574 0.094250
O O13 0.591374 0.259882 0.003393
O O14 0.426842 0.081092 0.782045
O O15 0.000000 0.500000 0.500000
O O16 0.614184 0.109515 0.621153
O O17 0.681934 0.999617 0.411881
#
# Coordination Sequence:
#
# PCOD9101556 Si02
#       8
#     2   2   2   2   2   2   2   2
#     4  10  21  36  60  88 116 152 193 236 284 345
#     4   9  18  36  60  78 109 151 187 229 280 331
#     4   9  19  37  58  86 114 149 196 234 281 339
#     4   9  20  37  60  85 115 157 190 232 289 337
#     4   9  18  37  60  76 112 147 187 235 272 336
#     4  11  23  34  53  85 115 143 184 230 283 341
#     4   9  20  36  56  83 104 148 192 228 281 335
#     4  10  20  38  60  81 119 151 190 241 285 335
#
# _framework density 24.500748000000002
#
# number of rings (size 3 to 8) (size 9 to 14) (size 15 to 20)
#    0.000    2.500    0.000    2.625    1.750    5.000 
#    0.000    2.500   19.250    0.000    0.000    0.000 
#    0.000    0.000    0.000    0.000    0.000    0.000 
#
# Total GULP energy -89274.909250 kJ/mol
# GULP energy per Si atom -5579.681828 kJ/mol
# Density = 2.444498 g / cm^3
# Si number density = 24.500748 Si / 1000 Ang^3
#
#
#
# Elastic Constant Matrix: (Units=GPa)
#
#
# Indices 1 2 3 4 5 6 
#
# 1 93.0673 6.4572 12.7795 -29.6106 -17.8699 -0.4374
# 2 6.4572 97.1018 10.6608 -24.9512 2.0795 -3.6711
# 3 12.7795 10.6608 41.0144 -22.4675 -1.6531 -1.4719
# 4 -29.6106 -24.9512 -22.4675 39.2797 -0.6551 -2.7732
# 5 -17.8699 2.0795 -1.6531 -0.6551 27.1722 -0.4979
# 6 -0.4374 -3.6711 -1.4719 -2.7732 -0.4979 30.7760
#
#
#
# Elastic Compliance Matrix: (Units=1/GPa)
#
#
# Indices 1 2 3 4 5 6 
#
# 1 0.018234 0.002883 0.004253 0.018407 0.012523 0.002668
# 2 0.002883 0.013017 0.002502 0.012096 0.001395 0.002826
# 3 0.004253 0.002502 0.037362 0.026586 0.005604 0.004632
# 4 0.018407 0.012096 0.026586 0.063094 0.014481 0.008896
# 5 0.012523 0.001395 0.005604 0.014481 0.045670 0.002656
# 6 0.002668 0.002826 0.004632 0.008896 0.002656 0.033934
#
#
# Mechanical properties :
#
#
# Convention : Reuss Voigt Hill
#
# Bulk Modulus (GPa) = 11.37799 32.33093 21.85446
# Shear Modulus (GPa) = 22.59039 32.86464 27.72752
#
# Velocity S-wave (km/s) = 3.03979 3.66645 3.36773
# Velocity P-wave (km/s) = 4.12000 5.58107 4.90524
#
# Compressibility (1/GPa) = 0.08788896
#
# Stress axis : x y z
#
# Youngs Moduli (GPa) = 54.84176 76.82144 26.76497
#
# Poissons Ratio (x) = -0.22148 -0.11382
# Poissons Ratio (y) = -0.15811 -0.06696
# Poissons Ratio (z) = -0.23322 -0.19220
#
# Static dielectric constant tensor:
#      x y z
#    x 2.019970 0.051180 -0.018030 
#    y 0.051180 1.963990 0.005140 
#    z -0.018030 0.005140 1.993100 
# 
# From -- ./inp_files/355183.got.cif
#   From: 2010.05.17/outbox.cif.g08.bks.cpg/sg2_178_cif.got.tgz:355183.got - 2010.06.03 11:33:40.
