data_PCOD9101392
_publ_section_title
;
Structure prediction by ZEFSAII (Michael W. Deem and Ramdas Pophale) SiO2 
 PCOD9101392
Probable space group: P -1
;
_chemical_formula_sum "Si O2"
_cell_formula_units_Z 14
_cell_length_a 9.925896
_cell_length_b 11.347325
_cell_length_c 14.442935
_cell_angle_alpha 29.707379
_cell_angle_beta 132.541752
_cell_angle_gamma 133.720479
_cell_volume 569.425559
_symmetry_space_group_name_H-M "P -1"
_symmetry_group_IT_number 2
_symmetry_cell_setting 'triclinic'
loop_
_space_group_symop_operation_xyz
x,y,z
-x,-y,-z
loop_
_atom_site_type_symbol
_atom_site_label
_atom_site_fract_x
_atom_site_fract_y
_atom_site_fract_z
Si Si1 0.922561 0.544372 0.121042
Si Si2 0.882787 0.018615 0.541260
Si Si3 0.597897 0.767961 0.098978
Si Si4 0.789899 0.122941 0.115440
Si Si5 0.185950 0.827477 0.210318
Si Si6 0.737868 0.941538 0.733163
Si Si7 0.505747 0.252853 0.485617
O O1 0.885197 0.258400 0.319763
O O2 0.029160 0.669980 0.177908
O O3 0.065576 0.654844 0.026989
O O4 0.748452 0.662584 0.941523
O O5 0.809128 0.030006 0.604584
O O6 0.717310 0.794051 0.573078
O O7 0.085649 0.973606 0.686274
O O8 0.584094 0.481679 0.297555
O O9 0.697370 0.912600 0.139096
O O10 0.384068 0.794889 0.978741
O O11 0.713954 0.910385 0.969639
O O12 0.121903 0.884722 0.243595
O O13 0.357857 0.702411 0.392220
O O14 0.546245 0.006928 0.628379
#
# Coordination Sequence:
#
# PCOD9101392 Si02
#       7
#     2   2   2   2   2   2   2
#     4  10  20  38  59  83 115 146 187 235 274 332
#     4  11  22  38  57  83 119 151 181 230 281 334
#     4  10  20  42  62  78 116 143 190 245 267 327
#     4   9  22  40  61  85 104 152 193 227 287 325
#     4   9  21  36  57  88 107 146 192 225 282 325
#     4   9  22  36  57  86 112 150 193 217 284 335
#     4  10  23  36  56  88 113 150 188 222 285 336
#
# _framework density 24.586179999999999
#
# number of rings (size 3 to 8) (size 9 to 14) (size 15 to 20)
#    0.857    1.429    0.000    1.714    2.000    5.143 
#    0.000    5.714    0.000    0.000    0.000    0.000 
#    0.000    0.000    0.000    0.000    0.000    0.000 
#
# Total GULP energy -78263.615888 kJ/mol
# GULP energy per Si atom -5590.258278 kJ/mol
# Density = 2.453022 g / cm^3
# Si number density = 24.586180 Si / 1000 Ang^3
#
#
#
# Elastic Constant Matrix: (Units=GPa)
#
#
# Indices 1 2 3 4 5 6 
#
# 1 54.9669 24.3267 31.0249 31.2219 2.3819 -8.3736
# 2 24.3267 45.6787 43.5792 11.9978 10.8344 3.7652
# 3 31.0249 43.5792 160.2597 -5.7713 10.5999 12.8110
# 4 31.2219 11.9978 -5.7713 9.5322 17.3325 0.4011
# 5 2.3819 10.8344 10.5999 17.3325 30.6808 10.4841
# 6 -8.3736 3.7652 12.8110 0.4011 10.4841 29.6576
#
#
#
# Elastic Compliance Matrix: (Units=1/GPa)
#
#
# Indices 1 2 3 4 5 6 
#
# 1 0.005125 -0.010709 0.003646 0.030993 -0.017814 0.007110
# 2 -0.010709 0.037498 -0.007574 -0.002729 -0.007646 -0.001772
# 3 0.003646 -0.007574 0.007124 -0.008882 0.006004 -0.003088
# 4 0.030993 -0.002729 -0.008882 -0.044266 0.025033 0.004683
# 5 -0.017814 -0.007646 0.006004 0.025033 0.025989 -0.016178
# 6 0.007110 -0.001772 -0.003088 0.004683 -0.016178 0.042940
#
#
# Mechanical properties :
#
#
# Convention : Reuss Voigt Hill
#
# Bulk Modulus (GPa) = 48.84817 50.97408 49.91112
# Shear Modulus (GPa) = 45.24507 24.77241 35.00874
#
# Velocity S-wave (km/s) = 4.29448 3.17768 3.77758
# Velocity P-wave (km/s) = 6.67094 5.85161 6.27466
#
# Compressibility (1/GPa) = 0.02047160
#
# Stress axis : x y z
#
# Youngs Moduli (GPa) = 195.12555 26.66815 140.37759
#
# Poissons Ratio (x) = 0.28559 -0.51182
# Poissons Ratio (y) = 2.08961 1.06328
# Poissons Ratio (z) = -0.71143 0.20200
#
# Static dielectric constant tensor:
#      x y z
#    x 1.962240 0.008930 0.059120 
#    y 0.008930 1.965270 0.058000 
#    z 0.059120 0.058000 1.945750 
# 
# From -- ./inp_files/67927.got.cif
#   From: 2010.05.17/outbox.cif.g08.bks.cpg/sg2_34_cif.got.tgz:67927.got - 2010.06.03 11:33:40.
