data_PCOD9101906
_publ_section_title
;
Structure prediction by ZEFSAII (Michael W. Deem and Ramdas Pophale) SiO2 
 PCOD9101906
Probable space group: P -1
;
_chemical_formula_sum "Si O2"
_cell_formula_units_Z 16
_cell_length_a 9.103561
_cell_length_b 12.105029
_cell_length_c 15.399712
_cell_angle_alpha 138.504031
_cell_angle_beta 119.420802
_cell_angle_gamma 89.194431
_cell_volume 773.679147
_symmetry_space_group_name_H-M "P -1"
_symmetry_group_IT_number 2
_symmetry_cell_setting 'triclinic'
loop_
_space_group_symop_operation_xyz
x,y,z
-x,-y,-z
loop_
_atom_site_type_symbol
_atom_site_label
_atom_site_fract_x
_atom_site_fract_y
_atom_site_fract_z
Si Si1 0.751427 0.217870 0.881148
Si Si2 0.973346 0.164710 0.755669
Si Si3 0.023475 0.917185 0.047539
Si Si4 0.684221 0.468567 0.620388
Si Si5 0.781555 0.658902 0.576539
Si Si6 0.082296 0.679080 0.334847
Si Si7 0.551941 0.419946 0.883235
Si Si8 0.831174 0.710470 0.430231
O O1 0.565456 0.233961 0.808614
O O2 0.834134 0.172132 0.792795
O O3 0.771845 0.080902 0.877909
O O4 0.924791 0.453292 0.108246
O O5 0.886167 0.162673 0.634620
O O6 0.213128 0.379869 0.961391
O O7 0.959604 0.958350 0.631152
O O8 0.818870 0.673285 0.843203
O O9 0.044626 0.087643 0.216854
O O10 0.000000 0.000000 0.000000
O O11 0.784343 0.545485 0.597065
O O12 0.444604 0.385208 0.503860
O O13 0.712168 0.299798 0.564370
O O14 0.790675 0.597792 0.445166
O O15 0.962539 0.677208 0.382488
O O16 0.383382 0.360624 0.724101
O O17 0.500000 0.500000 0.000000
#
# Coordination Sequence:
#
# PCOD9101906 Si02
#       8
#     2   2   2   2   2   2   2   2
#     4  10  20  38  61  87 114 158 198 236 290 351
#     4  11  23  40  58  86 123 150 201 238 284 354
#     4   9  18  37  59  83 114 146 190 245 289 332
#     4   9  21  39  61  82 116 153 193 251 286 341
#     4  10  21  37  60  91 110 147 207 241 289 347
#     4  10  21  38  58  84 121 159 186 239 304 343
#     4  11  23  39  58  84 124 159 188 237 297 347
#     4  12  24  37  59  90 120 156 192 241 298 350
#
# _framework density 20.680408
#
# number of rings (size 3 to 8) (size 9 to 14) (size 15 to 20)
#    0.000    1.750    3.750    1.875    5.250    2.000 
#    0.000    0.000    0.000    0.000    0.000   12.250 
#    0.000    0.000    0.000    0.000    0.000    0.000 
#
# Total GULP energy -89140.615403 kJ/mol
# GULP energy per Si atom -5571.288463 kJ/mol
# Density = 2.063334 g / cm^3
# Si number density = 20.680408 Si / 1000 Ang^3
#
#
#
# Elastic Constant Matrix: (Units=GPa)
#
#
# Indices 1 2 3 4 5 6 
#
# 1 76.9867 30.5517 17.4780 -3.8259 -42.2662 -3.7948
# 2 30.5517 66.2632 17.7812 -8.3033 -26.9072 13.1078
# 3 17.4780 17.7812 71.3678 -8.5338 -19.5199 5.1936
# 4 -3.8259 -8.3033 -8.5338 34.5222 -7.9172 -7.8219
# 5 -42.2662 -26.9072 -19.5199 -7.9172 69.6565 -5.9286
# 6 -3.7948 13.1078 5.1936 -7.8219 -5.9286 23.5503
#
#
#
# Elastic Compliance Matrix: (Units=1/GPa)
#
#
# Indices 1 2 3 4 5 6 
#
# 1 0.024905 -0.007528 -0.000536 0.007288 0.014099 0.014291
# 2 -0.007528 0.022948 -0.001923 0.002150 0.002972 -0.012099
# 3 -0.000536 -0.001923 0.016241 0.004369 0.003967 -0.000148
# 4 0.007288 0.002150 0.004369 0.037385 0.011956 0.014441
# 5 0.014099 0.002972 0.003967 0.011956 0.027433 0.010620
# 6 0.014291 -0.012099 -0.000148 0.014441 0.010620 0.059002
#
#
# Mechanical properties :
#
#
# Convention : Reuss Voigt Hill
#
# Bulk Modulus (GPa) = 22.66592 38.47105 30.56848
# Shear Modulus (GPa) = 22.46229 35.46628 28.96428
#
# Velocity S-wave (km/s) = 3.29927 4.14571 3.74647
# Velocity P-wave (km/s) = 5.04950 6.44662 5.79036
#
# Compressibility (1/GPa) = 0.04411910
#
# Stress axis : x y z
#
# Youngs Moduli (GPa) = 40.15222 43.57679 61.57435
#
# Poissons Ratio (x) = 0.32804 0.03301
# Poissons Ratio (y) = 0.30226 0.11843
# Poissons Ratio (z) = 0.02153 0.08381
#
# Static dielectric constant tensor:
#      x y z
#    x 1.717550 0.011800 0.026300 
#    y 0.011800 1.876680 -0.005560 
#    z 0.026300 -0.005560 1.795460 
# 
# From -- ./inp_files/214532.got.cif
#   From: 2010.05.17/outbox.cif.g08.bks.cpg/sg2_108_cif.got.tgz:214532.got - 2010.06.03 11:33:40.
