data_PCOD9101345
_publ_section_title
;
Structure prediction by ZEFSAII (Michael W. Deem and Ramdas Pophale) SiO2 
 PCOD9101345
Probable space group: P -1
;
_chemical_formula_sum "Si O2"
_cell_formula_units_Z 16
_cell_length_a 16.750228
_cell_length_b 7.624321
_cell_length_c 8.744853
_cell_angle_alpha 122.407358
_cell_angle_beta 77.966434
_cell_angle_gamma 127.023079
_cell_volume 741.891178
_symmetry_space_group_name_H-M "P -1"
_symmetry_group_IT_number 2
_symmetry_cell_setting 'triclinic'
loop_
_space_group_symop_operation_xyz
x,y,z
-x,-y,-z
loop_
_atom_site_type_symbol
_atom_site_label
_atom_site_fract_x
_atom_site_fract_y
_atom_site_fract_z
Si Si1 0.810844 0.540689 0.497803
Si Si2 0.177912 0.935252 0.793598
Si Si3 0.940517 0.013648 0.889187
Si Si4 0.135613 0.261926 0.767616
Si Si5 0.397134 0.209679 0.775239
Si Si6 0.533118 0.778684 0.932605
Si Si7 0.381353 0.823165 0.425071
Si Si8 0.660452 0.263220 0.947501
O O1 0.874068 0.739800 0.702111
O O2 0.840802 0.694872 0.400125
O O3 0.693439 0.395022 0.525031
O O4 0.830020 0.321617 0.362215
O O5 0.132402 0.022120 0.724429
O O6 0.297773 0.175947 0.860827
O O7 0.127692 0.915462 0.967439
O O8 0.029425 0.210854 0.828666
O O9 0.000000 0.000000 0.000000
O O10 0.228643 0.518725 0.934996
O O11 0.497266 0.487809 0.823088
O O12 0.358885 0.033159 0.559169
O O13 0.426318 0.109214 0.860842
O O14 0.619117 0.971203 0.869846
O O15 0.425807 0.731839 0.928018
O O16 0.353002 0.717871 0.217274
O O17 0.500000 0.000000 0.500000
#
# Coordination Sequence:
#
# PCOD9101345 Si02
#       8
#     2   2   2   2   2   2   2   2
#     4  11  25  43  68  97 129 172 217 263 325 385
#     4  10  22  42  67  94 133 167 213 267 322 379
#     4  10  23  44  70  97 128 170 216 270 324 380
#     4  11  23  43  67  94 130 168 217 268 320 382
#     4  10  20  38  58  90 125 164 209 257 314 385
#     4  10  21  34  62  84 119 168 204 252 317 376
#     4  11  22  36  59  91 124 165 206 259 314 378
#     4  11  21  38  61  87 123 165 208 256 316 374
#
# _framework density 21.566503999999998
#
# number of rings (size 3 to 8) (size 9 to 14) (size 15 to 20)
#    0.000    1.500    2.500    3.375    1.750    3.000 
#    0.000    8.750    0.000    0.000    0.000    0.000 
#    0.000    0.000    0.000    0.000    0.000    0.000 
#
# Total GULP energy -89201.977635 kJ/mol
# GULP energy per Si atom -5575.123602 kJ/mol
# Density = 2.151742 g / cm^3
# Si number density = 21.566504 Si / 1000 Ang^3
#
#
#
# Elastic Constant Matrix: (Units=GPa)
#
#
# Indices 1 2 3 4 5 6 
#
# 1 62.6338 33.1815 27.8676 -1.8177 -6.5361 19.6582
# 2 33.1815 107.6479 36.4379 -13.1549 -5.1443 17.5398
# 3 27.8676 36.4379 116.6016 3.3970 2.4046 14.0538
# 4 -1.8177 -13.1549 3.3970 36.0756 7.1519 6.3607
# 5 -6.5361 -5.1443 2.4046 7.1519 21.8572 -3.5863
# 6 19.6582 17.5398 14.0538 6.3607 -3.5863 39.9067
#
#
#
# Elastic Compliance Matrix: (Units=1/GPa)
#
#
# Indices 1 2 3 4 5 6 
#
# 1 0.022638 -0.004372 -0.003220 0.000270 0.004741 -0.007713
# 2 -0.004372 0.012729 -0.002675 0.005331 -0.000316 -0.003377
# 3 -0.003220 -0.002675 0.010379 -0.001487 -0.002391 -0.000871
# 4 0.000270 0.005331 -0.001487 0.033410 -0.010786 -0.008247
# 5 0.004741 -0.000316 -0.002391 -0.010786 0.051710 0.005011
# 6 -0.007713 -0.003377 -0.000871 -0.008247 0.005011 0.032414
#
#
# Mechanical properties :
#
#
# Convention : Reuss Voigt Hill
#
# Bulk Modulus (GPa) = 39.66197 53.53968 46.60083
# Shear Modulus (GPa) = 26.01219 32.19430 29.10324
#
# Velocity S-wave (km/s) = 3.47672 3.86786 3.67749
# Velocity P-wave (km/s) = 5.87769 6.69525 6.29975
#
# Compressibility (1/GPa) = 0.02521307
#
# Stress axis : x y z
#
# Youngs Moduli (GPa) = 44.17356 78.55967 96.34517
#
# Poissons Ratio (x) = 0.34343 0.31026
# Poissons Ratio (y) = 0.19311 0.25770
# Poissons Ratio (z) = 0.14225 0.21013
#
# Static dielectric constant tensor:
#      x y z
#    x 1.898670 -0.029000 -0.073790 
#    y -0.029000 1.867650 0.016490 
#    z -0.073790 0.016490 1.809060 
# 
# From -- ./inp_files/327819.got.cif
#   From: 2010.05.17/outbox.cif.g08.bks.cpg/sg2_164_cif.got.tgz:327819.got - 2010.06.03 11:33:40.
