data_PCOD9101576
_publ_section_title
;
Structure prediction by ZEFSAII (Michael W. Deem and Ramdas Pophale) SiO2 
 PCOD9101576
Probable space group: P -1
;
_chemical_formula_sum "Si O2"
_cell_formula_units_Z 16
_cell_length_a 8.457955
_cell_length_b 9.081375
_cell_length_c 20.419082
_cell_angle_alpha 124.364011
_cell_angle_beta 45.366707
_cell_angle_gamma 132.206790
_cell_volume 813.900207
_symmetry_space_group_name_H-M "P -1"
_symmetry_group_IT_number 2
_symmetry_cell_setting 'triclinic'
loop_
_space_group_symop_operation_xyz
x,y,z
-x,-y,-z
loop_
_atom_site_type_symbol
_atom_site_label
_atom_site_fract_x
_atom_site_fract_y
_atom_site_fract_z
Si Si1 0.770440 0.604341 0.803877
Si Si2 0.395208 0.761897 0.976410
Si Si3 0.419367 0.526271 0.438859
Si Si4 0.118434 0.222890 0.550418
Si Si5 0.893384 0.521229 0.134665
Si Si6 0.714888 0.273900 0.253933
Si Si7 0.531034 0.361632 0.692789
Si Si8 0.629339 0.177169 0.735931
O O1 0.635759 0.723784 0.903035
O O2 0.710212 0.561597 0.733268
O O3 0.629917 0.374582 0.815440
O O4 0.063923 0.697048 0.753943
O O5 0.246320 0.633475 0.923193
O O6 0.182920 0.664656 0.069457
O O7 0.500000 0.000000 0.000000
O O8 0.174941 0.387004 0.517648
O O9 0.618012 0.705351 0.471355
O O10 0.548349 0.380131 0.351757
O O11 0.390992 0.609082 0.397964
O O12 0.917455 0.224843 0.660121
O O13 0.000000 0.000000 0.500000
O O14 0.851010 0.385638 0.176390
O O15 0.743142 0.650025 0.223125
O O16 0.537236 0.036459 0.237571
O O17 0.546506 0.186133 0.686492
#
# Coordination Sequence:
#
# PCOD9101576 Si02
#       8
#     2   2   2   2   2   2   2   2
#     4   9  21  38  57  83 117 147 189 239 279 340
#     4  10  21  39  60  84 116 152 186 238 291 332
#     4  10  20  38  60  83 114 149 192 238 284 335
#     4  11  21  37  59  86 115 149 190 238 286 337
#     4   9  21  38  58  86 116 144 196 236 277 345
#     4  11  20  37  62  84 114 156 187 235 286 338
#     4   8  19  40  56  82 115 150 186 238 279 339
#     4  10  21  38  56  84 118 149 190 232 286 336
#
# _framework density 19.658429000000002
#
# number of rings (size 3 to 8) (size 9 to 14) (size 15 to 20)
#    0.750    1.500    2.500    0.000    1.750    2.000 
#    2.250    1.875    0.000    0.000    0.000    0.000 
#    0.000    0.000    0.000    0.000    0.000    0.000 
#
# Total GULP energy -89169.711655 kJ/mol
# GULP energy per Si atom -5573.106978 kJ/mol
# Density = 1.961369 g / cm^3
# Si number density = 19.658429 Si / 1000 Ang^3
#
#
#
# Elastic Constant Matrix: (Units=GPa)
#
#
# Indices 1 2 3 4 5 6 
#
# 1 33.6453 -1.1620 -1.5132 -12.4310 -2.6859 -2.5595
# 2 -1.1620 114.9011 19.7731 -9.3786 -8.9473 -1.0686
# 3 -1.5132 19.7731 37.8718 -18.1571 4.1739 -1.9238
# 4 -12.4310 -9.3786 -18.1571 30.3034 -10.8067 -0.6502
# 5 -2.6859 -8.9473 4.1739 -10.8067 22.2249 0.1681
# 6 -2.5595 -1.0686 -1.9238 -0.6502 0.1681 15.5194
#
#
#
# Elastic Compliance Matrix: (Units=1/GPa)
#
#
# Indices 1 2 3 4 5 6 
#
# 1 0.047664 0.002520 0.017404 0.038989 0.022376 0.011583
# 2 0.002520 0.010357 -0.003897 0.004567 0.007420 0.000757
# 3 0.017404 -0.003897 0.046565 0.037613 0.010004 0.009842
# 4 0.038989 0.004567 0.037613 0.088356 0.042338 0.014650
# 5 0.022376 0.007420 0.010004 0.042338 0.069345 0.006464
# 6 0.011583 0.000757 0.009842 0.014650 0.006464 0.068162
#
#
# Mechanical properties :
#
#
# Convention : Reuss Voigt Hill
#
# Bulk Modulus (GPa) = 7.31855 24.51269 15.91562
# Shear Modulus (GPa) = 14.53735 24.89755 19.71745
#
# Velocity S-wave (km/s) = 2.72232 3.56266 3.17046
# Velocity P-wave (km/s) = 3.68949 5.42400 4.63854
#
# Compressibility (1/GPa) = 0.13663914
#
# Stress axis : x y z
#
# Youngs Moduli (GPa) = 20.98012 96.55506 21.47537
#
# Poissons Ratio (x) = -0.24328 -0.37375
# Poissons Ratio (y) = -0.05286 0.08368
# Poissons Ratio (z) = -0.36513 0.37624
#
# Static dielectric constant tensor:
#      x y z
#    x 1.725580 0.003280 0.009190 
#    y 0.003280 1.666530 0.010730 
#    z 0.009190 0.010730 1.711510 
# 
# From -- ./inp_files/115982.got.cif
#   From: 2010.05.17/outbox.cif.g08.bks.cpg/sg2_58_cif.got.tgz:115982.got - 2010.06.03 11:33:40.
