data_PCOD9101278
_publ_section_title
;
Structure prediction by ZEFSAII (Michael W. Deem and Ramdas Pophale) SiO2 
 PCOD9101278
Probable space group: P -1
;
_chemical_formula_sum "Si O2"
_cell_formula_units_Z 13
_cell_length_a 14.555565
_cell_length_b 13.015354
_cell_length_c 8.125956
_cell_angle_alpha 110.563904
_cell_angle_beta 144.352772
_cell_angle_gamma 42.237049
_cell_volume 463.816031
_symmetry_space_group_name_H-M "P -1"
_symmetry_group_IT_number 2
_symmetry_cell_setting 'triclinic'
loop_
_space_group_symop_operation_xyz
x,y,z
-x,-y,-z
loop_
_atom_site_type_symbol
_atom_site_label
_atom_site_fract_x
_atom_site_fract_y
_atom_site_fract_z
Si Si1 0.655566 0.253796 0.813232
Si Si2 0.569981 0.273552 0.319540
Si Si3 0.000000 0.500000 0.000000
Si Si4 0.935273 0.704600 0.720056
Si Si5 0.233044 0.647188 0.568875
Si Si6 0.188364 0.088673 0.625210
Si Si7 0.585025 0.068392 0.598056
O O1 0.682474 0.215616 0.637535
O O2 0.330250 0.485933 0.508859
O O3 0.674977 0.125436 0.857789
O O4 0.899252 0.193195 0.194155
O O5 0.735629 0.261899 0.438619
O O6 0.596782 0.137290 0.207010
O O7 0.250228 0.504215 0.996383
O O8 0.108774 0.370431 0.259285
O O9 0.292566 0.284159 0.211710
O O10 0.753509 0.840513 0.367769
O O11 0.869027 0.859124 0.801126
O O12 0.932920 0.807575 0.313909
O O13 0.500000 0.500000 0.000000
O O14 0.500000 0.000000 0.500000
#
# Coordination Sequence:
#
# PCOD9101278 Si02
#       7
#     2   2   1   2   2   2   2
#     4  11  21  37  61  93 122 159 205 256 300 359
#     4  12  21  36  61  91 126 164 201 249 303 359
#     4  10  20  38  58  84 120 154 202 258 312 330
#     4  11  20  36  60  88 122 152 209 245 307 353
#     4  10  22  37  56  90 134 162 194 241 313 373
#     4  11  23  38  58  95 131 162 195 247 308 373
#     4  10  22  37  57  89 116 155 204 263 294 354
#
# _framework density 28.028354
#
# number of rings (size 3 to 8) (size 9 to 14) (size 15 to 20)
#    0.000    1.231    6.154    1.385    0.000    0.000 
#    0.000    0.000    0.000    3.692    0.000   11.846 
#    0.000    0.000    0.000    0.000    0.000    0.000 
#
# Total GULP energy -72414.229590 kJ/mol
# GULP energy per Si atom -5570.325353 kJ/mol
# Density = 2.796456 g / cm^3
# Si number density = 28.028354 Si / 1000 Ang^3
#
#
#
# Elastic Constant Matrix: (Units=GPa)
#
#
# Indices 1 2 3 4 5 6 
#
# 1 163.4231 68.5938 4.7819 2.7604 -15.3983 30.2859
# 2 68.5938 208.6232 55.1445 -42.5912 5.6116 24.1358
# 3 4.7819 55.1445 94.5215 -33.7561 -23.6241 18.3889
# 4 2.7604 -42.5912 -33.7561 65.1828 2.7834 -8.6272
# 5 -15.3983 5.6116 -23.6241 2.7834 24.8104 -16.8495
# 6 30.2859 24.1358 18.3889 -8.6272 -16.8495 39.8524
#
#
#
# Elastic Compliance Matrix: (Units=1/GPa)
#
#
# Indices 1 2 3 4 5 6 
#
# 1 0.009315 -0.004509 0.004356 -0.001858 0.009211 -0.002865
# 2 -0.004509 0.009879 -0.007570 0.002713 -0.016147 -0.005302
# 3 0.004356 -0.007570 0.023431 0.006302 0.028713 0.003967
# 4 -0.001858 0.002713 0.006302 0.020686 0.003960 0.003013
# 5 0.009211 -0.016147 0.028713 0.003960 0.098254 0.031929
# 6 -0.002865 -0.005302 0.003967 0.003013 0.031929 0.042802
#
#
# Mechanical properties :
#
#
# Convention : Reuss Voigt Hill
#
# Bulk Modulus (GPa) = 36.79672 80.40092 58.59882
# Shear Modulus (GPa) = 21.84605 48.50562 35.17583
#
# Velocity S-wave (km/s) = 2.79485 4.16455 3.54645
# Velocity P-wave (km/s) = 4.85508 7.20226 6.14184
#
# Compressibility (1/GPa) = 0.02717633
#
# Stress axis : x y z
#
# Youngs Moduli (GPa) = 107.35739 101.22846 42.67827
#
# Poissons Ratio (x) = 0.45649 -0.18589
# Poissons Ratio (y) = 0.48413 0.32309
# Poissons Ratio (z) = -0.46761 0.76632
#
# Static dielectric constant tensor:
#      x y z
#    x 2.424670 -0.163510 0.061610 
#    y -0.163510 2.037150 -0.045780 
#    z 0.061610 -0.045780 2.343970 
# 
# From -- ./inp_files/309987.got.cif
#   From: 2010.05.17/outbox.cif.g08.bks.cpg/sg2_155_cif.got.tgz:309987.got - 2010.06.03 11:33:40.
