data_PCOD9101346
_publ_section_title
;
Structure prediction by ZEFSAII (Michael W. Deem and Ramdas Pophale) SiO2 
 PCOD9101346
Probable space group: P -1
;
_chemical_formula_sum "Si O2"
_cell_formula_units_Z 15
_cell_length_a 20.296755
_cell_length_b 16.292802
_cell_length_c 11.087150
_cell_angle_alpha 34.341206
_cell_angle_beta 32.879062
_cell_angle_gamma 19.903353
_cell_volume 664.586737
_symmetry_space_group_name_H-M "P -1"
_symmetry_group_IT_number 2
_symmetry_cell_setting 'triclinic'
loop_
_space_group_symop_operation_xyz
x,y,z
-x,-y,-z
loop_
_atom_site_type_symbol
_atom_site_label
_atom_site_fract_x
_atom_site_fract_y
_atom_site_fract_z
Si Si1 0.396050 0.330549 0.968070
Si Si2 0.050090 0.813043 0.808148
Si Si3 0.698500 0.975436 0.714567
Si Si4 0.531762 0.903130 0.312602
Si Si5 0.000000 0.500000 0.000000
Si Si6 0.325160 0.708680 0.316671
Si Si7 0.396792 0.461158 0.268102
Si Si8 0.993043 0.925126 0.226955
O O1 0.167837 0.560732 0.985647
O O2 0.464718 0.411070 0.833527
O O3 0.550943 0.174744 0.805552
O O4 0.442542 0.143127 0.202397
O O5 0.218133 0.734460 0.563243
O O6 0.994805 0.965911 0.820065
O O7 0.843739 0.006318 0.811655
O O8 0.571089 0.015540 0.759894
O O9 0.798241 0.015247 0.444105
O O10 0.873078 0.713532 0.830431
O O11 0.483029 0.805824 0.581812
O O12 0.775808 0.675264 0.194466
O O13 0.347081 0.565206 0.354156
O O14 0.500000 0.500000 0.000000
O O15 0.192624 0.634156 0.294770
O O16 0.000000 0.000000 0.000000
#
# Coordination Sequence:
#
# PCOD9101346 Si02
#       8
#     2   2   2   2   1   2   2   2
#     4  11  22  36  62  93 130 167 203 269 332 375
#     4  10  22  39  60  95 129 164 218 267 323 382
#     4  11  22  38  61  98 131 174 214 264 327 385
#     4  11  24  39  63  98 131 174 216 271 326 391
#     4  10  20  38  58  90 138 162 220 262 328 370
#     4  10  22  38  65  91 127 168 215 271 321 378
#     4  11  24  44  68  94 129 175 225 270 320 397
#     4  11  23  40  66  95 128 173 222 268 324 388
#
# _framework density 22.570416999999999
#
# number of rings (size 3 to 8) (size 9 to 14) (size 15 to 20)
#    0.000    1.333    2.667    3.600    3.733    4.267 
#    0.000    0.667    0.000    2.400    0.000    0.000 
#    0.000    0.000    0.000    0.000    0.000    0.000 
#
# Total GULP energy -83590.530708 kJ/mol
# GULP energy per Si atom -5572.702047 kJ/mol
# Density = 2.251905 g / cm^3
# Si number density = 22.570417 Si / 1000 Ang^3
#
#
#
# Elastic Constant Matrix: (Units=GPa)
#
#
# Indices 1 2 3 4 5 6 
#
# 1 48.0805 -0.1070 2.2892 -10.2712 12.1899 -6.7380
# 2 -0.1070 101.8817 12.0967 -34.7835 2.4963 -31.7971
# 3 2.2892 12.0967 112.9651 -20.6617 14.2241 0.7810
# 4 -10.2712 -34.7835 -20.6617 33.9331 -4.8600 10.3388
# 5 12.1899 2.4963 14.2241 -4.8600 30.3418 -0.1448
# 6 -6.7380 -31.7971 0.7810 10.3388 -0.1448 23.6510
#
#
#
# Elastic Compliance Matrix: (Units=1/GPa)
#
#
# Indices 1 2 3 4 5 6 
#
# 1 0.028304 0.008991 0.002155 0.013188 -0.010941 0.014249
# 2 0.008991 0.025458 0.001012 0.020589 -0.002751 0.027738
# 3 0.002155 0.001012 0.010808 0.008204 -0.004711 -0.001998
# 4 0.013188 0.020589 0.008204 0.057498 -0.001600 0.006022
# 5 -0.010941 -0.002751 -0.004711 -0.001600 0.039504 -0.005719
# 6 0.014249 0.027738 -0.001998 0.006022 -0.005719 0.081031
#
#
# Mechanical properties :
#
#
# Convention : Reuss Voigt Hill
#
# Bulk Modulus (GPa) = 11.25036 32.38723 21.81880
# Shear Modulus (GPa) = 20.16815 34.16174 27.16494
#
# Velocity S-wave (km/s) = 2.99250 3.89467 3.47301
# Velocity P-wave (km/s) = 4.11527 5.88262 5.07645
#
# Compressibility (1/GPa) = 0.08888601
#
# Stress axis : x y z
#
# Youngs Moduli (GPa) = 35.33109 39.28023 92.52514
#
# Poissons Ratio (x) = -0.35318 -0.19937
# Poissons Ratio (y) = -0.31768 -0.09364
# Poissons Ratio (z) = -0.07613 -0.03975
#
# Static dielectric constant tensor:
#      x y z
#    x 1.862930 -0.011820 -0.024770 
#    y -0.011820 1.877530 -0.038390 
#    z -0.024770 -0.038390 1.907800 
# 
# From -- ./inp_files/390469.got.cif
#   From: 2010.05.17/outbox.cif.g08.bks.cpg/sg2_196_cif.got.tgz:390469.got - 2010.06.03 11:33:40.
