data_PCOD9101770
_publ_section_title
;
Structure prediction by ZEFSAII (Michael W. Deem and Ramdas Pophale) SiO2 
 PCOD9101770
Probable space group: P -1
;
_chemical_formula_sum "Si O2"
_cell_formula_units_Z 16
_cell_length_a 12.406086
_cell_length_b 9.133781
_cell_length_c 7.879133
_cell_angle_alpha 103.585417
_cell_angle_beta 101.947835
_cell_angle_gamma 47.477019
_cell_volume 638.150224
_symmetry_space_group_name_H-M "P -1"
_symmetry_group_IT_number 2
_symmetry_cell_setting 'triclinic'
loop_
_space_group_symop_operation_xyz
x,y,z
-x,-y,-z
loop_
_atom_site_type_symbol
_atom_site_label
_atom_site_fract_x
_atom_site_fract_y
_atom_site_fract_z
Si Si1 0.468507 0.814425 0.343806
Si Si2 0.962348 0.532080 0.297208
Si Si3 0.647609 0.399071 0.845728
Si Si4 0.912620 0.062869 0.663106
Si Si5 0.263850 0.999467 0.600437
Si Si6 0.190601 0.909705 0.881983
Si Si7 0.242388 0.178527 0.116529
Si Si8 0.307934 0.343693 0.897048
O O1 0.453264 0.644845 0.271580
O O2 0.620968 0.723556 0.285341
O O3 0.421879 0.892561 0.543236
O O4 0.357966 0.011593 0.244053
O O5 0.847592 0.773191 0.311795
O O6 0.864497 0.489067 0.164240
O O7 0.000000 0.500000 0.500000
O O8 0.116452 0.397856 0.213730
O O9 0.783483 0.294984 0.730222
O O10 0.712694 0.265757 0.001233
O O11 0.609352 0.597814 0.956334
O O12 0.822590 0.991678 0.588421
O O13 0.039448 0.961001 0.812632
O O14 0.000000 0.000000 0.500000
O O15 0.270331 0.870814 0.717161
O O16 0.165165 0.097054 0.001740
O O17 0.319766 0.193932 0.990154
#
# Coordination Sequence:
#
# PCOD9101770 Si02
#       8
#     2   2   2   2   2   2   2   2
#     4  10  23  46  64  90 126 172 210 253 315 383
#     4  12  25  41  62  97 132 160 209 268 314 368
#     4  10  22  38  62  93 123 163 214 262 303 375
#     4   9  19  33  59  87 125 165 201 252 318 364
#     4  10  21  40  62  89 129 167 207 260 312 374
#     4  10  20  38  60  92 122 166 208 257 315 375
#     4  11  23  42  66  93 127 162 212 264 313 372
#     4  12  25  41  67  93 128 168 209 259 317 371
#
# _framework density 25.072469000000002
#
# number of rings (size 3 to 8) (size 9 to 14) (size 15 to 20)
#    0.000    1.500    2.500    2.250    5.250    0.500 
#    0.000    0.625    0.000    0.000    0.000    0.000 
#    0.000    0.000    0.000    0.000    0.000    0.000 
#
# Total GULP energy -89298.352988 kJ/mol
# GULP energy per Si atom -5581.147062 kJ/mol
# Density = 2.501540 g / cm^3
# Si number density = 25.072469 Si / 1000 Ang^3
#
#
#
# Elastic Constant Matrix: (Units=GPa)
#
#
# Indices 1 2 3 4 5 6 
#
# 1 68.3323 17.8721 5.0891 1.6829 -7.5669 5.6057
# 2 17.8721 38.2993 5.3151 15.9510 -7.7885 7.2124
# 3 5.0891 5.3151 70.8537 -4.4447 -13.4368 3.1148
# 4 1.6829 15.9510 -4.4447 32.1494 4.4952 -0.0672
# 5 -7.5669 -7.7885 -13.4368 4.4952 51.2499 12.3807
# 6 5.6057 7.2124 3.1148 -0.0672 12.3807 32.7192
#
#
#
# Elastic Compliance Matrix: (Units=1/GPa)
#
#
# Indices 1 2 3 4 5 6 
#
# 1 0.017123 -0.008839 -0.000064 0.003306 0.001225 -0.001436
# 2 -0.008839 0.044400 -0.001753 -0.023217 0.009893 -0.011897
# 3 -0.000064 -0.001753 0.015305 0.002402 0.004161 -0.002629
# 4 0.003306 -0.023217 0.002402 0.043926 -0.008067 0.007465
# 5 0.001225 0.009893 0.004161 -0.008067 0.026054 -0.012662
# 6 -0.001436 -0.011897 -0.002629 0.007465 -0.012662 0.038489
#
#
# Mechanical properties :
#
#
# Convention : Reuss Voigt Hill
#
# Bulk Modulus (GPa) = 18.01273 26.00419 22.00846
# Shear Modulus (GPa) = 22.21100 33.17096 27.69098
#
# Velocity S-wave (km/s) = 2.97959 3.64126 3.32691
# Velocity P-wave (km/s) = 4.36316 5.29835 4.85333
#
# Compressibility (1/GPa) = 0.05551631
#
# Stress axis : x y z
#
# Youngs Moduli (GPa) = 58.40126 22.52267 65.33764
#
# Poissons Ratio (x) = 0.19907 0.00418
# Poissons Ratio (y) = 0.51619 0.11454
# Poissons Ratio (z) = 0.00374 0.03948
#
# Static dielectric constant tensor:
#      x y z
#    x 2.059990 0.016010 0.029990 
#    y 0.016010 2.019470 0.059220 
#    z 0.029990 0.059220 2.036870 
# 
# From -- ./inp_files/244567.got.cif
#   From: 2010.05.17/outbox.cif.g08.bks.cpg/sg2_123_cif.got.tgz:244567.got - 2010.06.03 11:33:40.
