data_PCOD9101503
_publ_section_title
;
Structure prediction by ZEFSAII (Michael W. Deem and Ramdas Pophale) SiO2 
 PCOD9101503
Probable space group: P -1
;
_chemical_formula_sum "Si O2"
_cell_formula_units_Z 14
_cell_length_a 21.572554
_cell_length_b 9.504089
_cell_length_c 13.779263
_cell_angle_alpha 146.794172
_cell_angle_beta 157.344046
_cell_angle_gamma 36.884806
_cell_volume 590.806950
_symmetry_space_group_name_H-M "P -1"
_symmetry_group_IT_number 2
_symmetry_cell_setting 'triclinic'
loop_
_space_group_symop_operation_xyz
x,y,z
-x,-y,-z
loop_
_atom_site_type_symbol
_atom_site_label
_atom_site_fract_x
_atom_site_fract_y
_atom_site_fract_z
Si Si1 0.632209 0.283402 0.278515
Si Si2 0.672845 0.794044 0.558101
Si Si3 0.272899 0.253518 0.821648
Si Si4 0.649624 0.119375 0.985588
Si Si5 0.685321 0.556845 0.793120
Si Si6 0.173878 0.765839 0.875319
Si Si7 0.986117 0.144349 0.960517
O O1 0.661111 0.580049 0.500555
O O2 0.453741 0.256420 0.042742
O O3 0.641499 0.236159 0.148908
O O4 0.742556 0.046863 0.352989
O O5 0.525177 0.809035 0.277978
O O6 0.684253 0.082925 0.783112
O O7 0.852684 0.711858 0.726180
O O8 0.261038 0.380263 0.984404
O O9 0.178229 0.470694 0.741646
O O10 0.788204 0.209458 0.168772
O O11 0.685925 0.812562 0.877777
O O12 0.500000 0.500000 0.500000
O O13 0.815153 0.322210 0.809103
O O14 0.022924 0.940208 0.807925
O O15 0.000000 0.000000 0.000000
#
# Coordination Sequence:
#
# PCOD9101503 Si02
#       7
#     2   2   2   2   2   2   2
#     4  10  22  36  61  92 131 160 210 241 304 359
#     4  10  21  36  63  92 122 162 202 254 299 363
#     4  10  20  38  59  91 123 170 195 253 297 371
#     4  11  21  36  60  96 122 162 202 255 293 368
#     4  11  22  37  63  92 120 152 211 258 309 355
#     4  10  21  35  67  84 127 157 212 244 309 353
#     4  10  21  38  61  91 122 160 201 262 306 361
#
# _framework density 23.696403
#
# number of rings (size 3 to 8) (size 9 to 14) (size 15 to 20)
#    0.857    0.857    2.857    2.571    2.000    0.571 
#    0.000    2.857    0.000    6.857    0.000    0.000 
#    0.000    0.000    0.000    0.000    0.000    0.000 
#
# Total GULP energy -78179.449768 kJ/mol
# GULP energy per Si atom -5584.246412 kJ/mol
# Density = 2.364247 g / cm^3
# Si number density = 23.696403 Si / 1000 Ang^3
#
#
#
# Elastic Constant Matrix: (Units=GPa)
#
#
# Indices 1 2 3 4 5 6 
#
# 1 118.6500 15.9477 36.9334 23.3132 28.0246 -4.6501
# 2 15.9477 122.4573 58.7625 41.5295 63.0696 2.5356
# 3 36.9334 58.7625 60.5986 1.1443 12.8767 8.4744
# 4 23.3132 41.5295 1.1443 8.5059 -21.5283 19.2857
# 5 28.0246 63.0696 12.8767 -21.5283 12.2525 7.6477
# 6 -4.6501 2.5356 8.4744 19.2857 7.6477 51.1694
#
#
#
# Elastic Compliance Matrix: (Units=1/GPa)
#
#
# Indices 1 2 3 4 5 6 
#
# 1 0.008188 -0.002731 -0.003261 0.003023 0.004295 -0.000362
# 2 -0.002731 0.004436 -0.003362 0.008995 0.005307 -0.004095
# 3 -0.003261 -0.003362 0.024287 -0.006054 -0.011283 -0.000184
# 4 0.003023 0.008995 -0.006054 0.013904 -0.021697 -0.001166
# 5 0.004295 0.005307 -0.011283 -0.021697 0.013079 0.008219
# 6 -0.000362 -0.004095 -0.000184 -0.001166 0.008219 0.018954
#
#
# Mechanical properties :
#
#
# Convention : Reuss Voigt Hill
#
# Bulk Modulus (GPa) = 54.93681 58.33257 56.63469
# Shear Modulus (GPa) = 46.45832 27.05638 36.75735
#
# Velocity S-wave (km/s) = 4.43263 3.38271 3.94277
# Velocity P-wave (km/s) = 7.03076 6.31878 6.68426
#
# Compressibility (1/GPa) = 0.01820273
#
# Stress axis : x y z
#
# Youngs Moduli (GPa) = 122.13337 225.42967 41.17412
#
# Poissons Ratio (x) = 0.61568 0.13427
# Poissons Ratio (y) = 0.33356 0.13842
# Poissons Ratio (z) = 0.39828 0.75787
#
# Static dielectric constant tensor:
#      x y z
#    x 1.819180 -0.036100 -0.210430 
#    y -0.036100 1.931370 -0.147470 
#    z -0.210430 -0.147470 3.073300 
# 
# From -- ./inp_files/503325.got.cif
#   From: 2010.05.17/outbox.cif.g08.bks.cpg/sg2_252_cif.got.tgz:503325.got - 2010.06.03 11:33:40.
