data_PCOD9101299
_publ_section_title
;
Structure prediction by ZEFSAII (Michael W. Deem and Ramdas Pophale) SiO2 
 PCOD9101299
Probable space group: P -1
;
_chemical_formula_sum "Si O2"
_cell_formula_units_Z 16
_cell_length_a 9.112071
_cell_length_b 12.625093
_cell_length_c 21.002924
_cell_angle_alpha 151.134293
_cell_angle_beta 143.153838
_cell_angle_gamma 34.589793
_cell_volume 633.859849
_symmetry_space_group_name_H-M "P -1"
_symmetry_group_IT_number 2
_symmetry_cell_setting 'triclinic'
loop_
_space_group_symop_operation_xyz
x,y,z
-x,-y,-z
loop_
_atom_site_type_symbol
_atom_site_label
_atom_site_fract_x
_atom_site_fract_y
_atom_site_fract_z
Si Si1 0.451964 0.307204 0.071386
Si Si2 0.102112 0.511554 0.649330
Si Si3 0.900651 0.326975 0.755672
Si Si4 0.429212 0.318742 0.921248
Si Si5 0.640148 0.749906 0.698991
Si Si6 0.684550 0.125981 0.473409
Si Si7 0.232630 0.161086 0.404275
Si Si8 0.737432 0.077009 0.234420
O O1 0.718705 0.339306 0.200398
O O2 0.232240 0.474576 0.132583
O O3 0.399262 0.390823 0.023412
O O4 0.416508 0.058614 0.927519
O O5 0.263852 0.254984 0.535198
O O6 0.932633 0.548399 0.674722
O O7 0.874796 0.633524 0.579994
O O8 0.678510 0.300501 0.621208
O O9 0.133979 0.359899 0.815529
O O10 0.077309 0.086256 0.729826
O O11 0.624139 0.027658 0.836733
O O12 0.500000 0.500000 0.000000
O O13 0.445940 0.762355 0.579972
O O14 0.507087 0.725369 0.705855
O O15 0.515084 0.989823 0.377210
O O16 0.000000 0.000000 0.500000
O O17 0.971313 0.102808 0.288697
#
# Coordination Sequence:
#
# PCOD9101299 Si02
#       8
#     2   2   2   2   2   2   2   2
#     4  10  21  40  62  83 125 163 193 244 300 362
#     4  10  21  41  59  83 119 167 203 237 296 357
#     4  10  20  38  58  86 121 155 191 254 307 353
#     4  10  21  38  60  92 121 151 197 250 304 352
#     4   9  21  38  62  82 127 157 190 258 295 345
#     4  11  18  38  60  85 116 154 195 248 309 349
#     4  10  23  38  62  86 119 159 202 252 293 357
#     4  10  21  38  58  91 118 152 200 251 303 351
#
# _framework density 25.242173000000001
#
# number of rings (size 3 to 8) (size 9 to 14) (size 15 to 20)
#    0.000    2.250    3.750    1.500    0.000    7.500 
#    4.500    1.250    0.000    0.000    0.000    0.000 
#    0.000    0.000    0.000    0.000    0.000    0.000 
#
# Total GULP energy -89208.088170 kJ/mol
# GULP energy per Si atom -5575.505511 kJ/mol
# Density = 2.518472 g / cm^3
# Si number density = 25.242173 Si / 1000 Ang^3
#
#
#
# Elastic Constant Matrix: (Units=GPa)
#
#
# Indices 1 2 3 4 5 6 
#
# 1 143.8336 32.9380 20.3266 6.6571 12.2941 -43.8540
# 2 32.9380 49.3578 8.4127 -0.8530 -1.5151 -17.9378
# 3 20.3266 8.4127 122.7957 -15.2178 -8.0248 -8.8999
# 4 6.6571 -0.8530 -15.2178 30.1281 -9.9158 -4.1635
# 5 12.2941 -1.5151 -8.0248 -9.9158 44.7818 -1.6785
# 6 -43.8540 -17.9378 -8.8999 -4.1635 -1.6785 48.4100
#
#
#
# Elastic Compliance Matrix: (Units=1/GPa)
#
#
# Indices 1 2 3 4 5 6 
#
# 1 0.011050 -0.004524 -0.001693 -0.003705 -0.004027 0.007564
# 2 -0.004524 0.025530 0.000069 0.003587 0.003129 0.005791
# 3 -0.001693 0.000069 0.009534 0.006524 0.003655 0.000932
# 4 -0.003705 0.003587 0.006524 0.041680 0.011655 0.003161
# 5 -0.004027 0.003129 0.003655 0.011655 0.026782 0.000115
# 6 0.007564 0.005791 0.000932 0.003161 0.000115 0.030102
#
#
# Mechanical properties :
#
#
# Convention : Reuss Voigt Hill
#
# Bulk Modulus (GPa) = 29.57101 48.81575 39.19338
# Shear Modulus (GPa) = 29.71829 41.61796 35.66813
#
# Velocity S-wave (km/s) = 3.43494 4.06488 3.76312
# Velocity P-wave (km/s) = 5.24139 6.43521 5.86873
#
# Compressibility (1/GPa) = 0.03381690
#
# Stress axis : x y z
#
# Youngs Moduli (GPa) = 90.50125 39.16925 104.88721
#
# Poissons Ratio (x) = 0.17720 0.17760
# Poissons Ratio (y) = 0.40942 -0.00720
# Poissons Ratio (z) = 0.15324 -0.00269
#
# Static dielectric constant tensor:
#      x y z
#    x 2.105710 -0.065930 0.039190 
#    y -0.065930 2.102740 0.060950 
#    z 0.039190 0.060950 2.055950 
# 
# From -- ./inp_files/333481.got.cif
#   From: 2010.05.17/outbox.cif.g08.bks.cpg/sg2_167_cif.got.tgz:333481.got - 2010.06.03 11:33:40.
