data_PCOD9101709
_publ_section_title
;
Structure prediction by ZEFSAII (Michael W. Deem and Ramdas Pophale) SiO2 
 PCOD9101709
Probable space group: P -1
;
_chemical_formula_sum "Si O2"
_cell_formula_units_Z 16
_cell_length_a 14.507853
_cell_length_b 9.130436
_cell_length_c 14.413407
_cell_angle_alpha 39.421431
_cell_angle_beta 45.352970
_cell_angle_gamma 61.171551
_cell_volume 854.752362
_symmetry_space_group_name_H-M "P -1"
_symmetry_group_IT_number 2
_symmetry_cell_setting 'triclinic'
loop_
_space_group_symop_operation_xyz
x,y,z
-x,-y,-z
loop_
_atom_site_type_symbol
_atom_site_label
_atom_site_fract_x
_atom_site_fract_y
_atom_site_fract_z
Si Si1 0.597069 0.364955 0.778037
Si Si2 0.880340 0.945493 0.182126
Si Si3 0.383852 0.303948 0.569121
Si Si4 0.655036 0.253320 0.494466
Si Si5 0.117967 0.523441 0.475480
Si Si6 0.923058 0.988879 0.655400
Si Si7 0.912615 0.251747 0.192326
Si Si8 0.355591 0.079099 0.164905
O O1 0.580323 0.569832 0.616853
O O2 0.737454 0.438731 0.690424
O O3 0.612463 0.136705 0.816470
O O4 0.475145 0.284169 0.969438
O O5 0.737788 0.898370 0.257823
O O6 0.891337 0.699649 0.343869
O O7 0.889826 0.132960 0.166165
O O8 0.000000 0.000000 0.000000
O O9 0.513762 0.225612 0.558853
O O10 0.339084 0.507977 0.566419
O O11 0.774774 0.271485 0.329674
O O12 0.662910 0.037633 0.663918
O O13 0.000000 0.500000 0.500000
O O14 0.105392 0.751224 0.432011
O O15 0.779615 0.844807 0.813312
O O16 0.005943 0.900071 0.723512
O O17 0.000000 0.000000 0.500000
O O18 0.000000 0.500000 0.000000
#
# Coordination Sequence:
#
# PCOD9101709 Si02
#       8
#     2   2   2   2   2   2   2   2
#     4   8  17  31  55  84 112 147 198 244 286 350
#     4  11  24  42  62  89 127 163 205 256 307 367
#     4   9  20  38  61  84 120 165 198 249 303 360
#     4  10  20  38  60  89 121 157 207 248 300 371
#     4  10  20  39  62  89 117 160 203 246 305 364
#     4  11  22  38  63  88 123 159 196 258 307 357
#     4  12  26  39  61  93 122 163 210 255 310 369
#     4   9  17  33  56  85 115 148 195 246 294 345
#
# _framework density 18.718871
#
# number of rings (size 3 to 8) (size 9 to 14) (size 15 to 20)
#    0.000    2.000    2.500    1.500    3.500    1.500 
#    4.500    0.000    0.000    3.750    0.000    0.000 
#    0.000    0.000    0.000    0.000    0.000    0.000 
#
# Total GULP energy -89261.034896 kJ/mol
# GULP energy per Si atom -5578.814681 kJ/mol
# Density = 1.867627 g / cm^3
# Si number density = 18.718871 Si / 1000 Ang^3
#
#
#
# Elastic Constant Matrix: (Units=GPa)
#
#
# Indices 1 2 3 4 5 6 
#
# 1 119.2566 34.5620 50.8773 10.9295 -35.4957 6.8379
# 2 34.5620 70.5135 52.3476 13.3519 -11.1424 4.0056
# 3 50.8773 52.3476 147.2057 21.9107 -34.7689 13.6181
# 4 10.9295 13.3519 21.9107 30.5977 -1.8068 -0.0272
# 5 -35.4957 -11.1424 -34.7689 -1.8068 27.3902 1.8322
# 6 6.8379 4.0056 13.6181 -0.0272 1.8322 19.9232
#
#
#
# Elastic Compliance Matrix: (Units=1/GPa)
#
#
# Indices 1 2 3 4 5 6 
#
# 1 0.016561 -0.005476 0.003362 -0.004535 0.023810 -0.009077
# 2 -0.005476 0.021522 -0.007784 -0.002367 -0.008624 0.003663
# 3 0.003362 -0.007784 0.015811 -0.007863 0.021571 -0.012391
# 4 -0.004535 -0.002367 -0.007863 0.040102 -0.014767 0.008820
# 5 0.023810 -0.008624 0.021571 -0.014767 0.092250 -0.029686
# 6 -0.009077 0.003663 -0.012391 0.008820 -0.029686 0.063783
#
#
# Mechanical properties :
#
#
# Convention : Reuss Voigt Hill
#
# Bulk Modulus (GPa) = 29.32813 68.06107 48.69460
# Shear Modulus (GPa) = 17.78147 28.86148 23.32147
#
# Velocity S-wave (km/s) = 3.08542 3.93088 3.53353
# Velocity P-wave (km/s) = 5.32868 7.55255 6.53589
#
# Compressibility (1/GPa) = 0.03409696
#
# Stress axis : x y z
#
# Youngs Moduli (GPa) = 60.38292 46.46384 63.24789
#
# Poissons Ratio (x) = 0.25446 -0.21265
# Poissons Ratio (y) = 0.33069 0.49233
# Poissons Ratio (z) = -0.20302 0.36168
#
# Static dielectric constant tensor:
#      x y z
#    x 1.699170 0.035480 -0.025810 
#    y 0.035480 1.671900 0.003410 
#    z -0.025810 0.003410 1.636760 
# 
# From -- ./inp_files/329002.got.cif
#   From: 2010.05.17/outbox.cif.g08.bks.cpg/sg2_165_cif.got.tgz:329002.got - 2010.06.03 11:33:40.
