data_PCOD9101692
_publ_section_title
;
Structure prediction by ZEFSAII (Michael W. Deem and Ramdas Pophale) SiO2 
 PCOD9101692
Probable space group: P -1
;
_chemical_formula_sum "Si O2"
_cell_formula_units_Z 16
_cell_length_a 18.516547
_cell_length_b 7.254805
_cell_length_c 7.611528
_cell_angle_alpha 53.106898
_cell_angle_beta 106.508633
_cell_angle_gamma 119.886043
_cell_volume 708.830834
_symmetry_space_group_name_H-M "P -1"
_symmetry_group_IT_number 2
_symmetry_cell_setting 'triclinic'
loop_
_space_group_symop_operation_xyz
x,y,z
-x,-y,-z
loop_
_atom_site_type_symbol
_atom_site_label
_atom_site_fract_x
_atom_site_fract_y
_atom_site_fract_z
Si Si1 0.914806 0.873507 0.900405
Si Si2 0.728537 0.431293 0.614824
Si Si3 0.594338 0.882064 0.720779
Si Si4 0.989449 0.698414 0.510324
Si Si5 0.468823 0.028002 0.744189
Si Si6 0.611033 0.418625 0.846224
Si Si7 0.159831 0.156654 0.789829
Si Si8 0.887688 0.419368 0.922596
O O1 0.898288 0.591938 0.999289
O O2 0.842884 0.860558 0.989778
O O3 0.931529 0.036601 0.638158
O O4 0.000000 0.000000 0.000000
O O5 0.670612 0.153480 0.656578
O O6 0.680536 0.504152 0.694598
O O7 0.757759 0.644270 0.360846
O O8 0.807594 0.411509 0.768251
O O9 0.556483 0.888136 0.500684
O O10 0.525935 0.880138 0.815393
O O11 0.615610 0.641285 0.852463
O O12 0.910617 0.752293 0.369980
O O13 0.965354 0.569117 0.758641
O O14 0.000000 0.500000 0.500000
O O15 0.523913 0.270130 0.763099
O O16 0.389354 0.820031 0.907609
O O17 0.130291 0.866223 0.879811
#
# Coordination Sequence:
#
# PCOD9101692 Si02
#       8
#     2   2   2   2   2   2   2   2
#     4  10  22  40  62  90 113 151 201 251 309 359
#     4  10  25  39  54  89 120 161 206 237 295 372
#     4  10  20  38  62  87 122 157 195 251 297 348
#     4  10  20  41  64  93 115 148 198 254 308 361
#     4   9  20  36  61  94 118 148 206 249 291 354
#     4  10  20  38  60  88 122 159 199 243 302 349
#     4  10  23  42  59  86 123 156 203 245 301 368
#     4  11  23  42  63  84 125 159 197 255 304 366
#
# _framework density 22.572382999999999
#
# number of rings (size 3 to 8) (size 9 to 14) (size 15 to 20)
#    0.000    2.000    1.250    1.125    0.000    7.000 
#    9.000    2.500    0.000    0.000    0.000    0.000 
#    0.000    0.000    0.000    0.000    0.000    0.000 
#
# Total GULP energy -89364.100437 kJ/mol
# GULP energy per Si atom -5585.256277 kJ/mol
# Density = 2.252101 g / cm^3
# Si number density = 22.572383 Si / 1000 Ang^3
#
#
#
# Elastic Constant Matrix: (Units=GPa)
#
#
# Indices 1 2 3 4 5 6 
#
# 1 54.1179 22.1232 27.3076 -16.7826 -24.2033 -0.8718
# 2 22.1232 135.7239 16.3200 -23.4451 -3.4451 -19.0232
# 3 27.3076 16.3200 74.9411 -15.3793 -29.6869 6.7118
# 4 -16.7826 -23.4451 -15.3793 39.3273 0.7002 6.4237
# 5 -24.2033 -3.4451 -29.6869 0.7002 45.1872 -3.1971
# 6 -0.8718 -19.0232 6.7118 6.4237 -3.1971 19.4265
#
#
#
# Elastic Compliance Matrix: (Units=1/GPa)
#
#
# Indices 1 2 3 4 5 6 
#
# 1 0.030385 -0.002698 -0.002676 0.010298 0.014049 -0.001447
# 2 -0.002698 0.009693 -0.002012 0.002389 -0.001425 0.009042
# 3 -0.002676 -0.002012 0.022038 0.007742 0.012044 -0.010282
# 4 0.010298 0.002389 0.007742 0.035759 0.009513 -0.010132
# 5 0.014049 -0.001425 0.012044 0.009513 0.037173 -0.001954
# 6 -0.001447 0.009042 -0.010282 -0.010132 -0.001954 0.066846
#
#
# Mechanical properties :
#
#
# Convention : Reuss Voigt Hill
#
# Bulk Modulus (GPa) = 21.12224 44.03160 32.57692
# Shear Modulus (GPa) = 21.51015 34.05702 27.78359
#
# Velocity S-wave (km/s) = 3.09032 3.88853 3.51218
# Velocity P-wave (km/s) = 4.70227 6.30159 5.55974
#
# Compressibility (1/GPa) = 0.04734347
#
# Stress axis : x y z
#
# Youngs Moduli (GPa) = 32.91121 103.16250 45.37671
#
# Poissons Ratio (x) = 0.27838 0.12143
# Poissons Ratio (y) = 0.08881 0.09129
# Poissons Ratio (z) = 0.08807 0.20754
#
# Static dielectric constant tensor:
#      x y z
#    x 1.873890 0.003970 -0.015690 
#    y 0.003970 1.805770 0.006820 
#    z -0.015690 0.006820 1.910210 
# 
# From -- ./inp_files/339627.got.cif
#   From: 2010.05.17/outbox.cif.g08.bks.cpg/sg2_170_cif.got.tgz:339627.got - 2010.06.03 11:33:40.
