data_PCOD9101983
_publ_section_title
;
Structure prediction by ZEFSAII (Michael W. Deem and Ramdas Pophale) SiO2 
 PCOD9101983
Probable space group: P -1
;
_chemical_formula_sum "Si O2"
_cell_formula_units_Z 15
_cell_length_a 18.975819
_cell_length_b 9.638973
_cell_length_c 8.634446
_cell_angle_alpha 51.490566
_cell_angle_beta 114.355432
_cell_angle_gamma 147.530445
_cell_volume 639.033769
_symmetry_space_group_name_H-M "P -1"
_symmetry_group_IT_number 2
_symmetry_cell_setting 'triclinic'
loop_
_space_group_symop_operation_xyz
x,y,z
-x,-y,-z
loop_
_atom_site_type_symbol
_atom_site_label
_atom_site_fract_x
_atom_site_fract_y
_atom_site_fract_z
Si Si1 0.222035 0.630763 0.358202
Si Si2 0.500000 0.500000 0.500000
Si Si3 0.455817 0.292817 0.959257
Si Si4 0.980073 0.144348 0.968955
Si Si5 0.269844 0.282160 0.174762
Si Si6 0.294162 0.406578 0.429811
Si Si7 0.148888 0.698045 0.544587
Si Si8 0.040382 0.769622 0.784566
O O1 0.282599 0.552604 0.429905
O O2 0.209036 0.673067 0.492999
O O3 0.069742 0.368792 0.339672
O O4 0.316266 0.941841 0.129479
O O5 0.451455 0.366792 0.732251
O O6 0.439166 0.589816 0.403099
O O7 0.584816 0.403637 0.984185
O O8 0.500000 0.500000 0.000000
O O9 0.106403 0.511311 0.788055
O O10 0.839882 0.945419 0.901662
O O11 0.961753 0.102060 0.162114
O O12 0.000000 0.000000 0.000000
O O13 0.240350 0.353656 0.243190
O O14 0.258373 0.063050 0.397805
O O15 0.187393 0.061555 0.638911
O O16 0.000000 0.500000 0.500000
O O17 0.000000 0.500000 0.000000
#
# Coordination Sequence:
#
# PCOD9101983 Si02
#       8
#     2   1   2   2   2   2   2   2
#     4  12  24  43  69 102 136 185 237 285 356 418
#     4  10  26  44  72 100 142 182 240 284 356 426
#     4  11  24  46  73  97 138 187 236 287 355 423
#     4  11  22  37  62  97 132 166 218 280 339 405
#     4  10  21  41  64  90 129 180 219 276 344 415
#     4  11  24  44  68 100 140 181 234 296 347 420
#     4  10  20  38  61  89 129 171 220 265 335 414
#     4  12  23  38  68 101 138 178 226 293 342 422
#
# _framework density 23.472937000000002
#
# number of rings (size 3 to 8) (size 9 to 14) (size 15 to 20)
#    0.000    1.067    1.333    6.800    1.867    3.200 
#    0.000    4.667    0.000    0.000    0.000    0.000 
#    0.000    0.000    0.000    0.000    0.000    0.000 
#
# Total GULP energy -83531.434918 kJ/mol
# GULP energy per Si atom -5568.762328 kJ/mol
# Density = 2.341951 g / cm^3
# Si number density = 23.472937 Si / 1000 Ang^3
#
#
#
# Elastic Constant Matrix: (Units=GPa)
#
#
# Indices 1 2 3 4 5 6 
#
# 1 132.6732 16.8968 13.3362 2.9500 -23.8505 -18.4823
# 2 16.8968 24.4812 12.8198 -4.7106 -15.5643 -11.6057
# 3 13.3362 12.8198 78.1864 6.5916 -30.6802 0.6470
# 4 2.9500 -4.7106 6.5916 24.3304 -7.0471 -12.6762
# 5 -23.8505 -15.5643 -30.6802 -7.0471 42.8632 3.1430
# 6 -18.4823 -11.6057 0.6470 -12.6762 3.1430 35.5952
#
#
#
# Elastic Compliance Matrix: (Units=1/GPa)
#
#
# Indices 1 2 3 4 5 6 
#
# 1 0.009171 0.000455 0.000209 0.003480 0.005575 0.005654
# 2 0.000455 0.108389 -0.007763 0.063225 0.040441 0.054662
# 3 0.000209 -0.007763 0.018532 -0.006851 0.009881 -0.006072
# 4 0.003480 0.063225 -0.006851 0.090986 0.031122 0.052200
# 5 0.005575 0.040441 0.009881 0.031122 0.051662 0.022422
# 6 0.005654 0.054662 -0.006072 0.052200 0.022422 0.065572
#
#
# Mechanical properties :
#
#
# Convention : Reuss Voigt Hill
#
# Bulk Modulus (GPa) = 8.20394 35.71628 21.96011
# Shear Modulus (GPa) = 12.52688 33.37695 22.95192
#
# Velocity S-wave (km/s) = 2.31264 3.77494 3.13038
# Velocity P-wave (km/s) = 3.26094 5.85229 4.73725
#
# Compressibility (1/GPa) = 0.12189272
#
# Stress axis : x y z
#
# Youngs Moduli (GPa) = 109.04188 9.22607 53.95960
#
# Poissons Ratio (x) = -0.00420 -0.01126
# Poissons Ratio (y) = -0.04966 0.41891
# Poissons Ratio (z) = -0.02275 0.07163
#
# Static dielectric constant tensor:
#      x y z
#    x 1.893220 -0.005030 0.040700 
#    y -0.005030 2.208210 0.164870 
#    z 0.040700 0.164870 1.977390 
# 
# From -- ./inp_files/182242.got.cif
#   From: 2010.05.17/outbox.cif.g08.bks.cpg/sg2_92_cif.got.tgz:182242.got - 2010.06.03 11:33:40.
