data_PCOD9101111
_publ_section_title
;
Structure prediction by ZEFSAII (Michael W. Deem and Ramdas Pophale) SiO2 
 PCOD9101111
Probable space group: P -1
;
_chemical_formula_sum "Si O2"
_cell_formula_units_Z 16
_cell_length_a 14.112605
_cell_length_b 11.968898
_cell_length_c 8.967736
_cell_angle_alpha 39.530271
_cell_angle_beta 108.104891
_cell_angle_gamma 129.936397
_cell_volume 684.471978
_symmetry_space_group_name_H-M "P -1"
_symmetry_group_IT_number 2
_symmetry_cell_setting 'triclinic'
loop_
_space_group_symop_operation_xyz
x,y,z
-x,-y,-z
loop_
_atom_site_type_symbol
_atom_site_label
_atom_site_fract_x
_atom_site_fract_y
_atom_site_fract_z
Si Si1 0.693421 0.043799 0.905505
Si Si2 0.602253 0.863729 0.583938
Si Si3 0.577511 0.252726 0.110962
Si Si4 0.959715 0.907724 0.245813
Si Si5 0.166785 0.415257 0.926595
Si Si6 0.441165 0.289429 0.578554
Si Si7 0.138178 0.794683 0.464923
Si Si8 0.281897 0.530507 0.534223
O O1 0.792474 0.086692 0.784225
O O2 0.747143 0.302172 0.684543
O O3 0.538579 0.856571 0.960183
O O4 0.684953 0.942364 0.164442
O O5 0.498195 0.745093 0.789325
O O6 0.585100 0.698608 0.618002
O O7 0.588712 0.052577 0.330979
O O8 0.749389 0.013463 0.563278
O O9 0.733162 0.483982 0.986186
O O10 0.013561 0.775022 0.440171
O O11 0.800972 0.700065 0.371315
O O12 0.037863 0.138638 0.147360
O O13 0.000000 0.000000 0.000000
O O14 0.123724 0.568631 0.718381
O O15 0.248563 0.463949 0.762187
O O16 0.500000 0.500000 0.500000
O O17 0.564469 0.304154 0.599150
#
# Coordination Sequence:
#
# PCOD9101111 Si02
#       8
#     2   2   2   2   2   2   2   2
#     4  10  21  34  62  88 116 152 192 243 297 360
#     4   9  17  34  59  82 121 146 194 247 290 350
#     4   9  15  33  61  86 111 151 196 247 292 338
#     4  10  22  35  60  86 122 152 194 251 287 346
#     4   9  18  34  61  87 117 149 192 248 291 345
#     4  12  24  35  54  90 125 154 186 240 305 359
#     4   9  20  38  61  95 108 152 203 244 298 336
#     4  10  20  38  54  82 118 156 191 235 294 352
#
# _framework density 23.375682999999999
#
# number of rings (size 3 to 8) (size 9 to 14) (size 15 to 20)
#    0.000    2.250    2.500    1.875    3.500    5.500 
#    0.000    2.500    0.000    3.750    0.000    0.000 
#    0.000    0.000    0.000    0.000    0.000    0.000 
#
# Total GULP energy -89147.696659 kJ/mol
# GULP energy per Si atom -5571.731041 kJ/mol
# Density = 2.332248 g / cm^3
# Si number density = 23.375683 Si / 1000 Ang^3
#
#
#
# Elastic Constant Matrix: (Units=GPa)
#
#
# Indices 1 2 3 4 5 6 
#
# 1 37.2804 19.0661 8.0062 2.5699 14.0426 0.4655
# 2 19.0661 131.0229 31.3143 -36.3008 0.6417 -9.4560
# 3 8.0062 31.3143 40.8961 -12.7332 -1.7464 0.0852
# 4 2.5699 -36.3008 -12.7332 24.1981 5.3528 -3.2057
# 5 14.0426 0.6417 -1.7464 5.3528 14.0170 3.3085
# 6 0.4655 -9.4560 0.0852 -3.2057 3.3085 28.5935
#
#
#
# Elastic Compliance Matrix: (Units=1/GPa)
#
#
# Indices 1 2 3 4 5 6 
#
# 1 0.052508 -0.008536 -0.009770 -0.012668 -0.048727 0.000569
# 2 -0.008536 0.018966 -0.003725 0.030323 -0.006866 0.010616
# 3 -0.009770 -0.003725 0.032864 0.010276 0.010417 -0.001224
# 4 -0.012668 0.030323 0.010276 0.104358 -0.033349 0.025762
# 5 -0.048727 -0.006866 0.010417 -0.033349 0.139556 -0.021395
# 6 0.000569 0.010616 -0.001224 0.025762 -0.021395 0.043842
#
#
# Mechanical properties :
#
#
# Convention : Reuss Voigt Hill
#
# Bulk Modulus (GPa) = 16.59037 36.21917 26.40477
# Shear Modulus (GPa) = 10.95899 23.41590 17.18745
#
# Velocity S-wave (km/s) = 2.16757 3.16843 2.71453
# Velocity P-wave (km/s) = 3.65748 5.37711 4.59840
#
# Compressibility (1/GPa) = 0.06027594
#
# Stress axis : x y z
#
# Youngs Moduli (GPa) = 19.04482 52.72662 30.42843
#
# Poissons Ratio (x) = 0.45007 0.29727
# Poissons Ratio (y) = 0.16257 0.11335
# Poissons Ratio (z) = 0.18606 0.19641
#
# Static dielectric constant tensor:
#      x y z
#    x 1.914260 0.016210 0.038830 
#    y 0.016210 1.943850 0.032780 
#    z 0.038830 0.032780 1.927380 
# 
# From -- ./inp_files/306298.got.cif
#   From: 2010.05.17/outbox.cif.g08.bks.cpg/sg2_154_cif.got.tgz:306298.got - 2010.06.03 11:33:40.
