data_PCOD9101154
_publ_section_title
;
Structure prediction by ZEFSAII (Michael W. Deem and Ramdas Pophale) SiO2 
 PCOD9101154
Probable space group: P -1
;
_chemical_formula_sum "Si O2"
_cell_formula_units_Z 16
_cell_length_a 15.813871
_cell_length_b 16.080618
_cell_length_c 5.117321
_cell_angle_alpha 78.554620
_cell_angle_beta 87.454763
_cell_angle_gamma 142.889889
_cell_volume 722.936940
_symmetry_space_group_name_H-M "P -1"
_symmetry_group_IT_number 2
_symmetry_cell_setting 'triclinic'
loop_
_space_group_symop_operation_xyz
x,y,z
-x,-y,-z
loop_
_atom_site_type_symbol
_atom_site_label
_atom_site_fract_x
_atom_site_fract_y
_atom_site_fract_z
Si Si1 0.328391 0.485169 0.758207
Si Si2 0.928089 0.638853 0.848570
Si Si3 0.939790 0.501216 0.257169
Si Si4 0.108076 0.904994 0.314183
Si Si5 0.265838 0.244560 0.816787
Si Si6 0.566328 0.768505 0.924868
Si Si7 0.299925 0.617379 0.328989
Si Si8 0.956663 0.043965 0.230829
O O1 0.340839 0.398768 0.719366
O O2 0.467281 0.644538 0.785985
O O3 0.291007 0.514009 0.503204
O O4 0.184305 0.380137 0.028424
O O5 0.041552 0.764551 0.535674
O O6 0.816553 0.479064 0.830563
O O7 0.993286 0.641449 0.085389
O O8 0.765492 0.374895 0.444931
O O9 0.000000 0.500000 0.500000
O O10 0.000000 0.500000 0.000000
O O11 0.281564 0.057560 0.267716
O O12 0.030417 0.908820 0.512867
O O13 0.079804 0.913178 0.014906
O O14 0.188440 0.137697 0.642612
O O15 0.378770 0.267614 0.894292
O O16 0.112696 0.131012 0.073215
O O17 0.464852 0.752427 0.106554
#
# Coordination Sequence:
#
# PCOD9101154 Si02
#       8
#     2   2   2   2   2   2   2   2
#     4  10  20  38  58  87 127 171 218 265 309 357
#     4  10  21  39  68  95 126 159 208 258 306 368
#     4  11  22  41  72 103 125 152 195 255 315 384
#     4  11  23  42  62  87 126 170 219 258 313 364
#     4  10  20  38  56  86 122 177 224 270 305 353
#     4  10  24  37  57  89 129 175 211 262 318 362
#     4  10  22  41  61  98 125 163 202 257 319 374
#     4  10  23  38  58  86 122 174 226 274 300 346
#
# _framework density 22.131944000000001
#
# number of rings (size 3 to 8) (size 9 to 14) (size 15 to 20)
#    0.000    1.750    2.500    1.125    5.250    5.000 
#    9.000    0.000    0.000    1.500    0.000    0.000 
#    0.000    0.000    0.000    0.000    0.000    0.000 
#
# Total GULP energy -89149.752895 kJ/mol
# GULP energy per Si atom -5571.859556 kJ/mol
# Density = 2.208157 g / cm^3
# Si number density = 22.131944 Si / 1000 Ang^3
#
#
#
# Elastic Constant Matrix: (Units=GPa)
#
#
# Indices 1 2 3 4 5 6 
#
# 1 117.4230 23.3180 35.6818 -4.6295 -2.3511 17.1012
# 2 23.3180 64.5089 30.3197 -7.5363 4.9010 17.7914
# 3 35.6818 30.3197 99.5228 -4.1130 10.3883 12.6268
# 4 -4.6295 -7.5363 -4.1130 37.9462 7.3175 -7.1836
# 5 -2.3511 4.9010 10.3883 7.3175 42.3170 6.0307
# 6 17.1012 17.7914 12.6268 -7.1836 6.0307 19.2975
#
#
#
# Elastic Compliance Matrix: (Units=1/GPa)
#
#
# Indices 1 2 3 4 5 6 
#
# 1 0.010761 -0.000521 -0.002972 -0.001256 0.002810 -0.008457
# 2 -0.000521 0.022662 -0.004564 0.000447 0.000892 -0.017558
# 3 -0.002972 -0.004564 0.012885 0.000581 -0.002830 -0.000489
# 4 -0.001256 0.000447 0.000581 0.030455 -0.007527 0.014010
# 5 0.002810 0.000892 -0.002830 -0.007527 0.027513 -0.012861
# 6 -0.008457 -0.017558 -0.000489 0.014010 -0.012861 0.085057
#
#
# Mechanical properties :
#
#
# Convention : Reuss Voigt Hill
#
# Bulk Modulus (GPa) = 33.11807 51.12151 42.11979
# Shear Modulus (GPa) = 23.20053 32.72118 27.96085
#
# Velocity S-wave (km/s) = 3.24123 3.84925 3.55825
# Velocity P-wave (km/s) = 5.38552 6.55013 5.99617
#
# Compressibility (1/GPa) = 0.03019500
#
# Stress axis : x y z
#
# Youngs Moduli (GPa) = 92.92709 44.12667 77.60732
#
# Poissons Ratio (x) = 0.02298 0.23063
# Poissons Ratio (y) = 0.04839 0.35422
# Poissons Ratio (z) = 0.27615 0.20141
#
# Static dielectric constant tensor:
#      x y z
#    x 1.896850 -0.040150 0.007880 
#    y -0.040150 1.897820 0.012990 
#    z 0.007880 0.012990 1.919740 
# 
# From -- ./inp_files/99606.got.cif
#   From: 2010.05.17/outbox.cif.g08.bks.cpg/sg2_50_cif.got.tgz:99606.got - 2010.06.03 11:33:40.
