data_PCOD9101618
_publ_section_title
;
Structure prediction by ZEFSAII (Michael W. Deem and Ramdas Pophale) SiO2 
 PCOD9101618
Probable space group: P -1
;
_chemical_formula_sum "Si O2"
_cell_formula_units_Z 16
_cell_length_a 15.035940
_cell_length_b 9.273719
_cell_length_c 15.904407
_cell_angle_alpha 141.489698
_cell_angle_beta 41.333174
_cell_angle_gamma 120.348553
_cell_volume 893.518605
_symmetry_space_group_name_H-M "P -1"
_symmetry_group_IT_number 2
_symmetry_cell_setting 'triclinic'
loop_
_space_group_symop_operation_xyz
x,y,z
-x,-y,-z
loop_
_atom_site_type_symbol
_atom_site_label
_atom_site_fract_x
_atom_site_fract_y
_atom_site_fract_z
Si Si1 0.853174 0.785135 0.462593
Si Si2 0.175547 0.728579 0.199049
Si Si3 0.838657 0.814606 0.288343
Si Si4 0.162924 0.715991 0.004753
Si Si5 0.622923 0.146299 0.207742
Si Si6 0.635650 0.482578 0.509336
Si Si7 0.589298 0.175095 0.557511
Si Si8 0.576183 0.646435 0.076055
O O1 0.815826 0.838509 0.415601
O O2 0.772959 0.587808 0.460566
O O3 0.017836 0.702523 0.311589
O O4 0.812493 0.023794 0.653974
O O5 0.199955 0.735781 0.085105
O O6 0.281688 0.517565 0.069758
O O7 0.999041 0.808007 0.153858
O O8 0.737112 0.019063 0.405388
O O9 0.808322 0.560690 0.167102
O O10 0.251133 0.846842 0.941026
O O11 0.646465 0.279080 0.338182
O O12 0.487622 0.305638 0.334684
O O13 0.600928 0.886073 0.124932
O O14 0.603039 0.373984 0.571034
O O15 0.515629 0.282158 0.743432
O O16 0.500000 0.000000 0.500000
O O17 0.500000 0.500000 0.000000
#
# Coordination Sequence:
#
# PCOD9101618 Si02
#       8
#     2   2   2   2   2   2   2   2
#     4  10  21  41  64  86 119 161 193 237 296 355
#     4  10  22  40  62  89 121 155 197 238 292 357
#     4  10  20  38  60  85 120 157 193 237 298 351
#     4  10  21  37  61  88 117 154 196 244 290 347
#     4  11  22  38  59  88 121 153 198 246 292 344
#     4  11  22  37  61  88 117 157 200 241 290 351
#     4  12  23  38  59  87 119 156 198 243 292 350
#     4  12  25  40  61  89 121 157 195 246 297 347
#
# _framework density 17.906732999999999
#
# number of rings (size 3 to 8) (size 9 to 14) (size 15 to 20)
#    0.000    1.250    2.500    4.500    0.000    2.000 
#    0.000    3.750    0.000    6.000    0.000    0.000 
#    0.000    0.000    0.000    0.000    0.000    0.000 
#
# Total GULP energy -89456.147341 kJ/mol
# GULP energy per Si atom -5591.009209 kJ/mol
# Density = 1.786598 g / cm^3
# Si number density = 17.906733 Si / 1000 Ang^3
#
#
#
# Elastic Constant Matrix: (Units=GPa)
#
#
# Indices 1 2 3 4 5 6 
#
# 1 106.8688 74.9057 82.0185 10.2555 14.2618 -11.0966
# 2 74.9057 186.5616 81.4012 -6.9905 7.7970 -2.8465
# 3 82.0185 81.4012 99.3958 6.0862 16.8367 -6.4886
# 4 10.2555 -6.9905 6.0862 26.7354 -8.6638 -0.9790
# 5 14.2618 7.7970 16.8367 -8.6638 36.7120 6.6132
# 6 -11.0966 -2.8465 -6.4886 -0.9790 6.6132 24.7514
#
#
#
# Elastic Compliance Matrix: (Units=1/GPa)
#
#
# Indices 1 2 3 4 5 6 
#
# 1 0.028645 -0.003185 -0.019010 -0.008924 -0.005384 0.008578
# 2 -0.003185 0.009455 -0.006408 0.006408 0.004201 -0.002889
# 3 -0.019010 -0.006408 0.032567 -0.004143 -0.007362 0.001081
# 4 -0.008924 0.006408 -0.004143 0.048611 0.016720 -0.006894
# 5 -0.005384 0.004201 -0.007362 0.016720 0.038174 -0.013399
# 6 0.008578 -0.002889 0.001081 -0.006894 -0.013399 0.047506
#
#
# Mechanical properties :
#
#
# Convention : Reuss Voigt Hill
#
# Bulk Modulus (GPa) = 74.29019 96.60853 85.44936
# Shear Modulus (GPa) = 18.75107 27.93982 23.34545
#
# Velocity S-wave (km/s) = 3.23948 3.95434 3.61463
# Velocity P-wave (km/s) = 7.45451 8.65547 8.07734
#
# Compressibility (1/GPa) = 0.01346073
#
# Stress axis : x y z
#
# Youngs Moduli (GPa) = 34.91014 105.75974 30.70636
#
# Poissons Ratio (x) = 0.33685 0.58373
# Poissons Ratio (y) = 0.11119 0.19676
# Poissons Ratio (z) = 0.66364 0.67770
#
# Static dielectric constant tensor:
#      x y z
#    x 1.604560 0.009830 -0.005600 
#    y 0.009830 1.569360 -0.008490 
#    z -0.005600 -0.008490 1.603420 
# 
# From -- ./inp_files/256980.got.cif
#   From: 2010.05.17/outbox.cif.g08.bks.cpg/sg2_129_cif.got.tgz:256980.got - 2010.06.03 11:33:40.
