data_PCOD9101849
_publ_section_title
;
Structure prediction by ZEFSAII (Michael W. Deem and Ramdas Pophale) SiO2 
 PCOD9101849
Probable space group: P -1
;
_chemical_formula_sum "Si O2"
_cell_formula_units_Z 12
_cell_length_a 8.431109
_cell_length_b 15.011123
_cell_length_c 4.891123
_cell_angle_alpha 84.005920
_cell_angle_beta 118.101755
_cell_angle_gamma 123.400855
_cell_volume 445.666494
_symmetry_space_group_name_H-M "P -1"
_symmetry_group_IT_number 2
_symmetry_cell_setting 'triclinic'
loop_
_space_group_symop_operation_xyz
x,y,z
-x,-y,-z
loop_
_atom_site_type_symbol
_atom_site_label
_atom_site_fract_x
_atom_site_fract_y
_atom_site_fract_z
Si Si1 0.248327 0.392232 0.332477
Si Si2 0.540013 0.694439 0.763912
Si Si3 0.160418 0.468047 0.734919
Si Si4 0.846505 0.018366 0.681160
Si Si5 0.531707 0.211650 0.810493
Si Si6 0.252556 0.900230 0.909471
O O1 0.500000 0.500000 0.500000
O O2 0.259579 0.298300 0.228946
O O3 0.160816 0.381496 0.567061
O O4 0.125210 0.425228 0.023536
O O5 0.398433 0.580321 0.846219
O O6 0.408325 0.697967 0.398086
O O7 0.570192 0.776512 0.998517
O O8 0.000000 0.500000 0.500000
O O9 0.652552 0.898225 0.461279
O O10 0.775187 0.075113 0.813543
O O11 0.094505 0.909669 0.571033
O O12 0.000000 0.000000 0.000000
O O13 0.729654 0.201832 0.052710
O O14 0.500000 0.000000 0.000000
#
# Coordination Sequence:
#
# PCOD9101849 Si02
#       6
#     2   2   2   2   2   2
#     4  10  20  38  61  84 114 159 197 228 285 363
#     4  11  21  37  61  88 116 153 197 242 286 342
#     4  11  22  39  62  88 116 154 197 240 287 345
#     4  11  22  39  62  88 116 154 197 240 287 345
#     4  11  21  37  61  88 116 153 197 242 286 342
#     4  10  20  38  61  84 114 159 197 228 285 363
#
# _framework density 26.925965999999999
#
# number of rings (size 3 to 8) (size 9 to 14) (size 15 to 20)
#    0.000    1.333    0.000   11.000    0.000    0.000 
#    0.000    6.667    0.000    4.000    0.000    0.000 
#    0.000    0.000    0.000    0.000    0.000    0.000 
#
# Total GULP energy -67185.709542 kJ/mol
# GULP energy per Si atom -5598.809128 kJ/mol
# Density = 2.686468 g / cm^3
# Si number density = 26.925966 Si / 1000 Ang^3
#
#
#
# Elastic Constant Matrix: (Units=GPa)
#
#
# Indices 1 2 3 4 5 6 
#
# 1 56.7395 25.5951 41.5212 22.4647 -14.8635 -29.6640
# 2 25.5951 96.4022 47.6630 -13.1837 -0.0393 -15.3197
# 3 41.5212 47.6630 157.6110 -20.3061 -11.2462 -17.8575
# 4 22.4647 -13.1837 -20.3061 61.7559 -10.0749 -4.4688
# 5 -14.8635 -0.0393 -11.2462 -10.0749 59.6102 -1.3135
# 6 -29.6640 -15.3197 -17.8575 -4.4688 -1.3135 50.9753
#
#
#
# Elastic Compliance Matrix: (Units=1/GPa)
#
#
# Indices 1 2 3 4 5 6 
#
# 1 0.050153 -0.007431 -0.010626 -0.020536 0.007501 0.021623
# 2 -0.007431 0.013801 -0.001736 0.004827 -0.001364 -0.000397
# 3 -0.010626 -0.001736 0.010283 0.006756 0.000376 -0.002501
# 4 -0.020536 0.004827 0.006756 0.026581 0.000522 -0.005789
# 5 0.007501 -0.001364 0.000376 0.000522 0.018906 0.004620
# 6 0.021623 -0.000397 -0.002501 -0.005789 0.004620 0.030816
#
#
# Mechanical properties :
#
#
# Convention : Reuss Voigt Hill
#
# Bulk Modulus (GPa) = 28.85975 60.03459 44.44717
# Shear Modulus (GPa) = 24.79208 47.53315 36.16262
#
# Velocity S-wave (km/s) = 3.03768 4.20614 3.66873
# Velocity P-wave (km/s) = 4.80050 6.77742 5.87274
#
# Compressibility (1/GPa) = 0.03465033
#
# Stress axis : x y z
#
# Youngs Moduli (GPa) = 19.93914 72.45726 97.24839
#
# Poissons Ratio (x) = 0.53846 1.03332
# Poissons Ratio (y) = 0.14818 0.16885
# Poissons Ratio (z) = 0.21186 0.12581
#
# Static dielectric constant tensor:
#      x y z
#    x 2.115560 -0.003220 0.049110 
#    y -0.003220 2.193700 -0.017260 
#    z 0.049110 -0.017260 1.987690 
# 
# From -- ./inp_files/30473.got.cif
#   From: 2010.05.17/outbox.cif.g08.bks.cpg/sg2_16_cif.got.tgz:30473.got - 2010.06.03 11:33:40.
