data_PCOD9101117
_publ_section_title
;
Structure prediction by ZEFSAII (Michael W. Deem and Ramdas Pophale) SiO2 
 PCOD9101117
Probable space group: P -1
;
_chemical_formula_sum "Si O2"
_cell_formula_units_Z 12
_cell_length_a 13.350157
_cell_length_b 7.995501
_cell_length_c 9.146189
_cell_angle_alpha 103.797752
_cell_angle_beta 40.431389
_cell_angle_gamma 76.012254
_cell_volume 455.339348
_symmetry_space_group_name_H-M "P -1"
_symmetry_group_IT_number 2
_symmetry_cell_setting 'triclinic'
loop_
_space_group_symop_operation_xyz
x,y,z
-x,-y,-z
loop_
_atom_site_type_symbol
_atom_site_label
_atom_site_fract_x
_atom_site_fract_y
_atom_site_fract_z
Si Si1 0.356861 0.734934 0.614299
Si Si2 0.169833 0.099067 0.106897
Si Si3 0.060725 0.212489 0.557587
Si Si4 0.642140 0.252396 0.713645
Si Si5 0.746152 0.663697 0.160474
Si Si6 0.604281 0.889746 0.667543
O O1 0.500000 0.500000 0.500000
O O2 0.306810 0.719546 0.501390
O O3 0.503684 0.794115 0.446918
O O4 0.167804 0.937747 0.968102
O O5 0.174419 0.255739 0.025259
O O6 0.400129 0.925234 0.894306
O O7 0.015059 0.241163 0.442992
O O8 0.240732 0.222473 0.390772
O O9 0.166492 0.956317 0.441893
O O10 0.872958 0.401501 0.912628
O O11 0.535877 0.142079 0.789327
O O12 0.500000 0.500000 0.000000
O O13 0.753923 0.725504 0.330834
#
# Coordination Sequence:
#
# PCOD9101117 Si02
#       6
#     2   2   2   2   2   2
#     4  11  22  38  60  80 110 154 193 223 271 341
#     4  11  18  37  59  88 108 150 186 226 275 338
#     4  10  21  32  60  89 113 139 186 232 285 320
#     4  10  20  38  55  79 116 150 184 226 275 334
#     4  11  19  38  59  86 113 144 183 239 278 318
#     4   9  19  34  60  77 113 147 187 217 275 327
#
# _framework density 26.353971999999999
#
# number of rings (size 3 to 8) (size 9 to 14) (size 15 to 20)
#    1.000    0.667    3.333    3.500    0.000    0.000 
#    0.000    4.167    0.000    0.000    0.000    0.000 
#    0.000    0.000    0.000    0.000    0.000    0.000 
#
# Total GULP energy -67010.422036 kJ/mol
# GULP energy per Si atom -5584.201836 kJ/mol
# Density = 2.629399 g / cm^3
# Si number density = 26.353972 Si / 1000 Ang^3
#
#
#
# Elastic Constant Matrix: (Units=GPa)
#
#
# Indices 1 2 3 4 5 6 
#
# 1 36.3365 10.8473 48.8249 -21.2645 24.4361 -1.4982
# 2 10.8473 115.5281 61.3448 0.7344 24.9279 -14.3315
# 3 48.8249 61.3448 216.9063 9.5032 60.4071 -12.4792
# 4 -21.2645 0.7344 9.5032 45.6119 -8.9217 8.8552
# 5 24.4361 24.9279 60.4071 -8.9217 55.3710 -11.0868
# 6 -1.4982 -14.3315 -12.4792 8.8552 -11.0868 32.0385
#
#
#
# Elastic Compliance Matrix: (Units=1/GPa)
#
#
# Indices 1 2 3 4 5 6 
#
# 1 0.092352 0.002694 -0.020363 0.048221 -0.016262 -0.021363
# 2 0.002694 0.010769 -0.002914 0.000709 -0.002171 0.002861
# 3 -0.020363 -0.002914 0.012025 -0.013679 -0.004063 0.004803
# 4 0.048221 0.000709 -0.013679 0.050208 -0.002060 -0.017346
# 5 -0.016262 -0.002171 -0.004063 -0.002060 0.031981 0.008322
# 6 -0.021363 0.002861 0.004803 -0.017346 0.008322 0.041038
#
#
# Mechanical properties :
#
#
# Convention : Reuss Voigt Hill
#
# Bulk Modulus (GPa) = 13.51710 67.86721 40.69216
# Shear Modulus (GPa) = 16.43655 43.12120 29.77887
#
# Velocity S-wave (km/s) = 2.50008 4.04942 3.36513
# Velocity P-wave (km/s) = 3.67070 6.90448 5.52928
#
# Compressibility (1/GPa) = 0.07398035
#
# Stress axis : x y z
#
# Youngs Moduli (GPa) = 10.82808 92.85852 83.15904
#
# Poissons Ratio (x) = -0.25013 1.69336
# Poissons Ratio (y) = -0.02917 0.24232
# Poissons Ratio (z) = 0.22049 0.27058
#
# Static dielectric constant tensor:
#      x y z
#    x 2.116600 0.027780 0.002870 
#    y 0.027780 2.106360 0.022490 
#    z 0.002870 0.022490 2.120060 
# 
# From -- ./inp_files/147359.got.cif
#   From: 2010.05.17/outbox.cif.g08.bks.cpg/sg2_74_cif.got.tgz:147359.got - 2010.06.03 11:33:40.
