data_PCOD9101059
_publ_section_title
;
Structure prediction by ZEFSAII (Michael W. Deem and Ramdas Pophale) SiO2 
 PCOD9101059
Probable space group: P -1
;
_chemical_formula_sum "Si O2"
_cell_formula_units_Z 14
_cell_length_a 8.130900
_cell_length_b 14.564707
_cell_length_c 11.280620
_cell_angle_alpha 103.002650
_cell_angle_beta 54.627881
_cell_angle_gamma 60.574164
_cell_volume 661.124730
_symmetry_space_group_name_H-M "P -1"
_symmetry_group_IT_number 2
_symmetry_cell_setting 'triclinic'
loop_
_space_group_symop_operation_xyz
x,y,z
-x,-y,-z
loop_
_atom_site_type_symbol
_atom_site_label
_atom_site_fract_x
_atom_site_fract_y
_atom_site_fract_z
Si Si1 0.778275 0.556655 0.442341
Si Si2 0.900882 0.386131 0.941040
Si Si3 0.764988 0.645620 0.008597
Si Si4 0.255926 0.539718 0.343072
Si Si5 0.819029 0.818576 0.460029
Si Si6 0.053880 0.935351 0.328332
Si Si7 0.775567 0.085692 0.235557
O O1 0.731489 0.488504 0.532545
O O2 0.461719 0.737334 0.622323
O O3 0.066167 0.520109 0.359678
O O4 0.908974 0.472298 0.238842
O O5 0.182364 0.298033 0.893620
O O6 0.055392 0.297587 0.728694
O O7 0.745370 0.546847 0.038845
O O8 0.614186 0.421375 0.107597
O O9 0.440825 0.782219 0.111685
O O10 0.046499 0.708018 0.444261
O O11 0.456067 0.921880 0.672008
O O12 0.878072 0.899242 0.406624
O O13 0.000000 0.000000 0.500000
O O14 0.936247 0.026701 0.282264
O O15 0.000000 0.000000 0.000000
#
# Coordination Sequence:
#
# PCOD9101059 Si02
#       7
#     2   2   2   2   2   2   2
#     4  10  23  41  66  98 133 172 222 277 330 395
#     4  11  21  38  69 102 125 168 225 285 323 384
#     4  11  23  40  69  96 135 168 225 278 328 387
#     4  10  20  37  69  96 127 163 230 270 328 379
#     4  11  22  43  70  97 129 176 231 270 330 406
#     4  12  27  45  69 100 138 178 221 280 336 399
#     4  11  26  43  67 100 141 179 219 270 344 403
#
# _framework density 21.176034000000001
#
# number of rings (size 3 to 8) (size 9 to 14) (size 15 to 20)
#    0.000    1.143    4.286    2.571   10.000    0.571 
#    0.000    0.714    0.000    0.000    0.000    0.000 
#    0.000    0.000    0.000    0.000    0.000    0.000 
#
# Total GULP energy -78228.729000 kJ/mol
# GULP energy per Si atom -5587.766357 kJ/mol
# Density = 2.112784 g / cm^3
# Si number density = 21.176034 Si / 1000 Ang^3
#
#
#
# Elastic Constant Matrix: (Units=GPa)
#
#
# Indices 1 2 3 4 5 6 
#
# 1 66.8322 48.0012 43.2829 -1.0566 -5.6252 -17.1282
# 2 48.0012 102.6216 56.3471 -25.4485 2.2115 -25.1847
# 3 43.2829 56.3471 139.2845 -21.6083 -10.7458 -9.1804
# 4 -1.0566 -25.4485 -21.6083 32.3751 -1.0489 1.2125
# 5 -5.6252 2.2115 -10.7458 -1.0489 33.2001 0.3373
# 6 -17.1282 -25.1847 -9.1804 1.2125 0.3373 23.3454
#
#
#
# Elastic Compliance Matrix: (Units=1/GPa)
#
#
# Indices 1 2 3 4 5 6 
#
# 1 0.028854 -0.012074 -0.005262 -0.012196 0.003537 0.006658
# 2 -0.012074 0.025444 -0.003201 0.016708 -0.004417 0.016528
# 3 -0.005262 -0.003201 0.010866 0.004787 0.003024 -0.003333
# 4 -0.012196 0.016708 0.004787 0.046490 -0.000248 0.008548
# 5 0.003537 -0.004417 0.003024 -0.000248 0.031999 -0.001430
# 6 0.006658 0.016528 -0.003333 0.008548 -0.001430 0.063816
#
#
# Mechanical properties :
#
#
# Convention : Reuss Voigt Hill
#
# Bulk Modulus (GPa) = 41.51035 67.11119 54.31077
# Shear Modulus (GPa) = 19.48766 28.52459 24.00612
#
# Velocity S-wave (km/s) = 3.03689 3.67416 3.37062
# Velocity P-wave (km/s) = 5.65172 7.05409 6.39148
#
# Compressibility (1/GPa) = 0.02409038
#
# Stress axis : x y z
#
# Youngs Moduli (GPa) = 34.65753 39.30199 92.03026
#
# Poissons Ratio (x) = 0.47451 0.48430
# Poissons Ratio (y) = 0.41844 0.29456
# Poissons Ratio (z) = 0.18238 0.12580
#
# Static dielectric constant tensor:
#      x y z
#    x 1.795190 -0.027140 0.002310 
#    y -0.027140 1.805770 -0.009820 
#    z 0.002310 -0.009820 1.762890 
# 
# From -- ./inp_files/243489.got.cif
#   From: 2010.05.17/outbox.cif.g08.bks.cpg/sg2_122_cif.got.tgz:243489.got - 2010.06.03 11:33:40.
