data_PCOD9101784
_publ_section_title
;
Structure prediction by ZEFSAII (Michael W. Deem and Ramdas Pophale) SiO2 
 PCOD9101784
Probable space group: P -1
;
_chemical_formula_sum "Si O2"
_cell_formula_units_Z 14
_cell_length_a 6.665617
_cell_length_b 17.357100
_cell_length_c 10.313740
_cell_angle_alpha 134.574696
_cell_angle_beta 41.588669
_cell_angle_gamma 121.040744
_cell_volume 564.102560
_symmetry_space_group_name_H-M "P -1"
_symmetry_group_IT_number 2
_symmetry_cell_setting 'triclinic'
loop_
_space_group_symop_operation_xyz
x,y,z
-x,-y,-z
loop_
_atom_site_type_symbol
_atom_site_label
_atom_site_fract_x
_atom_site_fract_y
_atom_site_fract_z
Si Si1 0.643856 0.469293 0.756158
Si Si2 0.123905 0.691529 0.908955
Si Si3 0.858555 0.251380 0.311343
Si Si4 0.555381 0.952478 0.773644
Si Si5 0.809522 0.364377 0.922957
Si Si6 0.813327 0.627783 0.509326
Si Si7 0.789527 0.134732 0.728635
O O1 0.616610 0.345365 0.580246
O O2 0.009042 0.466155 0.603945
O O3 0.500000 0.500000 0.000000
O O4 0.467322 0.551052 0.844924
O O5 0.002413 0.706922 0.842231
O O6 0.460052 0.639248 0.674624
O O7 0.014365 0.630041 0.018542
O O8 0.130561 0.813474 0.108316
O O9 0.683498 0.141227 0.247982
O O10 0.094401 0.263124 0.328233
O O11 0.902274 0.907409 0.537790
O O12 0.447527 0.956751 0.231612
O O13 0.500000 0.000000 0.000000
O O14 0.026123 0.376885 0.712116
O O15 0.684795 0.242614 0.832067
#
# Coordination Sequence:
#
# PCOD9101784 Si02
#       7
#     2   2   2   2   2   2   2
#     4   8  18  38  62  88 124 162 204 249 306 366
#     4  10  20  38  60  93 123 156 207 255 298 364
#     4  10  21  38  66  91 119 171 206 242 319 363
#     4  11  19  40  62  88 127 158 204 259 301 362
#     4   9  18  38  62  84 128 157 199 262 299 356
#     4   9  20  39  60  87 128 160 200 249 306 364
#     4   9  22  34  62  92 117 161 202 252 306 356
#
# _framework density 24.818180000000002
#
# number of rings (size 3 to 8) (size 9 to 14) (size 15 to 20)
#    1.714    0.857    1.429    0.857    0.000    1.143 
#    2.571    7.857    0.000    0.000    0.000    0.000 
#    0.000    0.000    0.000    0.000    0.000    0.000 
#
# Total GULP energy -78092.334228 kJ/mol
# GULP energy per Si atom -5578.023873 kJ/mol
# Density = 2.476169 g / cm^3
# Si number density = 24.818180 Si / 1000 Ang^3
#
#
#
# Elastic Constant Matrix: (Units=GPa)
#
#
# Indices 1 2 3 4 5 6 
#
# 1 84.6089 32.0668 36.9195 -6.7810 0.7948 20.4355
# 2 32.0668 119.6450 28.1316 13.4800 11.3483 3.4243
# 3 36.9195 28.1316 145.6225 -17.0370 -3.7846 9.6868
# 4 -6.7810 13.4800 -17.0370 52.6732 -1.3670 3.1533
# 5 0.7948 11.3483 -3.7846 -1.3670 48.4570 5.6468
# 6 20.4355 3.4243 9.6868 3.1533 5.6468 18.2625
#
#
#
# Elastic Compliance Matrix: (Units=1/GPa)
#
#
# Indices 1 2 3 4 5 6 
#
# 1 0.020576 -0.005260 -0.002024 0.004802 0.003539 -0.022887
# 2 -0.005260 0.010850 -0.001829 -0.004537 -0.003505 0.006689
# 3 -0.002024 -0.001829 0.008324 0.003108 0.001528 -0.002817
# 4 0.004802 -0.004537 0.003108 0.022512 0.003147 -0.011032
# 5 0.003539 -0.003505 0.001528 0.003147 0.022978 -0.011761
# 6 -0.022887 0.006689 -0.002817 -0.011032 -0.011761 0.086149
#
#
# Mechanical properties :
#
#
# Convention : Reuss Voigt Hill
#
# Bulk Modulus (GPa) = 46.46244 60.45689 53.45966
# Shear Modulus (GPa) = 25.40773 40.72911 33.06842
#
# Velocity S-wave (km/s) = 3.20309 4.05544 3.65420
# Velocity P-wave (km/s) = 5.69574 6.80747 6.27627
#
# Compressibility (1/GPa) = 0.02152276
#
# Stress axis : x y z
#
# Youngs Moduli (GPa) = 48.60143 92.16406 120.13003
#
# Poissons Ratio (x) = 0.48482 0.24314
# Poissons Ratio (y) = 0.25566 0.21975
# Poissons Ratio (z) = 0.09837 0.16859
#
# Static dielectric constant tensor:
#      x y z
#    x 1.974220 -0.001000 0.016520 
#    y -0.001000 2.065450 0.028160 
#    z 0.016520 0.028160 1.965990 
# 
# From -- ./inp_files/211055.got.cif
#   From: 2010.05.17/outbox.cif.g08.bks.cpg/sg2_106_cif.got.tgz:211055.got - 2010.06.03 11:33:40.
