data_PCOD9101450
_publ_section_title
;
Structure prediction by ZEFSAII (Michael W. Deem and Ramdas Pophale) SiO2 
 PCOD9101450
Probable space group: P -1
;
_chemical_formula_sum "Si O2"
_cell_formula_units_Z 16
_cell_length_a 16.136232
_cell_length_b 12.002544
_cell_length_c 9.220397
_cell_angle_alpha 148.532562
_cell_angle_beta 74.477120
_cell_angle_gamma 122.443992
_cell_volume 709.803313
_symmetry_space_group_name_H-M "P -1"
_symmetry_group_IT_number 2
_symmetry_cell_setting 'triclinic'
loop_
_space_group_symop_operation_xyz
x,y,z
-x,-y,-z
loop_
_atom_site_type_symbol
_atom_site_label
_atom_site_fract_x
_atom_site_fract_y
_atom_site_fract_z
Si Si1 0.049253 0.861960 0.253509
Si Si2 0.991197 0.179322 0.094644
Si Si3 0.822520 0.233346 0.384758
Si Si4 0.437470 0.412706 0.647593
Si Si5 0.556416 0.233472 0.523138
Si Si6 0.657099 0.332786 0.884862
Si Si7 0.391893 0.049607 0.013555
Si Si8 0.835568 0.263132 0.730890
O O1 0.143948 0.892209 0.335503
O O2 0.000000 0.000000 0.500000
O O3 0.069258 0.945414 0.168972
O O4 0.953575 0.539610 0.944083
O O5 0.114008 0.443946 0.294467
O O6 0.916764 0.228106 0.272838
O O7 0.000000 0.000000 0.000000
O O8 0.791300 0.120533 0.437345
O O9 0.719179 0.065926 0.144776
O O10 0.522237 0.425268 0.729060
O O11 0.386264 0.138279 0.275669
O O12 0.509014 0.671777 0.797531
O O13 0.355047 0.447961 0.802905
O O14 0.647024 0.333527 0.715372
O O15 0.449352 0.954725 0.327545
O O16 0.587337 0.165984 0.280917
O O17 0.759210 0.346414 0.902068
#
# Coordination Sequence:
#
# PCOD9101450 Si02
#       8
#     2   2   2   2   2   2   2   2
#     4  10  22  40  62  90 123 156 202 262 311 366
#     4  10  22  40  62  92 122 157 204 260 312 380
#     4  10  21  40  62  86 121 165 209 248 318 375
#     4  10  22  38  58  92 127 158 212 260 301 370
#     4  10  20  38  59  86 124 163 199 259 307 367
#     4  10  21  37  60  89 120 160 209 251 311 367
#     4  10  21  39  60  87 122 166 209 252 312 368
#     4  10  21  40  62  88 121 162 207 254 308 379
#
# _framework density 22.541457000000001
#
# number of rings (size 3 to 8) (size 9 to 14) (size 15 to 20)
#    0.000    2.000    1.250    1.500    0.000    5.000 
#    2.250    0.000    0.000    0.000    0.000    0.000 
#    0.000    0.000    0.000    0.000    0.000    0.000 
#
# Total GULP energy -89301.063226 kJ/mol
# GULP energy per Si atom -5581.316452 kJ/mol
# Density = 2.249015 g / cm^3
# Si number density = 22.541457 Si / 1000 Ang^3
#
#
#
# Elastic Constant Matrix: (Units=GPa)
#
#
# Indices 1 2 3 4 5 6 
#
# 1 151.6531 36.2007 39.6013 -13.3562 -16.6797 -24.8948
# 2 36.2007 71.5715 31.1381 -12.4779 -7.1870 -25.6998
# 3 39.6013 31.1381 60.8295 -19.5202 -12.9717 -10.3307
# 4 -13.3562 -12.4779 -19.5202 13.0419 6.6736 4.4140
# 5 -16.6797 -7.1870 -12.9717 6.6736 42.9776 1.7980
# 6 -24.8948 -25.6998 -10.3307 4.4140 1.7980 43.2810
#
#
#
# Elastic Compliance Matrix: (Units=1/GPa)
#
#
# Indices 1 2 3 4 5 6 
#
# 1 0.008690 -0.001340 -0.004313 -0.000861 0.001847 0.003184
# 2 -0.001340 0.022410 -0.006821 0.006530 -0.000274 0.010253
# 3 -0.004313 -0.006821 0.036871 0.044234 0.001542 -0.002306
# 4 -0.000861 0.006530 0.044234 0.153659 -0.009696 -0.001328
# 5 0.001847 -0.000274 0.001542 -0.009696 0.025860 0.001182
# 6 0.003184 0.010253 -0.002306 -0.001328 0.001182 0.030561
#
#
# Mechanical properties :
#
#
# Convention : Reuss Voigt Hill
#
# Bulk Modulus (GPa) = 23.24343 55.32603 39.28473
# Shear Modulus (GPa) = 15.75594 31.66771 23.71182
#
# Velocity S-wave (km/s) = 2.64668 3.75222 3.24685
# Velocity P-wave (km/s) = 4.43551 6.58556 5.61442
#
# Compressibility (1/GPa) = 0.04302291
#
# Stress axis : x y z
#
# Youngs Moduli (GPa) = 115.07122 44.62294 27.12171
#
# Poissons Ratio (x) = 0.05981 0.11698
# Poissons Ratio (y) = 0.15423 0.18499
# Poissons Ratio (z) = 0.49632 0.30436
#
# Static dielectric constant tensor:
#      x y z
#    x 1.833750 -0.002860 0.013150 
#    y -0.002860 1.872490 0.042330 
#    z 0.013150 0.042330 1.971890 
# 
# From -- ./inp_files/308942.got.cif
#   From: 2010.05.17/outbox.cif.g08.bks.cpg/sg2_155_cif.got.tgz:308942.got - 2010.06.03 11:33:40.
