data_PCOD9101592
_publ_section_title
;
Structure prediction by ZEFSAII (Michael W. Deem and Ramdas Pophale) SiO2 
 PCOD9101592
Probable space group: P -1
;
_chemical_formula_sum "Si O2"
_cell_formula_units_Z 16
_cell_length_a 12.265225
_cell_length_b 8.864356
_cell_length_c 10.860632
_cell_angle_alpha 86.914668
_cell_angle_beta 49.132532
_cell_angle_gamma 70.023315
_cell_volume 814.948212
_symmetry_space_group_name_H-M "P -1"
_symmetry_group_IT_number 2
_symmetry_cell_setting 'triclinic'
loop_
_space_group_symop_operation_xyz
x,y,z
-x,-y,-z
loop_
_atom_site_type_symbol
_atom_site_label
_atom_site_fract_x
_atom_site_fract_y
_atom_site_fract_z
Si Si1 0.625848 0.529448 0.815750
Si Si2 0.920313 0.372074 0.932059
Si Si3 0.796741 0.017690 0.841407
Si Si4 0.633238 0.283141 0.160580
Si Si5 0.954923 0.237138 0.639515
Si Si6 0.537834 0.019518 0.331225
Si Si7 0.158510 0.252177 0.984162
Si Si8 0.291613 0.163465 0.285229
O O1 0.534996 0.572284 0.750934
O O2 0.791226 0.373097 0.702089
O O3 0.665364 0.689189 0.805756
O O4 0.500000 0.500000 0.000000
O O5 0.970325 0.291956 0.765158
O O6 0.051044 0.281882 0.941349
O O7 0.763281 0.350610 0.089548
O O8 0.879486 0.565818 0.946132
O O9 0.926612 0.069394 0.680409
O O10 0.689341 0.974519 0.825095
O O11 0.691862 0.173395 0.996743
O O12 0.870149 0.862374 0.885934
O O13 0.617843 0.151387 0.269601
O O14 0.106991 0.227274 0.453719
O O15 0.662592 0.850187 0.187829
O O16 0.500000 0.000000 0.500000
O O17 0.394570 0.093067 0.335728
#
# Coordination Sequence:
#
# PCOD9101592 Si02
#       8
#     2   2   2   2   2   2   2   2
#     4  11  20  37  57  86 115 153 198 237 291 348
#     4  10  20  38  60  84 116 153 202 245 292 347
#     4  10  21  37  58  88 119 151 201 243 291 352
#     4   9  21  37  60  88 113 156 201 242 288 354
#     4  11  22  38  60  87 122 157 194 245 299 345
#     4  10  22  40  59  84 119 155 197 238 301 350
#     4  10  22  36  59  88 111 157 202 245 287 353
#     4  11  24  37  60  89 122 158 194 245 296 349
#
# _framework density 19.633150000000001
#
# number of rings (size 3 to 8) (size 9 to 14) (size 15 to 20)
#    0.000    1.750    2.500    2.250    0.000   12.000 
#    0.000    1.875    0.000    0.000    0.000    0.000 
#    0.000    0.000    0.000    0.000    0.000    0.000 
#
# Total GULP energy -89293.901452 kJ/mol
# GULP energy per Si atom -5580.868841 kJ/mol
# Density = 1.958846 g / cm^3
# Si number density = 19.633150 Si / 1000 Ang^3
#
#
#
# Elastic Constant Matrix: (Units=GPa)
#
#
# Indices 1 2 3 4 5 6 
#
# 1 60.9782 47.1626 36.2644 2.6514 -13.3725 -5.2177
# 2 47.1626 103.3442 41.3625 -15.6345 -6.9343 -10.4203
# 3 36.2644 41.3625 82.7523 -17.4113 -14.9327 -0.1629
# 4 2.6514 -15.6345 -17.4113 24.0768 -2.1603 -6.7767
# 5 -13.3725 -6.9343 -14.9327 -2.1603 34.9535 -1.6388
# 6 -5.2177 -10.4203 -0.1629 -6.7767 -1.6388 26.0542
#
#
#
# Elastic Compliance Matrix: (Units=1/GPa)
#
#
# Indices 1 2 3 4 5 6 
#
# 1 0.038627 -0.016430 -0.013448 -0.025812 0.003925 -0.005387
# 2 -0.016430 0.020637 0.000739 0.018465 -0.000277 0.009753
# 3 -0.013448 0.000739 0.022956 0.020063 0.006206 0.003355
# 4 -0.025812 0.018465 0.020063 0.078144 0.008276 0.023187
# 5 0.003925 -0.000277 0.006206 0.008276 0.033452 0.004971
# 6 -0.005387 0.009753 0.003355 0.023187 0.004971 0.047568
#
#
# Mechanical properties :
#
#
# Convention : Reuss Voigt Hill
#
# Bulk Modulus (GPa) = 41.76823 55.18374 48.47598
# Shear Modulus (GPa) = 16.25257 25.16924 20.71090
#
# Velocity S-wave (km/s) = 2.88029 3.58435 3.25144
# Velocity P-wave (km/s) = 5.69052 6.73042 6.23220
#
# Compressibility (1/GPa) = 0.02394164
#
# Stress axis : x y z
#
# Youngs Moduli (GPa) = 25.88854 48.45674 43.56168
#
# Poissons Ratio (x) = 0.79615 0.58583
# Poissons Ratio (y) = 0.42535 -0.03221
# Poissons Ratio (z) = 0.34816 -0.03583
#
# Static dielectric constant tensor:
#      x y z
#    x 1.690150 0.002680 -0.007020 
#    y 0.002680 1.701490 -0.005820 
#    z -0.007020 -0.005820 1.711550 
# 
# From -- ./inp_files/256812.got.cif
#   From: 2010.05.17/outbox.cif.g08.bks.cpg/sg2_129_cif.got.tgz:256812.got - 2010.06.03 11:33:40.
