data_PCOD9101966
_publ_section_title
;
Structure prediction by ZEFSAII (Michael W. Deem and Ramdas Pophale) SiO2 
 PCOD9101966
Probable space group: P -1
;
_chemical_formula_sum "Si O2"
_cell_formula_units_Z 14
_cell_length_a 5.797722
_cell_length_b 14.670057
_cell_length_c 13.354969
_cell_angle_alpha 43.079568
_cell_angle_beta 51.155596
_cell_angle_gamma 69.947043
_cell_volume 589.903912
_symmetry_space_group_name_H-M "P -1"
_symmetry_group_IT_number 2
_symmetry_cell_setting 'triclinic'
loop_
_space_group_symop_operation_xyz
x,y,z
-x,-y,-z
loop_
_atom_site_type_symbol
_atom_site_label
_atom_site_fract_x
_atom_site_fract_y
_atom_site_fract_z
Si Si1 0.907011 0.162255 0.614863
Si Si2 0.301957 0.284167 0.249584
Si Si3 0.212327 0.567368 0.514437
Si Si4 0.533753 0.701877 0.147194
Si Si5 0.579296 0.902737 0.790571
Si Si6 0.943192 0.457938 0.868184
Si Si7 0.956426 0.959311 0.928053
O O1 0.737056 0.286226 0.561200
O O2 0.234441 0.230468 0.424110
O O3 0.758503 0.039918 0.681808
O O4 0.892296 0.091237 0.783105
O O5 0.234284 0.157848 0.294131
O O6 0.097755 0.395787 0.196360
O O7 0.647549 0.355255 0.073055
O O8 0.500000 0.500000 0.500000
O O9 0.233798 0.617355 0.352737
O O10 0.953299 0.477708 0.727699
O O11 0.758267 0.599498 0.143544
O O12 0.491006 0.788564 0.992676
O O13 0.715434 0.820150 0.078863
O O14 0.264230 0.933707 0.815236
O O15 0.000000 0.000000 0.000000
#
# Coordination Sequence:
#
# PCOD9101966 Si02
#       7
#     2   2   2   2   2   2   2
#     4  10  22  39  60  91 119 153 194 244 293 347
#     4  10  20  39  62  84 122 157 198 237 290 353
#     4   9  18  36  65  83 113 156 192 240 296 338
#     4  10  20  38  61  89 119 152 195 246 294 343
#     4  11  22  37  60  91 118 156 195 239 297 349
#     4   9  19  38  64  82 116 162 194 244 289 342
#     4  11  22  37  61  88 121 154 194 244 296 348
#
# _framework density 23.732676999999999
#
# number of rings (size 3 to 8) (size 9 to 14) (size 15 to 20)
#    0.000    2.000    1.429    2.143    0.000    3.429 
#    2.571    0.714   40.857    0.000    0.000    0.000 
#    0.000    0.000    0.000    0.000    0.000    0.000 
#
# Total GULP energy -78144.855333 kJ/mol
# GULP energy per Si atom -5581.775381 kJ/mol
# Density = 2.367866 g / cm^3
# Si number density = 23.732677 Si / 1000 Ang^3
#
#
#
# Elastic Constant Matrix: (Units=GPa)
#
#
# Indices 1 2 3 4 5 6 
#
# 1 20.1127 27.3488 6.7490 -6.0433 -7.1174 -5.2039
# 2 27.3488 166.0345 28.8559 -0.8673 -3.5851 -19.5045
# 3 6.7490 28.8559 139.6490 5.9216 -27.2105 -8.0474
# 4 -6.0433 -0.8673 5.9216 34.7557 0.2712 3.8376
# 5 -7.1174 -3.5851 -27.2105 0.2712 20.2800 2.6070
# 6 -5.2039 -19.5045 -8.0474 3.8376 2.6070 28.6374
#
#
#
# Elastic Compliance Matrix: (Units=1/GPa)
#
#
# Indices 1 2 3 4 5 6 
#
# 1 0.082034 -0.013260 0.004664 0.012604 0.032206 0.002565
# 2 -0.013260 0.008887 -0.002131 -0.002103 -0.006417 0.003910
# 3 0.004664 -0.002131 0.010446 -0.001264 0.015148 0.001122
# 4 0.012604 -0.002103 -0.001264 0.031543 0.002441 -0.003946
# 5 0.032206 -0.006417 0.015148 0.002441 0.080011 -0.001873
# 6 0.002565 0.003910 0.001122 -0.003946 -0.001873 0.039063
#
#
# Mechanical properties :
#
#
# Convention : Reuss Voigt Hill
#
# Bulk Modulus (GPa) = 12.51383 50.18926 31.35155
# Shear Modulus (GPa) = 16.66235 34.25745 25.45990
#
# Velocity S-wave (km/s) = 2.65256 3.80343 3.27888
# Velocity P-wave (km/s) = 3.82959 6.36253 5.25107
#
# Compressibility (1/GPa) = 0.07991161
#
# Stress axis : x y z
#
# Youngs Moduli (GPa) = 12.19007 112.51991 95.73354
#
# Poissons Ratio (x) = 1.49206 -0.44652
# Poissons Ratio (y) = 0.16165 0.20405
# Poissons Ratio (z) = -0.05686 0.23983
#
# Static dielectric constant tensor:
#      x y z
#    x 1.903240 0.046790 -0.010310 
#    y 0.046790 1.908320 0.000400 
#    z -0.010310 0.000400 1.949390 
# 
# From -- ./inp_files/119218.got.cif
#   From: 2010.05.17/outbox.cif.g08.bks.cpg/sg2_60_cif.got.tgz:119218.got - 2010.06.03 11:33:40.
