data_PCOD9101175
_publ_section_title
;
Structure prediction by ZEFSAII (Michael W. Deem and Ramdas Pophale) SiO2 
 PCOD9101175
Probable space group: P -1
;
_chemical_formula_sum "Si O2"
_cell_formula_units_Z 14
_cell_length_a 13.875100
_cell_length_b 12.321877
_cell_length_c 12.204445
_cell_angle_alpha 34.033885
_cell_angle_beta 29.095667
_cell_angle_gamma 42.480087
_cell_volume 567.184743
_symmetry_space_group_name_H-M "P -1"
_symmetry_group_IT_number 2
_symmetry_cell_setting 'triclinic'
loop_
_space_group_symop_operation_xyz
x,y,z
-x,-y,-z
loop_
_atom_site_type_symbol
_atom_site_label
_atom_site_fract_x
_atom_site_fract_y
_atom_site_fract_z
Si Si1 0.620615 0.764980 0.963949
Si Si2 0.835506 0.608635 0.420848
Si Si3 0.773650 0.509219 0.338974
Si Si4 0.236061 0.626616 0.763232
Si Si5 0.807417 0.671811 0.626111
Si Si6 0.978146 0.056905 0.175105
Si Si7 0.261777 0.078606 0.069956
O O1 0.680838 0.735343 0.803728
O O2 0.771041 0.862071 0.820343
O O3 0.614571 0.545860 0.200588
O O4 0.432263 0.912287 0.033185
O O5 0.744895 0.483370 0.518514
O O6 0.713919 0.627696 0.638257
O O7 0.045697 0.505440 0.333314
O O8 0.884650 0.811745 0.145632
O O9 0.742065 0.351862 0.407203
O O10 0.679391 0.716286 0.215580
O O11 0.013223 0.545871 0.066080
O O12 0.219751 0.814813 0.698693
O O13 0.936807 0.859456 0.321770
O O14 0.085287 0.017552 0.218313
#
# Coordination Sequence:
#
# PCOD9101175 Si02
#       7
#     2   2   2   2   2   2   2
#     4  10  16  32  52  78 102 138 163 207 254 312
#     4   9  19  34  49  76 104 134 167 215 243 294
#     4   8  13  29  49  69  92 136 161 197 243 301
#     4   8  14  27  52  69  98 129 163 200 257 283
#     4  11  20  30  56  78  99 131 181 204 245 296
#     4  10  19  34  52  78 101 133 167 216 248 297
#     4   8  18  30  53  74 108 134 161 204 273 291
#
# _framework density 24.683316000000001
#
# number of rings (size 3 to 8) (size 9 to 14) (size 15 to 20)
#    0.000    3.143    2.857    1.286    0.000    0.571 
#    0.000    2.857    6.286    6.000    0.000    0.000 
#    0.000    0.000    0.000    0.000    0.000    0.000 
#
# Total GULP energy -78188.619337 kJ/mol
# GULP energy per Si atom -5584.901381 kJ/mol
# Density = 2.462714 g / cm^3
# Si number density = 24.683316 Si / 1000 Ang^3
#
#
#
# Elastic Constant Matrix: (Units=GPa)
#
#
# Indices 1 2 3 4 5 6 
#
# 1 129.0870 40.1420 35.4298 21.6071 45.3828 23.3151
# 2 40.1420 108.8076 25.6332 3.8317 23.9600 2.5486
# 3 35.4298 25.6332 75.3239 3.3433 28.8149 11.3026
# 4 21.6071 3.8317 3.3433 34.6181 17.0986 17.3176
# 5 45.3828 23.9600 28.8149 17.0986 38.0719 12.2245
# 6 23.3151 2.5486 11.3026 17.3176 12.2245 47.1140
#
#
#
# Elastic Compliance Matrix: (Units=1/GPa)
#
#
# Indices 1 2 3 4 5 6 
#
# 1 0.013987 -0.001890 0.000160 0.000318 -0.014735 -0.003152
# 2 -0.001890 0.011216 -0.001223 0.001995 -0.005170 0.001230
# 3 0.000160 -0.001223 0.020515 0.008517 -0.017655 -0.003485
# 4 0.000318 0.001995 0.008517 0.046326 -0.024739 -0.012918
# 5 -0.014735 -0.005170 -0.017655 -0.024739 0.070741 0.002546
# 6 -0.003152 0.001230 -0.003485 -0.012918 0.002546 0.027642
#
#
# Mechanical properties :
#
#
# Convention : Reuss Voigt Hill
#
# Bulk Modulus (GPa) = 25.11825 57.29209 41.20517
# Shear Modulus (GPa) = 23.85460 38.09502 30.97481
#
# Velocity S-wave (km/s) = 3.11211 3.93281 3.54628
# Velocity P-wave (km/s) = 4.80749 6.62449 5.78774
#
# Compressibility (1/GPa) = 0.03981170
#
# Stress axis : x y z
#
# Youngs Moduli (GPa) = 71.49445 89.16217 48.74365
#
# Poissons Ratio (x) = 0.16856 -0.00780
# Poissons Ratio (y) = 0.13516 0.05960
# Poissons Ratio (z) = -0.01144 0.10902
#
# Static dielectric constant tensor:
#      x y z
#    x 1.975450 -0.012990 -0.059730 
#    y -0.012990 1.953330 0.033480 
#    z -0.059730 0.033480 2.109610 
# 
# From -- ./inp_files/379546.got.cif
#   From: 2010.05.17/outbox.cif.g08.bks.cpg/sg2_190_cif.got.tgz:379546.got - 2010.06.03 11:33:40.
