data_PCOD9101670
_publ_section_title
;
Structure prediction by ZEFSAII (Michael W. Deem and Ramdas Pophale) SiO2 
 PCOD9101670
Probable space group: P -1
;
_chemical_formula_sum "Si O2"
_cell_formula_units_Z 16
_cell_length_a 9.318303
_cell_length_b 12.398614
_cell_length_c 9.360699
_cell_angle_alpha 101.007386
_cell_angle_beta 93.372652
_cell_angle_gamma 49.169756
_cell_volume 800.068409
_symmetry_space_group_name_H-M "P -1"
_symmetry_group_IT_number 2
_symmetry_cell_setting 'triclinic'
loop_
_space_group_symop_operation_xyz
x,y,z
-x,-y,-z
loop_
_atom_site_type_symbol
_atom_site_label
_atom_site_fract_x
_atom_site_fract_y
_atom_site_fract_z
Si Si1 0.347070 0.603228 0.825300
Si Si2 0.600466 0.893829 0.843154
Si Si3 0.878526 0.211522 0.398556
Si Si4 0.318432 0.955729 0.339523
Si Si5 0.494476 0.680169 0.095399
Si Si6 0.170293 0.400115 0.094802
Si Si7 0.284636 0.505456 0.362844
Si Si8 0.551442 0.197187 0.408759
O O1 0.169664 0.723921 0.748524
O O2 0.370794 0.466445 0.840118
O O3 0.533249 0.538365 0.723800
O O4 0.365272 0.667555 0.984572
O O5 0.794570 0.735546 0.864693
O O6 0.476040 0.860331 0.750988
O O7 0.634641 0.966728 0.741665
O O8 0.500000 0.000000 0.000000
O O9 0.820083 0.342151 0.529551
O O10 0.740021 0.177761 0.411047
O O11 0.096742 0.072462 0.393274
O O12 0.369211 0.820613 0.221039
O O13 0.437967 0.886067 0.474726
O O14 0.633716 0.678351 0.000628
O O15 0.161219 0.497924 0.241105
O O16 0.000000 0.500000 0.000000
O O17 0.376081 0.371449 0.443825
#
# Coordination Sequence:
#
# PCOD9101670 Si02
#       8
#     2   2   2   2   2   2   2   2
#     4   9  19  36  62  89 117 161 207 251 304 363
#     4  11  24  45  61  87 129 172 203 249 315 374
#     4  11  22  37  64  95 124 153 210 260 309 357
#     4  12  24  38  63  95 129 159 207 252 315 370
#     4  10  20  38  60  87 123 161 203 250 310 367
#     4  10  22  40  63  87 118 165 213 254 299 363
#     4   9  19  40  64  87 121 160 203 256 309 359
#     4  10  22  43  64  88 125 170 205 246 314 372
#
# _framework density 19.998290999999998
#
# number of rings (size 3 to 8) (size 9 to 14) (size 15 to 20)
#    0.000    1.750    1.250    4.500    1.750    1.500 
#    2.250    1.250    0.000    0.000    0.000    0.000 
#    0.000    0.000    0.000    0.000    0.000    0.000 
#
# Total GULP energy -89379.186890 kJ/mol
# GULP energy per Si atom -5586.199181 kJ/mol
# Density = 1.995277 g / cm^3
# Si number density = 19.998291 Si / 1000 Ang^3
#
#
#
# Elastic Constant Matrix: (Units=GPa)
#
#
# Indices 1 2 3 4 5 6 
#
# 1 50.9400 41.3925 31.1999 2.9897 9.8542 6.2089
# 2 41.3925 118.8084 67.9918 -10.0378 11.9364 11.3888
# 3 31.1999 67.9918 109.5089 -3.4886 19.4056 0.0885
# 4 2.9897 -10.0378 -3.4886 50.7253 10.6817 -4.7341
# 5 9.8542 11.9364 19.4056 10.6817 24.2141 -7.2361
# 6 6.2089 11.3888 0.0885 -4.7341 -7.2361 28.2212
#
#
#
# Elastic Compliance Matrix: (Units=1/GPa)
#
#
# Indices 1 2 3 4 5 6 
#
# 1 0.029716 -0.008013 -0.002378 -0.002594 -0.006724 -0.005456
# 2 -0.008013 0.016370 -0.007502 0.003086 -0.001564 -0.004703
# 3 -0.002378 -0.007502 0.016012 0.001682 -0.008423 0.001623
# 4 -0.002594 0.003086 0.001682 0.023128 -0.011978 0.000128
# 5 -0.006724 -0.001564 -0.008423 -0.011978 0.061598 0.015922
# 6 -0.005456 -0.004703 0.001623 0.000128 0.015922 0.042632
#
#
# Mechanical properties :
#
#
# Convention : Reuss Voigt Hill
#
# Bulk Modulus (GPa) = 38.00394 62.26952 50.13673
# Shear Modulus (GPa) = 21.36634 29.87698 25.62166
#
# Velocity S-wave (km/s) = 3.27220 3.86939 3.58326
# Velocity P-wave (km/s) = 5.77245 7.15318 6.49958
#
# Compressibility (1/GPa) = 0.02631306
#
# Stress axis : x y z
#
# Youngs Moduli (GPa) = 33.65135 61.08574 62.45305
#
# Poissons Ratio (x) = 0.48946 0.14853
# Poissons Ratio (y) = 0.26964 0.46852
# Poissons Ratio (z) = 0.08003 0.45826
#
# Static dielectric constant tensor:
#      x y z
#    x 1.709790 0.033070 -0.007720 
#    y 0.033070 1.704010 -0.035310 
#    z -0.007720 -0.035310 1.704530 
# 
# From -- ./inp_files/186641.got.cif
#   From: 2010.05.17/outbox.cif.g08.bks.cpg/sg2_94_cif.got.tgz:186641.got - 2010.06.03 11:33:40.
