data_PCOD9101710
_publ_section_title
;
Structure prediction by ZEFSAII (Michael W. Deem and Ramdas Pophale) SiO2 
 PCOD9101710
Probable space group: P -1
;
_chemical_formula_sum "Si O2"
_cell_formula_units_Z 16
_cell_length_a 29.845430
_cell_length_b 14.648787
_cell_length_c 9.288500
_cell_angle_alpha 145.426376
_cell_angle_beta 151.149263
_cell_angle_gamma 19.656367
_cell_volume 659.112636
_symmetry_space_group_name_H-M "P -1"
_symmetry_group_IT_number 2
_symmetry_cell_setting 'triclinic'
loop_
_space_group_symop_operation_xyz
x,y,z
-x,-y,-z
loop_
_atom_site_type_symbol
_atom_site_label
_atom_site_fract_x
_atom_site_fract_y
_atom_site_fract_z
Si Si1 0.452052 0.883187 0.243658
Si Si2 0.917926 0.334331 0.121747
Si Si3 0.729912 0.445142 0.266707
Si Si4 0.841502 0.961246 0.041378
Si Si5 0.165641 0.921936 0.509030
Si Si6 0.121442 0.464825 0.030216
Si Si7 0.648072 0.680502 0.029423
Si Si8 0.515925 0.625240 0.377281
O O1 0.264201 0.143388 0.040237
O O2 0.500000 0.000000 0.500000
O O3 0.563001 0.636487 0.121745
O O4 0.506333 0.768739 0.408487
O O5 0.879386 0.205997 0.791747
O O6 0.906985 0.467049 0.129024
O O7 0.788861 0.549897 0.159597
O O8 0.080379 0.110353 0.373841
O O9 0.830176 0.141902 0.150699
O O10 0.817276 0.451444 0.621511
O O11 0.697122 0.578750 0.198001
O O12 0.890686 0.935941 0.310343
O O13 0.662263 0.157370 0.802781
O O14 0.958383 0.670492 0.921757
O O15 0.354754 0.678001 0.716861
O O16 0.600590 0.575865 0.691681
O O17 0.500000 0.000000 0.000000
#
# Coordination Sequence:
#
# PCOD9101710 Si02
#       8
#     2   2   2   2   2   2   2   2
#     4  10  20  41  64  87 118 163 209 256 301 367
#     4  10  21  37  63  91 120 156 202 266 301 346
#     4  11  21  37  66  91 120 162 216 257 298 368
#     4  12  24  38  61  94 128 164 202 256 313 377
#     4  10  20  38  60  89 121 158 203 251 312 357
#     4  11  22  38  62  94 125 159 214 255 304 361
#     4  11  22  40  65  91 121 160 213 261 308 365
#     4  11  24  41  61  90 128 164 202 253 323 368
#
# _framework density 24.275061999999998
#
# number of rings (size 3 to 8) (size 9 to 14) (size 15 to 20)
#    0.000    1.250    2.500    6.000    5.250    1.000 
#    0.000    0.000    0.000    2.250    0.000    0.000 
#    0.000    0.000    0.000    0.000    0.000    0.000 
#
# Total GULP energy -89580.539478 kJ/mol
# GULP energy per Si atom -5598.783717 kJ/mol
# Density = 2.421981 g / cm^3
# Si number density = 24.275062 Si / 1000 Ang^3
#
#
#
# Elastic Constant Matrix: (Units=GPa)
#
#
# Indices 1 2 3 4 5 6 
#
# 1 121.7505 43.9300 45.5420 -23.2287 -29.1351 -12.0121
# 2 43.9300 125.8912 25.4083 -36.4140 -3.9311 -15.2269
# 3 45.5420 25.4083 90.0070 -29.9629 -12.0821 -4.6695
# 4 -23.2287 -36.4140 -29.9629 38.3674 6.6761 1.5790
# 5 -29.1351 -3.9311 -12.0821 6.6761 40.6935 -13.9594
# 6 -12.0121 -15.2269 -4.6695 1.5790 -13.9594 45.7493
#
#
#
# Elastic Compliance Matrix: (Units=1/GPa)
#
#
# Indices 1 2 3 4 5 6 
#
# 1 0.013962 -0.002966 -0.004557 0.000093 0.010164 0.005312
# 2 -0.002966 0.012152 0.001768 0.011247 -0.001363 0.002642
# 3 -0.004557 0.001768 0.017034 0.012148 0.000242 0.000785
# 4 0.000093 0.011247 0.012148 0.046495 -0.001900 0.002823
# 5 0.010164 -0.001363 0.000242 -0.001900 0.036739 0.013515
# 6 0.005312 0.002642 0.000785 0.002823 0.013515 0.028239
#
#
# Mechanical properties :
#
#
# Convention : Reuss Voigt Hill
#
# Bulk Modulus (GPa) = 31.60609 63.04546 47.32578
# Shear Modulus (GPa) = 28.30049 39.81326 34.05688
#
# Velocity S-wave (km/s) = 3.41812 4.05419 3.74967
# Velocity P-wave (km/s) = 5.35036 6.92409 6.18746
#
# Compressibility (1/GPa) = 0.03163947
#
# Stress axis : x y z
#
# Youngs Moduli (GPa) = 71.62259 82.29429 58.70681
#
# Poissons Ratio (x) = 0.24407 0.26750
# Poissons Ratio (y) = 0.21242 -0.10382
# Poissons Ratio (z) = 0.32636 -0.14553
#
# Static dielectric constant tensor:
#      x y z
#    x 1.905620 -0.032050 0.081370 
#    y -0.032050 2.001560 0.042820 
#    z 0.081370 0.042820 1.955930 
# 
# From -- ./inp_files/358872.got.cif
#   From: 2010.05.17/outbox.cif.g08.bks.cpg/sg2_180_cif.got.tgz:358872.got - 2010.06.03 11:33:40.
