data_PCOD9101974
_publ_section_title
;
Structure prediction by ZEFSAII (Michael W. Deem and Ramdas Pophale) SiO2 
 PCOD9101974
Probable space group: P -1
;
_chemical_formula_sum "Si O2"
_cell_formula_units_Z 16
_cell_length_a 14.900784
_cell_length_b 15.457968
_cell_length_c 15.874812
_cell_angle_alpha 155.285473
_cell_angle_beta 152.412607
_cell_angle_gamma 36.807719
_cell_volume 707.795027
_symmetry_space_group_name_H-M "P -1"
_symmetry_group_IT_number 2
_symmetry_cell_setting 'triclinic'
loop_
_space_group_symop_operation_xyz
x,y,z
-x,-y,-z
loop_
_atom_site_type_symbol
_atom_site_label
_atom_site_fract_x
_atom_site_fract_y
_atom_site_fract_z
Si Si1 0.275743 0.515821 0.592875
Si Si2 0.951305 0.289691 0.825369
Si Si3 0.833341 0.102867 0.071547
Si Si4 0.533993 0.375661 0.540662
Si Si5 0.331562 0.776795 0.131348
Si Si6 0.244262 0.326315 0.580344
Si Si7 0.358463 0.185415 0.066346
Si Si8 0.979169 0.291676 0.049611
O O1 0.302763 0.750101 0.855966
O O2 0.451265 0.417228 0.600998
O O3 0.233780 0.385694 0.526561
O O4 0.087757 0.494560 0.357637
O O5 0.727643 0.242611 0.577791
O O6 0.129515 0.140659 0.821915
O O7 0.950945 0.319357 0.952080
O O8 0.000000 0.500000 0.000000
O O9 0.042121 0.221291 0.344618
O O10 0.753721 0.087587 0.896175
O O11 0.876135 0.890120 0.964149
O O12 0.386175 0.265634 0.256057
O O13 0.579332 0.609255 0.752436
O O14 0.562666 0.799946 0.352411
O O15 0.281707 0.543500 0.850643
O O16 0.215905 0.774710 0.121083
O O17 0.500000 0.000000 0.000000
#
# Coordination Sequence:
#
# PCOD9101974 Si02
#       8
#     2   2   2   2   2   2   2   2
#     4  11  21  39  63  87 127 165 205 249 305 371
#     4  10  23  44  64  93 124 162 212 257 314 376
#     4  11  23  39  58  93 127 160 209 253 307 360
#     4  10  22  41  64  89 122 166 200 253 318 369
#     4  10  20  38  62  89 126 164 207 251 302 369
#     4  10  20  38  61  89 125 169 203 248 307 361
#     4  10  22  41  68  92 121 154 205 263 314 371
#     4  12  22  39  65  88 124 166 206 259 310 365
#
# _framework density 22.605415000000001
#
# number of rings (size 3 to 8) (size 9 to 14) (size 15 to 20)
#    0.000    1.500    3.750    1.875    1.750    1.000 
#    2.250    2.500    0.000    0.000    0.000    0.000 
#    0.000    0.000    0.000    0.000    0.000    0.000 
#
# Total GULP energy -89410.236163 kJ/mol
# GULP energy per Si atom -5588.139760 kJ/mol
# Density = 2.255396 g / cm^3
# Si number density = 22.605415 Si / 1000 Ang^3
#
#
#
# Elastic Constant Matrix: (Units=GPa)
#
#
# Indices 1 2 3 4 5 6 
#
# 1 120.0765 39.2848 11.2718 5.0383 2.8959 -1.0231
# 2 39.2848 109.2164 18.5366 -9.2210 -0.9364 -10.0652
# 3 11.2718 18.5366 47.3418 -14.5726 6.5913 -1.0995
# 4 5.0383 -9.2210 -14.5726 32.7101 -15.1821 -3.0102
# 5 2.8959 -0.9364 6.5913 -15.1821 24.9236 -11.5328
# 6 -1.0231 -10.0652 -1.0995 -3.0102 -11.5328 49.6613
#
#
#
# Elastic Compliance Matrix: (Units=1/GPa)
#
#
# Indices 1 2 3 4 5 6 
#
# 1 0.010311 -0.004206 -0.002101 -0.006764 -0.006081 -0.002509
# 2 -0.004206 0.012213 -0.002610 0.007132 0.008135 0.004652
# 3 -0.002101 -0.002610 0.026153 0.011669 0.000748 0.000888
# 4 -0.006764 0.007132 0.011669 0.059053 0.040693 0.014594
# 5 -0.006081 0.008135 0.000748 0.040693 0.075715 0.021590
# 6 -0.002509 0.004652 0.000888 0.014594 0.021590 0.026946
#
#
# Mechanical properties :
#
#
# Convention : Reuss Voigt Hill
#
# Bulk Modulus (GPa) = 32.42347 46.09125 39.25736
# Shear Modulus (GPa) = 20.96392 35.29509 28.12950
#
# Velocity S-wave (km/s) = 3.04860 3.95569 3.53139
# Velocity P-wave (km/s) = 5.17362 6.42627 5.83367
#
# Compressibility (1/GPa) = 0.03084185
#
# Stress axis : x y z
#
# Youngs Moduli (GPa) = 96.98802 81.88202 38.23606
#
# Poissons Ratio (x) = 0.34443 0.08035
# Poissons Ratio (y) = 0.40797 0.09978
# Poissons Ratio (z) = 0.20381 0.21367
#
# Static dielectric constant tensor:
#      x y z
#    x 1.863710 -0.068270 0.005570 
#    y -0.068270 1.880770 0.020110 
#    z 0.005570 0.020110 1.858790 
# 
# From -- ./inp_files/529757.got.cif
#   From: 2010.05.17/outbox.cif.g08.bks.cpg/sg2_265_cif.got.tgz:529757.got - 2010.06.03 11:33:40.
