data_PCOD9101037
_publ_section_title
;
Structure prediction by ZEFSAII (Michael W. Deem and Ramdas Pophale) SiO2 
 PCOD9101037
Probable space group: P -1
;
_chemical_formula_sum "Si O2"
_cell_formula_units_Z 13
_cell_length_a 6.689940
_cell_length_b 12.847914
_cell_length_c 9.824494
_cell_angle_alpha 57.309091
_cell_angle_beta 79.689066
_cell_angle_gamma 120.021010
_cell_volume 484.497267
_symmetry_space_group_name_H-M "P -1"
_symmetry_group_IT_number 2
_symmetry_cell_setting 'triclinic'
loop_
_space_group_symop_operation_xyz
x,y,z
-x,-y,-z
loop_
_atom_site_type_symbol
_atom_site_label
_atom_site_fract_x
_atom_site_fract_y
_atom_site_fract_z
Si Si1 0.750883 0.877728 0.732708
Si Si2 0.291252 0.476213 0.435745
Si Si3 0.151665 0.911975 0.181308
Si Si4 0.000000 0.500000 0.000000
Si Si5 0.626600 0.188755 0.396082
Si Si6 0.319778 0.409832 0.947456
Si Si7 0.574157 0.828983 0.267431
O O1 0.451991 0.750261 0.767123
O O2 0.824347 0.788378 0.872774
O O3 0.000000 0.000000 0.500000
O O4 0.721308 0.975190 0.774183
O O5 0.500000 0.500000 0.500000
O O6 0.973351 0.277461 0.635953
O O7 0.347348 0.643291 0.343511
O O8 0.439807 0.498848 0.262701
O O9 0.863003 0.870385 0.221332
O O10 0.335009 0.016913 0.948404
O O11 0.037388 0.626235 0.784459
O O12 0.897033 0.572020 0.067089
O O13 0.509614 0.172708 0.567709
O O14 0.500000 0.000000 0.500000
O O15 0.500000 0.500000 0.000000
#
# Coordination Sequence:
#
# PCOD9101037 Si02
#       7
#     2   2   2   1   2   2   2
#     4  12  22  42  70 103 142 184 239 293 355 421
#     4  10  21  38  67 100 136 183 240 286 353 431
#     4  10  20  37  68  98 129 178 239 292 347 424
#     4  12  26  44  70 106 146 184 234 298 354 414
#     4  12  27  45  69 105 147 186 240 298 358 425
#     4  12  24  44  71 106 144 185 239 294 353 425
#     4  10  21  40  63 101 136 181 239 285 358 429
#
# _framework density 26.831937
#
# number of rings (size 3 to 8) (size 9 to 14) (size 15 to 20)
#    0.000    0.923    4.615    3.692    0.000    1.231 
#    0.000    0.769    0.000    9.231    0.000    0.000 
#    0.000    0.000    0.000    0.000    0.000    0.000 
#
# Total GULP energy -72584.450196 kJ/mol
# GULP energy per Si atom -5583.419246 kJ/mol
# Density = 2.677087 g / cm^3
# Si number density = 26.831937 Si / 1000 Ang^3
#
#
#
# Elastic Constant Matrix: (Units=GPa)
#
#
# Indices 1 2 3 4 5 6 
#
# 1 120.3962 24.9562 26.0839 -0.1245 6.9146 -19.4214
# 2 24.9562 137.0046 80.8241 18.3592 -4.5779 -24.9171
# 3 26.0839 80.8241 246.3044 14.7985 -14.9608 -26.9375
# 4 -0.1245 18.3592 14.7985 50.9503 -9.2629 13.9554
# 5 6.9146 -4.5779 -14.9608 -9.2629 38.5498 -0.5696
# 6 -19.4214 -24.9171 -26.9375 13.9554 -0.5696 45.7053
#
#
#
# Elastic Compliance Matrix: (Units=1/GPa)
#
#
# Indices 1 2 3 4 5 6 
#
# 1 0.009239 -0.000736 -0.000420 -0.000938 -0.002081 0.003537
# 2 -0.000736 0.010499 -0.002548 -0.004616 -0.000641 0.005311
# 3 -0.000420 -0.002548 0.005289 -0.000816 0.001656 0.001820
# 4 -0.000938 -0.004616 -0.000816 0.025531 0.005274 -0.011126
# 5 -0.002081 -0.000641 0.001656 0.005274 0.028125 -0.001517
# 6 0.003537 0.005311 0.001820 -0.011126 -0.001517 0.030729
#
#
# Mechanical properties :
#
#
# Convention : Reuss Voigt Hill
#
# Bulk Modulus (GPa) = 56.75527 85.27039 71.01283
# Shear Modulus (GPa) = 40.75207 51.83047 46.29127
#
# Velocity S-wave (km/s) = 3.90139 4.39985 4.15810
# Velocity P-wave (km/s) = 6.44147 7.59342 7.04104
#
# Compressibility (1/GPa) = 0.01761951
#
# Stress axis : x y z
#
# Youngs Moduli (GPa) = 108.24214 95.24391 189.05937
#
# Poissons Ratio (x) = 0.07005 0.07944
# Poissons Ratio (y) = 0.07961 0.48176
# Poissons Ratio (z) = 0.04548 0.24270
#
# Static dielectric constant tensor:
#      x y z
#    x 1.991590 -0.297790 0.262710 
#    y -0.297790 2.264560 -0.034030 
#    z 0.262710 -0.034030 1.950410 
# 
# From -- ./inp_files/164190.got.cif
#   From: 2010.05.17/outbox.cif.g08.bks.cpg/sg2_83_cif.got.tgz:164190.got - 2010.06.03 11:33:40.
