data_PCOD9101510
_publ_section_title
;
Structure prediction by ZEFSAII (Michael W. Deem and Ramdas Pophale) SiO2 
 PCOD9101510
Probable space group: P -1
;
_chemical_formula_sum "Si O2"
_cell_formula_units_Z 14
_cell_length_a 5.105946
_cell_length_b 12.823391
_cell_length_c 11.963723
_cell_angle_alpha 61.262657
_cell_angle_beta 80.831377
_cell_angle_gamma 84.086014
_cell_volume 677.759225
_symmetry_space_group_name_H-M "P -1"
_symmetry_group_IT_number 2
_symmetry_cell_setting 'triclinic'
loop_
_space_group_symop_operation_xyz
x,y,z
-x,-y,-z
loop_
_atom_site_type_symbol
_atom_site_label
_atom_site_fract_x
_atom_site_fract_y
_atom_site_fract_z
Si Si1 0.708685 0.328764 0.937023
Si Si2 0.240893 0.428283 0.786461
Si Si3 0.919762 0.327477 0.451034
Si Si4 0.274153 0.936622 0.979988
Si Si5 0.994848 0.125089 0.374358
Si Si6 0.390821 0.365645 0.573267
Si Si7 0.453398 0.846449 0.787493
O O1 0.510409 0.421411 0.841917
O O2 0.000673 0.377715 0.899856
O O3 0.725298 0.206024 0.926890
O O4 0.592007 0.281515 0.085522
O O5 0.156886 0.557305 0.678495
O O6 0.289732 0.346031 0.715523
O O7 0.020013 0.225249 0.414637
O O8 0.649432 0.291945 0.551388
O O9 0.147110 0.358100 0.508498
O O10 0.339002 0.938401 0.841866
O O11 0.500000 0.000000 0.000000
O O12 0.000000 0.000000 0.000000
O O13 0.721674 0.142942 0.316453
O O14 0.241047 0.133821 0.268444
O O15 0.000000 0.000000 0.500000
O O16 0.500000 0.500000 0.500000
#
# Coordination Sequence:
#
# PCOD9101510 Si02
#       7
#     2   2   2   2   2   2   2
#     4  10  22  37  62  94 127 158 190 253 326 367
#     4  11  19  39  62  95 131 158 198 253 319 385
#     4  11  23  40  65  91 125 174 210 257 307 365
#     4  10  20  40  63  90 124 162 202 246 322 366
#     4  12  25  48  63  88 122 171 222 260 300 362
#     4  10  20  38  59  92 129 161 202 258 308 359
#     4  10  24  44  64  85 133 157 198 278 306 348
#
# _framework density 20.656303000000001
#
# number of rings (size 3 to 8) (size 9 to 14) (size 15 to 20)
#    0.857    0.571    0.000    8.143    0.000    0.000 
#   15.429    4.286    0.000    0.000    0.000    0.000 
#    0.000    0.000    0.000    0.000    0.000    0.000 
#
# Total GULP energy -78174.070271 kJ/mol
# GULP energy per Si atom -5583.862162 kJ/mol
# Density = 2.060929 g / cm^3
# Si number density = 20.656303 Si / 1000 Ang^3
#
#
#
# Elastic Constant Matrix: (Units=GPa)
#
#
# Indices 1 2 3 4 5 6 
#
# 1 97.8616 8.2955 -3.8243 -2.2286 1.4652 -7.7970
# 2 8.2955 55.5831 9.7836 7.7422 1.1658 -10.7769
# 3 -3.8243 9.7836 59.7202 -3.0324 -5.7482 -11.0829
# 4 -2.2286 7.7422 -3.0324 20.3897 2.3612 -2.5787
# 5 1.4652 1.1658 -5.7482 2.3612 47.6577 9.6516
# 6 -7.7970 -10.7769 -11.0829 -2.5787 9.6516 22.8084
#
#
#
# Elastic Compliance Matrix: (Units=1/GPa)
#
#
# Indices 1 2 3 4 5 6 
#
# 1 0.010865 -0.001375 0.001829 0.002720 -0.001178 0.004760
# 2 -0.001375 0.021355 -0.002600 -0.007332 -0.002138 0.008433
# 3 0.001829 -0.002600 0.019293 0.005207 0.000198 0.009276
# 4 0.002720 -0.007332 0.005207 0.054269 -0.003507 0.007615
# 5 -0.001178 -0.002138 0.000198 -0.003507 0.023642 -0.011718
# 6 0.004760 0.008433 0.009276 0.007615 -0.011718 0.059782
#
#
# Mechanical properties :
#
#
# Convention : Reuss Voigt Hill
#
# Bulk Modulus (GPa) = 21.17657 26.85271 24.01464
# Shear Modulus (GPa) = 23.89624 31.43186 27.66405
#
# Velocity S-wave (km/s) = 3.40494 3.90508 3.66355
# Velocity P-wave (km/s) = 5.07270 5.77588 5.43567
#
# Compressibility (1/GPa) = 0.04722201
#
# Stress axis : x y z
#
# Youngs Moduli (GPa) = 92.03586 46.82762 51.83312
#
# Poissons Ratio (x) = 0.06438 -0.09480
# Poissons Ratio (y) = 0.12654 0.13475
# Poissons Ratio (z) = -0.16833 0.12173
#
# Static dielectric constant tensor:
#      x y z
#    x 1.684900 -0.024990 -0.013640 
#    y -0.024990 1.753070 0.011050 
#    z -0.013640 0.011050 1.767390 
# 
# From -- ./inp_files/364031.got.cif
#   From: 2010.05.17/outbox.cif.g08.bks.cpg/sg2_183_cif.got.tgz:364031.got - 2010.06.03 11:33:40.
