data_PCOD9101073
_publ_section_title
;
Structure prediction by ZEFSAII (Michael W. Deem and Ramdas Pophale) SiO2 
 PCOD9101073
Probable space group: P -1
;
_chemical_formula_sum "Si O2"
_cell_formula_units_Z 16
_cell_length_a 12.393984
_cell_length_b 8.633499
_cell_length_c 15.215678
_cell_angle_alpha 30.768915
_cell_angle_beta 74.707280
_cell_angle_gamma 86.495808
_cell_volume 756.885925
_symmetry_space_group_name_H-M "P -1"
_symmetry_group_IT_number 2
_symmetry_cell_setting 'triclinic'
loop_
_space_group_symop_operation_xyz
x,y,z
-x,-y,-z
loop_
_atom_site_type_symbol
_atom_site_label
_atom_site_fract_x
_atom_site_fract_y
_atom_site_fract_z
Si Si1 0.924065 0.554799 0.071215
Si Si2 0.680535 0.506368 0.903809
Si Si3 0.340898 0.049259 0.155437
Si Si4 0.527955 0.873005 0.308353
Si Si5 0.485846 0.451107 0.232386
Si Si6 0.653803 0.073648 0.367952
Si Si7 0.062406 0.376118 0.288156
Si Si8 0.912453 0.272735 0.701853
O O1 0.791951 0.285106 0.229829
O O2 0.989317 0.507613 0.169151
O O3 0.000000 0.500000 0.000000
O O4 0.922522 0.917713 0.884960
O O5 0.683630 0.663814 0.923071
O O6 0.589110 0.619203 0.809035
O O7 0.809471 0.592567 0.793984
O O8 0.626424 0.118810 0.105611
O O9 0.407959 0.909721 0.280191
O O10 0.220066 0.799342 0.270385
O O11 0.427529 0.190942 0.984764
O O12 0.500000 0.500000 0.500000
O O13 0.583372 0.000243 0.327951
O O14 0.584786 0.295101 0.318737
O O15 0.379325 0.274946 0.408309
O O16 0.070758 0.556098 0.291076
O O17 0.000000 0.000000 0.500000
O O18 0.000000 0.500000 0.500000
#
# Coordination Sequence:
#
# PCOD9101073 Si02
#       8
#     2   2   2   2   2   2   2   2
#     4  12  25  47  76 101 140 183 234 291 346 412
#     4  11  21  44  67  94 134 180 225 271 342 412
#     4  11  21  44  68  92 132 180 224 274 344 406
#     4  11  23  38  63 100 133 170 217 276 338 402
#     4  10  20  37  70  94 130 173 219 276 336 409
#     4  11  21  40  65 103 129 170 224 273 343 402
#     4  12  27  46  69 102 137 184 233 288 347 409
#     4  12  27  47  69 100 136 186 238 286 343 409
#
# _framework density 21.139249
#
# number of rings (size 3 to 8) (size 9 to 14) (size 15 to 20)
#    0.000    0.750    3.750    4.875    0.000    5.000 
#    0.000    2.500    0.000    0.000    0.000    0.000 
#    0.000    0.000    0.000    0.000    0.000    0.000 
#
# Total GULP energy -89203.374226 kJ/mol
# GULP energy per Si atom -5575.210889 kJ/mol
# Density = 2.109114 g / cm^3
# Si number density = 21.139249 Si / 1000 Ang^3
#
#
#
# Elastic Constant Matrix: (Units=GPa)
#
#
# Indices 1 2 3 4 5 6 
#
# 1 147.2360 66.2193 88.1434 1.0658 -30.6265 23.2271
# 2 66.2193 105.5736 69.0666 0.3430 -14.0030 11.4869
# 3 88.1434 69.0666 183.8326 0.6134 -25.3756 6.8876
# 4 1.0658 0.3430 0.6134 30.4510 4.0587 6.3313
# 5 -30.6265 -14.0030 -25.3756 4.0587 33.5918 1.5020
# 6 23.2271 11.4869 6.8876 6.3313 1.5020 37.4668
#
#
#
# Elastic Compliance Matrix: (Units=1/GPa)
#
#
# Indices 1 2 3 4 5 6 
#
# 1 0.013682 -0.004463 -0.003484 -0.000050 0.008292 -0.006797
# 2 -0.004463 0.014507 -0.003345 0.000362 -0.000543 -0.001105
# 3 -0.003484 -0.003345 0.008571 -0.000607 0.001903 0.001636
# 4 -0.000050 0.000362 -0.000607 0.034593 -0.004281 -0.005642
# 5 0.008292 -0.000543 0.001903 -0.004281 0.039334 -0.006178
# 6 -0.006797 -0.001105 0.001636 -0.005642 -0.006178 0.032143
#
#
# Mechanical properties :
#
#
# Convention : Reuss Voigt Hill
#
# Bulk Modulus (GPa) = 70.54605 98.16676 84.35641
# Shear Modulus (GPa) = 29.38745 34.51610 31.95178
#
# Velocity S-wave (km/s) = 3.73256 4.04517 3.89201
# Velocity P-wave (km/s) = 7.21253 8.26782 7.75814
#
# Compressibility (1/GPa) = 0.01417514
#
# Stress axis : x y z
#
# Youngs Moduli (GPa) = 73.08651 68.93258 116.67915
#
# Poissons Ratio (x) = 0.30766 0.40652
# Poissons Ratio (y) = 0.32620 0.39030
# Poissons Ratio (z) = 0.25464 0.23059
#
# Static dielectric constant tensor:
#      x y z
#    x 1.747350 -0.011550 0.019630 
#    y -0.011550 1.757320 -0.002650 
#    z 0.019630 -0.002650 1.803310 
# 
# From -- ./inp_files/319261.got.cif
#   From: 2010.05.17/outbox.cif.g08.bks.cpg/sg2_160_cif.got.tgz:319261.got - 2010.06.03 11:33:40.
