data_PCOD9101905
_publ_section_title
;
Structure prediction by ZEFSAII (Michael W. Deem and Ramdas Pophale) SiO2 
 PCOD9101905
Probable space group: P -1
;
_chemical_formula_sum "Si O2"
_cell_formula_units_Z 16
_cell_length_a 11.227799
_cell_length_b 5.025026
_cell_length_c 13.099318
_cell_angle_alpha 119.272737
_cell_angle_beta 104.551113
_cell_angle_gamma 65.252064
_cell_volume 584.465676
_symmetry_space_group_name_H-M "P -1"
_symmetry_group_IT_number 2
_symmetry_cell_setting 'triclinic'
loop_
_space_group_symop_operation_xyz
x,y,z
-x,-y,-z
loop_
_atom_site_type_symbol
_atom_site_label
_atom_site_fract_x
_atom_site_fract_y
_atom_site_fract_z
Si Si1 0.839565 0.146859 0.328431
Si Si2 0.214592 0.484425 0.321249
Si Si3 0.554365 0.366314 0.233475
Si Si4 0.009096 0.162231 0.194626
Si Si5 0.796334 0.353227 0.015699
Si Si6 0.770660 0.882215 0.473708
Si Si7 0.343118 0.125325 0.071256
Si Si8 0.485889 0.095270 0.369580
O O1 0.819030 0.948283 0.383345
O O2 0.709519 0.242661 0.248317
O O3 0.958833 0.008623 0.250090
O O4 0.838029 0.498775 0.433634
O O5 0.270236 0.342526 0.195290
O O6 0.087951 0.387963 0.291676
O O7 0.196612 0.859607 0.400123
O O8 0.485015 0.158950 0.117646
O O9 0.497056 0.743492 0.260712
O O10 0.519020 0.324235 0.335906
O O11 0.883451 0.351093 0.132488
O O12 0.106594 0.891782 0.091030
O O13 0.736229 0.689802 0.008442
O O14 0.679981 0.214248 0.988359
O O15 0.610289 0.996615 0.453663
O O16 0.667952 0.710982 0.611118
#
# Coordination Sequence:
#
# PCOD9101905 Si02
#       8
#     2   2   2   2   2   2   2   2
#     4  10  23  39  56  82 121 155 183 226 280 342
#     4  10  21  36  61  87 115 152 191 232 277 331
#     4   9  17  34  57  82 113 148 184 229 283 334
#     4  10  23  41  60  83 114 151 191 234 286 337
#     4  10  23  40  62  85 109 143 192 247 287 327
#     4  10  22  38  58  86 118 153 188 226 276 337
#     4  10  20  38  61  87 112 142 190 244 286 323
#     4   9  18  34  56  84 114 146 189 233 274 320
#
# _framework density 27.375430000000001
#
# number of rings (size 3 to 8) (size 9 to 14) (size 15 to 20)
#    0.000    2.250    0.000    2.625    0.000   12.500 
#    0.000    8.750    0.000    0.000    0.000    0.000 
#    0.000    0.000    0.000    0.000    0.000    0.000 
#
# Total GULP energy -89783.392382 kJ/mol
# GULP energy per Si atom -5611.462024 kJ/mol
# Density = 2.731312 g / cm^3
# Si number density = 27.375430 Si / 1000 Ang^3
#
#
#
# Elastic Constant Matrix: (Units=GPa)
#
#
# Indices 1 2 3 4 5 6 
#
# 1 156.7613 19.8797 42.0348 1.8767 17.4968 16.5001
# 2 19.8797 91.7646 31.4439 -8.8655 -5.4206 13.1884
# 3 42.0348 31.4439 110.9761 14.2749 15.8118 3.1249
# 4 1.8767 -8.8655 14.2749 41.6597 -1.2337 13.3572
# 5 17.4968 -5.4206 15.8118 -1.2337 36.5296 -1.8520
# 6 16.5001 13.1884 3.1249 13.3572 -1.8520 37.0413
#
#
#
# Elastic Compliance Matrix: (Units=1/GPa)
#
#
# Indices 1 2 3 4 5 6 
#
# 1 0.007809 -0.000247 -0.002592 0.001654 -0.002798 -0.003908
# 2 -0.000247 0.014888 -0.005548 0.007528 0.004618 -0.007206
# 3 -0.002592 -0.005548 0.013108 -0.007096 -0.005276 0.004319
# 4 0.001654 0.007528 -0.007096 0.032698 0.003770 -0.014421
# 5 -0.002798 0.004618 -0.005276 0.003770 0.031825 0.000279
# 6 -0.003908 -0.007206 0.004319 -0.014421 0.000279 0.036153
#
#
# Mechanical properties :
#
#
# Convention : Reuss Voigt Hill
#
# Bulk Modulus (GPa) = 52.54836 60.69099 56.61968
# Shear Modulus (GPa) = 31.32836 40.78904 36.05870
#
# Velocity S-wave (km/s) = 3.38656 3.86422 3.63325
# Velocity P-wave (km/s) = 5.87613 6.49058 6.19098
#
# Compressibility (1/GPa) = 0.01903009
#
# Stress axis : x y z
#
# Youngs Moduli (GPa) = 128.05184 67.16914 76.29180
#
# Poissons Ratio (x) = 0.01662 0.19775
# Poissons Ratio (y) = 0.03168 0.42326
# Poissons Ratio (z) = 0.33191 0.37265
#
# Static dielectric constant tensor:
#      x y z
#    x 2.132550 -0.006360 -0.045700 
#    y -0.006360 2.058080 -0.020530 
#    z -0.045700 -0.020530 2.137080 
# 
# From -- ./inp_files/411299.got.cif
#   From: 2010.05.17/outbox.cif.g08.bks.cpg/sg2_206_cif.got.tgz:411299.got - 2010.06.03 11:33:40.
