data_PCOD9101060
_publ_section_title
;
Structure prediction by ZEFSAII (Michael W. Deem and Ramdas Pophale) SiO2 
 PCOD9101060
Probable space group: P -1
;
_chemical_formula_sum "Si O2"
_cell_formula_units_Z 15
_cell_length_a 20.160297
_cell_length_b 14.113940
_cell_length_c 6.764523
_cell_angle_alpha 131.722432
_cell_angle_beta 57.774682
_cell_angle_gamma 154.433754
_cell_volume 606.372941
_symmetry_space_group_name_H-M "P -1"
_symmetry_group_IT_number 2
_symmetry_cell_setting 'triclinic'
loop_
_space_group_symop_operation_xyz
x,y,z
-x,-y,-z
loop_
_atom_site_type_symbol
_atom_site_label
_atom_site_fract_x
_atom_site_fract_y
_atom_site_fract_z
Si Si1 0.544273 0.778800 0.801683
Si Si2 0.876534 0.032207 0.767470
Si Si3 0.323757 0.627741 0.671553
Si Si4 0.015837 0.039833 0.259870
Si Si5 0.000000 0.500000 0.000000
Si Si6 0.845557 0.407962 0.843791
Si Si7 0.758492 0.284399 0.356078
Si Si8 0.487789 0.464573 0.203728
O O1 0.465109 0.759151 0.739439
O O2 0.576871 0.701796 0.506811
O O3 0.449232 0.576659 0.853562
O O4 0.660625 0.025000 0.088557
O O5 0.899867 0.980144 0.461251
O O6 0.987400 0.104130 0.837516
O O7 0.700420 0.794109 0.799343
O O8 0.967933 0.297277 0.983622
O O9 0.189182 0.335558 0.443653
O O10 0.337109 0.726275 0.584428
O O11 0.261440 0.638924 0.948827
O O12 0.000000 0.000000 0.000000
O O13 0.913943 0.489466 0.262540
O O14 0.159198 0.726395 0.210359
O O15 0.807632 0.349965 0.596054
O O16 0.500000 0.500000 0.000000
#
# Coordination Sequence:
#
# PCOD9101060 Si02
#       8
#     2   2   2   2   1   2   2   2
#     4  11  25  45  63  95 137 175 231 277 326 416
#     4  10  21  41  62  97 129 162 230 276 326 401
#     4  10  22  42  64 101 134 169 220 276 340 413
#     4  10  20  37  69  96 129 170 210 285 339 391
#     4  10  22  40  62  94 132 166 222 272 322 406
#     4  10  22  39  68  99 130 173 214 280 343 392
#     4  11  23  40  68  98 133 175 216 274 342 403
#     4  11  26  45  67  92 131 192 229 278 335 395
#
# _framework density 24.737252000000002
#
# number of rings (size 3 to 8) (size 9 to 14) (size 15 to 20)
#    0.000    1.600    1.333    2.400    0.000    6.933 
#    0.000    0.000    0.000    0.000    0.000    0.000 
#    0.000    0.000    0.000    0.000    0.000    0.000 
#
# Total GULP energy -83573.571404 kJ/mol
# GULP energy per Si atom -5571.571427 kJ/mol
# Density = 2.468095 g / cm^3
# Si number density = 24.737252 Si / 1000 Ang^3
#
#
#
# Elastic Constant Matrix: (Units=GPa)
#
#
# Indices 1 2 3 4 5 6 
#
# 1 126.8165 -3.0308 46.8032 -8.5826 31.5327 8.5258
# 2 -3.0308 64.1556 34.8414 14.7256 8.7489 8.1529
# 3 46.8032 34.8414 136.6042 -11.8809 59.3363 -1.8044
# 4 -8.5826 14.7256 -11.8809 36.4066 -17.5485 3.6955
# 5 31.5327 8.7489 59.3363 -17.5485 53.4550 -8.0878
# 6 8.5258 8.1529 -1.8044 3.6955 -8.0878 29.5442
#
#
#
# Elastic Compliance Matrix: (Units=1/GPa)
#
#
# Indices 1 2 3 4 5 6 
#
# 1 0.010473 0.003660 -0.002280 -0.001954 -0.005718 -0.005492
# 2 0.003660 0.023659 -0.006993 -0.011811 -0.003270 -0.007430
# 3 -0.002280 -0.006993 0.017101 -0.000062 -0.016652 -0.000918
# 4 -0.001954 -0.011811 -0.000062 0.039425 0.016617 0.003437
# 5 -0.005718 -0.003270 -0.016652 0.016617 0.048480 0.012729
# 6 -0.005492 -0.007430 -0.000918 0.003437 0.012729 0.040481
#
#
# Mechanical properties :
#
#
# Convention : Reuss Voigt Hill
#
# Bulk Modulus (GPa) = 24.99691 53.86712 39.43201
# Shear Modulus (GPa) = 24.48791 40.47866 32.48328
#
# Velocity S-wave (km/s) = 3.14971 4.04956 3.62765
# Velocity P-wave (km/s) = 4.83265 6.60971 5.78977
#
# Compressibility (1/GPa) = 0.04000495
#
# Stress axis : x y z
#
# Youngs Moduli (GPa) = 95.48053 42.26758 58.47669
#
# Poissons Ratio (x) = -0.15468 0.13335
# Poissons Ratio (y) = -0.34941 0.40894
# Poissons Ratio (z) = 0.21773 0.29558
#
# Static dielectric constant tensor:
#      x y z
#    x 1.889510 0.197460 -0.008660 
#    y 0.197460 1.880380 0.024470 
#    z -0.008660 0.024470 1.903520 
# 
# From -- ./inp_files/119370.got.cif
#   From: 2010.05.17/outbox.cif.g08.bks.cpg/sg2_60_cif.got.tgz:119370.got - 2010.06.03 11:33:40.
