data_PCOD9101945
_publ_section_title
;
Structure prediction by ZEFSAII (Michael W. Deem and Ramdas Pophale) SiO2 
 PCOD9101945
Probable space group: P -1
;
_chemical_formula_sum "Si O2"
_cell_formula_units_Z 16
_cell_length_a 7.774630
_cell_length_b 19.104350
_cell_length_c 10.422195
_cell_angle_alpha 127.051023
_cell_angle_beta 98.479904
_cell_angle_gamma 123.087046
_cell_volume 726.387050
_symmetry_space_group_name_H-M "P -1"
_symmetry_group_IT_number 2
_symmetry_cell_setting 'triclinic'
loop_
_space_group_symop_operation_xyz
x,y,z
-x,-y,-z
loop_
_atom_site_type_symbol
_atom_site_label
_atom_site_fract_x
_atom_site_fract_y
_atom_site_fract_z
Si Si1 0.396560 0.403317 0.006028
Si Si2 0.193593 0.623169 0.267119
Si Si3 0.587204 0.927927 0.278763
Si Si4 0.818783 0.682444 0.521455
Si Si5 0.195791 0.716662 0.764103
Si Si6 0.207389 0.188086 0.562769
Si Si7 0.329482 0.597568 0.512613
Si Si8 0.230496 0.802392 0.336583
O O1 0.614190 0.518734 0.269141
O O2 0.500000 0.500000 0.000000
O O3 0.357134 0.290451 0.819827
O O4 0.067358 0.299539 0.886682
O O5 0.538230 0.756313 0.423733
O O6 0.151101 0.555422 0.319124
O O7 0.138250 0.703407 0.335164
O O8 0.000000 0.500000 0.000000
O O9 0.448413 0.844197 0.306832
O O10 0.637681 0.052934 0.441912
O O11 0.371269 0.821556 0.021670
O O12 0.907756 0.020562 0.383947
O O13 0.877539 0.768173 0.499011
O O14 0.615249 0.659198 0.568283
O O15 0.102312 0.756722 0.702156
O O16 0.376493 0.709745 0.712384
O O17 0.887530 0.549940 0.591608
#
# Coordination Sequence:
#
# PCOD9101945 Si02
#       8
#     2   2   2   2   2   2   2   2
#     4   9  17  33  58  89 116 147 199 255 294 353
#     4  11  21  37  64  92 120 153 201 265 307 345
#     4  10  22  42  57  87 123 162 206 238 300 384
#     4  10  20  38  61  88 122 158 202 253 306 356
#     4  11  23  40  64  84 126 166 195 255 308 367
#     4   9  21  36  57  91 121 155 202 245 301 368
#     4  10  24  40  57  97 117 152 216 252 305 364
#     4  10  21  38  64  86 121 161 199 250 307 363
#
# _framework density 22.026823
#
# number of rings (size 3 to 8) (size 9 to 14) (size 15 to 20)
#    0.000    2.000    0.000    4.125    7.000    1.000 
#    2.250    1.250    0.000    0.000    0.000    0.000 
#    0.000    0.000    0.000    0.000    0.000    0.000 
#
# Total GULP energy -89331.160800 kJ/mol
# GULP energy per Si atom -5583.197550 kJ/mol
# Density = 2.197669 g / cm^3
# Si number density = 22.026823 Si / 1000 Ang^3
#
#
#
# Elastic Constant Matrix: (Units=GPa)
#
#
# Indices 1 2 3 4 5 6 
#
# 1 73.0320 23.8104 24.6888 -1.0195 2.8634 13.1424
# 2 23.8104 55.7025 16.6458 -8.7294 -0.4252 3.8485
# 3 24.6888 16.6458 97.5500 -10.9232 -1.5167 -4.4563
# 4 -1.0195 -8.7294 -10.9232 25.8414 3.2747 6.6811
# 5 2.8634 -0.4252 -1.5167 3.2747 17.6733 -0.5436
# 6 13.1424 3.8485 -4.4563 6.6811 -0.5436 44.2645
#
#
#
# Elastic Compliance Matrix: (Units=1/GPa)
#
#
# Indices 1 2 3 4 5 6 
#
# 1 0.018154 -0.006483 -0.003928 -0.001407 -0.003329 -0.005050
# 2 -0.006483 0.022333 -0.001442 0.006975 0.000134 -0.001213
# 3 -0.003928 -0.001442 0.012022 0.003813 0.000987 0.001939
# 4 -0.001407 0.006975 0.003813 0.045354 -0.007888 -0.006747
# 5 -0.003329 0.000134 0.000987 -0.007888 0.058763 0.002988
# 6 -0.005050 -0.001213 0.001939 -0.006747 0.002988 0.025447
#
#
# Mechanical properties :
#
#
# Convention : Reuss Voigt Hill
#
# Bulk Modulus (GPa) = 34.72008 39.61939 37.16973
# Shear Modulus (GPa) = 23.21465 28.29849 25.75657
#
# Velocity S-wave (km/s) = 3.24995 3.58820 3.42325
# Velocity P-wave (km/s) = 5.46623 5.93235 5.70406
#
# Compressibility (1/GPa) = 0.02880177
#
# Stress axis : x y z
#
# Youngs Moduli (GPa) = 55.08438 44.77735 83.17822
#
# Poissons Ratio (x) = 0.29029 0.32675
# Poissons Ratio (y) = 0.35711 0.11997
# Poissons Ratio (z) = 0.21639 0.06458
#
# Static dielectric constant tensor:
#      x y z
#    x 1.898580 0.016830 -0.013560 
#    y 0.016830 1.810090 0.002090 
#    z -0.013560 0.002090 1.757470 
# 
# From -- ./inp_files/223862.got.cif
#   From: 2010.05.17/outbox.cif.g08.bks.cpg/sg2_112_cif.got.tgz:223862.got - 2010.06.03 11:33:40.
