data_PCOD9101610
_publ_section_title
;
Structure prediction by ZEFSAII (Michael W. Deem and Ramdas Pophale) SiO2 
 PCOD9101610
Probable space group: P -1
;
_chemical_formula_sum "Si O2"
_cell_formula_units_Z 16
_cell_length_a 9.214944
_cell_length_b 9.556459
_cell_length_c 15.805113
_cell_angle_alpha 56.810858
_cell_angle_beta 57.452292
_cell_angle_gamma 42.995972
_cell_volume 770.875168
_symmetry_space_group_name_H-M "P -1"
_symmetry_group_IT_number 2
_symmetry_cell_setting 'triclinic'
loop_
_space_group_symop_operation_xyz
x,y,z
-x,-y,-z
loop_
_atom_site_type_symbol
_atom_site_label
_atom_site_fract_x
_atom_site_fract_y
_atom_site_fract_z
Si Si1 0.585510 0.476351 0.734123
Si Si2 0.955272 0.688220 0.285292
Si Si3 0.386396 0.839535 0.801019
Si Si4 0.582345 0.839223 0.901873
Si Si5 0.638418 0.329212 0.439440
Si Si6 0.643353 0.704724 0.111197
Si Si7 0.505564 0.935108 0.423886
Si Si8 0.014941 0.630584 0.749603
O O1 0.419536 0.654046 0.797584
O O2 0.500197 0.578574 0.634889
O O3 0.566436 0.288748 0.810711
O O4 0.825562 0.400502 0.704111
O O5 0.756908 0.733935 0.389387
O O6 0.995497 0.529620 0.251831
O O7 0.848986 0.926707 0.205775
O O8 0.472278 0.780313 0.888849
O O9 0.532016 0.888362 0.686286
O O10 0.776963 0.813879 0.799236
O O11 0.407743 0.081520 0.906912
O O12 0.678625 0.697311 0.002613
O O13 0.500000 0.500000 0.500000
O O14 0.654737 0.122862 0.521726
O O15 0.860840 0.296490 0.362911
O O16 0.833412 0.507535 0.171873
O O17 0.500000 0.000000 0.500000
#
# Coordination Sequence:
#
# PCOD9101610 Si02
#       8
#     2   2   2   2   2   2   2   2
#     4  11  23  40  66  90 121 163 204 251 308 362
#     4  10  21  39  62  88 124 160 204 248 301 363
#     4  10  21  39  62  85 128 159 198 256 297 362
#     4  11  22  42  67  88 123 166 201 252 322 357
#     4  11  21  39  61  92 124 161 202 256 294 358
#     4  10  24  41  64  95 122 154 208 264 301 366
#     4  10  20  38  60  84 127 159 199 248 303 348
#     4  11  21  40  67  89 123 164 208 248 307 366
#
# _framework density 20.75563
#
# number of rings (size 3 to 8) (size 9 to 14) (size 15 to 20)
#    0.750    0.750    5.000    0.375    1.750    4.000 
#    2.250    1.250    0.000    0.000    0.000    0.000 
#    0.000    0.000    0.000    0.000    0.000    0.000 
#
# Total GULP energy -89265.935896 kJ/mol
# GULP energy per Si atom -5579.120993 kJ/mol
# Density = 2.070839 g / cm^3
# Si number density = 20.755630 Si / 1000 Ang^3
#
#
#
# Elastic Constant Matrix: (Units=GPa)
#
#
# Indices 1 2 3 4 5 6 
#
# 1 75.4437 6.0205 8.1012 6.2328 20.3110 0.4960
# 2 6.0205 43.6697 -0.7769 14.0845 13.5831 11.1614
# 3 8.1012 -0.7769 53.1008 16.7391 16.1982 6.8122
# 4 6.2328 14.0845 16.7391 24.4482 12.9506 -1.6969
# 5 20.3110 13.5831 16.1982 12.9506 34.3741 9.6126
# 6 0.4960 11.1614 6.8122 -1.6969 9.6126 33.0582
#
#
#
# Elastic Compliance Matrix: (Units=1/GPa)
#
#
# Indices 1 2 3 4 5 6 
#
# 1 0.016065 -0.000395 -0.000264 0.002380 -0.011024 0.003274
# 2 -0.000395 0.038535 0.013727 -0.029384 -0.006033 -0.015587
# 3 -0.000264 0.013727 0.030690 -0.025760 -0.007175 -0.010191
# 4 0.002380 -0.029384 -0.025760 0.085376 -0.016650 0.024417
# 5 -0.011024 -0.006033 -0.007175 -0.016650 0.051001 -0.012004
# 6 0.003274 -0.015587 -0.010191 0.024417 -0.012004 0.042307
#
#
# Mechanical properties :
#
#
# Convention : Reuss Voigt Hill
#
# Bulk Modulus (GPa) = 8.97461 22.10043 15.53752
# Shear Modulus (GPa) = 18.18321 28.96739 23.57530
#
# Velocity S-wave (km/s) = 2.96304 3.73988 3.37390
# Velocity P-wave (km/s) = 4.00494 5.41479 4.76232
#
# Compressibility (1/GPa) = 0.11142549
#
# Stress axis : x y z
#
# Youngs Moduli (GPa) = 62.24886 25.95019 32.58431
#
# Poissons Ratio (x) = 0.01025 0.00860
# Poissons Ratio (y) = 0.02458 -0.44728
# Poissons Ratio (z) = 0.01643 -0.35622
#
# Static dielectric constant tensor:
#      x y z
#    x 1.744200 0.002320 -0.003930 
#    y 0.002320 1.734580 -0.010770 
#    z -0.003930 -0.010770 1.749170 
# 
# From -- ./inp_files/494627.got.cif
#   From: 2010.05.17/outbox.cif.g08.bks.cpg/sg2_248_cif.got.tgz:494627.got - 2010.06.03 11:33:40.
