data_PCOD9101917
_publ_section_title
;
Structure prediction by ZEFSAII (Michael W. Deem and Ramdas Pophale) SiO2 
 PCOD9101917
Probable space group: P -1
;
_chemical_formula_sum "Si O2"
_cell_formula_units_Z 16
_cell_length_a 9.837466
_cell_length_b 7.762321
_cell_length_c 10.395290
_cell_angle_alpha 113.967966
_cell_angle_beta 89.669512
_cell_angle_gamma 123.748603
_cell_volume 577.303781
_symmetry_space_group_name_H-M "P -1"
_symmetry_group_IT_number 2
_symmetry_cell_setting 'triclinic'
loop_
_space_group_symop_operation_xyz
x,y,z
-x,-y,-z
loop_
_atom_site_type_symbol
_atom_site_label
_atom_site_fract_x
_atom_site_fract_y
_atom_site_fract_z
Si Si1 0.191337 0.969141 0.647371
Si Si2 0.313493 0.066783 0.024792
Si Si3 0.949312 0.980767 0.821676
Si Si4 0.993000 0.709330 0.317565
Si Si5 0.377438 0.467700 0.694947
Si Si6 0.217730 0.536724 0.259990
Si Si7 0.596326 0.190085 0.879924
Si Si8 0.613838 0.238466 0.424118
O O1 0.046709 0.834977 0.495485
O O2 0.238597 0.791927 0.621781
O O3 0.127679 0.038403 0.789858
O O4 0.337372 0.217503 0.651900
O O5 0.122364 0.973861 0.035790
O O6 0.448237 0.313387 0.176353
O O7 0.324023 0.864957 0.023468
O O8 0.422610 0.138580 0.914791
O O9 0.841061 0.700704 0.744101
O O10 0.918173 0.099537 0.740462
O O11 0.065770 0.560585 0.265270
O O12 0.790683 0.565802 0.258788
O O13 0.374730 0.546284 0.574432
O O14 0.282283 0.566065 0.122704
O O15 0.362578 0.731317 0.415802
O O16 0.547224 0.992328 0.713532
#
# Coordination Sequence:
#
# PCOD9101917 Si02
#       8
#     2   2   2   2   2   2   2   2
#     4  10  21  37  61  91 124 154 191 245 302 350
#     4  10  23  42  63  83 121 162 204 239 287 356
#     4  11  21  37  61  92 118 156 196 240 297 352
#     4  10  20  39  60  89 126 155 189 247 297 354
#     4  10  20  38  61  87 118 159 195 237 295 348
#     4  11  21  36  64  91 118 153 196 245 303 349
#     4  10  22  43  61  83 123 162 197 246 295 341
#     4  10  21  38  61  91 119 153 197 245 295 356
#
# _framework density 27.715043999999999
#
# number of rings (size 3 to 8) (size 9 to 14) (size 15 to 20)
#    0.000    1.750    1.250    4.125    1.750    2.500 
#    0.000    6.250    5.500    0.000    0.000    0.000 
#    0.000    0.000    0.000    0.000    0.000    0.000 
#
# Total GULP energy -89465.328614 kJ/mol
# GULP energy per Si atom -5591.583038 kJ/mol
# Density = 2.765196 g / cm^3
# Si number density = 27.715044 Si / 1000 Ang^3
#
#
#
# Elastic Constant Matrix: (Units=GPa)
#
#
# Indices 1 2 3 4 5 6 
#
# 1 191.1648 40.6717 33.9714 -7.1329 -35.7043 20.1091
# 2 40.6717 125.8062 10.5580 -19.0802 -10.7040 -11.0435
# 3 33.9714 10.5580 43.6732 -4.6684 -22.4415 -1.1548
# 4 -7.1329 -19.0802 -4.6684 43.5320 15.6411 -8.0663
# 5 -35.7043 -10.7040 -22.4415 15.6411 26.5742 2.8335
# 6 20.1091 -11.0435 -1.1548 -8.0663 2.8335 31.3482
#
#
#
# Elastic Compliance Matrix: (Units=1/GPa)
#
#
# Indices 1 2 3 4 5 6 
#
# 1 0.011063 -0.004667 0.002979 -0.010784 0.023288 -0.013511
# 2 -0.004667 0.011195 -0.003946 0.010003 -0.012096 0.010459
# 3 0.002979 -0.003946 0.046787 -0.017399 0.053325 -0.010875
# 4 -0.010784 0.010003 -0.017399 0.049396 -0.057178 0.027679
# 5 0.023288 -0.012096 0.053325 -0.057178 0.147562 -0.045286
# 6 -0.013511 0.010459 -0.010875 0.027679 -0.045286 0.055066
#
#
# Mechanical properties :
#
#
# Convention : Reuss Voigt Hill
#
# Bulk Modulus (GPa) = 17.30747 59.00515 38.15631
# Shear Modulus (GPa) = 14.22094 38.65376 26.43735
#
# Velocity S-wave (km/s) = 2.26766 3.73860 3.09188
# Velocity P-wave (km/s) = 3.62142 6.32237 5.15204
#
# Compressibility (1/GPa) = 0.05777851
#
# Stress axis : x y z
#
# Youngs Moduli (GPa) = 90.39249 89.32884 21.37323
#
# Poissons Ratio (x) = 0.41687 -0.06368
# Poissons Ratio (y) = 0.42183 0.08434
# Poissons Ratio (z) = -0.26932 0.35249
#
# Static dielectric constant tensor:
#      x y z
#    x 2.166080 0.000230 0.011750 
#    y 0.000230 2.136960 -0.025760 
#    z 0.011750 -0.025760 2.190860 
# 
# From -- ./inp_files/387859.got.cif
#   From: 2010.05.17/outbox.cif.g08.bks.cpg/sg2_194_cif.got.tgz:387859.got - 2010.06.03 11:33:40.
