data_PCOD9101964
_publ_section_title
;
Structure prediction by ZEFSAII (Michael W. Deem and Ramdas Pophale) SiO2 
 PCOD9101964
Probable space group: P -1
;
_chemical_formula_sum "Si O2"
_cell_formula_units_Z 14
_cell_length_a 11.991271
_cell_length_b 11.960893
_cell_length_c 16.117959
_cell_angle_alpha 146.678070
_cell_angle_beta 152.872815
_cell_angle_gamma 48.327966
_cell_volume 549.639619
_symmetry_space_group_name_H-M "P -1"
_symmetry_group_IT_number 2
_symmetry_cell_setting 'triclinic'
loop_
_space_group_symop_operation_xyz
x,y,z
-x,-y,-z
loop_
_atom_site_type_symbol
_atom_site_label
_atom_site_fract_x
_atom_site_fract_y
_atom_site_fract_z
Si Si1 0.537249 0.794362 0.442037
Si Si2 0.853550 0.443559 0.559694
Si Si3 0.324321 0.393980 0.118340
Si Si4 0.596048 0.054352 0.392118
Si Si5 0.291168 0.338399 0.698811
Si Si6 0.280082 0.015304 0.732767
Si Si7 0.205519 0.475462 0.257061
O O1 0.275392 0.593251 0.162249
O O2 0.599244 0.905054 0.644800
O O3 0.660560 0.689345 0.383896
O O4 0.500000 0.000000 0.500000
O O5 0.626122 0.512822 0.413078
O O6 0.952145 0.570775 0.789842
O O7 0.052813 0.422907 0.610997
O O8 0.732368 0.201746 0.363961
O O9 0.182732 0.325609 0.068954
O O10 0.328981 0.204923 0.946291
O O11 0.772328 0.290851 0.623812
O O12 0.738474 0.898713 0.430885
O O13 0.512015 0.945124 0.179264
O O14 0.500000 0.500000 0.000000
O O15 0.000000 0.000000 0.500000
O O16 0.500000 0.500000 0.500000
#
# Coordination Sequence:
#
# PCOD9101964 Si02
#       7
#     2   2   2   2   2   2   2
#     4   9  20  37  59  79 116 158 196 236 277 339
#     4  10  21  37  59  87 122 149 188 244 291 349
#     4  10  20  38  61  89 117 155 187 238 301 343
#     4   9  18  36  56  79 115 147 186 243 280 338
#     4  11  21  36  57  84 113 155 201 234 281 339
#     4  11  20  35  60  91 117 142 191 242 296 351
#     4   8  17  35  59  85 116 148 183 235 301 354
#
# _framework density 25.471235
#
# number of rings (size 3 to 8) (size 9 to 14) (size 15 to 20)
#    0.000    2.286    1.429    1.286    0.000    0.571 
#    2.571    2.143    0.000   14.571    0.000    0.000 
#    0.000    0.000    0.000    0.000    0.000    0.000 
#
# Total GULP energy -77971.245015 kJ/mol
# GULP energy per Si atom -5569.374644 kJ/mol
# Density = 2.541326 g / cm^3
# Si number density = 25.471235 Si / 1000 Ang^3
#
#
#
# Elastic Constant Matrix: (Units=GPa)
#
#
# Indices 1 2 3 4 5 6 
#
# 1 271.6284 20.3460 50.8302 3.0225 -69.5916 -39.7112
# 2 20.3460 52.7078 16.4230 16.4469 -1.8933 -21.1399
# 3 50.8302 16.4230 56.2811 9.4911 -34.9910 -11.0673
# 4 3.0225 16.4469 9.4911 27.7027 -11.2741 1.9710
# 5 -69.5916 -1.8933 -34.9910 -11.2741 53.0593 9.4665
# 6 -39.7112 -21.1399 -11.0673 1.9710 9.4665 51.0194
#
#
#
# Elastic Compliance Matrix: (Units=1/GPa)
#
#
# Indices 1 2 3 4 5 6 
#
# 1 0.006411 -0.002821 0.000358 0.004419 0.009119 0.002036
# 2 -0.002821 0.037882 -0.013018 -0.026677 -0.019330 0.015294
# 3 0.000358 -0.013018 0.035308 0.005915 0.024960 -0.002316
# 4 0.004419 -0.026677 0.005915 0.060059 0.023839 -0.013074
# 5 0.009119 -0.019330 0.024960 0.023839 0.052751 -0.006206
# 6 0.002036 0.015294 -0.002316 -0.013074 -0.006206 0.028676
#
#
# Mechanical properties :
#
#
# Convention : Reuss Voigt Hill
#
# Bulk Modulus (GPa) = 20.55957 61.75731 41.15844
# Shear Modulus (GPa) = 18.63857 45.89084 32.26470
#
# Velocity S-wave (km/s) = 2.70802 4.24922 3.56295
# Velocity P-wave (km/s) = 4.22694 6.95507 5.75500
#
# Compressibility (1/GPa) = 0.04863915
#
# Stress axis : x y z
#
# Youngs Moduli (GPa) = 155.99085 26.39804 28.32190
#
# Poissons Ratio (x) = 0.07447 -0.01015
# Poissons Ratio (y) = 0.44007 0.36869
# Poissons Ratio (z) = -0.05589 0.34365
#
# Static dielectric constant tensor:
#      x y z
#    x 2.087650 0.067350 -0.009800 
#    y 0.067350 2.256440 -0.109160 
#    z -0.009800 -0.109160 2.248210 
# 
# From -- ./inp_files/342830.got.cif
#   From: 2010.05.17/outbox.cif.g08.bks.cpg/sg2_172_cif.got.tgz:342830.got - 2010.06.03 11:33:40.
