data_PCOD9101493
_publ_section_title
;
Structure prediction by ZEFSAII (Michael W. Deem and Ramdas Pophale) SiO2 
 PCOD9101493
Probable space group: P -1
;
_chemical_formula_sum "Si O2"
_cell_formula_units_Z 14
_cell_length_a 13.904786
_cell_length_b 13.367232
_cell_length_c 14.865401
_cell_angle_alpha 40.969217
_cell_angle_beta 132.906039
_cell_angle_gamma 158.231686
_cell_volume 669.457506
_symmetry_space_group_name_H-M "P -1"
_symmetry_group_IT_number 2
_symmetry_cell_setting 'triclinic'
loop_
_space_group_symop_operation_xyz
x,y,z
-x,-y,-z
loop_
_atom_site_type_symbol
_atom_site_label
_atom_site_fract_x
_atom_site_fract_y
_atom_site_fract_z
Si Si1 0.318993 0.939446 0.373188
Si Si2 0.000168 0.912004 0.966555
Si Si3 0.744432 0.679156 0.657594
Si Si4 0.957978 0.340265 0.446102
Si Si5 0.539068 0.387497 0.911895
Si Si6 0.741323 0.610633 0.499869
Si Si7 0.317150 0.681829 0.806013
O O1 0.111720 0.633394 0.392465
O O2 0.177811 0.881266 0.405474
O O3 0.500000 0.000000 0.500000
O O4 0.503702 0.204058 0.238417
O O5 0.946667 0.680880 0.112865
O O6 0.748246 0.694842 0.893721
O O7 0.259856 0.181664 0.890597
O O8 0.000000 0.000000 0.000000
O O9 0.639341 0.483473 0.809435
O O10 0.733071 0.579441 0.623398
O O11 0.539479 0.612918 0.559381
O O12 0.035864 0.036023 0.613302
O O13 0.155039 0.431096 0.458121
O O14 0.752531 0.215180 0.332981
O O15 0.550051 0.233251 0.073449
#
# Coordination Sequence:
#
# PCOD9101493 Si02
#       7
#     2   2   2   2   2   2   2
#     4   9  19  36  53  86 123 157 196 236 292 360
#     4  10  21  37  56  87 118 162 197 235 295 355
#     4  10  22  44  60  94 115 157 202 258 298 352
#     4  10  20  38  59  90 117 163 197 245 304 353
#     4  10  21  39  59  83 124 154 190 252 296 351
#     4  10  23  40  68  85 122 152 206 254 301 352
#     4   9  21  35  59  82 127 153 190 248 289 358
#
# _framework density 20.912455000000001
#
# number of rings (size 3 to 8) (size 9 to 14) (size 15 to 20)
#    0.857    1.429    0.000    2.143    4.000    1.143 
#   15.429    0.714    0.000    1.714    0.000    0.000 
#    0.000    0.000    0.000    0.000    0.000    0.000 
#
# Total GULP energy -78044.471847 kJ/mol
# GULP energy per Si atom -5574.605132 kJ/mol
# Density = 2.086486 g / cm^3
# Si number density = 20.912455 Si / 1000 Ang^3
#
#
#
# Elastic Constant Matrix: (Units=GPa)
#
#
# Indices 1 2 3 4 5 6 
#
# 1 112.0766 -2.3154 31.1128 -3.1274 -31.2184 12.4305
# 2 -2.3154 64.6194 5.0662 -8.9354 -10.6105 20.2655
# 3 31.1128 5.0662 95.1796 -0.6154 -40.5600 -2.1143
# 4 -3.1274 -8.9354 -0.6154 16.8545 6.9310 -10.0751
# 5 -31.2184 -10.6105 -40.5600 6.9310 40.3649 -5.6916
# 6 12.4305 20.2655 -2.1143 -10.0751 -5.6916 21.6001
#
#
#
# Elastic Compliance Matrix: (Units=1/GPa)
#
#
# Indices 1 2 3 4 5 6 
#
# 1 0.013430 0.005502 -0.000482 -0.006999 0.010662 -0.013394
# 2 0.005502 0.024596 -0.000726 -0.004833 0.007056 -0.026709
# 3 -0.000482 -0.000726 0.019737 -0.004631 0.020945 0.006249
# 4 -0.006999 -0.004833 -0.004631 0.090636 -0.020560 0.044968
# 5 0.010662 0.007056 0.020945 -0.020560 0.058774 -0.004808
# 6 -0.013394 -0.026709 0.006249 0.044968 -0.004808 0.099382
#
#
# Mechanical properties :
#
#
# Convention : Reuss Voigt Hill
#
# Bulk Modulus (GPa) = 15.07117 37.73366 26.40241
# Shear Modulus (GPa) = 15.62097 31.63140 23.62618
#
# Velocity S-wave (km/s) = 2.73604 3.89339 3.36485
# Velocity P-wave (km/s) = 4.14773 6.18822 5.26772
#
# Compressibility (1/GPa) = 0.06635186
#
# Stress axis : x y z
#
# Youngs Moduli (GPa) = 74.45993 40.65746 50.66560
#
# Poissons Ratio (x) = -0.22371 0.02443
# Poissons Ratio (y) = -0.40970 0.03677
# Poissons Ratio (z) = 0.03591 0.02950
#
# Static dielectric constant tensor:
#      x y z
#    x 1.740290 0.024740 0.004740 
#    y 0.024740 1.809430 -0.006240 
#    z 0.004740 -0.006240 1.817750 
# 
# From -- ./inp_files/93719.got.cif
#   From: 2010.05.17/outbox.cif.g08.bks.cpg/sg2_47_cif.got.tgz:93719.got - 2010.06.03 11:33:40.
