data_PCOD9101208
_publ_section_title
;
Structure prediction by ZEFSAII (Michael W. Deem and Ramdas Pophale) SiO2 
 PCOD9101208
Probable space group: P -1
;
_chemical_formula_sum "Si O2"
_cell_formula_units_Z 10
_cell_length_a 12.475579
_cell_length_b 5.485496
_cell_length_c 7.188857
_cell_angle_alpha 118.653732
_cell_angle_beta 109.595091
_cell_angle_gamma 84.627375
_cell_volume 405.370454
_symmetry_space_group_name_H-M "P -1"
_symmetry_group_IT_number 2
_symmetry_cell_setting 'triclinic'
loop_
_space_group_symop_operation_xyz
x,y,z
-x,-y,-z
loop_
_atom_site_type_symbol
_atom_site_label
_atom_site_fract_x
_atom_site_fract_y
_atom_site_fract_z
Si Si1 0.583368 0.154392 0.776277
Si Si2 0.054752 0.218202 0.884961
Si Si3 0.692648 0.688864 0.871591
Si Si4 0.905656 0.721540 0.506863
Si Si5 0.349082 0.347650 0.749034
O O1 0.660667 0.354340 0.750792
O O2 0.451227 0.187198 0.664604
O O3 0.618335 0.855823 0.750732
O O4 0.604427 0.340088 0.049107
O O5 0.087037 0.205145 0.680817
O O6 0.175187 0.229342 0.062052
O O7 0.957453 0.969704 0.757810
O O8 0.000000 0.500000 0.000000
O O9 0.672583 0.786528 0.108049
O O10 0.770508 0.643035 0.425244
O O11 0.000000 0.500000 0.500000
#
# Coordination Sequence:
#
# PCOD9101208 Si02
#       5
#     2   2   2   2   2
#     4   9  16  29  50  82 106 145 187 235 285 336
#     4  10  22  37  57  84 117 154 190 239 294 343
#     4   9  17  31  50  78 109 143 190 231 280 344
#     4  10  20  38  57  87 114 149 196 240 283 351
#     4   8  17  27  52  78 109 143 186 235 281 341
#
# _framework density 24.668792
#
# number of rings (size 3 to 8) (size 9 to 14) (size 15 to 20)
#    1.200    1.600    0.000    1.800    0.000    0.800 
#    0.000    0.000    0.000    2.400    0.000    0.000 
#    0.000    0.000    0.000    0.000    0.000    0.000 
#
# Total GULP energy -55789.468578 kJ/mol
# GULP energy per Si atom -5578.946858 kJ/mol
# Density = 2.461264 g / cm^3
# Si number density = 24.668792 Si / 1000 Ang^3
#
#
#
# Elastic Constant Matrix: (Units=GPa)
#
#
# Indices 1 2 3 4 5 6 
#
# 1 123.6454 24.1836 32.2996 -18.0224 34.7546 -10.3851
# 2 24.1836 113.9797 36.0457 -9.5225 20.5449 -11.2616
# 3 32.2996 36.0457 93.3812 -15.2799 29.7699 -8.6873
# 4 -18.0224 -9.5225 -15.2799 40.4372 -8.9877 3.8439
# 5 34.7546 20.5449 29.7699 -8.9877 46.3605 -11.8623
# 6 -10.3851 -11.2616 -8.6873 3.8439 -11.8623 35.6630
#
#
#
# Elastic Compliance Matrix: (Units=1/GPa)
#
#
# Indices 1 2 3 4 5 6 
#
# 1 0.010717 -0.000537 -0.000912 0.002816 -0.006607 0.000228
# 2 -0.000537 0.010368 -0.003027 0.000514 -0.001698 0.001760
# 3 -0.000912 -0.003027 0.014896 0.002971 -0.007029 -0.000251
# 4 0.002816 0.000514 0.002971 0.027507 0.000835 -0.000981
# 5 -0.006607 -0.001698 -0.007029 0.000835 0.033731 0.006957
# 6 0.000228 0.001760 -0.000251 -0.000981 0.006957 0.031021
#
#
# Mechanical properties :
#
#
# Convention : Reuss Voigt Hill
#
# Bulk Modulus (GPa) = 36.99599 57.34045 47.16822
# Shear Modulus (GPa) = 34.19923 40.39063 37.29493
#
# Velocity S-wave (km/s) = 3.72739 4.05077 3.89244
# Velocity P-wave (km/s) = 5.79260 6.72108 6.27404
#
# Compressibility (1/GPa) = 0.02702996
#
# Stress axis : x y z
#
# Youngs Moduli (GPa) = 93.30580 96.45409 67.13132
#
# Poissons Ratio (x) = 0.05180 0.06119
# Poissons Ratio (y) = 0.05011 0.20321
# Poissons Ratio (z) = 0.08505 0.29197
#
# Static dielectric constant tensor:
#      x y z
#    x 1.966490 0.007490 0.010820 
#    y 0.007490 1.911090 -0.001150 
#    z 0.010820 -0.001150 2.047490 
# 
# From -- ./inp_files/19977.got.cif
#   From: 2010.05.17/outbox.cif.g08.bks.cpg/sg2_10_cif.got.tgz:19977.got - 2010.06.03 11:33:40.
