data_PCOD9101574
_publ_section_title
;
Structure prediction by ZEFSAII (Michael W. Deem and Ramdas Pophale) SiO2 
 PCOD9101574
Probable space group: P -1
;
_chemical_formula_sum "Si O2"
_cell_formula_units_Z 14
_cell_length_a 12.820715
_cell_length_b 12.980186
_cell_length_c 12.325871
_cell_angle_alpha 141.353054
_cell_angle_beta 43.337883
_cell_angle_gamma 143.468278
_cell_volume 734.584657
_symmetry_space_group_name_H-M "P -1"
_symmetry_group_IT_number 2
_symmetry_cell_setting 'triclinic'
loop_
_space_group_symop_operation_xyz
x,y,z
-x,-y,-z
loop_
_atom_site_type_symbol
_atom_site_label
_atom_site_fract_x
_atom_site_fract_y
_atom_site_fract_z
Si Si1 0.355142 0.061525 0.679244
Si Si2 0.255193 0.511974 0.578004
Si Si3 0.080813 0.650879 0.462984
Si Si4 0.417878 0.744702 0.139648
Si Si5 0.402053 0.384270 0.741357
Si Si6 0.513600 0.926007 0.811348
Si Si7 0.196847 0.191090 0.529687
O O1 0.396527 0.138830 0.834358
O O2 0.395814 0.239557 0.717886
O O3 0.500000 0.000000 0.500000
O O4 0.164326 0.867904 0.629813
O O5 0.416458 0.537106 0.401517
O O6 0.327682 0.729962 0.748373
O O7 0.226648 0.370078 0.581792
O O8 0.075973 0.416496 0.562230
O O9 0.248347 0.662877 0.283344
O O10 0.000000 0.500000 0.500000
O O11 0.421056 0.900717 0.183432
O O12 0.402054 0.564607 0.940448
O O13 0.236054 0.259093 0.680731
O O14 0.656560 0.861419 0.655021
O O15 0.500000 0.000000 0.000000
O O16 0.000000 0.000000 0.500000
#
# Coordination Sequence:
#
# PCOD9101574 Si02
#       7
#     2   2   2   2   2   2   2
#     4  10  20  38  60  83 113 152 191 235 287 342
#     4  11  21  38  60  85 116 155 195 240 289 344
#     4  11  22  39  61  87 117 154 194 238 290 347
#     4  11  22  39  60  87 117 153 194 241 290 344
#     4  11  22  39  60  86 116 153 195 240 289 344
#     4  11  22  39  61  87 117 154 195 240 290 345
#     4  11  22  38  58  85 118 155 194 240 290 344
#
# _framework density 19.058388000000001
#
# number of rings (size 3 to 8) (size 9 to 14) (size 15 to 20)
#    0.000    1.143    0.000   11.571    0.000    1.143 
#    0.000    8.571    0.000    0.000    0.000    0.000 
#    0.000    0.000    0.000    0.000    0.000    0.000 
#
# Total GULP energy -78228.301970 kJ/mol
# GULP energy per Si atom -5587.735855 kJ/mol
# Density = 1.901501 g / cm^3
# Si number density = 19.058388 Si / 1000 Ang^3
#
#
#
# Elastic Constant Matrix: (Units=GPa)
#
#
# Indices 1 2 3 4 5 6 
#
# 1 131.1339 36.6517 43.7885 17.9543 17.9104 1.2268
# 2 36.6517 97.8775 38.4938 17.7781 3.0311 -9.7270
# 3 43.7885 38.4938 124.3764 23.8373 26.4755 5.9689
# 4 17.9543 17.7781 23.8373 29.9145 -3.9397 5.4105
# 5 17.9104 3.0311 26.4755 -3.9397 29.2042 13.2798
# 6 1.2268 -9.7270 5.9689 5.4105 13.2798 56.1595
#
#
#
# Elastic Compliance Matrix: (Units=1/GPa)
#
#
# Indices 1 2 3 4 5 6 
#
# 1 0.010112 -0.002227 -0.000307 -0.005760 -0.007239 0.001693
# 2 -0.002227 0.013264 -0.002555 -0.005029 0.000243 0.003045
# 3 -0.000307 -0.002555 0.014548 -0.012500 -0.015763 0.002950
# 4 -0.005760 -0.005029 -0.012500 0.055596 0.028076 -0.011412
# 5 -0.007239 0.000243 -0.015763 0.028076 0.063992 -0.015961
# 6 0.001693 0.003045 0.002950 -0.011412 -0.015961 0.022857
#
#
# Mechanical properties :
#
#
# Convention : Reuss Voigt Hill
#
# Bulk Modulus (GPa) = 36.04094 65.69507 50.86800
# Shear Modulus (GPa) = 25.02531 38.68590 31.85561
#
# Velocity S-wave (km/s) = 3.62758 4.51029 4.09280
# Velocity P-wave (km/s) = 6.04133 7.85295 7.00594
#
# Compressibility (1/GPa) = 0.02774623
#
# Stress axis : x y z
#
# Youngs Moduli (GPa) = 98.88808 75.39075 68.73576
#
# Poissons Ratio (x) = 0.16791 0.02112
# Poissons Ratio (y) = 0.22025 0.17562
# Poissons Ratio (z) = 0.03038 0.19262
#
# Static dielectric constant tensor:
#      x y z
#    x 1.679900 0.019300 0.010710 
#    y 0.019300 1.659000 0.009220 
#    z 0.010710 0.009220 1.668900 
# 
# From -- ./inp_files/175799.got.cif
#   From: 2010.05.17/outbox.cif.g08.bks.cpg/sg2_88_cif.got.tgz:175799.got - 2010.06.03 11:33:40.
