data_PCOD9101110
_publ_section_title
;
Structure prediction by ZEFSAII (Michael W. Deem and Ramdas Pophale) SiO2 
 PCOD9101110
Probable space group: P -1
;
_chemical_formula_sum "Si O2"
_cell_formula_units_Z 14
_cell_length_a 11.675292
_cell_length_b 11.618909
_cell_length_c 12.158101
_cell_angle_alpha 61.725773
_cell_angle_beta 39.286530
_cell_angle_gamma 94.133477
_cell_volume 567.768427
_symmetry_space_group_name_H-M "P -1"
_symmetry_group_IT_number 2
_symmetry_cell_setting 'triclinic'
loop_
_space_group_symop_operation_xyz
x,y,z
-x,-y,-z
loop_
_atom_site_type_symbol
_atom_site_label
_atom_site_fract_x
_atom_site_fract_y
_atom_site_fract_z
Si Si1 0.406600 0.814605 0.870132
Si Si2 0.212837 0.426225 0.972779
Si Si3 0.400051 0.586112 0.326841
Si Si4 0.985451 0.710605 0.057560
Si Si5 0.132584 0.844795 0.216414
Si Si6 0.185702 0.082641 0.640145
Si Si7 0.091792 0.671159 0.536087
O O1 0.242827 0.785184 0.899159
O O2 0.701880 0.924876 0.551425
O O3 0.394488 0.918432 0.925409
O O4 0.199238 0.578008 0.170848
O O5 0.071487 0.373543 0.983826
O O6 0.997550 0.344089 0.267278
O O7 0.310915 0.330095 0.952967
O O8 0.519766 0.678892 0.643199
O O9 0.152461 0.393282 0.514124
O O10 0.355657 0.716626 0.305187
O O11 0.296608 0.474563 0.573639
O O12 0.069970 0.909280 0.889233
O O13 0.061415 0.951150 0.185953
O O14 0.131752 0.813317 0.359697
#
# Coordination Sequence:
#
# PCOD9101110 Si02
#       7
#     2   2   2   2   2   2   2
#     4   9  19  33  55  82 107 142 178 219 269 315
#     4  10  21  35  56  82 107 144 178 215 272 317
#     4   9  19  33  55  82 107 142 178 219 269 315
#     4  10  20  38  54  80 116 136 176 226 262 320
#     4   9  18  33  54  81 108 139 183 222 260 317
#     4  10  21  35  56  82 107 144 178 215 272 317
#     4   9  18  33  54  81 108 139 183 222 260 317
#
# _framework density 24.657943
#
# number of rings (size 3 to 8) (size 9 to 14) (size 15 to 20)
#    0.000    2.857    0.000    2.571    0.000   16.571 
#    0.000    2.143    0.000    1.714    0.000    0.000 
#    0.000    1.143    0.000    0.000    0.000    0.000 
#
# Total GULP energy -78358.304752 kJ/mol
# GULP energy per Si atom -5597.021768 kJ/mol
# Density = 2.460182 g / cm^3
# Si number density = 24.657943 Si / 1000 Ang^3
#
#
#
# Elastic Constant Matrix: (Units=GPa)
#
#
# Indices 1 2 3 4 5 6 
#
# 1 64.3175 30.1140 17.1704 4.8428 22.6069 4.2564
# 2 30.1140 111.4428 21.6999 10.4178 9.7471 -11.3418
# 3 17.1704 21.6999 68.7361 -8.8310 -5.6225 -12.8397
# 4 4.8428 10.4178 -8.8310 36.7139 -2.6924 2.9044
# 5 22.6069 9.7471 -5.6225 -2.6924 40.1298 -6.1323
# 6 4.2564 -11.3418 -12.8397 2.9044 -6.1323 39.3829
#
#
#
# Elastic Compliance Matrix: (Units=1/GPa)
#
#
# Indices 1 2 3 4 5 6 
#
# 1 0.027256 -0.004557 -0.009228 -0.005035 -0.017344 -0.009596
# 2 -0.004557 0.011322 -0.002296 -0.003436 -0.000243 0.003220
# 3 -0.009228 -0.002296 0.020869 0.007000 0.010410 0.008245
# 4 -0.005035 -0.003436 0.007000 0.031013 0.006826 0.000612
# 5 -0.017344 -0.000243 0.010410 0.006826 0.038294 0.010658
# 6 -0.009596 0.003220 0.008245 0.000612 0.010658 0.031659
#
#
# Mechanical properties :
#
#
# Convention : Reuss Voigt Hill
#
# Bulk Modulus (GPa) = 36.65012 42.49611 39.57311
# Shear Modulus (GPa) = 24.79319 34.94611 29.86965
#
# Velocity S-wave (km/s) = 3.17438 3.76870 3.48424
# Velocity P-wave (km/s) = 5.32271 6.01740 5.68069
#
# Compressibility (1/GPa) = 0.02728504
#
# Stress axis : x y z
#
# Youngs Moduli (GPa) = 36.68977 88.32468 47.91760
#
# Poissons Ratio (x) = 0.40251 0.44218
# Poissons Ratio (y) = 0.16720 0.11001
# Poissons Ratio (z) = 0.33857 0.20277
#
# Static dielectric constant tensor:
#      x y z
#    x 1.883420 0.034970 -0.070400 
#    y 0.034970 2.056000 -0.064040 
#    z -0.070400 -0.064040 1.977890 
# 
# From -- ./inp_files/425426.got.cif
#   From: 2010.05.17/outbox.cif.g08.bks.cpg/sg2_213_cif.got.tgz:425426.got - 2010.06.03 11:33:40.
