data_PCOD9101030
_publ_section_title
;
Structure prediction by ZEFSAII (Michael W. Deem and Ramdas Pophale) SiO2 
 PCOD9101030
Probable space group: P -1
;
_chemical_formula_sum "Si O2"
_cell_formula_units_Z 14
_cell_length_a 12.895999
_cell_length_b 7.986199
_cell_length_c 10.594781
_cell_angle_alpha 66.715003
_cell_angle_beta 40.138343
_cell_angle_gamma 49.545261
_cell_volume 523.821251
_symmetry_space_group_name_H-M "P -1"
_symmetry_group_IT_number 2
_symmetry_cell_setting 'triclinic'
loop_
_space_group_symop_operation_xyz
x,y,z
-x,-y,-z
loop_
_atom_site_type_symbol
_atom_site_label
_atom_site_fract_x
_atom_site_fract_y
_atom_site_fract_z
Si Si1 0.696014 0.960076 0.264037
Si Si2 0.413611 0.414928 0.008933
Si Si3 0.743786 0.538445 0.287640
Si Si4 0.019661 0.142624 0.328830
Si Si5 0.021118 0.138534 0.741559
Si Si6 0.194168 0.253965 0.342953
Si Si7 0.401819 0.603320 0.735062
O O1 0.773962 0.733620 0.180270
O O2 0.865452 0.913896 0.217806
O O3 0.500000 0.000000 0.500000
O O4 0.639391 0.196635 0.194228
O O5 0.181361 0.611619 0.138959
O O6 0.393974 0.236510 0.150569
O O7 0.500000 0.500000 0.000000
O O8 0.509656 0.384848 0.791323
O O9 0.520176 0.634459 0.508174
O O10 0.763867 0.400372 0.186060
O O11 0.855524 0.392262 0.352412
O O12 0.163362 0.185389 0.255176
O O13 0.046709 0.003851 0.219650
O O14 0.000000 0.000000 0.500000
O O15 0.186858 0.105438 0.500127
O O16 0.000000 0.500000 0.500000
#
# Coordination Sequence:
#
# PCOD9101030 Si02
#       7
#     2   2   2   2   2   2   2
#     4  10  21  39  69  97 126 174 224 268 323 397
#     4  11  25  41  64  96 135 172 217 281 335 387
#     4  10  20  40  67  92 129 176 216 271 327 396
#     4  10  20  37  68  95 126 168 227 273 320 396
#     4  10  21  41  65  93 130 172 221 271 327 398
#     4   9  20  38  62  90 122 173 217 258 327 392
#     4  10  23  40  62  97 133 169 224 268 328 394
#
# _framework density 26.726675
#
# number of rings (size 3 to 8) (size 9 to 14) (size 15 to 20)
#    0.000    2.000    1.429    1.714   10.000    0.571 
#    2.571    2.143    0.000    0.000    0.000    0.000 
#    0.000    0.000    0.000    0.000    0.000    0.000 
#
# Total GULP energy -77955.779888 kJ/mol
# GULP energy per Si atom -5568.269992 kJ/mol
# Density = 2.666584 g / cm^3
# Si number density = 26.726675 Si / 1000 Ang^3
#
#
#
# Elastic Constant Matrix: (Units=GPa)
#
#
# Indices 1 2 3 4 5 6 
#
# 1 167.7209 25.8905 39.3344 -14.6353 -24.7917 25.6267
# 2 25.8905 77.6999 23.2063 -4.6868 -5.5417 20.1073
# 3 39.3344 23.2063 98.7371 -20.3682 -3.8641 21.9198
# 4 -14.6353 -4.6868 -20.3682 28.9697 5.5818 -13.6614
# 5 -24.7917 -5.5417 -3.8641 5.5818 27.2439 -11.8712
# 6 25.6267 20.1073 21.9198 -13.6614 -11.8712 52.8234
#
#
#
# Elastic Compliance Matrix: (Units=1/GPa)
#
#
# Indices 1 2 3 4 5 6 
#
# 1 0.007747 -0.001223 -0.002255 0.000569 0.005988 -0.000864
# 2 -0.001223 0.015095 -0.002457 -0.002110 0.000003 -0.004678
# 3 -0.002255 -0.002457 0.013550 0.007486 -0.003199 -0.002376
# 4 0.000569 -0.002110 0.007486 0.044306 -0.004499 0.007868
# 5 0.005988 0.000003 -0.003199 -0.004499 0.045925 0.007579
# 6 -0.000864 -0.004678 -0.002376 0.007868 0.007579 0.025855
#
#
# Mechanical properties :
#
#
# Convention : Reuss Voigt Hill
#
# Bulk Modulus (GPa) = 40.78013 57.89114 49.33564
# Shear Modulus (GPa) = 28.98176 38.85584 33.91880
#
# Velocity S-wave (km/s) = 3.29656 3.81704 3.56631
# Velocity P-wave (km/s) = 5.45720 6.41357 5.95462
#
# Compressibility (1/GPa) = 0.02452175
#
# Stress axis : x y z
#
# Youngs Moduli (GPa) = 129.08739 66.24758 73.79807
#
# Poissons Ratio (x) = 0.08100 0.16643
# Poissons Ratio (y) = 0.15784 0.18134
# Poissons Ratio (z) = 0.29111 0.16279
#
# Static dielectric constant tensor:
#      x y z
#    x 2.026710 0.068810 0.014030 
#    y 0.068810 2.354500 -0.073630 
#    z 0.014030 -0.073630 2.348560 
# 
# From -- ./inp_files/419055.got.cif
#   From: 2010.05.17/outbox.cif.g08.bks.cpg/sg2_210_cif.got.tgz:419055.got - 2010.06.03 11:33:40.
