data_PCOD9101469
_publ_section_title
;
Structure prediction by ZEFSAII (Michael W. Deem and Ramdas Pophale) SiO2 
 PCOD9101469
Probable space group: P -1
;
_chemical_formula_sum "Si O2"
_cell_formula_units_Z 16
_cell_length_a 11.343767
_cell_length_b 8.049634
_cell_length_c 12.056943
_cell_angle_alpha 109.602266
_cell_angle_beta 56.296608
_cell_angle_gamma 125.796237
_cell_volume 742.799317
_symmetry_space_group_name_H-M "P -1"
_symmetry_group_IT_number 2
_symmetry_cell_setting 'triclinic'
loop_
_space_group_symop_operation_xyz
x,y,z
-x,-y,-z
loop_
_atom_site_type_symbol
_atom_site_label
_atom_site_fract_x
_atom_site_fract_y
_atom_site_fract_z
Si Si1 0.751256 0.151508 0.818011
Si Si2 0.508973 0.662651 0.228759
Si Si3 0.653656 0.663520 0.385007
Si Si4 0.534217 0.268766 0.070545
Si Si5 0.176261 0.576976 0.481834
Si Si6 0.304775 0.994896 0.434742
Si Si7 0.887008 0.516720 0.253830
Si Si8 0.353755 0.879363 0.803393
O O1 0.763374 0.103659 0.672031
O O2 0.923754 0.312444 0.817220
O O3 0.651278 0.926882 0.876020
O O4 0.638559 0.255141 0.911978
O O5 0.584102 0.714817 0.325150
O O6 0.536727 0.481031 0.128279
O O7 0.312456 0.567666 0.331324
O O8 0.600604 0.883761 0.168867
O O9 0.500000 0.500000 0.500000
O O10 0.771962 0.583539 0.267260
O O11 0.751121 0.853530 0.458999
O O12 0.613261 0.206587 0.118600
O O13 0.252312 0.818336 0.510828
O O14 0.154173 0.486201 0.594860
O O15 0.000000 0.500000 0.500000
O O16 0.501990 0.112204 0.347398
O O17 0.822916 0.288365 0.190655
#
# Coordination Sequence:
#
# PCOD9101469 Si02
#       8
#     2   2   2   2   2   2   2   2
#     4  10  23  40  65  90 129 175 208 273 320 369
#     4  11  22  41  70  95 125 174 217 257 319 388
#     4  12  20  35  63  98 126 167 211 254 319 390
#     4  10  22  47  67  87 126 175 228 255 317 382
#     4  11  22  36  58  95 134 160 202 264 323 382
#     4  10  20  38  59  87 130 165 207 249 322 388
#     4  12  22  37  65  98 134 163 211 270 324 377
#     4  10  21  39  66  93 123 168 215 263 313 374
#
# _framework density 21.540140000000001
#
# number of rings (size 3 to 8) (size 9 to 14) (size 15 to 20)
#    0.000    1.250    5.000    1.500    0.000    4.000 
#    0.000   10.625    2.750    0.000    0.000    0.000 
#    0.000    0.000    0.000    0.000    0.000    0.000 
#
# Total GULP energy -89252.564887 kJ/mol
# GULP energy per Si atom -5578.285305 kJ/mol
# Density = 2.149111 g / cm^3
# Si number density = 21.540140 Si / 1000 Ang^3
#
#
#
# Elastic Constant Matrix: (Units=GPa)
#
#
# Indices 1 2 3 4 5 6 
#
# 1 96.0184 43.9666 22.0047 -1.5463 0.0971 10.9117
# 2 43.9666 142.3352 52.1542 25.9461 -13.8251 8.8334
# 3 22.0047 52.1542 57.4705 17.1737 -2.9232 -2.9158
# 4 -1.5463 25.9461 17.1737 36.2654 -4.7557 -11.5235
# 5 0.0971 -13.8251 -2.9232 -4.7557 23.5209 -0.1940
# 6 10.9117 8.8334 -2.9158 -11.5235 -0.1940 42.7764
#
#
#
# Elastic Compliance Matrix: (Units=1/GPa)
#
#
# Indices 1 2 3 4 5 6 
#
# 1 0.013055 -0.003721 -0.002945 0.003817 -0.001849 -0.001743
# 2 -0.003721 0.013251 -0.008713 -0.006065 0.005462 -0.003990
# 3 -0.002945 -0.008713 0.028492 -0.006942 -0.002950 0.002609
# 4 0.003817 -0.006065 -0.006942 0.039122 0.003552 0.010361
# 5 -0.001849 0.005462 -0.002950 0.003552 0.046088 0.000309
# 6 -0.001743 -0.003990 0.002609 0.010361 0.000309 0.027616
#
#
# Mechanical properties :
#
#
# Convention : Reuss Voigt Hill
#
# Bulk Modulus (GPa) = 41.59754 59.11946 50.35850
# Shear Modulus (GPa) = 24.22540 32.35910 28.29225
#
# Velocity S-wave (km/s) = 3.35724 3.88012 3.62811
# Velocity P-wave (km/s) = 5.86358 6.89779 6.40161
#
# Compressibility (1/GPa) = 0.02403989
#
# Stress axis : x y z
#
# Youngs Moduli (GPa) = 76.60097 75.46373 35.09772
#
# Poissons Ratio (x) = 0.28078 0.10337
# Poissons Ratio (y) = 0.28501 0.30582
# Poissons Ratio (z) = 0.22559 0.65754
#
# Static dielectric constant tensor:
#      x y z
#    x 1.818120 0.002820 0.024180 
#    y 0.002820 1.816500 0.006570 
#    z 0.024180 0.006570 1.815740 
# 
# From -- ./inp_files/513547.got.cif
#   From: 2010.05.17/outbox.cif.g08.bks.cpg/sg2_257_cif.got.tgz:513547.got - 2010.06.03 11:33:40.
