data_PCOD9101723
_publ_section_title
;
Structure prediction by ZEFSAII (Michael W. Deem and Ramdas Pophale) SiO2 
 PCOD9101723
Probable space group: P -1
;
_chemical_formula_sum "Si O2"
_cell_formula_units_Z 16
_cell_length_a 18.498544
_cell_length_b 8.130476
_cell_length_c 11.514998
_cell_angle_alpha 123.428125
_cell_angle_beta 122.466963
_cell_angle_gamma 103.904666
_cell_volume 790.757496
_symmetry_space_group_name_H-M "P -1"
_symmetry_group_IT_number 2
_symmetry_cell_setting 'triclinic'
loop_
_space_group_symop_operation_xyz
x,y,z
-x,-y,-z
loop_
_atom_site_type_symbol
_atom_site_label
_atom_site_fract_x
_atom_site_fract_y
_atom_site_fract_z
Si Si1 0.421956 0.833201 0.747731
Si Si2 0.448043 0.255838 0.602060
Si Si3 0.343918 0.516545 0.968990
Si Si4 0.774287 0.304386 0.973447
Si Si5 0.954923 0.321278 0.772151
Si Si6 0.737148 0.083711 0.328176
Si Si7 0.362457 0.090334 0.081812
Si Si8 0.288397 0.338207 0.603138
O O1 0.359821 0.932542 0.697705
O O2 0.518823 0.859167 0.769992
O O3 0.297469 0.483132 0.551000
O O4 0.500000 0.000000 0.000000
O O5 0.556964 0.565865 0.738885
O O6 0.375442 0.297705 0.632202
O O7 0.337288 0.952361 0.315179
O O8 0.526157 0.244493 0.747964
O O9 0.352554 0.558938 0.855224
O O10 0.306084 0.220177 0.827673
O O11 0.243796 0.501795 0.926213
O O12 0.739223 0.104990 0.976369
O O13 0.916964 0.524918 0.126765
O O14 0.871902 0.312947 0.607322
O O15 0.854462 0.976370 0.596591
O O16 0.000000 0.500000 0.000000
O O17 0.718210 0.100952 0.181402
#
# Coordination Sequence:
#
# PCOD9101723 Si02
#       8
#     2   2   2   2   2   2   2   2
#     4   9  17  36  62  95 116 143 197 255 301 337
#     4  10  20  38  60  89 124 155 196 248 309 356
#     4  10  21  35  59  95 116 154 204 249 305 348
#     4  12  23  38  59  86 129 160 191 250 303 355
#     4  11  24  43  59  83 125 168 204 236 296 363
#     4   9  20  39  64  88 118 159 204 246 290 357
#     4   9  20  37  62  93 119 150 200 254 307 347
#     4  10  20  38  66  86 121 160 201 248 289 359
#
# _framework density 20.233761000000001
#
# number of rings (size 3 to 8) (size 9 to 14) (size 15 to 20)
#    0.000    2.000    1.250    3.375    0.000    6.500 
#    2.250    3.125    0.000    0.000    0.000    0.000 
#    0.000    0.000    0.000    0.000    0.000    0.000 
#
# Total GULP energy -89152.296048 kJ/mol
# GULP energy per Si atom -5572.018503 kJ/mol
# Density = 2.018771 g / cm^3
# Si number density = 20.233761 Si / 1000 Ang^3
#
#
#
# Elastic Constant Matrix: (Units=GPa)
#
#
# Indices 1 2 3 4 5 6 
#
# 1 129.7146 61.7090 26.7865 -2.6021 17.0144 11.2143
# 2 61.7090 85.6826 35.3318 4.7480 17.0144 9.4012
# 3 26.7865 35.3318 83.8801 -17.8703 12.4185 4.2433
# 4 -2.6021 4.7480 -17.8703 30.2966 6.5814 6.4294
# 5 17.0144 17.0144 12.4185 6.5814 24.0411 7.4577
# 6 11.2143 9.4012 4.2433 6.4294 7.4577 37.8161
#
#
#
# Elastic Compliance Matrix: (Units=1/GPa)
#
#
# Indices 1 2 3 4 5 6 
#
# 1 0.012323 -0.008710 0.001342 0.004417 -0.003960 -0.001610
# 2 -0.008710 0.022297 -0.007852 -0.008145 -0.003317 -0.000040
# 3 0.001342 -0.007852 0.019438 0.015091 -0.009133 -0.001392
# 4 0.004417 -0.008145 0.015091 0.048425 -0.016570 -0.005944
# 5 -0.003960 -0.003317 -0.009133 -0.016570 0.057719 -0.005542
# 6 -0.001610 -0.000040 -0.001392 -0.005944 -0.005542 0.029191
#
#
# Mechanical properties :
#
#
# Convention : Reuss Voigt Hill
#
# Bulk Modulus (GPa) = 42.34174 60.77023 51.55598
# Shear Modulus (GPa) = 21.95829 30.12742 26.04285
#
# Velocity S-wave (km/s) = 3.29786 3.86290 3.59151
# Velocity P-wave (km/s) = 5.95591 7.07073 6.53713
#
# Compressibility (1/GPa) = 0.02361736
#
# Stress axis : x y z
#
# Youngs Moduli (GPa) = 81.14887 44.84982 51.44534
#
# Poissons Ratio (x) = 0.39066 -0.06907
# Poissons Ratio (y) = 0.70685 0.40396
# Poissons Ratio (z) = -0.10894 0.35217
#
# Static dielectric constant tensor:
#      x y z
#    x 1.721980 0.002240 -0.016520 
#    y 0.002240 1.860870 0.070710 
#    z -0.016520 0.070710 1.794640 
# 
# From -- ./inp_files/462467.got.cif
#   From: 2010.05.17/outbox.cif.g08.bks.cpg/sg2_232_cif.got.tgz:462467.got - 2010.06.03 11:33:40.
