data_PCOD9101279
_publ_section_title
;
Structure prediction by ZEFSAII (Michael W. Deem and Ramdas Pophale) SiO2 
 PCOD9101279
Probable space group: P -1
;
_chemical_formula_sum "Si O2"
_cell_formula_units_Z 12
_cell_length_a 12.198816
_cell_length_b 9.074100
_cell_length_c 5.464574
_cell_angle_alpha 59.142373
_cell_angle_beta 77.262915
_cell_angle_gamma 100.809527
_cell_volume 472.716802
_symmetry_space_group_name_H-M "P -1"
_symmetry_group_IT_number 2
_symmetry_cell_setting 'triclinic'
loop_
_space_group_symop_operation_xyz
x,y,z
-x,-y,-z
loop_
_atom_site_type_symbol
_atom_site_label
_atom_site_fract_x
_atom_site_fract_y
_atom_site_fract_z
Si Si1 0.526928 0.315838 0.146252
Si Si2 0.079622 0.215280 0.805799
Si Si3 0.527810 0.210097 0.740415
Si Si4 0.863902 0.490095 0.101075
Si Si5 0.158099 0.703957 0.219867
Si Si6 0.700529 0.869482 0.340038
O O1 0.588896 0.283539 0.389557
O O2 0.393576 0.154666 0.370782
O O3 0.500000 0.500000 0.000000
O O4 0.587755 0.312023 0.865222
O O5 0.125167 0.308411 0.971144
O O6 0.201471 0.225438 0.598102
O O7 0.982297 0.305569 0.697449
O O8 0.000000 0.000000 0.000000
O O9 0.397337 0.228481 0.739900
O O10 0.500000 0.000000 0.000000
O O11 0.815070 0.356629 0.473702
O O12 0.819498 0.413913 0.917322
O O13 0.000000 0.500000 0.000000
O O14 0.234202 0.917957 0.941554
#
# Coordination Sequence:
#
# PCOD9101279 Si02
#       6
#     2   2   2   2   2   2
#     4  10  22  43  66  90 126 156 208 265 315 369
#     4   9  18  40  58  89 122 163 194 249 295 358
#     4  10  22  43  66  86 125 159 210 255 318 368
#     4  10  20  38  58  84 122 166 205 246 295 354
#     4  10  21  39  60  86 127 162 202 248 295 363
#     4   9  23  39  63  93 121 161 209 246 314 369
#
# _framework density 25.385176000000001
#
# number of rings (size 3 to 8) (size 9 to 14) (size 15 to 20)
#    1.000    1.333    0.000    3.000    2.333    0.000 
#   12.000   11.667    0.000    0.000    0.000    0.000 
#    0.000    0.000    0.000    0.000    0.000    0.000 
#
# Total GULP energy -66907.397819 kJ/mol
# GULP energy per Si atom -5575.616485 kJ/mol
# Density = 2.532740 g / cm^3
# Si number density = 25.385176 Si / 1000 Ang^3
#
#
#
# Elastic Constant Matrix: (Units=GPa)
#
#
# Indices 1 2 3 4 5 6 
#
# 1 143.3028 22.3518 44.9631 14.6678 -0.8679 1.6785
# 2 22.3518 138.1610 63.0787 9.0303 21.9250 -2.8123
# 3 44.9631 63.0787 175.6848 12.8985 7.6405 -1.5222
# 4 14.6678 9.0303 12.8985 44.4550 -3.8755 3.6729
# 5 -0.8679 21.9250 7.6405 -3.8755 42.2509 9.1044
# 6 1.6785 -2.8123 -1.5222 3.6729 9.1044 30.7121
#
#
#
# Elastic Compliance Matrix: (Units=1/GPa)
#
#
# Indices 1 2 3 4 5 6 
#
# 1 0.007794 -0.000466 -0.001722 -0.001877 0.000654 -0.000524
# 2 -0.000466 0.009648 -0.002982 -0.001595 -0.005158 0.002481
# 3 -0.001722 -0.002982 0.007274 -0.000956 0.000048 0.000282
# 4 -0.001877 -0.001595 -0.000956 0.024424 0.004114 -0.004231
# 5 0.000654 -0.005158 0.000048 0.004114 0.028780 -0.009529
# 6 -0.000524 0.002481 0.000282 -0.004231 -0.009529 0.036161
#
#
# Mechanical properties :
#
#
# Convention : Reuss Voigt Hill
#
# Bulk Modulus (GPa) = 69.56721 79.77065 74.66893
# Shear Modulus (GPa) = 38.69582 45.26726 41.98154
#
# Velocity S-wave (km/s) = 3.90852 4.22740 4.07108
# Velocity P-wave (km/s) = 6.91613 7.43775 7.18168
#
# Compressibility (1/GPa) = 0.01437459
#
# Stress axis : x y z
#
# Youngs Moduli (GPa) = 128.31091 103.64801 137.47734
#
# Poissons Ratio (x) = 0.04833 0.23679
# Poissons Ratio (y) = 0.05983 0.40993
# Poissons Ratio (z) = 0.22100 0.30906
#
# Static dielectric constant tensor:
#      x y z
#    x 2.165220 0.009450 -0.015280 
#    y 0.009450 2.071850 0.015150 
#    z -0.015280 0.015150 2.006040 
# 
# From -- ./inp_files/89628.got.cif
#   From: 2010.05.17/outbox.cif.g08.bks.cpg/sg2_45_cif.got.tgz:89628.got - 2010.06.03 11:33:40.
