data_PCOD9101217
_publ_section_title
;
Structure prediction by ZEFSAII (Michael W. Deem and Ramdas Pophale) SiO2 
 PCOD9101217
Probable space group: P -1
;
_chemical_formula_sum "Si O2"
_cell_formula_units_Z 14
_cell_length_a 15.636704
_cell_length_b 13.424842
_cell_length_c 10.326148
_cell_angle_alpha 46.678741
_cell_angle_beta 61.982835
_cell_angle_gamma 26.205288
_cell_volume 620.508844
_symmetry_space_group_name_H-M "P -1"
_symmetry_group_IT_number 2
_symmetry_cell_setting 'triclinic'
loop_
_space_group_symop_operation_xyz
x,y,z
-x,-y,-z
loop_
_atom_site_type_symbol
_atom_site_label
_atom_site_fract_x
_atom_site_fract_y
_atom_site_fract_z
Si Si1 0.913688 0.718153 0.674054
Si Si2 0.441709 0.421103 0.655338
Si Si3 0.584961 0.581406 0.609870
Si Si4 0.980639 0.231915 0.667053
Si Si5 0.192675 0.704702 0.834228
Si Si6 0.614198 0.269560 0.010929
Si Si7 0.067125 0.236143 0.082288
O O1 0.050185 0.609929 0.556990
O O2 0.961363 0.723092 0.777227
O O3 0.665491 0.067941 0.501757
O O4 0.947705 0.515113 0.853645
O O5 0.500000 0.500000 0.500000
O O6 0.374650 0.437047 0.553800
O O7 0.253225 0.659307 0.682212
O O8 0.674459 0.069346 0.850584
O O9 0.622299 0.374485 0.799522
O O10 0.755838 0.455260 0.680256
O O11 0.087675 0.966675 0.749547
O O12 0.148114 0.066183 0.806970
O O13 0.437418 0.377426 0.009075
O O14 0.035906 0.773564 0.886884
O O15 0.500000 0.500000 0.000000
#
# Coordination Sequence:
#
# PCOD9101217 Si02
#       7
#     2   2   2   2   2   2   2
#     4  10  21  41  56  87 119 154 195 234 285 357
#     4  11  20  35  58  92 120 140 192 243 288 348
#     4  11  20  36  61  87 113 155 193 240 292 340
#     4  11  22  37  64  84 116 157 198 237 289 335
#     4  11  21  37  58  90 120 150 190 243 292 333
#     4  10  20  38  57  88 117 148 199 248 275 342
#     4  10  23  37  60  85 123 154 185 240 297 342
#
# _framework density 22.562127
#
# number of rings (size 3 to 8) (size 9 to 14) (size 15 to 20)
#    0.000    1.429    4.286    3.000    0.000    2.857 
#    0.000    5.000    0.000    1.714    0.000    0.000 
#    0.000    0.000    0.000    0.000    0.000    0.000 
#
# Total GULP energy -78238.128493 kJ/mol
# GULP energy per Si atom -5588.437750 kJ/mol
# Density = 2.251077 g / cm^3
# Si number density = 22.562127 Si / 1000 Ang^3
#
#
#
# Elastic Constant Matrix: (Units=GPa)
#
#
# Indices 1 2 3 4 5 6 
#
# 1 64.1419 27.2077 31.7818 -4.7288 12.2148 -28.5167
# 2 27.2077 55.4272 26.5203 7.7690 6.3021 -15.3573
# 3 31.7818 26.5203 103.3727 -2.0680 0.1226 -19.6683
# 4 -4.7288 7.7690 -2.0680 21.8982 -6.0231 10.1200
# 5 12.2148 6.3021 0.1226 -6.0231 25.7111 -7.5656
# 6 -28.5167 -15.3573 -19.6683 10.1200 -7.5656 35.4198
#
#
#
# Elastic Compliance Matrix: (Units=1/GPa)
#
#
# Indices 1 2 3 4 5 6 
#
# 1 0.029517 -0.006516 -0.004088 -0.001940 -0.007687 0.017582
# 2 -0.006516 0.028677 -0.004023 -0.017521 -0.005429 0.008800
# 3 -0.004088 -0.004023 0.012409 0.001788 0.003931 0.002184
# 4 -0.001940 -0.017521 0.001788 0.066611 0.013668 -0.024277
# 5 -0.007687 -0.005429 0.003931 0.013668 0.046992 -0.000228
# 6 0.017582 0.008800 0.002184 -0.024277 -0.000228 0.054303
#
#
# Mechanical properties :
#
#
# Convention : Reuss Voigt Hill
#
# Bulk Modulus (GPa) = 24.18465 43.77348 33.97907
# Shear Modulus (GPa) = 17.75898 25.76797 21.76347
#
# Velocity S-wave (km/s) = 2.80860 3.38315 3.10917
# Velocity P-wave (km/s) = 4.61086 5.89104 5.28982
#
# Compressibility (1/GPa) = 0.04134855
#
# Stress axis : x y z
#
# Youngs Moduli (GPa) = 33.87830 34.87159 80.58426
#
# Poissons Ratio (x) = 0.22723 0.32942
# Poissons Ratio (y) = 0.22076 0.32423
# Poissons Ratio (z) = 0.13849 0.14030
#
# Static dielectric constant tensor:
#      x y z
#    x 1.869160 0.041120 0.081110 
#    y 0.041120 1.888770 -0.002080 
#    z 0.081110 -0.002080 1.867950 
# 
# From -- ./inp_files/236898.got.cif
#   From: 2010.05.17/outbox.cif.g08.bks.cpg/sg2_119_cif.got.tgz:236898.got - 2010.06.03 11:33:40.
