data_PCOD9101775
_publ_section_title
;
Structure prediction by ZEFSAII (Michael W. Deem and Ramdas Pophale) SiO2 
 PCOD9101775
Probable space group: P -1
;
_chemical_formula_sum "Si O2"
_cell_formula_units_Z 14
_cell_length_a 5.007640
_cell_length_b 19.602726
_cell_length_c 7.120482
_cell_angle_alpha 78.438611
_cell_angle_beta 111.090833
_cell_angle_gamma 66.154016
_cell_volume 545.281109
_symmetry_space_group_name_H-M "P -1"
_symmetry_group_IT_number 2
_symmetry_cell_setting 'triclinic'
loop_
_space_group_symop_operation_xyz
x,y,z
-x,-y,-z
loop_
_atom_site_type_symbol
_atom_site_label
_atom_site_fract_x
_atom_site_fract_y
_atom_site_fract_z
Si Si1 0.610269 0.517100 0.786857
Si Si2 0.350947 0.376659 0.016639
Si Si3 0.115493 0.214392 0.948401
Si Si4 0.769133 0.960051 0.976303
Si Si5 0.748858 0.967390 0.446058
Si Si6 0.506010 0.610011 0.355032
Si Si7 0.772419 0.204180 0.218879
O O1 0.468882 0.574892 0.899872
O O2 0.639332 0.577617 0.612389
O O3 0.422491 0.476874 0.666119
O O4 0.974664 0.438019 0.943674
O O5 0.523075 0.289772 0.204927
O O6 0.351413 0.364485 0.798475
O O7 0.086607 0.137140 0.921095
O O8 0.506299 0.187094 0.054312
O O9 0.000558 0.222127 0.131124
O O10 0.857880 0.305576 0.755566
O O11 0.671589 0.970736 0.682797
O O12 0.653683 0.982521 0.174100
O O13 0.000000 0.000000 0.000000
O O14 0.973294 0.869617 0.550044
O O15 0.000000 0.000000 0.500000
#
# Coordination Sequence:
#
# PCOD9101775 Si02
#       7
#     2   2   2   2   2   2   2
#     4  10  20  38  60  92 127 166 227 260 341 391
#     4  10  21  36  62  90 129 168 217 280 324 395
#     4  11  22  41  65  92 130 172 218 268 334 401
#     4  12  25  41  64  96 134 167 211 280 340 389
#     4  12  22  41  68  92 122 172 224 264 320 408
#     4  10  21  37  63  89 125 176 215 270 335 399
#     4  11  21  40  66  95 123 173 225 268 326 394
#
# _framework density 25.674827000000001
#
# number of rings (size 3 to 8) (size 9 to 14) (size 15 to 20)
#    0.000    1.143    4.286    2.571    0.000    1.143 
#    0.000    0.000    0.000    0.000    0.000    0.000 
#    0.000    0.000    0.000    0.000    0.000    0.000 
#
# Total GULP energy -77957.904195 kJ/mol
# GULP energy per Si atom -5568.421728 kJ/mol
# Density = 2.561639 g / cm^3
# Si number density = 25.674827 Si / 1000 Ang^3
#
#
#
# Elastic Constant Matrix: (Units=GPa)
#
#
# Indices 1 2 3 4 5 6 
#
# 1 138.0427 38.7343 41.2492 -10.4354 -7.5844 -6.6970
# 2 38.7343 140.9958 56.9588 -21.6208 -3.5593 6.7934
# 3 41.2492 56.9588 174.4814 -23.6892 -0.0458 -10.7173
# 4 -10.4354 -21.6208 -23.6892 53.5451 -0.3458 -1.5700
# 5 -7.5844 -3.5593 -0.0458 -0.3458 28.3421 6.2269
# 6 -6.6970 6.7934 -10.7173 -1.5700 6.2269 40.8778
#
#
#
# Elastic Compliance Matrix: (Units=1/GPa)
#
#
# Indices 1 2 3 4 5 6 
#
# 1 0.008284 -0.001701 -0.001284 0.000402 0.001776 0.001048
# 2 -0.001701 0.009016 -0.002399 0.002182 0.001252 -0.002513
# 3 -0.001284 -0.002399 0.007239 0.002045 -0.001121 0.002336
# 4 0.000402 0.002182 0.002045 0.020571 0.000424 0.000965
# 5 0.001776 0.001252 -0.001121 0.000424 0.037207 -0.005863
# 6 0.001048 -0.002513 0.002336 0.000965 -0.005863 0.026595
#
#
# Mechanical properties :
#
#
# Convention : Reuss Voigt Hill
#
# Bulk Modulus (GPa) = 72.61530 80.82269 76.71900
# Shear Modulus (GPa) = 40.23520 45.65818 42.94669
#
# Velocity S-wave (km/s) = 3.96296 4.22159 4.09432
# Velocity P-wave (km/s) = 7.02027 7.43708 7.23168
#
# Compressibility (1/GPa) = 0.01377120
#
# Stress axis : x y z
#
# Youngs Moduli (GPa) = 120.71674 110.91206 138.14781
#
# Poissons Ratio (x) = 0.18869 0.17733
# Poissons Ratio (y) = 0.20537 0.33140
# Poissons Ratio (z) = 0.15495 0.26606
#
# Static dielectric constant tensor:
#      x y z
#    x 2.457980 -0.141680 -0.541030 
#    y -0.141680 2.506560 0.548970 
#    z -0.541030 0.548970 3.004000 
# 
# From -- ./inp_files/140624.got.cif
#   From: 2010.05.17/outbox.cif.g08.bks.cpg/sg2_71_cif.got.tgz:140624.got - 2010.06.03 11:33:40.
