data_PCOD9101120
_publ_section_title
;
Structure prediction by ZEFSAII (Michael W. Deem and Ramdas Pophale) SiO2 
 PCOD9101120
Probable space group: P -1
;
_chemical_formula_sum "Si O2"
_cell_formula_units_Z 16
_cell_length_a 8.634415
_cell_length_b 14.718885
_cell_length_c 10.998106
_cell_angle_alpha 30.848221
_cell_angle_beta 99.396847
_cell_angle_gamma 111.576984
_cell_volume 631.505224
_symmetry_space_group_name_H-M "P -1"
_symmetry_group_IT_number 2
_symmetry_cell_setting 'triclinic'
loop_
_space_group_symop_operation_xyz
x,y,z
-x,-y,-z
loop_
_atom_site_type_symbol
_atom_site_label
_atom_site_fract_x
_atom_site_fract_y
_atom_site_fract_z
Si Si1 0.377795 0.841362 0.571508
Si Si2 0.285558 0.573064 0.095437
Si Si3 0.412939 0.729326 0.168606
Si Si4 0.138293 0.862374 0.049259
Si Si5 0.228679 0.254071 0.722432
Si Si6 0.562207 0.460580 0.184338
Si Si7 0.035946 0.224257 0.116793
Si Si8 0.971420 0.194003 0.421608
O O1 0.454574 0.759402 0.569727
O O2 0.223108 0.888063 0.456443
O O3 0.500000 0.000000 0.500000
O O4 0.289471 0.652442 0.868596
O O5 0.363082 0.751106 0.997166
O O6 0.427165 0.486916 0.223655
O O7 0.097468 0.383864 0.297255
O O8 0.308889 0.819532 0.136732
O O9 0.316135 0.490754 0.448323
O O10 0.620506 0.788587 0.138977
O O11 0.964740 0.793424 0.193001
O O12 0.056285 0.746025 0.047329
O O13 0.197826 0.098673 0.787223
O O14 0.500000 0.500000 0.000000
O O15 0.758291 0.628208 0.037968
O O16 0.978176 0.252232 0.212081
O O17 0.989232 0.993042 0.366615
#
# Coordination Sequence:
#
# PCOD9101120 Si02
#       8
#     2   2   2   2   2   2   2   2
#     4  11  23  36  55  84 126 173 209 247 304 369
#     4  11  22  39  61  90 124 165 207 256 308 379
#     4  11  23  43  71  95 129 166 215 267 337 382
#     4  11  23  43  70  94 130 167 217 265 331 384
#     4  10  24  45  67  98 126 163 214 280 328 387
#     4  10  20  38  55  80 126 168 199 255 304 359
#     4  11  22  37  63  89 125 170 208 253 312 376
#     4  11  22  36  59  89 129 164 207 255 299 370
#
# _framework density 25.336292
#
# number of rings (size 3 to 8) (size 9 to 14) (size 15 to 20)
#    0.000    1.250    2.500    4.875    3.500    0.000 
#    2.250    0.000    5.500    0.000    0.000    0.000 
#    0.000    0.000    0.000    0.000    0.000    0.000 
#
# Total GULP energy -89224.647608 kJ/mol
# GULP energy per Si atom -5576.540475 kJ/mol
# Density = 2.527863 g / cm^3
# Si number density = 25.336292 Si / 1000 Ang^3
#
#
#
# Elastic Constant Matrix: (Units=GPa)
#
#
# Indices 1 2 3 4 5 6 
#
# 1 151.3619 29.8889 1.7471 -9.6218 13.4064 -23.7814
# 2 29.8889 89.7909 0.0813 -19.9900 5.5582 6.0590
# 3 1.7471 0.0813 48.5854 -17.1418 0.5476 -10.2437
# 4 -9.6218 -19.9900 -17.1418 32.3571 2.9890 1.8551
# 5 13.4064 5.5582 0.5476 2.9890 20.2668 -15.1952
# 6 -23.7814 6.0590 -10.2437 1.8551 -15.1952 43.5663
#
#
#
# Elastic Compliance Matrix: (Units=1/GPa)
#
#
# Indices 1 2 3 4 5 6 
#
# 1 0.008013 -0.002597 0.001106 0.001248 -0.001485 0.004424
# 2 -0.002597 0.015624 0.002876 0.011652 -0.009370 -0.006679
# 3 0.001106 0.002876 0.027569 0.016397 -0.000263 0.005896
# 4 0.001248 0.011652 0.016397 0.048792 -0.014937 -0.004372
# 5 -0.001485 -0.009370 -0.000263 -0.014937 0.075700 0.027470
# 6 0.004424 -0.006679 0.005896 -0.004372 0.027470 0.037451
#
#
# Mechanical properties :
#
#
# Convention : Reuss Voigt Hill
#
# Bulk Modulus (GPa) = 18.52728 39.24140 28.88434
# Shear Modulus (GPa) = 21.89432 36.43944 29.16688
#
# Velocity S-wave (km/s) = 2.94283 3.79652 3.39660
# Velocity P-wave (km/s) = 4.34458 5.89406 5.17761
#
# Compressibility (1/GPa) = 0.05397445
#
# Stress axis : x y z
#
# Youngs Moduli (GPa) = 124.80241 64.00569 36.27266
#
# Poissons Ratio (x) = 0.16622 -0.04011
# Poissons Ratio (y) = 0.32411 -0.10431
# Poissons Ratio (z) = -0.13802 -0.18406
#
# Static dielectric constant tensor:
#      x y z
#    x 2.109050 -0.041040 0.012270 
#    y -0.041040 2.027440 0.087630 
#    z 0.012270 0.087630 2.043990 
# 
# From -- ./inp_files/329521.got.cif
#   From: 2010.05.17/outbox.cif.g08.bks.cpg/sg2_165_cif.got.tgz:329521.got - 2010.06.03 11:33:40.
