data_PCOD9101422
_publ_section_title
;
Structure prediction by ZEFSAII (Michael W. Deem and Ramdas Pophale) SiO2 
 PCOD9101422
Probable space group: P -1
;
_chemical_formula_sum "Si O2"
_cell_formula_units_Z 16
_cell_length_a 7.535344
_cell_length_b 8.493503
_cell_length_c 16.328798
_cell_angle_alpha 124.539716
_cell_angle_beta 68.694672
_cell_angle_gamma 134.014192
_cell_volume 618.272773
_symmetry_space_group_name_H-M "P -1"
_symmetry_group_IT_number 2
_symmetry_cell_setting 'triclinic'
loop_
_space_group_symop_operation_xyz
x,y,z
-x,-y,-z
loop_
_atom_site_type_symbol
_atom_site_label
_atom_site_fract_x
_atom_site_fract_y
_atom_site_fract_z
Si Si1 0.173177 0.829505 0.197770
Si Si2 0.701007 0.633028 0.121793
Si Si3 0.729511 0.083853 0.430803
Si Si4 0.403107 0.139157 0.115411
Si Si5 0.116420 0.534493 0.610130
Si Si6 0.764490 0.573190 0.780651
Si Si7 0.094768 0.182520 0.614777
Si Si8 0.974525 0.708632 0.948231
O O1 0.960635 0.807591 0.176130
O O2 0.130868 0.881773 0.311146
O O3 0.419572 0.022119 0.159886
O O4 0.091183 0.557134 0.125933
O O5 0.485428 0.636774 0.188811
O O6 0.605195 0.363347 0.088383
O O7 0.764091 0.671637 0.027759
O O8 0.722455 0.196555 0.379986
O O9 0.986221 0.323909 0.499250
O O10 0.500000 0.000000 0.500000
O O11 0.745918 0.864383 0.371816
O O12 0.309799 0.283404 0.211323
O O13 0.223395 0.915984 0.016052
O O14 0.226334 0.453386 0.633151
O O15 0.891608 0.497487 0.682847
O O16 0.956502 0.764560 0.874814
O O17 0.000000 0.000000 0.500000
#
# Coordination Sequence:
#
# PCOD9101422 Si02
#       8
#     2   2   2   2   2   2   2   2
#     4  11  21  38  61  84 120 161 198 251 306 358
#     4   9  22  35  58  87 117 161 202 245 294 361
#     4  10  23  40  69  91 119 158 206 256 314 370
#     4   9  21  35  58  82 119 159 202 239 297 358
#     4  10  21  43  61  92 125 161 201 257 309 370
#     4  10  20  38  59  84 123 158 201 244 301 355
#     4  10  22  42  66  91 127 159 202 258 316 367
#     4  11  20  37  59  84 124 160 199 251 299 350
#
# _framework density 25.878544999999999
#
# number of rings (size 3 to 8) (size 9 to 14) (size 15 to 20)
#    0.750    1.250    1.250    3.000    1.750    2.500 
#    0.000    2.500    0.000    0.000    0.000    0.000 
#    0.000    0.000    0.000    0.000    0.000    0.000 
#
# Total GULP energy -89254.408534 kJ/mol
# GULP energy per Si atom -5578.400533 kJ/mol
# Density = 2.581964 g / cm^3
# Si number density = 25.878545 Si / 1000 Ang^3
#
#
#
# Elastic Constant Matrix: (Units=GPa)
#
#
# Indices 1 2 3 4 5 6 
#
# 1 61.6022 16.5251 2.6954 7.3559 -11.6063 -18.1294
# 2 16.5251 117.3956 20.9174 4.3462 -5.9236 -30.7100
# 3 2.6954 20.9174 110.7949 -4.9822 0.7100 -6.2063
# 4 7.3559 4.3462 -4.9822 34.9775 -2.3722 -2.2004
# 5 -11.6063 -5.9236 0.7100 -2.3722 39.8841 8.9567
# 6 -18.1294 -30.7100 -6.2063 -2.2004 8.9567 43.9822
#
#
#
# Elastic Compliance Matrix: (Units=1/GPa)
#
#
# Indices 1 2 3 4 5 6 
#
# 1 0.019493 -0.000674 -0.000154 -0.003359 0.003897 0.006581
# 2 -0.000674 0.010768 -0.001669 -0.001007 -0.000198 0.006995
# 3 -0.000154 -0.001669 0.009433 0.001571 -0.000427 0.000268
# 4 -0.003359 -0.001007 0.001571 0.029661 0.000728 -0.000531
# 5 0.003897 -0.000198 -0.000427 0.000728 0.027145 -0.004084
# 6 0.006581 0.006995 0.000268 -0.000531 -0.004084 0.031176
#
#
# Mechanical properties :
#
#
# Convention : Reuss Voigt Hill
#
# Bulk Modulus (GPa) = 28.81888 41.11873 34.96880
# Shear Modulus (GPa) = 34.66535 40.41242 37.53888
#
# Velocity S-wave (km/s) = 3.66394 3.95602 3.81278
# Velocity P-wave (km/s) = 5.39070 6.06551 5.73803
#
# Compressibility (1/GPa) = 0.03469948
#
# Stress axis : x y z
#
# Youngs Moduli (GPa) = 51.30081 92.87178 106.01221
#
# Poissons Ratio (x) = 0.06258 0.01637
# Poissons Ratio (y) = 0.03457 0.17690
# Poissons Ratio (z) = 0.00792 0.15497
#
# Static dielectric constant tensor:
#      x y z
#    x 2.170440 0.035940 -0.035080 
#    y 0.035940 2.075160 -0.026350 
#    z -0.035080 -0.026350 2.037560 
# 
# From -- ./inp_files/557563.got.cif
#   From: 2010.05.17/outbox.cif.g08.bks.cpg/sg2_279_cif.got.tgz:557563.got - 2010.06.03 11:33:40.
