data_PCOD9101835
_publ_section_title
;
Structure prediction by ZEFSAII (Michael W. Deem and Ramdas Pophale) SiO2 
 PCOD9101835
Probable space group: P -1
;
_chemical_formula_sum "Si O2"
_cell_formula_units_Z 16
_cell_length_a 16.140566
_cell_length_b 18.844713
_cell_length_c 7.065277
_cell_angle_alpha 126.361839
_cell_angle_beta 64.378130
_cell_angle_gamma 156.981918
_cell_volume 631.411274
_symmetry_space_group_name_H-M "P -1"
_symmetry_group_IT_number 2
_symmetry_cell_setting 'triclinic'
loop_
_space_group_symop_operation_xyz
x,y,z
-x,-y,-z
loop_
_atom_site_type_symbol
_atom_site_label
_atom_site_fract_x
_atom_site_fract_y
_atom_site_fract_z
Si Si1 0.565171 0.901113 0.908016
Si Si2 0.839212 0.027733 0.368342
Si Si3 0.794674 0.932210 0.820219
Si Si4 0.799756 0.259462 0.378828
Si Si5 0.694429 0.573434 0.578153
Si Si6 0.436123 0.785454 0.291511
Si Si7 0.258056 0.249606 0.904025
Si Si8 0.810233 0.514057 0.624088
O O1 0.465357 0.803876 0.066830
O O2 0.664700 0.085643 0.081627
O O3 0.751335 0.986582 0.840140
O O4 0.361806 0.701799 0.654888
O O5 0.669513 0.960479 0.440641
O O6 0.751403 0.862734 0.296071
O O7 0.814235 0.976309 0.090872
O O8 0.107243 0.276428 0.529181
O O9 0.563066 0.673203 0.611541
O O10 0.029666 0.090406 0.789144
O O11 0.639581 0.182018 0.534114
O O12 0.000000 0.500000 0.500000
O O13 0.941574 0.301530 0.392785
O O14 0.752506 0.559517 0.675886
O O15 0.741616 0.714497 0.821840
O O16 0.248586 0.555454 0.208140
O O17 0.500000 0.500000 0.000000
#
# Coordination Sequence:
#
# PCOD9101835 Si02
#       8
#     2   2   2   2   2   2   2   2
#     4  10  21  39  61  86 118 155 197 247 301 356
#     4  10  21  37  57  83 117 157 198 244 299 352
#     4   9  20  38  59  83 112 151 197 244 297 357
#     4  10  21  37  60  87 119 158 199 248 300 356
#     4  10  20  38  61  83 115 155 194 245 302 353
#     4  10  21  38  59  86 119 155 200 246 294 355
#     4  11  22  35  57  85 116 154 196 245 297 354
#     4  10  21  39  62  87 119 157 197 247 302 355
#
# _framework density 25.340059
#
# number of rings (size 3 to 8) (size 9 to 14) (size 15 to 20)
#    0.000    2.000    0.000    4.875    0.000    6.000 
#    0.000   15.000    0.000    1.500    0.000    0.000 
#    0.000    0.000    0.000    0.000    0.000    0.000 
#
# Total GULP energy -89427.379134 kJ/mol
# GULP energy per Si atom -5589.211196 kJ/mol
# Density = 2.528238 g / cm^3
# Si number density = 25.340059 Si / 1000 Ang^3
#
#
#
# Elastic Constant Matrix: (Units=GPa)
#
#
# Indices 1 2 3 4 5 6 
#
# 1 118.3258 63.3993 26.5981 7.3329 -1.0045 25.8673
# 2 63.3993 150.6340 34.5892 23.0489 -7.4557 29.9287
# 3 26.5981 34.5892 107.1735 17.9440 -12.5680 5.8532
# 4 7.3329 23.0489 17.9440 39.3123 2.3055 -6.4836
# 5 -1.0045 -7.4557 -12.5680 2.3055 33.0367 8.4548
# 6 25.8673 29.9287 5.8532 -6.4836 8.4548 54.8127
#
#
#
# Elastic Compliance Matrix: (Units=1/GPa)
#
#
# Indices 1 2 3 4 5 6 
#
# 1 0.011567 -0.004005 -0.001531 0.000418 -0.000396 -0.002998
# 2 -0.004005 0.010655 -0.000667 -0.006273 0.003794 -0.005184
# 3 -0.001531 -0.000667 0.011429 -0.005072 0.004886 -0.001488
# 4 0.000418 -0.006273 -0.005072 0.033291 -0.007942 0.008933
# 5 -0.000396 0.003794 0.004886 -0.007942 0.035796 -0.008867
# 6 -0.002998 -0.005184 -0.001488 0.008933 -0.008867 0.025072
#
#
# Mechanical properties :
#
#
# Convention : Reuss Voigt Hill
#
# Bulk Modulus (GPa) = 47.06644 69.47851 58.27248
# Shear Modulus (GPa) = 33.94486 42.20210 38.07348
#
# Velocity S-wave (km/s) = 3.66399 4.08540 3.88042
# Velocity P-wave (km/s) = 6.04268 7.05209 6.56681
#
# Compressibility (1/GPa) = 0.02124656
#
# Stress axis : x y z
#
# Youngs Moduli (GPa) = 86.45025 93.85446 87.49539
#
# Poissons Ratio (x) = 0.37587 0.13395
# Poissons Ratio (y) = 0.34622 0.05832
# Poissons Ratio (z) = 0.13235 0.06256
#
# Static dielectric constant tensor:
#      x y z
#    x 2.048960 -0.014140 0.013520 
#    y -0.014140 2.108510 -0.036560 
#    z 0.013520 -0.036560 1.989430 
# 
# From -- ./inp_files/337805.got.cif
#   From: 2010.05.17/outbox.cif.g08.bks.cpg/sg2_169_cif.got.tgz:337805.got - 2010.06.03 11:33:40.
