data_PCOD9101693
_publ_section_title
;
Structure prediction by ZEFSAII (Michael W. Deem and Ramdas Pophale) SiO2 
 PCOD9101693
Probable space group: P -1
;
_chemical_formula_sum "Si O2"
_cell_formula_units_Z 16
_cell_length_a 21.190627
_cell_length_b 12.307503
_cell_length_c 9.200601
_cell_angle_alpha 106.534961
_cell_angle_beta 138.763725
_cell_angle_gamma 40.950951
_cell_volume 782.534161
_symmetry_space_group_name_H-M "P -1"
_symmetry_group_IT_number 2
_symmetry_cell_setting 'triclinic'
loop_
_space_group_symop_operation_xyz
x,y,z
-x,-y,-z
loop_
_atom_site_type_symbol
_atom_site_label
_atom_site_fract_x
_atom_site_fract_y
_atom_site_fract_z
Si Si1 0.412851 0.525258 0.721315
Si Si2 0.452955 0.669953 0.416923
Si Si3 0.358813 0.294689 0.284014
Si Si4 0.623435 0.631914 0.187124
Si Si5 0.027645 0.331897 0.303963
Si Si6 0.307142 0.853857 0.525702
Si Si7 0.052443 0.561942 0.467289
Si Si8 0.613394 0.973801 0.873570
O O1 0.561631 0.336608 0.783666
O O2 0.333424 0.495190 0.650797
O O3 0.281916 0.750465 0.500934
O O4 0.500000 0.500000 0.000000
O O5 0.500000 0.500000 0.500000
O O6 0.607277 0.611980 0.673608
O O7 0.301148 0.865406 0.344408
O O8 0.401646 0.147284 0.192696
O O9 0.497555 0.131975 0.594490
O O10 0.145984 0.495741 0.039879
O O11 0.814370 0.491877 0.411135
O O12 0.479211 0.871175 0.091095
O O13 0.508460 0.685748 0.878777
O O14 0.114595 0.369182 0.470178
O O15 0.932460 0.421161 0.331268
O O16 0.162555 0.091101 0.424229
O O17 0.828468 0.788227 0.146780
#
# Coordination Sequence:
#
# PCOD9101693 Si02
#       8
#     2   2   2   2   2   2   2   2
#     4   9  20  39  64  88 123 163 212 260 305 376
#     4  10  20  38  60  88 122 163 208 255 313 368
#     4  10  21  39  59  86 128 166 197 262 312 363
#     4  11  20  39  67  91 124 169 210 255 315 366
#     4  10  21  40  58  93 132 158 210 260 304 380
#     4  10  21  37  65  91 123 170 206 258 318 364
#     4  10  22  38  62  93 126 166 212 255 304 378
#     4  10  21  40  61  88 128 165 207 257 310 370
#
# _framework density 20.446393
#
# number of rings (size 3 to 8) (size 9 to 14) (size 15 to 20)
#    0.000    2.000    2.500    0.750    1.750    0.500 
#    2.250    6.250    0.000    0.000    0.000    0.000 
#    0.000    0.000    0.000    0.000    0.000    0.000 
#
# Total GULP energy -89092.550375 kJ/mol
# GULP energy per Si atom -5568.284398 kJ/mol
# Density = 2.039986 g / cm^3
# Si number density = 20.446393 Si / 1000 Ang^3
#
#
#
# Elastic Constant Matrix: (Units=GPa)
#
#
# Indices 1 2 3 4 5 6 
#
# 1 126.8798 44.5730 31.4894 12.4169 5.0179 -1.1252
# 2 44.5730 109.2172 34.6130 11.4032 2.1971 9.1902
# 3 31.4894 34.6130 69.5415 -6.8316 -2.4744 -4.0746
# 4 12.4169 11.4032 -6.8316 22.3225 -0.0123 2.1881
# 5 5.0179 2.1971 -2.4744 -0.0123 21.6880 13.6349
# 6 -1.1252 9.1902 -4.0746 2.1881 13.6349 17.3534
#
#
#
# Elastic Compliance Matrix: (Units=1/GPa)
#
#
# Indices 1 2 3 4 5 6 
#
# 1 0.010974 -0.003156 -0.003818 -0.006517 -0.008121 0.008689
# 2 -0.003156 0.014380 -0.006932 -0.006262 0.007751 -0.014748
# 3 -0.003818 -0.006932 0.021092 0.011384 -0.000721 0.007507
# 4 -0.006517 -0.006262 0.011384 0.055926 0.008708 -0.008327
# 5 -0.008121 0.007751 -0.000721 0.008708 0.100454 -0.084827
# 6 0.008689 -0.014748 0.007507 -0.008327 -0.084827 0.135462
#
#
# Mechanical properties :
#
#
# Convention : Reuss Voigt Hill
#
# Bulk Modulus (GPa) = 53.66767 58.55435 56.11101
# Shear Modulus (GPa) = 13.42969 25.27034 19.35002
#
# Velocity S-wave (km/s) = 2.56564 3.51940 3.07966
# Velocity P-wave (km/s) = 5.92298 6.72421 6.33627
#
# Compressibility (1/GPa) = 0.01863319
#
# Stress axis : x y z
#
# Youngs Moduli (GPa) = 91.12661 69.54318 47.41245
#
# Poissons Ratio (x) = 0.21946 0.18104
# Poissons Ratio (y) = 0.28757 0.32865
# Poissons Ratio (z) = 0.34796 0.48205
#
# Static dielectric constant tensor:
#      x y z
#    x 1.746750 0.016390 -0.026370 
#    y 0.016390 1.762760 0.026800 
#    z -0.026370 0.026800 1.759820 
# 
# From -- ./inp_files/346248.got.cif
#   From: 2010.05.17/outbox.cif.g08.bks.cpg/sg2_174_cif.got.tgz:346248.got - 2010.06.03 11:33:40.
