data_PCOD9101404
_publ_section_title
;
Structure prediction by ZEFSAII (Michael W. Deem and Ramdas Pophale) SiO2 
 PCOD9101404
Probable space group: P -1
;
_chemical_formula_sum "Si O2"
_cell_formula_units_Z 16
_cell_length_a 19.143316
_cell_length_b 6.636402
_cell_length_c 7.728346
_cell_angle_alpha 68.759790
_cell_angle_beta 97.665614
_cell_angle_gamma 133.271519
_cell_volume 656.696494
_symmetry_space_group_name_H-M "P -1"
_symmetry_group_IT_number 2
_symmetry_cell_setting 'triclinic'
loop_
_space_group_symop_operation_xyz
x,y,z
-x,-y,-z
loop_
_atom_site_type_symbol
_atom_site_label
_atom_site_fract_x
_atom_site_fract_y
_atom_site_fract_z
Si Si1 0.544324 0.081966 0.679750
Si Si2 0.261109 0.814630 0.838612
Si Si3 0.109163 0.627054 0.134458
Si Si4 0.283529 0.287067 0.531051
Si Si5 0.115643 0.266518 0.495919
Si Si6 0.388942 0.196821 0.072544
Si Si7 0.666322 0.482369 0.120971
Si Si8 0.936386 0.020873 0.090388
O O1 0.618666 0.435632 0.623686
O O2 0.500000 0.000000 0.500000
O O3 0.611475 0.010686 0.740896
O O4 0.445599 0.840637 0.830936
O O5 0.265782 0.570035 0.891406
O O6 0.265681 0.992407 0.626187
O O7 0.171801 0.694514 0.966727
O O8 0.354670 0.054413 0.915974
O O9 0.144445 0.554870 0.328398
O O10 0.001859 0.310561 0.149979
O O11 0.111607 0.890906 0.067383
O O12 0.189194 0.231708 0.466770
O O13 0.308813 0.403123 0.706090
O O14 0.119072 0.250604 0.708570
O O15 0.000000 0.000000 0.500000
O O16 0.500000 0.500000 0.000000
O O17 0.328622 0.286706 0.058979
O O18 0.000000 0.000000 0.000000
#
# Coordination Sequence:
#
# PCOD9101404 Si02
#       8
#     2   2   2   2   2   2   2   2
#     4   9  18  36  57  83 119 159 199 253 307 354
#     4  11  21  36  61  87 120 161 205 251 309 366
#     4  10  22  39  60  88 124 156 197 257 308 361
#     4  10  20  38  59  83 125 161 201 258 310 366
#     4  10  21  40  62  90 123 159 204 252 313 373
#     4   9  19  36  55  79 117 155 199 252 299 356
#     4   9  21  36  59  88 115 162 211 249 308 370
#     4  10  22  40  64  87 118 159 201 249 310 371
#
# _framework density 24.364374000000002
#
# number of rings (size 3 to 8) (size 9 to 14) (size 15 to 20)
#    0.000    2.250    1.250    1.500    1.750    3.000 
#    0.000    7.500    0.000    0.000    0.000    0.000 
#    0.000    0.000    0.000    0.000    0.000    0.000 
#
# Total GULP energy -89273.908618 kJ/mol
# GULP energy per Si atom -5579.619289 kJ/mol
# Density = 2.430892 g / cm^3
# Si number density = 24.364374 Si / 1000 Ang^3
#
#
#
# Elastic Constant Matrix: (Units=GPa)
#
#
# Indices 1 2 3 4 5 6 
#
# 1 136.5173 27.5777 47.7208 -15.7470 47.9680 -14.2320
# 2 27.5777 58.0633 27.4212 -11.4523 24.2660 -2.8073
# 3 47.7208 27.4212 138.6525 -43.3091 51.2580 -18.7192
# 4 -15.7470 -11.4523 -43.3091 39.4919 -7.6976 14.7550
# 5 47.9680 24.2660 51.2580 -7.6976 48.0517 -9.7443
# 6 -14.2320 -2.8073 -18.7192 14.7550 -9.7443 56.9357
#
#
#
# Elastic Compliance Matrix: (Units=1/GPa)
#
#
# Indices 1 2 3 4 5 6 
#
# 1 0.011816 -0.000198 0.002437 0.004604 -0.013508 0.000240
# 2 -0.000198 0.023137 0.002546 0.007685 -0.013451 -0.002365
# 3 0.002437 0.002546 0.020212 0.020135 -0.022392 -0.001670
# 4 0.004604 0.007685 0.020135 0.050173 -0.023725 -0.008913
# 5 -0.013508 -0.013451 -0.022392 -0.023725 0.062270 0.005404
# 6 0.000240 -0.002365 -0.001670 -0.008913 0.005404 0.020193
#
#
# Mechanical properties :
#
#
# Convention : Reuss Voigt Hill
#
# Bulk Modulus (GPa) = 15.44760 59.85249 37.65005
# Shear Modulus (GPa) = 25.02400 44.26342 34.64371
#
# Velocity S-wave (km/s) = 3.20828 4.26693 3.77490
# Velocity P-wave (km/s) = 4.48085 6.99246 5.87250
#
# Compressibility (1/GPa) = 0.06473497
#
# Stress axis : x y z
#
# Youngs Moduli (GPa) = 84.63291 43.22072 49.47576
#
# Poissons Ratio (x) = 0.00854 -0.12056
# Poissons Ratio (y) = 0.01673 -0.12597
# Poissons Ratio (z) = -0.20622 -0.11004
#
# Static dielectric constant tensor:
#      x y z
#    x 1.926980 -0.065840 -0.051510 
#    y -0.065840 1.848700 -0.140250 
#    z -0.051510 -0.140250 1.904350 
# 
# From -- ./inp_files/107496.got.cif
#   From: 2010.05.17/outbox.cif.g08.bks.cpg/sg2_54_cif.got.tgz:107496.got - 2010.06.03 11:33:40.
