data_PCOD9101948
_publ_section_title
;
Structure prediction by ZEFSAII (Michael W. Deem and Ramdas Pophale) SiO2 
 PCOD9101948
Probable space group: P -1
;
_chemical_formula_sum "Si O2"
_cell_formula_units_Z 12
_cell_length_a 11.959638
_cell_length_b 12.839446
_cell_length_c 8.976030
_cell_angle_alpha 146.815157
_cell_angle_beta 127.913473
_cell_angle_gamma 42.954344
_cell_volume 514.059417
_symmetry_space_group_name_H-M "P -1"
_symmetry_group_IT_number 2
_symmetry_cell_setting 'triclinic'
loop_
_space_group_symop_operation_xyz
x,y,z
-x,-y,-z
loop_
_atom_site_type_symbol
_atom_site_label
_atom_site_fract_x
_atom_site_fract_y
_atom_site_fract_z
Si Si1 0.882763 0.959647 0.026691
Si Si2 0.849498 0.506076 0.221111
Si Si3 0.856622 0.922908 0.618239
Si Si4 0.497376 0.795846 0.334874
Si Si5 0.389818 0.507529 0.197047
Si Si6 0.543639 0.173124 0.177018
O O1 0.840846 0.013076 0.882695
O O2 0.999828 0.696381 0.819588
O O3 0.718113 0.044679 0.084453
O O4 0.987568 0.068031 0.302504
O O5 0.884310 0.680618 0.375551
O O6 0.687890 0.647381 0.364712
O O7 0.785218 0.405979 0.919532
O O8 0.680217 0.080928 0.585294
O O9 0.500000 0.000000 0.500000
O O10 0.493535 0.632881 0.012378
O O11 0.415959 0.335578 0.143437
O O12 0.440986 0.672617 0.503129
O O13 0.500000 0.000000 0.000000
#
# Coordination Sequence:
#
# PCOD9101948 Si02
#       6
#     2   2   2   2   2   2
#     4  11  22  37  59  90 118 153 195 240 295 341
#     4   9  20  37  60  91 117 149 194 240 293 347
#     4  10  20  38  61  88 123 151 184 248 293 346
#     4   8  16  38  62  85 117 150 188 238 297 343
#     4   9  21  42  60  86 115 157 202 234 290 350
#     4  11  24  42  61  81 117 163 202 238 286 353
#
# _framework density 23.343606999999999
#
# number of rings (size 3 to 8) (size 9 to 14) (size 15 to 20)
#    1.000    1.333    1.667    0.500    0.000    5.333 
#    3.000    1.667    0.000    0.000    0.000    0.000 
#    0.000    0.000    0.000    0.000    0.000    0.000 
#
# Total GULP energy -66969.908395 kJ/mol
# GULP energy per Si atom -5580.825700 kJ/mol
# Density = 2.329048 g / cm^3
# Si number density = 23.343607 Si / 1000 Ang^3
#
#
#
# Elastic Constant Matrix: (Units=GPa)
#
#
# Indices 1 2 3 4 5 6 
#
# 1 91.8194 13.6835 18.6130 -2.9585 32.3384 -5.7517
# 2 13.6835 101.8763 -6.3118 8.6429 -8.3429 -2.3917
# 3 18.6130 -6.3118 89.2804 -1.0513 20.6631 1.6386
# 4 -2.9585 8.6429 -1.0513 24.5266 -2.3806 2.5815
# 5 32.3384 -8.3429 20.6631 -2.3806 30.3193 1.8314
# 6 -5.7517 -2.3917 1.6386 2.5815 1.8314 30.4853
#
#
#
# Elastic Compliance Matrix: (Units=1/GPa)
#
#
# Indices 1 2 3 4 5 6 
#
# 1 0.019909 -0.004525 0.000836 0.001289 -0.023229 0.004643
# 2 -0.004525 0.011370 -0.000082 -0.003796 0.007719 -0.000100
# 3 0.000836 -0.000082 0.013337 -0.000278 -0.010029 0.000060
# 4 0.001289 -0.003796 -0.000278 0.042779 0.001356 -0.003744
# 5 -0.023229 0.007719 -0.010029 0.001356 0.067271 -0.007394
# 6 0.004643 -0.000100 0.000060 -0.003744 -0.007394 0.034429
#
#
# Mechanical properties :
#
#
# Convention : Reuss Voigt Hill
#
# Bulk Modulus (GPa) = 26.97307 37.21618 32.09462
# Shear Modulus (GPa) = 23.92380 34.19900 29.06140
#
# Velocity S-wave (km/s) = 3.20481 3.83172 3.53220
# Velocity P-wave (km/s) = 5.02735 5.96267 5.51488
#
# Compressibility (1/GPa) = 0.03707402
#
# Stress axis : x y z
#
# Youngs Moduli (GPa) = 50.22728 87.94780 74.97726
#
# Poissons Ratio (x) = 0.39796 -0.06265
# Poissons Ratio (y) = 0.22728 0.00616
# Poissons Ratio (z) = -0.04197 0.00723
#
# Static dielectric constant tensor:
#      x y z
#    x 1.915740 0.025560 0.018720 
#    y 0.025560 1.900160 -0.025100 
#    z 0.018720 -0.025100 1.907850 
# 
# From -- ./inp_files/408429.got.cif
#   From: 2010.05.17/outbox.cif.g08.bks.cpg/sg2_205_cif.got.tgz:408429.got - 2010.06.03 11:33:40.
