data_PCOD9101078
_publ_section_title
;
Structure prediction by ZEFSAII (Michael W. Deem and Ramdas Pophale) SiO2 
 PCOD9101078
Probable space group: P -1
;
_chemical_formula_sum "Si O2"
_cell_formula_units_Z 16
_cell_length_a 16.418829
_cell_length_b 9.537119
_cell_length_c 12.441018
_cell_angle_alpha 129.987799
_cell_angle_beta 63.000712
_cell_angle_gamma 145.978031
_cell_volume 820.959300
_symmetry_space_group_name_H-M "P -1"
_symmetry_group_IT_number 2
_symmetry_cell_setting 'triclinic'
loop_
_space_group_symop_operation_xyz
x,y,z
-x,-y,-z
loop_
_atom_site_type_symbol
_atom_site_label
_atom_site_fract_x
_atom_site_fract_y
_atom_site_fract_z
Si Si1 0.333957 0.661856 0.920558
Si Si2 0.825380 0.196957 0.465170
Si Si3 0.320296 0.265380 0.862168
Si Si4 0.663870 0.693666 0.883379
Si Si5 0.280514 0.108652 0.395377
Si Si6 0.610920 0.195355 0.628770
Si Si7 0.566396 0.308298 0.347250
Si Si8 0.151739 0.740384 0.092296
O O1 0.311216 0.453296 0.909161
O O2 0.333254 0.597610 0.765167
O O3 0.221075 0.647006 0.005549
O O4 0.500000 0.000000 0.000000
O O5 0.741559 0.256101 0.563858
O O6 0.000000 0.500000 0.500000
O O7 0.764290 0.003307 0.299554
O O8 0.775573 0.001308 0.503008
O O9 0.491139 0.473516 0.869821
O O10 0.271316 0.182983 0.974682
O O11 0.672762 0.495617 0.749720
O O12 0.743019 0.956825 0.886666
O O13 0.428668 0.217548 0.344499
O O14 0.337356 0.406045 0.493383
O O15 0.156909 0.834814 0.254943
O O16 0.500000 0.000000 0.500000
O O17 0.513029 0.981977 0.685942
O O18 0.000000 0.500000 0.000000
#
# Coordination Sequence:
#
# PCOD9101078 Si02
#       8
#     2   2   2   2   2   2   2   2
#     4  12  21  41  69  97 125 171 224 260 317 388
#     4  11  25  42  65  95 133 175 214 265 326 388
#     4  11  23  42  68 100 127 169 224 269 317 383
#     4  11  24  42  66 100 134 168 216 273 322 382
#     4  10  21  42  66  92 130 166 219 270 316 381
#     4  11  22  39  67  97 130 168 216 267 326 381
#     4  10  20  37  70  98 116 167 227 268 306 377
#     4  12  28  44  64  97 138 172 209 271 333 384
#
# _framework density 19.489394000000001
#
# number of rings (size 3 to 8) (size 9 to 14) (size 15 to 20)
#    0.000    1.000    5.000    1.500    7.000    1.000 
#    0.000    1.875    0.000    0.000    0.000    0.000 
#    0.000    0.000    0.000    0.000    0.000    0.000 
#
# Total GULP energy -89402.921579 kJ/mol
# GULP energy per Si atom -5587.682599 kJ/mol
# Density = 1.944504 g / cm^3
# Si number density = 19.489394 Si / 1000 Ang^3
#
#
#
# Elastic Constant Matrix: (Units=GPa)
#
#
# Indices 1 2 3 4 5 6 
#
# 1 86.2366 19.8224 35.3887 5.6642 -7.0809 -6.8610
# 2 19.8224 38.5513 11.7252 -0.4878 -3.3660 -3.2145
# 3 35.3887 11.7252 131.2801 2.0365 11.3292 -1.9156
# 4 5.6642 -0.4878 2.0365 27.3812 -4.8373 6.5552
# 5 -7.0809 -3.3660 11.3292 -4.8373 34.5357 9.9005
# 6 -6.8610 -3.2145 -1.9156 6.5552 9.9005 32.0118
#
#
#
# Elastic Compliance Matrix: (Units=1/GPa)
#
#
# Indices 1 2 3 4 5 6 
#
# 1 0.015138 -0.006293 -0.003667 -0.003031 0.002639 0.002198
# 2 -0.006293 0.029790 -0.001180 0.002198 0.002180 0.000448
# 3 -0.003667 -0.001180 0.009118 -0.000990 -0.004337 0.001185
# 4 -0.003031 0.002198 -0.000990 0.041721 0.009163 -0.011865
# 5 0.002639 0.002180 -0.004337 0.009163 0.035994 -0.012483
# 6 0.002198 0.000448 0.001185 -0.011865 -0.012483 0.038116
#
#
# Mechanical properties :
#
#
# Convention : Reuss Voigt Hill
#
# Bulk Modulus (GPa) = 31.48095 43.32674 37.40384
# Shear Modulus (GPa) = 24.66153 31.39451 28.02802
#
# Velocity S-wave (km/s) = 3.56108 4.01790 3.79636
# Velocity P-wave (km/s) = 5.75294 6.61845 6.20081
#
# Compressibility (1/GPa) = 0.03176525
#
# Stress axis : x y z
#
# Youngs Moduli (GPa) = 66.05866 33.56883 109.67126
#
# Poissons Ratio (x) = 0.21125 0.40220
# Poissons Ratio (y) = 0.41571 0.12940
# Poissons Ratio (z) = 0.24226 0.03961
#
# Static dielectric constant tensor:
#      x y z
#    x 1.709820 -0.045210 -0.060820 
#    y -0.045210 1.656460 0.017900 
#    z -0.060820 0.017900 1.831900 
# 
# From -- ./inp_files/256705.got.cif
#   From: 2010.05.17/outbox.cif.g08.bks.cpg/sg2_129_cif.got.tgz:256705.got - 2010.06.03 11:33:40.
