data_PCOD9101001
_publ_section_title
;
Structure prediction by ZEFSAII (Michael W. Deem and Ramdas Pophale) SiO2 
 PCOD9101001
Probable space group: P -1
;
_chemical_formula_sum "Si O2"
_cell_formula_units_Z 14
_cell_length_a 14.544496
_cell_length_b 11.628913
_cell_length_c 9.418728
_cell_angle_alpha 127.549243
_cell_angle_beta 70.781789
_cell_angle_gamma 150.679741
_cell_volume 527.982984
_symmetry_space_group_name_H-M "P -1"
_symmetry_group_IT_number 2
_symmetry_cell_setting 'triclinic'
loop_
_space_group_symop_operation_xyz
x,y,z
-x,-y,-z
loop_
_atom_site_type_symbol
_atom_site_label
_atom_site_fract_x
_atom_site_fract_y
_atom_site_fract_z
Si Si1 0.041400 0.799531 0.398594
Si Si2 0.825003 0.575937 0.786372
Si Si3 0.579512 0.465354 0.297013
Si Si4 0.390223 0.668471 0.565087
Si Si5 0.221943 0.813671 0.536278
Si Si6 0.728474 0.381631 0.996403
Si Si7 0.328390 0.193230 0.957495
O O1 0.174346 0.853751 0.457320
O O2 0.843148 0.587381 0.443419
O O3 0.928284 0.594467 0.156148
O O4 0.201828 0.148162 0.546977
O O5 0.667655 0.445880 0.655639
O O6 0.734432 0.290971 0.605122
O O7 0.818629 0.586850 0.966314
O O8 0.079233 0.918436 0.864056
O O9 0.535841 0.373043 0.413833
O O10 0.614700 0.351117 0.128684
O O11 0.390443 0.276491 0.152403
O O12 0.563709 0.030303 0.776559
O O13 0.000000 0.500000 0.500000
O O14 0.357600 0.071308 0.784435
O O15 0.500000 0.500000 0.000000
#
# Coordination Sequence:
#
# PCOD9101001 Si02
#       7
#     2   2   2   2   2   2   2
#     4  11  21  42  64  97 122 173 210 264 306 380
#     4  11  24  42  65  98 129 162 210 271 319 362
#     4  11  23  41  69  94 126 167 221 254 311 385
#     4  11  21  40  66  92 125 171 214 252 311 388
#     4  10  20  37  68  86 129 158 219 249 310 370
#     4  11  25  39  65  97 131 163 213 264 325 362
#     4  11  21  41  69  97 119 171 215 253 311 388
#
# _framework density 26.516003999999999
#
# number of rings (size 3 to 8) (size 9 to 14) (size 15 to 20)
#    0.000    1.143    4.286    4.714    6.000    0.571 
#    0.000   10.000    0.000    0.000    0.000    0.000 
#    0.000    0.000    0.000    0.000    0.000    0.000 
#
# Total GULP energy -78417.340672 kJ/mol
# GULP energy per Si atom -5601.238619 kJ/mol
# Density = 2.645565 g / cm^3
# Si number density = 26.516004 Si / 1000 Ang^3
#
#
#
# Elastic Constant Matrix: (Units=GPa)
#
#
# Indices 1 2 3 4 5 6 
#
# 1 83.6586 29.4084 42.9366 -3.2336 39.0183 -21.9525
# 2 29.4084 145.9535 59.8971 -2.6016 22.0671 -22.3803
# 3 42.9366 59.8971 162.1801 -12.1695 45.6933 -16.8279
# 4 -3.2336 -2.6016 -12.1695 64.2798 -10.6002 4.3982
# 5 39.0183 22.0671 45.6933 -10.6002 61.5298 -9.1392
# 6 -21.9525 -22.3803 -16.8279 4.3982 -9.1392 49.4858
#
#
#
# Elastic Compliance Matrix: (Units=1/GPa)
#
#
# Indices 1 2 3 4 5 6 
#
# 1 0.019234 -0.000884 -0.001379 -0.001419 -0.010223 0.005902
# 2 -0.000884 0.008524 -0.002608 -0.000410 -0.000249 0.002566
# 3 -0.001379 -0.002608 0.008881 0.000724 -0.004614 0.000312
# 4 -0.001419 -0.000410 0.000724 0.016214 0.003089 -0.001439
# 5 -0.010223 -0.000249 -0.004614 0.003089 0.026547 -0.001589
# 6 0.005902 0.002566 0.000312 -0.001439 -0.001589 0.023927
#
#
# Mechanical properties :
#
#
# Convention : Reuss Voigt Hill
#
# Bulk Modulus (GPa) = 37.18095 72.91959 55.05027
# Shear Modulus (GPa) = 40.97141 52.36242 46.66691
#
# Velocity S-wave (km/s) = 3.93511 4.44863 4.19973
# Velocity P-wave (km/s) = 5.89062 7.34487 6.65757
#
# Compressibility (1/GPa) = 0.02689549
#
# Stress axis : x y z
#
# Youngs Moduli (GPa) = 51.99119 117.31710 112.59700
#
# Poissons Ratio (x) = 0.10372 0.15531
# Poissons Ratio (y) = 0.04596 0.29370
# Poissons Ratio (z) = 0.07171 0.30601
#
# Static dielectric constant tensor:
#      x y z
#    x 2.122300 0.008700 -0.001440 
#    y 0.008700 2.117810 -0.021250 
#    z -0.001440 -0.021250 2.081800 
# 
# From -- ./inp_files/332265.got.cif
#   From: 2010.05.17/outbox.cif.g08.bks.cpg/sg2_167_cif.got.tgz:332265.got - 2010.06.03 11:33:40.
