data_PCOD9101128
_publ_section_title
;
Structure prediction by ZEFSAII (Michael W. Deem and Ramdas Pophale) SiO2 
 PCOD9101128
Probable space group: P -1
;
_chemical_formula_sum "Si O2"
_cell_formula_units_Z 16
_cell_length_a 8.283967
_cell_length_b 26.793076
_cell_length_c 20.725718
_cell_angle_alpha 18.992620
_cell_angle_beta 40.227059
_cell_angle_gamma 33.380886
_cell_volume 814.921293
_symmetry_space_group_name_H-M "P -1"
_symmetry_group_IT_number 2
_symmetry_cell_setting 'triclinic'
loop_
_space_group_symop_operation_xyz
x,y,z
-x,-y,-z
loop_
_atom_site_type_symbol
_atom_site_label
_atom_site_fract_x
_atom_site_fract_y
_atom_site_fract_z
Si Si1 0.582191 0.596864 0.679712
Si Si2 0.504603 0.935128 0.148841
Si Si3 0.500211 0.334191 0.815922
Si Si4 0.011437 0.251984 0.668386
Si Si5 0.718374 0.307057 0.479157
Si Si6 0.219787 0.958475 0.425539
Si Si7 0.784402 0.982059 0.235582
Si Si8 0.061732 0.213751 0.044071
O O1 0.356763 0.638292 0.639233
O O2 0.842583 0.630115 0.535912
O O3 0.396145 0.750097 0.602609
O O4 0.749747 0.392781 0.903577
O O5 0.518374 0.747402 0.365189
O O6 0.766542 0.894178 0.167510
O O7 0.215918 0.086268 0.091016
O O8 0.500000 0.000000 0.000000
O O9 0.695895 0.342691 0.688294
O O10 0.324735 0.526456 0.670061
O O11 0.280102 0.278167 0.923262
O O12 0.706593 0.179838 0.994975
O O13 0.041709 0.147901 0.720238
O O14 0.022209 0.124615 0.630895
O O15 0.057369 0.087934 0.255191
O O16 0.474502 0.995989 0.320026
O O17 0.000000 0.000000 0.500000
#
# Coordination Sequence:
#
# PCOD9101128 Si02
#       8
#     2   2   2   2   2   2   2   2
#     4  10  23  39  58  90 126 156 203 248 302 369
#     4  11  23  37  57  88 129 173 204 242 297 355
#     4  11  22  34  61  87 118 167 206 247 293 350
#     4  10  20  38  55  86 127 166 209 243 290 359
#     4  11  24  37  58  90 127 161 201 247 297 354
#     4  10  21  45  71  89 115 156 203 258 315 365
#     4  10  21  39  59  89 121 155 207 256 296 360
#     4  11  23  42  62  89 125 162 206 250 297 366
#
# _framework density 19.633797000000001
#
# number of rings (size 3 to 8) (size 9 to 14) (size 15 to 20)
#    0.000    1.500    5.000    2.625    7.000    2.500 
#    0.000    0.625    0.000    3.750    0.000    0.000 
#    0.000    0.000    0.000    0.000    0.000    0.000 
#
# Total GULP energy -89301.442142 kJ/mol
# GULP energy per Si atom -5581.340134 kJ/mol
# Density = 1.958911 g / cm^3
# Si number density = 19.633797 Si / 1000 Ang^3
#
#
#
# Elastic Constant Matrix: (Units=GPa)
#
#
# Indices 1 2 3 4 5 6 
#
# 1 71.4157 21.1938 35.1409 -5.7823 19.3544 5.5593
# 2 21.1938 106.3841 37.5566 15.9965 9.1168 17.3303
# 3 35.1409 37.5566 94.6550 -16.7254 21.8449 11.8323
# 4 -5.7823 15.9965 -16.7254 16.6199 -0.3874 4.9184
# 5 19.3544 9.1168 21.8449 -0.3874 47.8415 -6.4647
# 6 5.5593 17.3303 11.8323 4.9184 -6.4647 18.0407
#
#
#
# Elastic Compliance Matrix: (Units=1/GPa)
#
#
# Indices 1 2 3 4 5 6 
#
# 1 0.018979 -0.002880 -0.001553 0.009822 -0.007336 -0.007369
# 2 -0.002880 0.019195 -0.013544 -0.033552 0.003662 0.001792
# 3 -0.001553 -0.013544 0.033123 0.053880 -0.015318 -0.028413
# 4 0.009822 -0.033552 0.053880 0.167883 -0.029253 -0.062386
# 5 -0.007336 0.003662 -0.015318 -0.029253 0.033833 0.028888
# 6 -0.007369 0.001792 -0.028413 -0.062386 0.028888 0.101975
#
#
# Mechanical properties :
#
#
# Convention : Reuss Voigt Hill
#
# Bulk Modulus (GPa) = 28.29655 51.13748 39.71702
# Shear Modulus (GPa) = 11.82809 28.40467 20.11638
#
# Velocity S-wave (km/s) = 2.45712 3.80771 3.20438
# Velocity P-wave (km/s) = 4.74272 6.74045 5.82782
#
# Compressibility (1/GPa) = 0.03534000
#
# Stress axis : x y z
#
# Youngs Moduli (GPa) = 52.69092 52.09794 30.19060
#
# Poissons Ratio (x) = 0.15005 0.04690
# Poissons Ratio (y) = 0.15176 0.40891
# Poissons Ratio (z) = 0.08185 0.70564
#
# Static dielectric constant tensor:
#      x y z
#    x 1.715730 -0.017780 0.032560 
#    y -0.017780 1.648990 -0.012940 
#    z 0.032560 -0.012940 1.704920 
# 
# From -- ./inp_files/297354.got.cif
#   From: 2010.05.17/outbox.cif.g08.bks.cpg/sg2_149_cif.got.tgz:297354.got - 2010.06.03 11:33:40.
