data_PCOD9101458
_publ_section_title
;
Structure prediction by ZEFSAII (Michael W. Deem and Ramdas Pophale) SiO2 
 PCOD9101458
Probable space group: P -1
;
_chemical_formula_sum "Si O2"
_cell_formula_units_Z 16
_cell_length_a 16.128007
_cell_length_b 18.986058
_cell_length_c 8.949690
_cell_angle_alpha 105.936552
_cell_angle_beta 49.708398
_cell_angle_gamma 148.176450
_cell_volume 804.619001
_symmetry_space_group_name_H-M "P -1"
_symmetry_group_IT_number 2
_symmetry_cell_setting 'triclinic'
loop_
_space_group_symop_operation_xyz
x,y,z
-x,-y,-z
loop_
_atom_site_type_symbol
_atom_site_label
_atom_site_fract_x
_atom_site_fract_y
_atom_site_fract_z
Si Si1 0.632595 0.324529 0.969355
Si Si2 0.858579 0.009926 0.441170
Si Si3 0.374486 0.322975 0.241244
Si Si4 0.140089 0.277371 0.039320
Si Si5 0.885549 0.862638 0.243436
Si Si6 0.768386 0.142568 0.178851
Si Si7 0.543795 0.856594 0.216354
Si Si8 0.890847 0.376621 0.176708
O O1 0.524875 0.338358 0.060329
O O2 0.645708 0.287465 0.779963
O O3 0.900366 0.498028 0.855699
O O4 0.404854 0.147955 0.239902
O O5 0.120809 0.167150 0.334871
O O6 0.919245 0.114164 0.321479
O O7 0.837028 0.919559 0.323720
O O8 0.260459 0.253980 0.502834
O O9 0.593130 0.522238 0.084091
O O10 0.998289 0.249196 0.079704
O O11 0.210882 0.248589 0.843695
O O12 0.204916 0.043149 0.996708
O O13 0.868808 0.281485 0.078118
O O14 0.500000 0.000000 0.500000
O O15 0.673622 0.015753 0.115758
O O16 0.387041 0.769414 0.504742
O O17 0.000000 0.500000 0.000000
#
# Coordination Sequence:
#
# PCOD9101458 Si02
#       8
#     2   2   2   2   2   2   2   2
#     4  11  21  40  62  86 122 161 193 237 307 347
#     4  11  22  37  60  91 124 155 200 240 286 360
#     4  11  20  40  58  87 123 159 196 242 292 355
#     4  11  22  36  61  89 119 160 196 247 293 340
#     4  10  20  38  59  87 121 160 197 234 300 348
#     4   9  21  40  61  83 119 154 198 241 302 341
#     4  10  20  41  65  82 122 162 189 239 304 355
#     4  11  24  41  65  91 112 149 209 253 287 350
#
# _framework density 19.885186999999998
#
# number of rings (size 3 to 8) (size 9 to 14) (size 15 to 20)
#    0.000    1.500    3.750    2.250    5.250    0.000 
#    0.000    1.875    0.000    0.000    0.000    0.000 
#    0.000    0.000    0.000    0.000    0.000    0.000 
#
# Total GULP energy -89350.935979 kJ/mol
# GULP energy per Si atom -5584.433499 kJ/mol
# Density = 1.983993 g / cm^3
# Si number density = 19.885187 Si / 1000 Ang^3
#
#
#
# Elastic Constant Matrix: (Units=GPa)
#
#
# Indices 1 2 3 4 5 6 
#
# 1 31.6847 -5.9264 14.4124 -0.9314 15.5303 -15.1424
# 2 -5.9264 70.4807 18.2944 -2.9182 14.8021 -4.3910
# 3 14.4124 18.2944 56.5276 -2.9600 4.3628 -18.2246
# 4 -0.9314 -2.9182 -2.9600 28.4696 0.5196 0.7026
# 5 15.5303 14.8021 4.3628 0.5196 28.9805 -16.4633
# 6 -15.1424 -4.3910 -18.2246 0.7026 -16.4633 26.0961
#
#
#
# Elastic Compliance Matrix: (Units=1/GPa)
#
#
# Indices 1 2 3 4 5 6 
#
# 1 0.064371 0.018942 -0.018622 0.002795 -0.040240 0.002072
# 2 0.018942 0.024746 -0.014662 0.002454 -0.027854 -0.012723
# 3 -0.018622 -0.014662 0.034230 0.000217 0.028596 0.028667
# 4 0.002795 0.002454 0.000217 0.035604 -0.004247 -0.001451
# 5 -0.040240 -0.027854 0.028596 -0.004247 0.095932 0.052569
# 6 0.002072 -0.012723 0.028667 -0.001451 0.052569 0.090605
#
#
# Mechanical properties :
#
#
# Convention : Reuss Voigt Hill
#
# Bulk Modulus (GPa) = 10.56375 23.58374 17.07375
# Shear Modulus (GPa) = 12.32359 25.50341 18.91350
#
# Velocity S-wave (km/s) = 2.49215 3.58513 3.08739
# Velocity P-wave (km/s) = 3.68850 5.38732 4.61672
#
# Compressibility (1/GPa) = 0.09466331
#
# Stress axis : x y z
#
# Youngs Moduli (GPa) = 15.53497 40.41127 29.21398
#
# Poissons Ratio (x) = -0.76548 0.54403
# Poissons Ratio (y) = -0.29427 0.42832
# Poissons Ratio (z) = 0.28930 0.59249
#
# Static dielectric constant tensor:
#      x y z
#    x 1.693900 -0.006390 0.005200 
#    y -0.006390 1.714800 -0.016150 
#    z 0.005200 -0.016150 1.700100 
# 
# From -- ./inp_files/318064.got.cif
#   From: 2010.05.17/outbox.cif.g08.bks.cpg/sg2_160_cif.got.tgz:318064.got - 2010.06.03 11:33:40.
