data_PCOD9101527
_publ_section_title
;
Structure prediction by ZEFSAII (Michael W. Deem and Ramdas Pophale) SiO2 
 PCOD9101527
Probable space group: P -1
;
_chemical_formula_sum "Si O2"
_cell_formula_units_Z 16
_cell_length_a 20.245633
_cell_length_b 11.035656
_cell_length_c 8.523029
_cell_angle_alpha 77.581325
_cell_angle_beta 45.119314
_cell_angle_gamma 43.597783
_cell_volume 740.366768
_symmetry_space_group_name_H-M "P -1"
_symmetry_group_IT_number 2
_symmetry_cell_setting 'triclinic'
loop_
_space_group_symop_operation_xyz
x,y,z
-x,-y,-z
loop_
_atom_site_type_symbol
_atom_site_label
_atom_site_fract_x
_atom_site_fract_y
_atom_site_fract_z
Si Si1 0.647672 0.404796 0.877471
Si Si2 0.453008 0.674028 0.435393
Si Si3 0.888017 0.039756 0.032943
Si Si4 0.726129 0.676777 0.320706
Si Si5 0.373830 0.963175 0.752824
Si Si6 0.123969 0.085321 0.346170
Si Si7 0.882087 0.365651 0.423849
Si Si8 0.923738 0.265038 0.914714
O O1 0.744634 0.409242 0.628091
O O2 0.788334 0.146863 0.750808
O O3 0.500000 0.500000 0.000000
O O4 0.566042 0.556285 0.126206
O O5 0.500000 0.500000 0.500000
O O6 0.268271 0.840154 0.646893
O O7 0.439424 0.797484 0.552790
O O8 0.862723 0.203301 0.954756
O O9 0.038992 0.844683 0.951641
O O10 0.938673 0.887400 0.856873
O O11 0.534636 0.845011 0.600485
O O12 0.822172 0.539669 0.359892
O O13 0.726570 0.818629 0.229477
O O14 0.806522 0.504992 0.095183
O O15 0.258987 0.027566 0.059553
O O16 0.939365 0.321641 0.518950
O O17 0.079451 0.141565 0.590099
#
# Coordination Sequence:
#
# PCOD9101527 Si02
#       8
#     2   2   2   2   2   2   2   2
#     4  12  25  39  64 100 133 162 204 265 327 373
#     4  12  23  37  65  94 125 163 209 260 317 374
#     4  10  20  38  59  95 126 161 207 257 319 381
#     4  10  25  45  67  85 128 178 213 255 317 383
#     4  11  24  45  66  91 126 169 222 258 310 384
#     4  12  23  39  65  98 130 159 214 271 313 371
#     4  11  23  41  62  94 130 168 205 268 321 370
#     4  10  22  37  65  91 127 165 207 256 320 376
#
# _framework density 21.610911999999999
#
# number of rings (size 3 to 8) (size 9 to 14) (size 15 to 20)
#    0.000    1.000    3.750    2.625    7.000    1.000 
#    0.000    0.625    2.750    0.000    0.000    0.000 
#    0.000    0.000    0.000    0.000    0.000    0.000 
#
# Total GULP energy -89116.539913 kJ/mol
# GULP energy per Si atom -5569.783745 kJ/mol
# Density = 2.156172 g / cm^3
# Si number density = 21.610912 Si / 1000 Ang^3
#
#
#
# Elastic Constant Matrix: (Units=GPa)
#
#
# Indices 1 2 3 4 5 6 
#
# 1 27.2585 15.2791 8.3942 -0.5343 4.9749 -6.2442
# 2 15.2791 111.9426 9.6570 -3.1404 19.7664 4.0379
# 3 8.3942 9.6570 123.2062 -14.5248 6.3536 1.6496
# 4 -0.5343 -3.1404 -14.5248 28.6742 -2.3138 -2.5050
# 5 4.9749 19.7664 6.3536 -2.3138 14.3120 0.2598
# 6 -6.2442 4.0379 1.6496 -2.5050 0.2598 31.3732
#
#
#
# Elastic Compliance Matrix: (Units=1/GPa)
#
#
# Indices 1 2 3 4 5 6 
#
# 1 0.043658 -0.004721 -0.002411 -0.000737 -0.007875 0.009430
# 2 -0.004721 0.012387 0.000171 -0.000109 -0.015516 -0.002423
# 3 -0.002411 0.000171 0.008910 0.004219 -0.002660 -0.000611
# 4 -0.000737 -0.000109 0.004219 0.037582 0.004562 0.002608
# 5 -0.007875 -0.015516 -0.002660 0.004562 0.095954 0.000139
# 6 0.009430 -0.002423 -0.000611 0.002608 0.000139 0.034302
#
#
# Mechanical properties :
#
#
# Convention : Reuss Voigt Hill
#
# Bulk Modulus (GPa) = 19.59605 36.56308 28.07957
# Shear Modulus (GPa) = 18.95898 30.14367 24.55133
#
# Velocity S-wave (km/s) = 2.96512 3.73880 3.37421
# Velocity P-wave (km/s) = 4.56179 5.96605 5.31054
#
# Compressibility (1/GPa) = 0.05103069
#
# Stress axis : x y z
#
# Youngs Moduli (GPa) = 22.90552 80.73022 112.23180
#
# Poissons Ratio (x) = 0.38114 0.27064
# Poissons Ratio (y) = 0.10814 -0.01914
# Poissons Ratio (z) = 0.05523 -0.01377
#
# Static dielectric constant tensor:
#      x y z
#    x 2.442280 -0.038190 0.131470 
#    y -0.038190 1.792200 0.025870 
#    z 0.131470 0.025870 1.832240 
# 
# From -- ./inp_files/353799.got.cif
#   From: 2010.05.17/outbox.cif.g08.bks.cpg/sg2_177_cif.got.tgz:353799.got - 2010.06.03 11:33:40.
