data_PCOD9101190
_publ_section_title
;
Structure prediction by ZEFSAII (Michael W. Deem and Ramdas Pophale) SiO2 
 PCOD9101190
Probable space group: P -1
;
_chemical_formula_sum "Si O2"
_cell_formula_units_Z 14
_cell_length_a 13.673003
_cell_length_b 7.814083
_cell_length_c 8.872482
_cell_angle_alpha 86.922149
_cell_angle_beta 57.208418
_cell_angle_gamma 123.991519
_cell_volume 567.767194
_symmetry_space_group_name_H-M "P -1"
_symmetry_group_IT_number 2
_symmetry_cell_setting 'triclinic'
loop_
_space_group_symop_operation_xyz
x,y,z
-x,-y,-z
loop_
_atom_site_type_symbol
_atom_site_label
_atom_site_fract_x
_atom_site_fract_y
_atom_site_fract_z
Si Si1 0.006154 0.866186 0.868127
Si Si2 0.755884 0.642664 0.480257
Si Si3 0.665513 0.417841 0.241371
Si Si4 0.942513 0.482972 0.382435
Si Si5 0.457597 0.188906 0.887265
Si Si6 0.796655 0.189841 0.098176
Si Si7 0.386313 0.030792 0.285419
O O1 0.127920 0.072984 0.635148
O O2 0.084383 0.784768 0.890409
O O3 0.816508 0.638103 0.001142
O O4 0.000000 0.000000 0.000000
O O5 0.677914 0.527600 0.384581
O O6 0.873532 0.603058 0.416545
O O7 0.606774 0.472497 0.727683
O O8 0.495811 0.246075 0.303588
O O9 0.704733 0.256314 0.245092
O O10 0.000000 0.500000 0.500000
O O11 0.094460 0.626098 0.138253
O O12 0.790908 0.200805 0.497567
O O13 0.527168 0.066554 0.808956
O O14 0.384456 0.116357 0.118761
O O15 0.327009 0.069217 0.867397
#
# Coordination Sequence:
#
# PCOD9101190 Si02
#       7
#     2   2   2   2   2   2   2
#     4  10  20  38  57  82 117 154 187 232 287 342
#     4  10  22  39  60  82 118 156 186 229 294 341
#     4  10  21  37  58  88 116 147 192 241 279 330
#     4  11  20  34  61  88 110 150 194 234 281 339
#     4   9  19  35  57  83 114 153 189 229 286 341
#     4  11  20  35  62  87 113 145 198 239 274 335
#     4   9  19  34  56  84 118 145 187 241 283 329
#
# _framework density 24.657995
#
# number of rings (size 3 to 8) (size 9 to 14) (size 15 to 20)
#    0.000    2.000    4.286    0.429    2.000    5.714 
#    0.000    0.714    0.000    4.286    0.000    0.000 
#    0.000    0.000    0.000    0.000    0.000    0.000 
#
# Total GULP energy -78391.732062 kJ/mol
# GULP energy per Si atom -5599.409433 kJ/mol
# Density = 2.460187 g / cm^3
# Si number density = 24.657995 Si / 1000 Ang^3
#
#
#
# Elastic Constant Matrix: (Units=GPa)
#
#
# Indices 1 2 3 4 5 6 
#
# 1 39.4207 36.1725 7.1950 -1.4607 6.9369 12.1160
# 2 36.1725 70.3238 12.2941 -18.4211 3.4493 9.9588
# 3 7.1950 12.2941 120.3702 -26.2256 14.7126 5.4005
# 4 -1.4607 -18.4211 -26.2256 42.1300 2.3357 -10.6553
# 5 6.9369 3.4493 14.7126 2.3357 29.7764 -4.1148
# 6 12.1160 9.9588 5.4005 -10.6553 -4.1148 42.8164
#
#
#
# Elastic Compliance Matrix: (Units=1/GPa)
#
#
# Indices 1 2 3 4 5 6 
#
# 1 0.062149 -0.033444 -0.002064 -0.016912 -0.010296 -0.014746
# 2 -0.033444 0.034469 0.001407 0.016037 0.002607 0.005510
# 3 -0.002064 0.001407 0.010576 0.007496 -0.005459 0.000264
# 4 -0.016912 0.016037 0.007496 0.037307 -0.003294 0.009078
# 5 -0.010296 0.002607 -0.005459 -0.003294 0.039461 0.005968
# 6 -0.014746 0.005510 0.000264 0.009078 0.005968 0.029046
#
#
# Mechanical properties :
#
#
# Convention : Reuss Voigt Hill
#
# Bulk Modulus (GPa) = 25.64564 37.93755 31.79159
# Shear Modulus (GPa) = 16.99485 34.57478 25.78481
#
# Velocity S-wave (km/s) = 2.62815 3.74862 3.23723
# Velocity P-wave (km/s) = 4.43088 5.84424 5.18593
#
# Compressibility (1/GPa) = 0.03899299
#
# Stress axis : x y z
#
# Youngs Moduli (GPa) = 16.09029 29.01160 94.55250
#
# Poissons Ratio (x) = 0.97025 0.19513
# Poissons Ratio (y) = 0.53812 -0.13301
# Poissons Ratio (z) = 0.03321 -0.04081
#
# Static dielectric constant tensor:
#      x y z
#    x 1.930440 -0.033100 -0.018310 
#    y -0.033100 2.002250 -0.027300 
#    z -0.018310 -0.027300 1.958070 
# 
# From -- ./inp_files/154244.got.cif
#   From: 2010.05.17/outbox.cif.g08.bks.cpg/sg2_78_cif.got.tgz:154244.got - 2010.06.03 11:33:40.
