data_PCOD9101054
_publ_section_title
;
Structure prediction by ZEFSAII (Michael W. Deem and Ramdas Pophale) SiO2 
 PCOD9101054
Probable space group: P -1
;
_chemical_formula_sum "Si O2"
_cell_formula_units_Z 14
_cell_length_a 9.301343
_cell_length_b 16.254411
_cell_length_c 8.302863
_cell_angle_alpha 61.200379
_cell_angle_beta 48.989767
_cell_angle_gamma 98.206944
_cell_volume 597.682315
_symmetry_space_group_name_H-M "P -1"
_symmetry_group_IT_number 2
_symmetry_cell_setting 'triclinic'
loop_
_space_group_symop_operation_xyz
x,y,z
-x,-y,-z
loop_
_atom_site_type_symbol
_atom_site_label
_atom_site_fract_x
_atom_site_fract_y
_atom_site_fract_z
Si Si1 0.733092 0.998901 0.721273
Si Si2 0.777778 0.568210 0.637815
Si Si3 0.127506 0.189472 0.725006
Si Si4 0.477383 0.766999 0.384484
Si Si5 0.740159 0.828048 0.687558
Si Si6 0.458797 0.044186 0.652024
Si Si7 0.796821 0.415606 0.518541
O O1 0.812365 0.959804 0.548858
O O2 0.530521 0.000848 0.788922
O O3 0.604585 0.885384 0.053699
O O4 0.001475 0.136347 0.464131
O O5 0.915797 0.715013 0.362467
O O6 0.781512 0.514700 0.512851
O O7 0.949126 0.556342 0.634819
O O8 0.500000 0.500000 0.000000
O O9 0.292012 0.222122 0.731297
O O10 0.297257 0.211657 0.429502
O O11 0.851783 0.042043 0.046251
O O12 0.392073 0.807409 0.555588
O O13 0.260286 0.629996 0.582455
O O14 0.465192 0.715214 0.080211
O O15 0.500000 0.000000 0.500000
#
# Coordination Sequence:
#
# PCOD9101054 Si02
#       7
#     2   2   2   2   2   2   2
#     4  10  22  38  64  95 135 179 218 270 331 405
#     4  11  24  47  74  95 129 177 232 279 340 393
#     4  12  24  41  65  99 138 178 221 279 331 398
#     4  11  24  41  65  98 137 176 222 275 334 401
#     4  10  20  37  69  92 133 174 224 269 333 395
#     4  12  26  40  63 102 142 179 223 269 335 405
#     4  10  24  45  72  99 125 175 232 281 334 400
#
# _framework density 23.423817
#
# number of rings (size 3 to 8) (size 9 to 14) (size 15 to 20)
#    0.000    1.143    2.857    3.429    8.000    0.571 
#    0.000    0.714    0.000    0.000    0.000    0.000 
#    0.000    0.000    0.000    0.000    0.000    0.000 
#
# Total GULP energy -78113.618671 kJ/mol
# GULP energy per Si atom -5579.544191 kJ/mol
# Density = 2.337050 g / cm^3
# Si number density = 23.423817 Si / 1000 Ang^3
#
#
#
# Elastic Constant Matrix: (Units=GPa)
#
#
# Indices 1 2 3 4 5 6 
#
# 1 119.8249 32.0461 11.6295 -0.4226 -22.1769 4.6465
# 2 32.0461 175.1550 11.4384 3.9596 -3.0697 11.5707
# 3 11.6295 11.4384 57.5155 7.4469 -14.7732 2.4549
# 4 -0.4226 3.9596 7.4469 23.7051 1.7734 -8.9197
# 5 -22.1769 -3.0697 -14.7732 1.7734 24.6170 -2.7054
# 6 4.6465 11.5707 2.4549 -8.9197 -2.7054 30.2070
#
#
#
# Elastic Compliance Matrix: (Units=1/GPa)
#
#
# Indices 1 2 3 4 5 6 
#
# 1 0.010566 -0.001780 0.000831 -0.000629 0.009806 -0.000318
# 2 -0.001780 0.006286 -0.000962 -0.001674 -0.001573 -0.002691
# 3 0.000831 -0.000962 0.022409 -0.009057 0.014404 -0.002965
# 4 -0.000629 -0.001674 -0.009057 0.051964 -0.008186 0.016085
# 5 0.009806 -0.001573 0.014404 -0.008186 0.058576 0.000752
# 6 -0.000318 -0.002691 -0.002965 0.016085 0.000752 0.039243
#
#
# Mechanical properties :
#
#
# Convention : Reuss Voigt Hill
#
# Bulk Modulus (GPa) = 28.21849 51.41371 39.81610
# Shear Modulus (GPa) = 24.42854 35.53125 29.97989
#
# Velocity S-wave (km/s) = 3.23289 3.89895 3.58144
# Velocity P-wave (km/s) = 5.09985 6.50123 5.84271
#
# Compressibility (1/GPa) = 0.03543775
#
# Stress axis : x y z
#
# Youngs Moduli (GPa) = 94.64387 159.08728 44.62522
#
# Poissons Ratio (x) = 0.28323 -0.03710
# Poissons Ratio (y) = 0.16850 0.04295
# Poissons Ratio (z) = -0.07868 0.15312
#
# Static dielectric constant tensor:
#      x y z
#    x 1.932870 0.020710 -0.003420 
#    y 0.020710 2.093030 0.067660 
#    z -0.003420 0.067660 1.964860 
# 
# From -- ./inp_files/216969.got.cif
#   From: 2010.05.17/outbox.cif.g08.bks.cpg/sg2_109_cif.got.tgz:216969.got - 2010.06.03 11:33:40.
