data_PCOD9101425
_publ_section_title
;
Structure prediction by ZEFSAII (Michael W. Deem and Ramdas Pophale) SiO2 
 PCOD9101425
Probable space group: P -1
;
_chemical_formula_sum "Si O2"
_cell_formula_units_Z 16
_cell_length_a 17.205223
_cell_length_b 6.951236
_cell_length_c 8.480170
_cell_angle_alpha 101.643218
_cell_angle_beta 63.471731
_cell_angle_gamma 140.136527
_cell_volume 563.766968
_symmetry_space_group_name_H-M "P -1"
_symmetry_group_IT_number 2
_symmetry_cell_setting 'triclinic'
loop_
_space_group_symop_operation_xyz
x,y,z
-x,-y,-z
loop_
_atom_site_type_symbol
_atom_site_label
_atom_site_fract_x
_atom_site_fract_y
_atom_site_fract_z
Si Si1 0.428300 0.087428 0.846545
Si Si2 0.944402 0.248915 0.132588
Si Si3 0.958013 0.154213 0.540634
Si Si4 0.288766 0.868766 0.592708
Si Si5 0.697500 0.575760 0.515752
Si Si6 0.808191 0.389865 0.804307
Si Si7 0.555841 0.353310 0.266308
Si Si8 0.212624 0.196566 0.072333
O O1 0.351093 0.985643 0.732895
O O2 0.444431 0.878412 0.808948
O O3 0.583323 0.426785 0.727374
O O4 0.326593 0.953562 0.063017
O O5 0.835880 0.202606 0.305607
O O6 0.075386 0.401795 0.131989
O O7 0.000000 0.500000 0.000000
O O8 0.871676 0.957821 0.041270
O O9 0.839383 0.928780 0.480870
O O10 0.877917 0.073682 0.759499
O O11 0.000000 0.000000 0.500000
O O12 0.095954 0.502475 0.412798
O O13 0.270223 0.603030 0.538685
O O14 0.401141 0.137088 0.409140
O O15 0.633062 0.503519 0.390198
O O16 0.770577 0.552478 0.839629
O O17 0.636663 0.601243 0.093145
#
# Coordination Sequence:
#
# PCOD9101425 Si02
#       8
#     2   2   2   2   2   2   2   2
#     4   8  15  32  57  86 113 139 188 238 277 323
#     4  12  23  33  60  87 116 145 182 240 287 332
#     4  10  22  36  58  81 116 153 191 228 275 337
#     4   9  18  32  56  91 114 136 186 237 292 322
#     4   9  17  34  62  85 111 146 188 236 276 334
#     4  10  20  38  59  85 112 152 191 228 281 333
#     4   8  16  34  61  83 107 145 191 237 271 327
#     4  10  22  38  56  83 114 150 191 230 276 336
#
# _framework density 28.380517999999999
#
# number of rings (size 3 to 8) (size 9 to 14) (size 15 to 20)
#    0.000    2.500    1.250    2.625    3.500    0.500 
#    0.000   10.625    0.000    5.250    0.000    0.000 
#    0.000    0.000    0.000    0.000    0.000    0.000 
#
# Total GULP energy -89599.340693 kJ/mol
# GULP energy per Si atom -5599.958793 kJ/mol
# Density = 2.831592 g / cm^3
# Si number density = 28.380518 Si / 1000 Ang^3
#
#
#
# Elastic Constant Matrix: (Units=GPa)
#
#
# Indices 1 2 3 4 5 6 
#
# 1 94.7174 25.7220 61.2688 -12.2500 -19.0019 2.1944
# 2 25.7220 87.7260 61.3803 -20.2496 -10.0272 -4.1295
# 3 61.2688 61.3803 244.5286 -60.1198 -17.5992 -4.4177
# 4 -12.2500 -20.2496 -60.1198 68.3856 -0.7288 -2.2747
# 5 -19.0019 -10.0272 -17.5992 -0.7288 45.8439 -1.5167
# 6 2.1944 -4.1295 -4.4177 -2.2747 -1.5167 38.7771
#
#
#
# Elastic Compliance Matrix: (Units=1/GPa)
#
#
# Indices 1 2 3 4 5 6 
#
# 1 0.013653 -0.001720 -0.002851 -0.000564 0.004142 -0.001152
# 2 -0.001720 0.014374 -0.002622 0.001708 0.001501 0.001488
# 3 -0.002851 -0.002622 0.006683 0.004630 0.000916 0.000951
# 4 -0.000564 0.001708 0.004630 0.019187 0.002287 0.001956
# 5 0.004142 0.001501 0.000916 0.002287 0.024283 0.001114
# 6 -0.001152 0.001488 0.000951 0.001956 0.001114 0.026279
#
#
# Mechanical properties :
#
#
# Convention : Reuss Voigt Hill
#
# Bulk Modulus (GPa) = 49.19905 80.41270 64.80588
# Shear Modulus (GPa) = 39.80253 49.17471 44.48862
#
# Velocity S-wave (km/s) = 3.74901 4.16708 3.96356
# Velocity P-wave (km/s) = 6.00943 7.17969 6.62047
#
# Compressibility (1/GPa) = 0.02032560
#
# Stress axis : x y z
#
# Youngs Moduli (GPa) = 73.24215 69.56969 149.62581
#
# Poissons Ratio (x) = 0.11964 0.42653
# Poissons Ratio (y) = 0.12595 0.39236
# Poissons Ratio (z) = 0.20878 0.18243
#
# Static dielectric constant tensor:
#      x y z
#    x 2.159550 0.034510 0.051760 
#    y 0.034510 2.221810 -0.033230 
#    z 0.051760 -0.033230 2.301700 
# 
# From -- ./inp_files/274380.got.cif
#   From: 2010.05.17/outbox.cif.g08.bks.cpg/sg2_138_cif.got.tgz:274380.got - 2010.06.03 11:33:40.
