data_PCOD9101833
_publ_section_title
;
Structure prediction by ZEFSAII (Michael W. Deem and Ramdas Pophale) SiO2 
 PCOD9101833
Probable space group: P -1
;
_chemical_formula_sum "Si O2"
_cell_formula_units_Z 16
_cell_length_a 9.819483
_cell_length_b 22.113680
_cell_length_c 7.692005
_cell_angle_alpha 52.093253
_cell_angle_beta 77.227772
_cell_angle_gamma 36.260245
_cell_volume 630.568126
_symmetry_space_group_name_H-M "P -1"
_symmetry_group_IT_number 2
_symmetry_cell_setting 'triclinic'
loop_
_space_group_symop_operation_xyz
x,y,z
-x,-y,-z
loop_
_atom_site_type_symbol
_atom_site_label
_atom_site_fract_x
_atom_site_fract_y
_atom_site_fract_z
Si Si1 0.448588 0.584025 0.019877
Si Si2 0.823683 0.661546 0.224403
Si Si3 0.256022 0.124905 0.698854
Si Si4 0.654460 0.165091 0.706238
Si Si5 0.919285 0.926775 0.396931
Si Si6 0.869746 0.496019 0.929516
Si Si7 0.946010 0.285018 0.820926
Si Si8 0.345479 0.953643 0.393858
O O1 0.191147 0.760264 0.713573
O O2 0.727042 0.502891 0.085627
O O3 0.500000 0.500000 0.000000
O O4 0.341405 0.594352 0.206614
O O5 0.505078 0.795542 0.149505
O O6 0.000000 0.500000 0.500000
O O7 0.904276 0.637846 0.043293
O O8 0.942740 0.681296 0.248285
O O9 0.244988 0.063765 0.668319
O O10 0.969554 0.256259 0.660611
O O11 0.337669 0.165558 0.514813
O O12 0.500000 0.000000 0.000000
O O13 0.929131 0.089725 0.756143
O O14 0.396388 0.340076 0.391254
O O15 0.717698 0.070450 0.709158
O O16 0.734094 0.046719 0.399977
O O17 0.000000 0.500000 0.000000
O O18 0.161998 0.120085 0.139892
#
# Coordination Sequence:
#
# PCOD9101833 Si02
#       8
#     2   2   2   2   2   2   2   2
#     4  10  20  38  61  85 120 158 200 250 296 355
#     4  10  20  38  61  82 122 163 194 248 307 360
#     4  10  21  39  59  88 122 157 201 246 304 361
#     4  10  21  39  62  87 123 159 200 247 304 366
#     4  10  22  38  60  90 122 160 201 250 304 357
#     4  10  22  39  59  89 121 159 204 247 300 358
#     4  10  20  38  62  85 120 157 202 250 300 362
#     4  10  20  38  63  87 120 157 200 251 302 361
#
# _framework density 25.373942
#
# number of rings (size 3 to 8) (size 9 to 14) (size 15 to 20)
#    0.000    2.000    2.500    0.750    0.000    2.000 
#    4.500    3.125    0.000    0.000    0.000    0.000 
#    0.000    0.000    0.000    0.000    0.000    0.000 
#
# Total GULP energy -89432.508231 kJ/mol
# GULP energy per Si atom -5589.531764 kJ/mol
# Density = 2.531619 g / cm^3
# Si number density = 25.373942 Si / 1000 Ang^3
#
#
#
# Elastic Constant Matrix: (Units=GPa)
#
#
# Indices 1 2 3 4 5 6 
#
# 1 143.3250 54.4426 -4.9876 11.2625 2.5514 -21.9865
# 2 54.4426 190.0822 14.7606 27.5500 3.9762 -29.9386
# 3 -4.9876 14.7606 74.2558 12.7165 -13.9764 -16.7285
# 4 11.2625 27.5500 12.7165 51.0098 -8.3727 -0.9141
# 5 2.5514 3.9762 -13.9764 -8.3727 34.0030 4.1581
# 6 -21.9865 -29.9386 -16.7285 -0.9141 4.1581 56.7831
#
#
#
# Elastic Compliance Matrix: (Units=1/GPa)
#
#
# Indices 1 2 3 4 5 6 
#
# 1 0.008272 -0.001887 0.001689 -0.001236 -0.000342 0.002710
# 2 -0.001887 0.006827 -0.000675 -0.003399 -0.002110 0.002770
# 3 0.001689 -0.000675 0.016298 -0.003116 0.005314 0.004660
# 4 -0.001236 -0.003399 -0.003116 0.023308 0.005341 -0.003204
# 5 -0.000342 -0.002110 0.005314 0.005341 0.033431 -0.002041
# 6 0.002710 0.002770 0.004660 -0.003204 -0.002041 0.021591
#
#
# Mechanical properties :
#
#
# Convention : Reuss Voigt Hill
#
# Bulk Modulus (GPa) = 33.72691 59.56601 46.64646
# Shear Modulus (GPa) = 41.20069 51.25568 46.22819
#
# Velocity S-wave (km/s) = 4.03394 4.49933 4.27298
# Velocity P-wave (km/s) = 5.91757 7.10762 6.53972
#
# Compressibility (1/GPa) = 0.02964992
#
# Stress axis : x y z
#
# Youngs Moduli (GPa) = 120.89389 146.48207 61.35640
#
# Poissons Ratio (x) = 0.27644 -0.10361
# Poissons Ratio (y) = 0.22815 0.04141
# Poissons Ratio (z) = -0.20415 0.09886
#
# Static dielectric constant tensor:
#      x y z
#    x 1.893220 -0.049550 -0.038820 
#    y -0.049550 2.076570 -0.069910 
#    z -0.038820 -0.069910 2.139480 
# 
# From -- ./inp_files/223400.got.cif
#   From: 2010.05.17/outbox.cif.g08.bks.cpg/sg2_112_cif.got.tgz:223400.got - 2010.06.03 11:33:40.
