data_PCOD9101637
_publ_section_title
;
Structure prediction by ZEFSAII (Michael W. Deem and Ramdas Pophale) SiO2 
 PCOD9101637
Probable space group: P -1
;
_chemical_formula_sum "Si O2"
_cell_formula_units_Z 16
_cell_length_a 17.388511
_cell_length_b 6.292284
_cell_length_c 14.772436
_cell_angle_alpha 87.459230
_cell_angle_beta 29.850895
_cell_angle_gamma 77.523824
_cell_volume 750.713912
_symmetry_space_group_name_H-M "P -1"
_symmetry_group_IT_number 2
_symmetry_cell_setting 'triclinic'
loop_
_space_group_symop_operation_xyz
x,y,z
-x,-y,-z
loop_
_atom_site_type_symbol
_atom_site_label
_atom_site_fract_x
_atom_site_fract_y
_atom_site_fract_z
Si Si1 0.112851 0.812191 0.457545
Si Si2 0.578915 0.035674 0.798209
Si Si3 0.755051 0.776753 0.354657
Si Si4 0.885244 0.913172 0.053991
Si Si5 0.595109 0.235574 0.597809
Si Si6 0.634961 0.618961 0.856336
Si Si7 0.908978 0.358575 0.321592
Si Si8 0.437289 0.646218 0.651968
O O1 0.262668 0.900482 0.332559
O O2 0.191708 0.582129 0.322541
O O3 0.041376 0.736073 0.624457
O O4 0.000000 0.000000 0.500000
O O5 0.548586 0.093609 0.724489
O O6 0.614406 0.773465 0.785925
O O7 0.417358 0.194469 0.014673
O O8 0.835544 0.740412 0.173369
O O9 0.870304 0.618900 0.319322
O O10 0.587183 0.727048 0.522846
O O11 0.694839 0.047593 0.426949
O O12 0.726998 0.136537 0.188961
O O13 0.973041 0.796760 0.873982
O O14 0.000000 0.000000 0.000000
O O15 0.730897 0.331946 0.494745
O O16 0.438344 0.447734 0.723338
O O17 0.500000 0.500000 0.000000
O O18 0.500000 0.500000 0.500000
#
# Coordination Sequence:
#
# PCOD9101637 Si02
#       8
#     2   2   2   2   2   2   2   2
#     4  10  21  37  59  85 125 155 192 247 305 357
#     4   9  19  36  62  87 112 153 203 244 291 353
#     4  11  21  40  64  83 122 165 198 246 303 350
#     4  12  22  40  62  87 125 161 199 247 300 358
#     4  10  20  38  60  86 117 155 202 248 294 352
#     4   9  18  36  60  81 109 150 196 240 291 345
#     4  10  22  38  58  90 115 159 207 243 297 367
#     4  11  23  39  60  88 120 157 203 246 294 353
#
# _framework density 21.313047000000001
#
# number of rings (size 3 to 8) (size 9 to 14) (size 15 to 20)
#    0.000    1.750    2.500    2.250    0.000    2.500 
#    0.000    3.750    0.000    0.000    0.000    0.000 
#    0.000    0.000    0.000    0.000    0.000    0.000 
#
# Total GULP energy -89185.466244 kJ/mol
# GULP energy per Si atom -5574.091640 kJ/mol
# Density = 2.126454 g / cm^3
# Si number density = 21.313047 Si / 1000 Ang^3
#
#
#
# Elastic Constant Matrix: (Units=GPa)
#
#
# Indices 1 2 3 4 5 6 
#
# 1 60.5066 28.4777 37.4201 9.0855 3.7611 -31.4785
# 2 28.4777 135.6730 50.8118 13.9345 -1.6366 -46.9123
# 3 37.4201 50.8118 94.7613 12.7994 15.9643 -40.4536
# 4 9.0855 13.9345 12.7994 36.7094 -3.3206 -2.0818
# 5 3.7611 -1.6366 15.9643 -3.3206 20.4516 -6.9341
# 6 -31.4785 -46.9123 -40.4536 -2.0818 -6.9341 44.0706
#
#
#
# Elastic Compliance Matrix: (Units=1/GPa)
#
#
# Indices 1 2 3 4 5 6 
#
# 1 0.028940 0.003303 -0.004487 -0.005276 0.004551 0.020536
# 2 0.003303 0.013333 -0.002837 -0.003394 0.007181 0.014918
# 3 -0.004487 -0.002837 0.021782 -0.005987 -0.013525 0.011359
# 4 -0.005276 -0.003394 -0.005987 0.031982 0.007089 -0.010251
# 5 0.004551 0.007181 -0.013525 0.007089 0.063318 0.008776
# 6 0.020536 0.014918 0.011359 -0.010251 0.008776 0.064563
#
#
# Mechanical properties :
#
#
# Convention : Reuss Voigt Hill
#
# Bulk Modulus (GPa) = 17.85207 58.26224 38.05715
# Shear Modulus (GPa) = 19.94970 31.86175 25.90572
#
# Velocity S-wave (km/s) = 3.06278 3.87064 3.49017
# Velocity P-wave (km/s) = 4.57185 6.88270 5.84266
#
# Compressibility (1/GPa) = 0.05601591
#
# Stress axis : x y z
#
# Youngs Moduli (GPa) = 34.55388 75.00120 45.90926
#
# Poissons Ratio (x) = -0.24776 0.20598
# Poissons Ratio (y) = -0.11414 0.13022
# Poissons Ratio (z) = 0.15503 0.21274
#
# Static dielectric constant tensor:
#      x y z
#    x 1.823810 -0.021060 0.046030 
#    y -0.021060 1.841740 -0.030600 
#    z 0.046030 -0.030600 1.811140 
# 
# From -- ./inp_files/55503.got.cif
#   From: 2010.05.17/outbox.cif.g08.bks.cpg/sg2_28_cif.got.tgz:55503.got - 2010.06.03 11:33:40.
