data_PCOD9101625
_publ_section_title
;
Structure prediction by ZEFSAII (Michael W. Deem and Ramdas Pophale) SiO2 
 PCOD9101625
Probable space group: P -1
;
_chemical_formula_sum "Si O2"
_cell_formula_units_Z 16
_cell_length_a 14.241685
_cell_length_b 11.279961
_cell_length_c 12.487048
_cell_angle_alpha 146.207909
_cell_angle_beta 135.428271
_cell_angle_gamma 39.885901
_cell_volume 699.590630
_symmetry_space_group_name_H-M "P -1"
_symmetry_group_IT_number 2
_symmetry_cell_setting 'triclinic'
loop_
_space_group_symop_operation_xyz
x,y,z
-x,-y,-z
loop_
_atom_site_type_symbol
_atom_site_label
_atom_site_fract_x
_atom_site_fract_y
_atom_site_fract_z
Si Si1 0.302339 0.309452 0.858160
Si Si2 0.900587 0.502572 0.519966
Si Si3 0.346518 0.502910 0.811796
Si Si4 0.052512 0.122822 0.507367
Si Si5 0.842784 0.991720 0.871641
Si Si6 0.635189 0.278061 0.736513
Si Si7 0.241979 0.675097 0.432544
Si Si8 0.507702 0.207193 0.349251
O O1 0.314163 0.377168 0.794728
O O2 0.164022 0.243924 0.714248
O O3 0.449957 0.070003 0.828191
O O4 0.298372 0.533141 0.086343
O O5 0.736394 0.556047 0.395428
O O6 0.984449 0.233230 0.423447
O O7 0.000000 0.500000 0.500000
O O8 0.881416 0.727082 0.744324
O O9 0.511861 0.402808 0.824474
O O10 0.265174 0.786735 0.977113
O O11 0.899473 0.223076 0.526628
O O12 0.150498 0.839944 0.381122
O O13 0.757815 0.050019 0.729933
O O14 0.000000 0.000000 0.000000
O O15 0.558551 0.243519 0.539561
O O16 0.340148 0.392703 0.317997
O O17 0.377456 0.751405 0.606954
#
# Coordination Sequence:
#
# PCOD9101625 Si02
#       8
#     2   2   2   2   2   2   2   2
#     4  10  20  38  60  85 124 158 192 250 304 357
#     4  12  21  36  64  93 120 158 202 238 303 369
#     4  11  23  38  56  93 130 160 195 245 301 367
#     4  10  20  38  61  87 122 155 201 253 300 354
#     4  11  22  37  58  88 128 160 194 239 304 367
#     4  11  24  38  60  91 125 160 203 248 299 362
#     4   9  21  39  62  87 115 160 204 254 302 343
#     4  10  21  41  64  85 113 158 210 249 302 349
#
# _framework density 22.870517
#
# number of rings (size 3 to 8) (size 9 to 14) (size 15 to 20)
#    0.000    1.500    2.500    3.750    1.750    5.000 
#    0.000    6.250    0.000    3.000    0.000    0.000 
#    0.000    0.000    0.000    0.000    0.000    0.000 
#
# Total GULP energy -89106.918480 kJ/mol
# GULP energy per Si atom -5569.182405 kJ/mol
# Density = 2.281846 g / cm^3
# Si number density = 22.870517 Si / 1000 Ang^3
#
#
#
# Elastic Constant Matrix: (Units=GPa)
#
#
# Indices 1 2 3 4 5 6 
#
# 1 119.3349 36.7553 16.1753 7.0833 -3.1868 -27.9993
# 2 36.7553 145.4250 -3.5296 3.7692 -6.1191 -13.9806
# 3 16.1753 -3.5296 35.2847 -11.6574 -20.5733 -5.5670
# 4 7.0833 3.7692 -11.6574 21.7535 -22.2890 6.0698
# 5 -3.1868 -6.1191 -20.5733 -22.2890 -7.9968 1.5777
# 6 -27.9993 -13.9806 -5.5670 6.0698 1.5777 45.4263
#
#
#
# Elastic Compliance Matrix: (Units=1/GPa)
#
#
# Indices 1 2 3 4 5 6 
#
# 1 0.010736 -0.001982 -0.001676 -0.000753 0.004780 0.005736
# 2 -0.001982 0.007535 0.000630 -0.001866 -0.001108 0.001462
# 3 -0.001676 0.000630 0.016696 -0.008991 -0.017116 0.003003
# 4 -0.000753 -0.001866 -0.008991 0.017498 -0.024627 -0.003623
# 5 0.004780 -0.001108 -0.017116 -0.024627 -0.012598 0.004236
# 6 0.005736 0.001462 0.003003 -0.003623 0.004236 0.026704
#
#
# Mechanical properties :
#
#
# Convention : Reuss Voigt Hill
#
# Bulk Modulus (GPa) = 34.58833 44.31629 39.45231
# Shear Modulus (GPa) = 60.78030 28.54617 44.66323
#
# Velocity S-wave (km/s) = 5.16077 3.53677 4.42393
# Velocity P-wave (km/s) = 7.11813 6.00811 6.58655
#
# Compressibility (1/GPa) = 0.02891149
#
# Stress axis : x y z
#
# Youngs Moduli (GPa) = 93.14759 132.71503 59.89419
#
# Poissons Ratio (x) = 0.26303 0.10039
# Poissons Ratio (y) = 0.18461 -0.03776
# Poissons Ratio (z) = 0.15612 -0.08366
#
# Static dielectric constant tensor:
#      x y z
#    x 1.941210 0.089300 0.033010 
#    y 0.089300 1.797290 -0.124470 
#    z 0.033010 -0.124470 1.805890 
# 
# From -- ./inp_files/522125.got.cif
#   From: 2010.05.17/outbox.cif.g08.bks.cpg/sg2_262_cif.got.tgz:522125.got - 2010.06.03 11:33:40.
