data_PCOD9101570
_publ_section_title
;
Structure prediction by ZEFSAII (Michael W. Deem and Ramdas Pophale) SiO2 
 PCOD9101570
Probable space group: P -1
;
_chemical_formula_sum "Si O2"
_cell_formula_units_Z 16
_cell_length_a 8.362223
_cell_length_b 14.225867
_cell_length_c 9.231774
_cell_angle_alpha 51.993549
_cell_angle_beta 88.380455
_cell_angle_gamma 68.781177
_cell_volume 777.837225
_symmetry_space_group_name_H-M "P -1"
_symmetry_group_IT_number 2
_symmetry_cell_setting 'triclinic'
loop_
_space_group_symop_operation_xyz
x,y,z
-x,-y,-z
loop_
_atom_site_type_symbol
_atom_site_label
_atom_site_fract_x
_atom_site_fract_y
_atom_site_fract_z
Si Si1 0.241754 0.664245 0.820838
Si Si2 0.237730 0.229837 0.122520
Si Si3 0.123573 0.433767 0.700370
Si Si4 0.650852 0.145238 0.158167
Si Si5 0.087942 0.092439 0.461655
Si Si6 0.837232 0.563485 0.812694
Si Si7 0.451417 0.665691 0.264680
Si Si8 0.519417 0.586399 0.641552
O O1 0.300454 0.755882 0.835473
O O2 0.399809 0.586645 0.779175
O O3 0.074049 0.766276 0.636214
O O4 0.188142 0.565014 0.007778
O O5 0.448677 0.173439 0.164085
O O6 0.184268 0.121727 0.294286
O O7 0.180294 0.345412 0.136428
O O8 0.150516 0.294094 0.909057
O O9 0.330749 0.402069 0.698883
O O10 0.000000 0.500000 0.500000
O O11 0.010132 0.530853 0.741331
O O12 0.777248 0.993249 0.336764
O O13 0.645715 0.197371 0.946661
O O14 0.000000 0.000000 0.500000
O O15 0.666163 0.631053 0.649665
O O16 0.413111 0.676539 0.424928
O O17 0.394907 0.559665 0.292926
#
# Coordination Sequence:
#
# PCOD9101570 Si02
#       8
#     2   2   2   2   2   2   2   2
#     4  11  20  37  58  90 117 155 191 247 292 343
#     4  11  22  37  62  89 115 157 195 246 294 349
#     4  11  22  36  55  90 127 150 181 238 301 356
#     4  10  20  38  60  82 117 154 204 238 285 347
#     4  10  23  38  59  84 116 155 206 247 281 338
#     4  12  21  36  60  90 124 144 195 244 302 350
#     4  10  22  36  57  86 122 160 190 232 300 359
#     4  11  21  36  58  88 123 153 189 241 299 357
#
# _framework density 20.569856000000001
#
# number of rings (size 3 to 8) (size 9 to 14) (size 15 to 20)
#    0.000    1.250    5.000    2.625    1.750    0.000 
#    0.000    0.625    0.000    3.750    0.000    0.000 
#    0.000    0.000    0.000    0.000    0.000    0.000 
#
# Total GULP energy -89204.463278 kJ/mol
# GULP energy per Si atom -5575.278955 kJ/mol
# Density = 2.052304 g / cm^3
# Si number density = 20.569856 Si / 1000 Ang^3
#
#
#
# Elastic Constant Matrix: (Units=GPa)
#
#
# Indices 1 2 3 4 5 6 
#
# 1 64.5834 5.6769 34.3115 -0.6265 -0.6559 7.4837
# 2 5.6769 28.7674 22.0338 6.3527 1.3739 3.7193
# 3 34.3115 22.0338 171.0719 0.2722 13.0480 9.8460
# 4 -0.6265 6.3527 0.2722 31.3683 1.2282 -2.0257
# 5 -0.6559 1.3739 13.0480 1.2282 44.5142 -4.6329
# 6 7.4837 3.7193 9.8460 -2.0257 -4.6329 25.9060
#
#
#
# Elastic Compliance Matrix: (Units=1/GPa)
#
#
# Indices 1 2 3 4 5 6 
#
# 1 0.017739 -0.000566 -0.003345 0.000231 0.000879 -0.003596
# 2 -0.000566 0.041116 -0.004900 -0.008587 -0.000079 -0.004563
# 3 -0.003345 -0.004900 0.007403 0.000854 -0.002245 -0.001478
# 4 0.000231 -0.008587 0.000854 0.033857 -0.000563 0.003388
# 5 0.000879 -0.000079 -0.002245 -0.000563 0.023653 0.004797
# 6 -0.003596 -0.004563 -0.001478 0.003388 0.004797 0.041980
#
#
# Mechanical properties :
#
#
# Convention : Reuss Voigt Hill
#
# Bulk Modulus (GPa) = 20.56145 43.16302 31.86223
# Shear Modulus (GPa) = 25.05241 33.85105 29.45173
#
# Velocity S-wave (km/s) = 3.49366 4.06108 3.78801
# Velocity P-wave (km/s) = 5.12755 6.55889 5.88688
#
# Compressibility (1/GPa) = 0.04863471
#
# Stress axis : x y z
#
# Youngs Moduli (GPa) = 56.37355 24.32125 135.08899
#
# Poissons Ratio (x) = 0.01377 0.45191
# Poissons Ratio (y) = 0.03193 0.66191
# Poissons Ratio (z) = 0.18859 0.11917
#
# Static dielectric constant tensor:
#      x y z
#    x 1.805400 -0.007370 0.044130 
#    y -0.007370 1.699920 -0.011470 
#    z 0.044130 -0.011470 1.815670 
# 
# From -- ./inp_files/180306.got.cif
#   From: 2010.05.17/outbox.cif.g08.bks.cpg/sg2_91_cif.got.tgz:180306.got - 2010.06.03 11:33:40.
