data_PCOD9101597
_publ_section_title
;
Structure prediction by ZEFSAII (Michael W. Deem and Ramdas Pophale) SiO2 
 PCOD9101597
Probable space group: P -1
;
_chemical_formula_sum "Si O2"
_cell_formula_units_Z 16
_cell_length_a 18.953157
_cell_length_b 7.858976
_cell_length_c 14.448097
_cell_angle_alpha 109.904785
_cell_angle_beta 160.229040
_cell_angle_gamma 61.235994
_cell_volume 590.535363
_symmetry_space_group_name_H-M "P -1"
_symmetry_group_IT_number 2
_symmetry_cell_setting 'triclinic'
loop_
_space_group_symop_operation_xyz
x,y,z
-x,-y,-z
loop_
_atom_site_type_symbol
_atom_site_label
_atom_site_fract_x
_atom_site_fract_y
_atom_site_fract_z
Si Si1 0.438143 0.933900 0.035445
Si Si2 0.070389 0.285081 0.149428
Si Si3 0.592968 0.109297 0.802297
Si Si4 0.956478 0.547312 0.563163
Si Si5 0.530116 0.654365 0.807613
Si Si6 0.119588 0.932899 0.014281
Si Si7 0.291861 0.672266 0.705379
Si Si8 0.428759 0.305193 0.340747
O O1 0.388273 0.872054 0.062987
O O2 0.712094 0.763968 0.315271
O O3 0.434373 0.151266 0.080894
O O4 0.270490 0.891501 0.750831
O O5 0.322980 0.280849 0.465606
O O6 0.073952 0.132427 0.208090
O O7 0.829742 0.505256 0.910128
O O8 0.064695 0.155978 0.029366
O O9 0.815198 0.085169 0.014284
O O10 0.601859 0.892930 0.750960
O O11 0.000000 0.500000 0.500000
O O12 0.076976 0.628083 0.454694
O O13 0.197086 0.537708 0.891498
O O14 0.373031 0.635408 0.691754
O O15 0.469055 0.667290 0.626523
O O16 0.364070 0.765891 0.339756
O O17 0.500000 0.500000 0.000000
#
# Coordination Sequence:
#
# PCOD9101597 Si02
#       8
#     2   2   2   2   2   2   2   2
#     4  10  22  41  59  89 125 155 200 248 292 353
#     4  10  20  38  60  84 118 155 200 240 297 345
#     4  10  22  40  58  88 122 155 198 244 292 350
#     4  11  22  40  63  88 118 157 200 243 300 358
#     4  11  22  41  60  88 125 155 198 252 291 353
#     4  10  22  39  59  89 120 157 200 242 293 351
#     4  10  21  39  61  88 116 158 197 240 300 354
#     4  10  21  38  62  87 119 157 197 245 296 344
#
# _framework density 27.094058
#
# number of rings (size 3 to 8) (size 9 to 14) (size 15 to 20)
#    0.000    1.750    2.500    3.000    0.000    4.500 
#    2.250   10.000    0.000    0.000    0.000    0.000 
#    0.000    0.000    0.000    0.000    0.000    0.000 
#
# Total GULP energy -89686.049066 kJ/mol
# GULP energy per Si atom -5605.378067 kJ/mol
# Density = 2.703239 g / cm^3
# Si number density = 27.094058 Si / 1000 Ang^3
#
#
#
# Elastic Constant Matrix: (Units=GPa)
#
#
# Indices 1 2 3 4 5 6 
#
# 1 197.8042 30.7529 24.1074 -9.9413 41.2562 4.1207
# 2 30.7529 148.5352 13.6827 -21.0005 16.3387 -13.2525
# 3 24.1074 13.6827 89.6836 -27.5615 16.9993 -16.0501
# 4 -9.9413 -21.0005 -27.5615 28.8240 -3.4556 10.4107
# 5 41.2562 16.3387 16.9993 -3.4556 39.7620 -4.4183
# 6 4.1207 -13.2525 -16.0501 10.4107 -4.4183 28.1318
#
#
#
# Elastic Compliance Matrix: (Units=1/GPa)
#
#
# Indices 1 2 3 4 5 6 
#
# 1 0.006789 -0.000659 -0.000484 0.001780 -0.006779 -0.003304
# 2 -0.000659 0.008067 0.001737 0.006213 -0.002592 0.002182
# 3 -0.000484 0.001737 0.017774 0.015853 -0.005963 0.004227
# 4 0.001780 0.006213 0.015853 0.058059 -0.007346 -0.010929
# 5 -0.006779 -0.002592 -0.005963 -0.007346 0.035681 0.004692
# 6 -0.003304 0.002182 0.004227 -0.010929 0.004692 0.044252
#
#
# Mechanical properties :
#
#
# Convention : Reuss Voigt Hill
#
# Bulk Modulus (GPa) = 29.56854 63.67877 46.62366
# Shear Modulus (GPa) = 27.66946 43.84221 35.75583
#
# Velocity S-wave (km/s) = 3.19915 4.02699 3.63670
# Velocity P-wave (km/s) = 4.95813 6.72131 5.90589
#
# Compressibility (1/GPa) = 0.03381973
#
# Stress axis : x y z
#
# Youngs Moduli (GPa) = 147.29537 123.96425 56.26210
#
# Poissons Ratio (x) = 0.08163 0.02722
# Poissons Ratio (y) = 0.09699 -0.09774
# Poissons Ratio (z) = 0.07127 -0.21536
#
# Static dielectric constant tensor:
#      x y z
#    x 2.221700 0.056650 -0.150720 
#    y 0.056650 2.181420 -0.045100 
#    z -0.150720 -0.045100 2.204850 
# 
# From -- ./inp_files/537641.got.cif
#   From: 2010.05.17/outbox.cif.g08.bks.cpg/sg2_269_cif.got.tgz:537641.got - 2010.06.03 11:33:40.
