data_PCOD9101924
_publ_section_title
;
Structure prediction by ZEFSAII (Michael W. Deem and Ramdas Pophale) SiO2 
 PCOD9101924
Probable space group: P -1
;
_chemical_formula_sum "Si O2"
_cell_formula_units_Z 16
_cell_length_a 12.418877
_cell_length_b 7.430777
_cell_length_c 15.690846
_cell_angle_alpha 57.321268
_cell_angle_beta 136.692523
_cell_angle_gamma 92.548215
_cell_volume 666.566378
_symmetry_space_group_name_H-M "P -1"
_symmetry_group_IT_number 2
_symmetry_cell_setting 'triclinic'
loop_
_space_group_symop_operation_xyz
x,y,z
-x,-y,-z
loop_
_atom_site_type_symbol
_atom_site_label
_atom_site_fract_x
_atom_site_fract_y
_atom_site_fract_z
Si Si1 0.744791 0.596349 0.667964
Si Si2 0.445422 0.060787 0.279189
Si Si3 0.140029 0.585848 0.037091
Si Si4 0.092501 0.458330 0.791191
Si Si5 0.564655 0.113861 0.935970
Si Si6 0.298798 0.735444 0.871505
Si Si7 0.841485 0.093062 0.809118
Si Si8 0.241587 0.221951 0.617008
O O1 0.586277 0.907543 0.480727
O O2 0.737304 0.505401 0.780700
O O3 0.955147 0.510272 0.779072
O O4 0.724469 0.405698 0.644168
O O5 0.305342 0.968683 0.227867
O O6 0.599586 0.955895 0.319760
O O7 0.298923 0.379057 0.114685
O O8 0.000000 0.500000 0.000000
O O9 0.981840 0.904640 0.860123
O O10 0.958347 0.554024 0.603893
O O11 0.271402 0.143551 0.961028
O O12 0.159706 0.647108 0.795903
O O13 0.652182 0.236677 0.009492
O O14 0.500000 0.000000 0.000000
O O15 0.359805 0.306814 0.716780
O O16 0.220041 0.021252 0.710149
O O17 0.500000 0.500000 0.000000
O O18 0.000000 0.000000 0.000000
#
# Coordination Sequence:
#
# PCOD9101924 Si02
#       8
#     2   2   2   2   2   2   2   2
#     4  10  21  38  59  85 126 164 203 261 315 372
#     4  10  20  38  61  87 122 162 207 261 314 373
#     4   9  19  34  57  87 114 158 203 253 307 368
#     4  11  23  43  66  95 133 167 215 266 319 383
#     4  10  22  42  65  93 125 168 213 261 326 376
#     4  11  22  43  66  95 127 168 210 264 325 382
#     4   9  19  34  56  84 114 159 201 249 311 365
#     4  10  23  41  67  94 130 170 211 266 322 380
#
# _framework density 24.003609999999998
#
# number of rings (size 3 to 8) (size 9 to 14) (size 15 to 20)
#    0.000    2.000    2.500    1.125    5.250    2.000 
#    9.000    0.000   11.000    0.000    0.000    0.000 
#    0.000    0.000    0.000    0.000    0.000    0.000 
#
# Total GULP energy -89281.443835 kJ/mol
# GULP energy per Si atom -5580.090240 kJ/mol
# Density = 2.394898 g / cm^3
# Si number density = 24.003610 Si / 1000 Ang^3
#
#
#
# Elastic Constant Matrix: (Units=GPa)
#
#
# Indices 1 2 3 4 5 6 
#
# 1 81.7468 18.3740 0.5080 -1.0918 14.2300 24.5163
# 2 18.3740 92.2464 25.2240 2.1880 11.3287 15.4734
# 3 0.5080 25.2240 107.5755 12.1893 4.9421 8.6976
# 4 -1.0918 2.1880 12.1893 40.2467 -3.8368 -0.8049
# 5 14.2300 11.3287 4.9421 -3.8368 33.7028 1.3653
# 6 24.5163 15.4734 8.6976 -0.8049 1.3653 30.3916
#
#
#
# Elastic Compliance Matrix: (Units=1/GPa)
#
#
# Indices 1 2 3 4 5 6 
#
# 1 0.017875 -0.000740 0.001671 -0.000940 -0.007074 -0.014228
# 2 -0.000740 0.012956 -0.002405 -0.000436 -0.003530 -0.005164
# 3 0.001671 -0.002405 0.010552 -0.003243 -0.001686 -0.003153
# 4 -0.000940 -0.000436 -0.003243 0.026248 0.003909 0.002428
# 5 -0.007074 -0.003530 -0.001686 0.003909 0.034271 0.006550
# 6 -0.014228 -0.005164 -0.003153 0.002428 0.006550 0.047683
#
#
# Mechanical properties :
#
#
# Convention : Reuss Voigt Hill
#
# Bulk Modulus (GPa) = 26.01854 41.08673 33.55264
# Shear Modulus (GPa) = 30.23996 36.69908 33.46952
#
# Velocity S-wave (km/s) = 3.55323 3.91435 3.73816
# Velocity P-wave (km/s) = 5.26278 6.13055 5.71316
#
# Compressibility (1/GPa) = 0.03843413
#
# Stress axis : x y z
#
# Youngs Moduli (GPa) = 55.94521 77.18631 94.77091
#
# Poissons Ratio (x) = 0.05708 -0.15835
# Poissons Ratio (y) = 0.04138 0.22794
# Poissons Ratio (z) = -0.09347 0.18565
#
# Static dielectric constant tensor:
#      x y z
#    x 1.982310 -0.032350 -0.056240 
#    y -0.032350 2.133450 0.058490 
#    z -0.056240 0.058490 1.967950 
# 
# From -- ./inp_files/572268.got.cif
#   From: 2010.05.17/outbox.cif.g08.bks.cpg/sg2_287_cif.got.tgz:572268.got - 2010.06.03 11:33:40.
