data_PCOD9101185
_publ_section_title
;
Structure prediction by ZEFSAII (Michael W. Deem and Ramdas Pophale) SiO2 
 PCOD9101185
Probable space group: P -1
;
_chemical_formula_sum "Si O2"
_cell_formula_units_Z 16
_cell_length_a 7.926376
_cell_length_b 13.552956
_cell_length_c 8.333679
_cell_angle_alpha 99.677588
_cell_angle_beta 81.554448
_cell_angle_gamma 43.195003
_cell_volume 553.820308
_symmetry_space_group_name_H-M "P -1"
_symmetry_group_IT_number 2
_symmetry_cell_setting 'triclinic'
loop_
_space_group_symop_operation_xyz
x,y,z
-x,-y,-z
loop_
_atom_site_type_symbol
_atom_site_label
_atom_site_fract_x
_atom_site_fract_y
_atom_site_fract_z
Si Si1 0.030173 0.106236 0.526138
Si Si2 0.942821 0.815990 0.815931
Si Si3 0.516269 0.619058 0.698959
Si Si4 0.844886 0.358003 0.847270
Si Si5 0.359893 0.195280 0.617241
Si Si6 0.314404 0.388094 0.897288
Si Si7 0.008160 0.381518 0.417011
Si Si8 0.316556 0.882928 0.953839
O O1 0.857407 0.244120 0.723455
O O2 0.993929 0.165540 0.366733
O O3 0.343159 0.979043 0.484079
O O4 0.000000 0.000000 0.500000
O O5 0.232883 0.705924 0.821485
O O6 0.890533 0.722012 0.781910
O O7 0.715451 0.985360 0.975280
O O8 0.734365 0.485290 0.762381
O O9 0.684549 0.504923 0.493121
O O10 0.466060 0.761546 0.751381
O O11 0.164877 0.233475 0.788462
O O12 0.688405 0.489594 0.046865
O O13 0.375576 0.305109 0.698152
O O14 0.201689 0.249506 0.490508
O O15 0.527434 0.238955 0.950716
O O16 0.000000 0.500000 0.000000
O O17 0.000000 0.500000 0.500000
O O18 0.000000 0.000000 0.000000
#
# Coordination Sequence:
#
# PCOD9101185 Si02
#       8
#     2   2   2   2   2   2   2   2
#     4  12  24  34  55  87 118 148 187 230 287 340
#     4  11  21  38  61  82 115 153 185 235 290 335
#     4   9  19  37  62  82 112 150 193 229 282 339
#     4   9  19  36  59  85 108 150 188 235 281 336
#     4  10  20  38  57  81 116 148 189 235 284 343
#     4   9  17  32  61  83 108 148 195 231 283 341
#     4  11  24  37  60  87 113 149 194 237 283 338
#     4   9  18  34  59  87 109 152 193 231 283 345
#
# _framework density 28.890235000000001
#
# number of rings (size 3 to 8) (size 9 to 14) (size 15 to 20)
#    0.000    2.000    3.750    1.500    1.750    0.000 
#    0.000    1.250    8.250    0.000    0.000    0.000 
#    0.000    0.000    0.000    0.000    0.000    0.000 
#
# Total GULP energy -89275.987904 kJ/mol
# GULP energy per Si atom -5579.749244 kJ/mol
# Density = 2.882448 g / cm^3
# Si number density = 28.890235 Si / 1000 Ang^3
#
#
#
# Elastic Constant Matrix: (Units=GPa)
#
#
# Indices 1 2 3 4 5 6 
#
# 1 93.1051 51.4842 35.6917 34.4120 27.0624 -0.4869
# 2 51.4842 155.9943 56.0778 34.9146 -4.7706 -16.0681
# 3 35.6917 56.0778 177.6181 79.3390 28.7035 0.9370
# 4 34.4120 34.9146 79.3390 74.3901 3.2964 5.6739
# 5 27.0624 -4.7706 28.7035 3.2964 61.9622 22.4428
# 6 -0.4869 -16.0681 0.9370 5.6739 22.4428 54.5659
#
#
#
# Elastic Compliance Matrix: (Units=1/GPa)
#
#
# Indices 1 2 3 4 5 6 
#
# 1 0.019990 -0.005663 0.005053 -0.011788 -0.012636 0.004847
# 2 -0.005663 0.009316 -0.003041 0.001237 0.004214 0.000883
# 3 0.005053 -0.003041 0.014369 -0.016151 -0.009928 0.004666
# 4 -0.011788 0.001237 -0.016151 0.035600 0.014075 -0.008954
# 5 -0.012636 0.004214 -0.009928 0.014075 0.030425 -0.012679
# 6 0.004847 0.000883 0.004666 -0.008954 -0.012679 0.024695
#
#
# Mechanical properties :
#
#
# Convention : Reuss Voigt Hill
#
# Bulk Modulus (GPa) = 27.49323 79.24722 53.37022
# Shear Modulus (GPa) = 32.50542 57.08126 44.79334
#
# Velocity S-wave (km/s) = 3.35794 4.44982 3.94187
# Velocity P-wave (km/s) = 4.95696 7.34106 6.26349
#
# Compressibility (1/GPa) = 0.03637259
#
# Stress axis : x y z
#
# Youngs Moduli (GPa) = 50.02521 107.34545 69.59460
#
# Poissons Ratio (x) = 0.60786 -0.35166
# Poissons Ratio (y) = 0.28327 0.21166
# Poissons Ratio (z) = -0.25277 0.32647
#
# Static dielectric constant tensor:
#      x y z
#    x 2.502530 0.046270 0.011550 
#    y 0.046270 2.168230 -0.088410 
#    z 0.011550 -0.088410 2.344600 
# 
# From -- ./inp_files/312471.got.cif
#   From: 2010.05.17/outbox.cif.g08.bks.cpg/sg2_157_cif.got.tgz:312471.got - 2010.06.03 11:33:40.
