data_PCOD9101620
_publ_section_title
;
Structure prediction by ZEFSAII (Michael W. Deem and Ramdas Pophale) SiO2 
 PCOD9101620
Probable space group: P -1
;
_chemical_formula_sum "Si O2"
_cell_formula_units_Z 15
_cell_length_a 5.445346
_cell_length_b 9.917848
_cell_length_c 12.684741
_cell_angle_alpha 60.557511
_cell_angle_beta 116.678320
_cell_angle_gamma 91.417533
_cell_volume 515.887765
_symmetry_space_group_name_H-M "P -1"
_symmetry_group_IT_number 2
_symmetry_cell_setting 'triclinic'
loop_
_space_group_symop_operation_xyz
x,y,z
-x,-y,-z
loop_
_atom_site_type_symbol
_atom_site_label
_atom_site_fract_x
_atom_site_fract_y
_atom_site_fract_z
Si Si1 0.728767 0.676646 0.021785
Si Si2 0.346564 0.496951 0.655071
Si Si3 0.399171 0.179133 0.678626
Si Si4 0.922866 0.328450 0.260155
Si Si5 0.221372 0.750137 0.014395
Si Si6 0.917603 0.894205 0.152904
Si Si7 0.493399 0.807399 0.526033
Si Si8 0.000000 0.000000 0.500000
O O1 0.395734 0.737433 0.946119
O O2 0.838093 0.760681 0.113756
O O3 0.799945 0.487074 0.107719
O O4 0.905863 0.734850 0.944578
O O5 0.287777 0.365480 0.615529
O O6 0.607385 0.388830 0.819976
O O7 0.402792 0.644475 0.543173
O O8 0.121084 0.578116 0.668924
O O9 0.246140 0.104089 0.768675
O O10 0.337105 0.134885 0.563226
O O11 0.743177 0.137845 0.757443
O O12 0.252480 0.266249 0.318003
O O13 0.837318 0.167517 0.337448
O O14 0.200754 0.927699 0.984302
O O15 0.226729 0.935492 0.467697
#
# Coordination Sequence:
#
# PCOD9101620 Si02
#       8
#     2   2   2   2   2   2   2   1
#     4  11  19  35  58  89 120 159 199 247 288 346
#     4  10  21  36  57  93 120 162 196 242 293 361
#     4  12  25  36  58  89 132 165 191 235 305 367
#     4  10  20  38  60  85 121 145 208 244 308 347
#     4  11  20  34  58  85 130 162 205 237 279 353
#     4  12  22  37  54  92 130 168 196 235 289 363
#     4  11  23  41  60  86 119 158 199 252 303 367
#     4  10  24  40  62  86 108 158 210 260 300 348
#
# _framework density 29.076091999999999
#
# number of rings (size 3 to 8) (size 9 to 14) (size 15 to 20)
#    0.000    1.067    5.333    2.400    3.733    0.533 
#    0.000    0.000    0.000    0.000    0.000   24.267 
#    0.000    0.000    0.000    0.000    0.000    0.000 
#
# Total GULP energy -83775.625322 kJ/mol
# GULP energy per Si atom -5585.041688 kJ/mol
# Density = 2.900991 g / cm^3
# Si number density = 29.076092 Si / 1000 Ang^3
#
#
#
# Elastic Constant Matrix: (Units=GPa)
#
#
# Indices 1 2 3 4 5 6 
#
# 1 209.9431 38.1277 48.4230 -13.6569 -12.4702 -50.3849
# 2 38.1277 169.0848 85.4221 -39.0778 -6.4394 -16.9791
# 3 48.4230 85.4221 121.8894 -24.0138 -16.2234 -5.0675
# 4 -13.6569 -39.0778 -24.0138 75.3124 -1.8511 -1.6319
# 5 -12.4702 -6.4394 -16.2234 -1.8511 29.4056 -7.5947
# 6 -50.3849 -16.9791 -5.0675 -1.6319 -7.5947 46.2234
#
#
#
# Elastic Compliance Matrix: (Units=1/GPa)
#
#
# Indices 1 2 3 4 5 6 
#
# 1 0.007777 0.000934 -0.002453 0.001430 0.004659 0.009368
# 2 0.000934 0.010341 -0.006718 0.003492 0.000272 0.004248
# 3 -0.002453 -0.006718 0.014576 0.000778 0.004879 -0.002714
# 4 0.001430 0.003492 0.000778 0.015782 0.003858 0.004118
# 5 0.004659 0.000272 0.004879 0.003858 0.042282 0.012796
# 6 0.009368 0.004248 -0.002714 0.004118 0.012796 0.035356
#
#
# Mechanical properties :
#
#
# Convention : Reuss Voigt Hill
#
# Bulk Modulus (GPa) = 61.64514 93.87366 77.75940
# Shear Modulus (GPa) = 33.78494 52.11791 42.95143
#
# Velocity S-wave (km/s) = 3.41244 4.23835 3.84762
# Velocity P-wave (km/s) = 6.06413 7.50380 6.82205
#
# Compressibility (1/GPa) = 0.01622188
#
# Stress axis : x y z
#
# Youngs Moduli (GPa) = 128.57974 96.69861 68.60376
#
# Poissons Ratio (x) = -0.09034 0.16829
# Poissons Ratio (y) = -0.12013 0.46087
# Poissons Ratio (z) = 0.31541 0.64960
#
# Static dielectric constant tensor:
#      x y z
#    x 2.084810 -0.132190 -0.061040 
#    y -0.132190 2.155270 0.142830 
#    z -0.061040 0.142830 2.272900 
# 
# From -- ./inp_files/67416.got.cif
#   From: 2010.05.17/outbox.cif.g08.bks.cpg/sg2_34_cif.got.tgz:67416.got - 2010.06.03 11:33:40.
