data_PCOD9101163
_publ_section_title
;
Structure prediction by ZEFSAII (Michael W. Deem and Ramdas Pophale) SiO2 
 PCOD9101163
Probable space group: P -1
;
_chemical_formula_sum "Si O2"
_cell_formula_units_Z 16
_cell_length_a 19.739818
_cell_length_b 7.601506
_cell_length_c 7.485405
_cell_angle_alpha 36.999017
_cell_angle_beta 120.341643
_cell_angle_gamma 117.370825
_cell_volume 579.921222
_symmetry_space_group_name_H-M "P -1"
_symmetry_group_IT_number 2
_symmetry_cell_setting 'triclinic'
loop_
_space_group_symop_operation_xyz
x,y,z
-x,-y,-z
loop_
_atom_site_type_symbol
_atom_site_label
_atom_site_fract_x
_atom_site_fract_y
_atom_site_fract_z
Si Si1 0.848012 0.723612 0.957963
Si Si2 0.949080 0.266463 0.490317
Si Si3 0.104091 0.020403 0.818777
Si Si4 0.567473 0.056275 0.396463
Si Si5 0.705286 0.343981 0.937424
Si Si6 0.641385 0.677567 0.056001
Si Si7 0.604171 0.784655 0.320649
Si Si8 0.800595 0.509363 0.581952
O O1 0.759702 0.576933 0.936626
O O2 0.881209 0.043155 0.672049
O O3 0.902296 0.488310 0.134387
O O4 0.863415 0.752895 0.165440
O O5 0.000000 0.500000 0.500000
O O6 0.012131 0.064349 0.658642
O O7 0.149288 0.170957 0.585723
O O8 0.132151 0.714117 0.168083
O O9 0.549952 0.902946 0.306230
O O10 0.500000 0.000000 0.500000
O O11 0.591349 0.399340 0.125767
O O12 0.640262 0.931937 0.701626
O O13 0.624537 0.473186 0.673615
O O14 0.752842 0.351924 0.810929
O O15 0.682552 0.024004 0.245273
O O16 0.597548 0.753171 0.122874
O O17 0.726218 0.585889 0.300289
#
# Coordination Sequence:
#
# PCOD9101163 Si02
#       8
#     2   2   2   2   2   2   2   2
#     4  11  22  37  61  89 123 172 224 279 337 398
#     4  10  20  38  56  88 129 167 220 280 340 405
#     4  11  21  36  63  89 120 172 223 275 332 398
#     4  12  27  46  76 110 140 181 236 272 327 427
#     4  11  24  43  63  95 135 174 222 282 343 400
#     4  11  25  46  70 103 148 182 223 287 346 395
#     4  11  25  46  69 102 145 184 223 288 344 400
#     4  11  23  40  62  93 128 168 219 276 335 398
#
# _framework density 27.589953999999999
#
# number of rings (size 3 to 8) (size 9 to 14) (size 15 to 20)
#    0.000    1.000    0.000    9.375    5.250    1.000 
#    0.000    3.750    0.000    0.000    0.000    0.000 
#    0.000    0.000    0.000    0.000    0.000    0.000 
#
# Total GULP energy -89464.587890 kJ/mol
# GULP energy per Si atom -5591.536743 kJ/mol
# Density = 2.752716 g / cm^3
# Si number density = 27.589954 Si / 1000 Ang^3
#
#
#
# Elastic Constant Matrix: (Units=GPa)
#
#
# Indices 1 2 3 4 5 6 
#
# 1 83.1585 22.5936 19.6415 3.2532 -0.4046 -20.6514
# 2 22.5936 95.6812 28.1443 9.7249 7.7397 -9.7235
# 3 19.6415 28.1443 143.5068 -13.1288 1.8637 -9.3086
# 4 3.2532 9.7249 -13.1288 39.5090 -0.5937 -9.0752
# 5 -0.4046 7.7397 1.8637 -0.5937 39.2608 -12.2632
# 6 -20.6514 -9.7235 -9.3086 -9.0752 -12.2632 40.1052
#
#
#
# Elastic Compliance Matrix: (Units=1/GPa)
#
#
# Indices 1 2 3 4 5 6 
#
# 1 0.014987 -0.002822 -0.000921 0.001056 0.003289 0.008064
# 2 -0.002822 0.012351 -0.002393 -0.003797 -0.002618 -0.000674
# 3 -0.000921 -0.002393 0.008022 0.003774 0.000727 0.001884
# 4 0.001056 -0.003797 0.003774 0.029360 0.003599 0.008244
# 5 0.003289 -0.002618 0.000727 0.003599 0.029496 0.011061
# 6 0.008064 -0.000674 0.001884 0.008244 0.011061 0.034608
#
#
# Mechanical properties :
#
#
# Convention : Reuss Voigt Hill
#
# Bulk Modulus (GPa) = 43.31325 51.45616 47.38470
# Shear Modulus (GPa) = 33.60419 40.57279 37.08849
#
# Velocity S-wave (km/s) = 3.49375 3.83895 3.67041
# Velocity P-wave (km/s) = 5.65757 6.19200 5.93081
#
# Compressibility (1/GPa) = 0.02308763
#
# Stress axis : x y z
#
# Youngs Moduli (GPa) = 66.72583 80.96580 124.66191
#
# Poissons Ratio (x) = 0.22848 0.11478
# Poissons Ratio (y) = 0.18830 0.29833
# Poissons Ratio (z) = 0.06144 0.19376
#
# Static dielectric constant tensor:
#      x y z
#    x 2.298200 -0.051440 0.001060 
#    y -0.051440 2.186630 0.047800 
#    z 0.001060 0.047800 2.085370 
# 
# From -- ./inp_files/343216.got.cif
#   From: 2010.05.17/outbox.cif.g08.bks.cpg/sg2_172_cif.got.tgz:343216.got - 2010.06.03 11:33:40.
