data_PCOD9101505
_publ_section_title
;
Structure prediction by ZEFSAII (Michael W. Deem and Ramdas Pophale) SiO2 
 PCOD9101505
Probable space group: P -1
;
_chemical_formula_sum "Si O2"
_cell_formula_units_Z 16
_cell_length_a 11.335637
_cell_length_b 14.669197
_cell_length_c 9.664882
_cell_angle_alpha 38.709543
_cell_angle_beta 122.110786
_cell_angle_gamma 98.150649
_cell_volume 729.518124
_symmetry_space_group_name_H-M "P -1"
_symmetry_group_IT_number 2
_symmetry_cell_setting 'triclinic'
loop_
_space_group_symop_operation_xyz
x,y,z
-x,-y,-z
loop_
_atom_site_type_symbol
_atom_site_label
_atom_site_fract_x
_atom_site_fract_y
_atom_site_fract_z
Si Si1 0.606440 0.527477 0.713273
Si Si2 0.655162 0.816048 0.268665
Si Si3 0.201372 0.799100 0.932578
Si Si4 0.755741 0.208945 0.720789
Si Si5 0.292083 0.223909 0.199673
Si Si6 0.871866 0.845211 0.575349
Si Si7 0.337199 0.045720 0.163826
Si Si8 0.688496 0.450739 0.161006
O O1 0.642516 0.662774 0.504661
O O2 0.422837 0.642479 0.515888
O O3 0.645720 0.378211 0.807976
O O4 0.711042 0.442174 0.019595
O O5 0.816170 0.800707 0.452449
O O6 0.500000 0.000000 0.000000
O O7 0.662852 0.823270 0.100813
O O8 0.053153 0.802798 0.756651
O O9 0.229022 0.949252 0.723014
O O10 0.153875 0.829595 0.029878
O O11 0.742874 0.051548 0.842694
O O12 0.794195 0.288916 0.517455
O O13 0.175416 0.239077 0.232506
O O14 0.476072 0.097221 0.517961
O O15 0.261219 0.139172 0.148776
O O16 0.286284 0.397099 0.955295
O O17 0.500000 0.500000 0.000000
#
# Coordination Sequence:
#
# PCOD9101505 Si02
#       8
#     2   2   2   2   2   2   2   2
#     4  11  22  38  64  95 121 163 205 263 315 356
#     4  12  19  40  65  91 121 157 206 263 306 363
#     4  11  26  40  62  92 123 173 207 255 310 361
#     4  11  21  40  59  94 129 157 208 258 305 373
#     4  11  22  39  62  92 124 163 203 254 317 364
#     4  11  23  45  63  84 131 164 213 256 302 375
#     4  11  22  35  65  94 120 162 203 255 313 367
#     4  10  20  38  59  91 129 153 197 261 310 363
#
# _framework density 21.932286999999999
#
# number of rings (size 3 to 8) (size 9 to 14) (size 15 to 20)
#    0.000    1.000    7.500    0.375    3.500    1.500 
#    0.000    2.500    0.000    0.000    0.000    0.000 
#    0.000    0.000    0.000    0.000    0.000    0.000 
#
# Total GULP energy -89377.612058 kJ/mol
# GULP energy per Si atom -5586.100754 kJ/mol
# Density = 2.188237 g / cm^3
# Si number density = 21.932287 Si / 1000 Ang^3
#
#
#
# Elastic Constant Matrix: (Units=GPa)
#
#
# Indices 1 2 3 4 5 6 
#
# 1 20.2974 14.4954 28.6355 -12.1578 -23.7057 10.3885
# 2 14.4954 78.8464 22.2261 5.1174 -4.1557 -8.2538
# 3 28.6355 22.2261 78.3907 8.3868 -33.4772 -0.0131
# 4 -12.1578 5.1174 8.3868 36.8775 5.2412 -9.2013
# 5 -23.7057 -4.1557 -33.4772 5.2412 37.2258 4.6621
# 6 10.3885 -8.2538 -0.0131 -9.2013 4.6621 25.9117
#
#
#
# Elastic Compliance Matrix: (Units=1/GPa)
#
#
# Indices 1 2 3 4 5 6 
#
# 1 -0.168384 0.032887 0.012946 -0.027520 -0.098810 0.085996
# 2 0.032887 0.008415 -0.009257 0.007206 0.013851 -0.010442
# 3 0.012946 -0.009257 0.026517 -0.009866 0.034685 -0.017870
# 4 -0.027520 0.007206 -0.009866 0.031769 -0.033912 0.030707
# 5 -0.098810 0.013851 0.034685 -0.033912 -0.002614 0.032472
# 6 0.085996 -0.010442 -0.017870 0.030707 0.032472 0.005841
#
#
# Mechanical properties :
#
#
# Convention : Reuss Voigt Hill
#
# Bulk Modulus (GPa) = -16.58397 34.24981 8.83292
# Shear Modulus (GPa) = -26.08141 27.48150 0.70004
#
# Velocity S-wave (km/s) = -3.45219 3.54364 0.56558
# Velocity P-wave (km/s) = 4.84438 5.69150 2.11249
#
# Compressibility (1/GPa) = -0.06029919
#
# Stress axis : x y z
#
# Youngs Moduli (GPa) = -5.93880 118.82841 37.71151
#
# Poissons Ratio (x) = -3.90795 -0.48821
# Poissons Ratio (y) = 0.19531 0.34910
# Poissons Ratio (z) = 0.07688 1.10001
#
# Static dielectric constant tensor:
#      x y z
#    x 1.782860 -0.010960 0.017880 
#    y -0.010960 1.799650 0.026090 
#    z 0.017880 0.026090 1.870510 
# 
# From -- ./inp_files/244725.got.cif
#   From: 2010.05.17/outbox.cif.g08.bks.cpg/sg2_123_cif.got.tgz:244725.got - 2010.06.03 11:33:40.
