data_PCOD9101235
_publ_section_title
;
Structure prediction by ZEFSAII (Michael W. Deem and Ramdas Pophale) SiO2 
 PCOD9101235
Probable space group: P -1
;
_chemical_formula_sum "Si O2"
_cell_formula_units_Z 16
_cell_length_a 8.948014
_cell_length_b 19.375774
_cell_length_c 8.582922
_cell_angle_alpha 78.366329
_cell_angle_beta 75.491437
_cell_angle_gamma 32.704511
_cell_volume 778.250490
_symmetry_space_group_name_H-M "P -1"
_symmetry_group_IT_number 2
_symmetry_cell_setting 'triclinic'
loop_
_space_group_symop_operation_xyz
x,y,z
-x,-y,-z
loop_
_atom_site_type_symbol
_atom_site_label
_atom_site_fract_x
_atom_site_fract_y
_atom_site_fract_z
Si Si1 0.742878 0.928720 0.588869
Si Si2 0.814886 0.859346 0.950565
Si Si3 0.522756 0.507457 0.734189
Si Si4 0.907863 0.392292 0.968848
Si Si5 0.581932 0.703444 0.159418
Si Si6 0.823756 0.036179 0.667372
Si Si7 0.329410 0.674137 0.422389
Si Si8 0.130467 0.877024 0.950255
O O1 0.824489 0.854176 0.759288
O O2 0.032056 0.823926 0.464643
O O3 0.500000 0.000000 0.500000
O O4 0.655676 0.035478 0.639623
O O5 0.984681 0.855273 0.003074
O O6 0.903459 0.749464 0.036968
O O7 0.500000 0.000000 0.000000
O O8 0.682677 0.480994 0.848981
O O9 0.439612 0.598389 0.589329
O O10 0.708354 0.378774 0.655775
O O11 0.264453 0.561256 0.850658
O O12 0.112157 0.381291 0.911373
O O13 0.389010 0.832949 0.245665
O O14 0.540271 0.648490 0.296076
O O15 0.427329 0.754825 0.009815
O O16 0.000000 0.000000 0.500000
O O17 0.072609 0.913582 0.769146
O O18 0.000000 0.000000 0.000000
#
# Coordination Sequence:
#
# PCOD9101235 Si02
#       8
#     2   2   2   2   2   2   2   2
#     4  11  24  37  64  98 131 165 210 259 325 389
#     4  11  22  38  66  96 130 167 214 259 328 386
#     4  10  25  45  69  86 126 170 227 266 311 379
#     4  11  23  44  66  96 123 169 219 271 318 378
#     4  11  23  39  67  93 132 163 214 265 329 378
#     4  10  20  38  57  96 136 169 197 255 329 393
#     4  11  23  46  64  92 128 173 213 269 320 376
#     4   9  20  36  56  92 132 170 199 256 313 392
#
# _framework density 20.558935999999999
#
# number of rings (size 3 to 8) (size 9 to 14) (size 15 to 20)
#    0.000    1.500    2.500    3.000    5.250    2.000 
#    0.000    0.000    0.000    0.000    0.000    0.000 
#    0.000    0.000    0.000    0.000    0.000    0.000 
#
# Total GULP energy -89139.505011 kJ/mol
# GULP energy per Si atom -5571.219063 kJ/mol
# Density = 2.051214 g / cm^3
# Si number density = 20.558936 Si / 1000 Ang^3
#
#
#
# Elastic Constant Matrix: (Units=GPa)
#
#
# Indices 1 2 3 4 5 6 
#
# 1 125.2564 30.6044 56.8743 -16.6556 2.6034 -19.7082
# 2 30.6044 47.8698 14.9724 4.9033 0.8719 -3.5179
# 3 56.8743 14.9724 82.4928 -15.7510 -1.2174 -13.6937
# 4 -16.6556 4.9033 -15.7510 21.7878 1.0330 -3.0239
# 5 2.6034 0.8719 -1.2174 1.0330 35.1520 3.0698
# 6 -19.7082 -3.5179 -13.6937 -3.0239 3.0698 35.4825
#
#
#
# Elastic Compliance Matrix: (Units=1/GPa)
#
#
# Indices 1 2 3 4 5 6 
#
# 1 0.015089 -0.008317 -0.005957 0.010065 -0.001962 0.006285
# 2 -0.008317 0.028462 -0.003148 -0.015680 0.000646 -0.004404
# 3 -0.005957 -0.003148 0.019737 0.011082 0.000449 0.004902
# 4 0.010065 -0.015680 0.011082 0.067271 -0.003200 0.014322
# 5 -0.001962 0.000646 0.000449 -0.003200 0.029004 -0.003634
# 6 0.006285 -0.004404 0.004902 0.014322 -0.003634 0.034664
#
#
# Mechanical properties :
#
#
# Convention : Reuss Voigt Hill
#
# Bulk Modulus (GPa) = 35.15581 51.16901 43.16241
# Shear Modulus (GPa) = 20.95987 28.69565 24.82776
#
# Velocity S-wave (km/s) = 3.19643 3.74006 3.47888
# Velocity P-wave (km/s) = 5.54617 6.60255 6.09728
#
# Compressibility (1/GPa) = 0.02844480
#
# Stress axis : x y z
#
# Youngs Moduli (GPa) = 66.27525 35.13430 50.66612
#
# Poissons Ratio (x) = 0.29220 0.30183
# Poissons Ratio (y) = 0.55118 0.15948
# Poissons Ratio (z) = 0.39482 0.11059
#
# Static dielectric constant tensor:
#      x y z
#    x 1.841840 0.035380 -0.009460 
#    y 0.035380 1.736890 0.024260 
#    z -0.009460 0.024260 1.828780 
# 
# From -- ./inp_files/223596.got.cif
#   From: 2010.05.17/outbox.cif.g08.bks.cpg/sg2_112_cif.got.tgz:223596.got - 2010.06.03 11:33:40.
