data_PCOD9101820
_publ_section_title
;
Structure prediction by ZEFSAII (Michael W. Deem and Ramdas Pophale) SiO2 
 PCOD9101820
Probable space group: P -1
;
_chemical_formula_sum "Si O2"
_cell_formula_units_Z 13
_cell_length_a 6.716709
_cell_length_b 9.046307
_cell_length_c 12.373891
_cell_angle_alpha 55.084972
_cell_angle_beta 122.091706
_cell_angle_gamma 121.206355
_cell_volume 496.908064
_symmetry_space_group_name_H-M "P -1"
_symmetry_group_IT_number 2
_symmetry_cell_setting 'triclinic'
loop_
_space_group_symop_operation_xyz
x,y,z
-x,-y,-z
loop_
_atom_site_type_symbol
_atom_site_label
_atom_site_fract_x
_atom_site_fract_y
_atom_site_fract_z
Si Si1 0.641065 0.511735 0.705136
Si Si2 0.500000 0.000000 0.000000
Si Si3 0.790010 0.771819 0.438171
Si Si4 0.274703 0.255118 0.179988
Si Si5 0.765820 0.164498 0.211623
Si Si6 0.100960 0.428039 0.856820
Si Si7 0.003597 0.144967 0.751272
O O1 0.780104 0.669618 0.591248
O O2 0.436811 0.362752 0.639318
O O3 0.547765 0.605542 0.740102
O O4 0.827993 0.398880 0.843563
O O5 0.449494 0.894705 0.913728
O O6 0.246938 0.075912 0.872357
O O7 0.001653 0.791198 0.401800
O O8 0.768524 0.981338 0.357153
O O9 0.021065 0.231647 0.187516
O O10 0.245146 0.348613 0.019942
O O11 0.241531 0.036585 0.235505
O O12 0.761917 0.347182 0.201693
O O13 0.031263 0.310191 0.776269
#
# Coordination Sequence:
#
# PCOD9101820 Si02
#       7
#     2   1   2   2   2   2   2
#     4  10  20  38  61  79 111 148 193 228 267 333
#     4   8  18  34  54  74 110 144 176 222 268 332
#     4   9  21  38  58  82 107 157 184 224 280 327
#     4   9  20  35  55  83 113 149 179 226 278 335
#     4   9  19  33  57  80 109 153 181 221 276 330
#     4  11  22  34  56  90 112 145 185 231 276 327
#     4  10  22  37  56  84 114 148 183 228 285 325
#
# _framework density 26.161781999999999
#
# number of rings (size 3 to 8) (size 9 to 14) (size 15 to 20)
#    0.000    2.769    0.000    2.308   12.923    6.769 
#    0.000    0.000    0.000    3.692    0.000    0.000 
#    0.000    0.000    0.000    0.000    0.000    0.000 
#
# Total GULP energy -72400.325412 kJ/mol
# GULP energy per Si atom -5569.255801 kJ/mol
# Density = 2.610224 g / cm^3
# Si number density = 26.161782 Si / 1000 Ang^3
#
#
#
# Elastic Constant Matrix: (Units=GPa)
#
#
# Indices 1 2 3 4 5 6 
#
# 1 54.5354 17.3909 0.2618 3.6873 -8.5847 -24.6105
# 2 17.3909 207.4199 43.8792 12.5978 -28.1457 -37.8853
# 3 0.2618 43.8792 76.6813 5.0760 -17.8485 -6.0764
# 4 3.6873 12.5978 5.0760 43.6215 7.6802 -11.5786
# 5 -8.5847 -28.1457 -17.8485 7.6802 29.5560 13.7966
# 6 -24.6105 -37.8853 -6.0764 -11.5786 13.7966 37.1112
#
#
#
# Elastic Compliance Matrix: (Units=1/GPa)
#
#
# Indices 1 2 3 4 5 6 
#
# 1 0.026745 0.001010 0.000456 0.002973 -0.001205 0.020217
# 2 0.001010 0.006802 -0.002834 -0.000504 0.002331 0.006125
# 3 0.000456 -0.002834 0.017261 -0.004782 0.011720 -0.005614
# 4 0.002973 -0.000504 -0.004782 0.031303 -0.018770 0.017418
# 5 -0.001205 0.002331 0.011720 -0.018770 0.058997 -0.024290
# 6 0.020217 0.006125 -0.005614 0.017418 -0.024290 0.060151
#
#
# Mechanical properties :
#
#
# Convention : Reuss Voigt Hill
#
# Bulk Modulus (GPa) = 20.80276 51.30004 36.05140
# Shear Modulus (GPa) = 22.72509 40.53140 31.62825
#
# Velocity S-wave (km/s) = 2.95046 3.94033 3.48077
# Velocity P-wave (km/s) = 4.42446 6.35240 5.47397
#
# Compressibility (1/GPa) = 0.04807055
#
# Stress axis : x y z
#
# Youngs Moduli (GPa) = 37.38968 147.02064 57.93376
#
# Poissons Ratio (x) = -0.14846 -0.02640
# Poissons Ratio (y) = -0.03776 0.16420
# Poissons Ratio (z) = -0.01704 0.41671
#
# Static dielectric constant tensor:
#      x y z
#    x 2.355850 0.080070 0.008270 
#    y 0.080070 2.208800 -0.044420 
#    z 0.008270 -0.044420 1.987110 
# 
# From -- ./inp_files/165786.got.cif
#   From: 2010.05.17/outbox.cif.g08.bks.cpg/sg2_83_cif.got.tgz:165786.got - 2010.06.03 11:33:40.
