data_PCOD9101880
_publ_section_title
;
Structure prediction by ZEFSAII (Michael W. Deem and Ramdas Pophale) SiO2 
 PCOD9101880
Probable space group: P -1
;
_chemical_formula_sum "Si O2"
_cell_formula_units_Z 16
_cell_length_a 23.363789
_cell_length_b 8.870183
_cell_length_c 8.295825
_cell_angle_alpha 111.748693
_cell_angle_beta 149.486276
_cell_angle_gamma 69.018402
_cell_volume 808.040226
_symmetry_space_group_name_H-M "P -1"
_symmetry_group_IT_number 2
_symmetry_cell_setting 'triclinic'
loop_
_space_group_symop_operation_xyz
x,y,z
-x,-y,-z
loop_
_atom_site_type_symbol
_atom_site_label
_atom_site_fract_x
_atom_site_fract_y
_atom_site_fract_z
Si Si1 0.115648 0.423283 0.316672
Si Si2 0.108718 0.099435 0.325790
Si Si3 0.350665 0.411816 0.764448
Si Si4 0.890158 0.600802 0.343630
Si Si5 0.392188 0.955610 0.493585
Si Si6 0.330963 0.284371 0.326743
Si Si7 0.643482 0.946874 0.198021
Si Si8 0.465593 0.649037 0.359004
O O1 0.107825 0.229636 0.229287
O O2 0.217571 0.461377 0.467670
O O3 0.138447 0.470379 0.576995
O O4 0.000000 0.500000 0.000000
O O5 0.089402 0.213719 0.481875
O O6 0.240988 0.029529 0.610124
O O7 0.000000 0.000000 0.000000
O O8 0.380543 0.368292 0.637254
O O9 0.364870 0.244117 0.841220
O O10 0.408584 0.560858 0.039015
O O11 0.000000 0.500000 0.500000
O O12 0.783337 0.618293 0.973682
O O13 0.390829 0.787717 0.328261
O O14 0.319106 0.100987 0.284766
O O15 0.356326 0.954511 0.593679
O O16 0.525154 0.995296 0.840095
O O17 0.421278 0.278505 0.400824
O O18 0.500000 0.500000 0.500000
#
# Coordination Sequence:
#
# PCOD9101880 Si02
#       8
#     2   2   2   2   2   2   2   2
#     4   9  19  39  62  81 115 161 199 246 308 361
#     4   9  20  39  61  89 122 155 204 256 304 358
#     4  10  20  38  61  85 121 161 205 246 303 361
#     4  10  21  39  63  88 119 163 204 248 312 363
#     4  10  21  38  63  90 122 167 206 244 318 369
#     4  11  23  40  61  87 128 162 207 248 307 383
#     4   9  18  40  62  84 124 171 196 249 311 378
#     4  12  22  38  59  96 128 154 203 262 307 357
#
# _framework density 19.800995
#
# number of rings (size 3 to 8) (size 9 to 14) (size 15 to 20)
#    0.750    1.250    1.250    3.000    0.000    0.000 
#    9.000    0.000    0.000    3.000    0.000    0.000 
#    0.000    0.000    0.000    0.000    0.000    0.000 
#
# Total GULP energy -89142.775057 kJ/mol
# GULP energy per Si atom -5571.423441 kJ/mol
# Density = 1.975593 g / cm^3
# Si number density = 19.800995 Si / 1000 Ang^3
#
#
#
# Elastic Constant Matrix: (Units=GPa)
#
#
# Indices 1 2 3 4 5 6 
#
# 1 76.5866 26.7639 15.1209 7.7270 1.9056 -24.1286
# 2 26.7639 62.3234 28.8600 0.0731 -11.2834 -29.4914
# 3 15.1209 28.8600 72.4354 -5.7020 1.1649 -5.4438
# 4 7.7270 0.0731 -5.7020 40.3627 -5.3030 -6.7994
# 5 1.9056 -11.2834 1.1649 -5.3030 35.0316 -2.8750
# 6 -24.1286 -29.4914 -5.4438 -6.7994 -2.8750 34.5704
#
#
#
# Elastic Compliance Matrix: (Units=1/GPa)
#
#
# Indices 1 2 3 4 5 6 
#
# 1 0.017497 -0.002245 -0.002207 -0.002224 -0.001166 0.009415
# 2 -0.002245 0.044797 -0.014315 0.007146 0.019178 0.037395
# 3 -0.002207 -0.014315 0.019271 0.000515 -0.005966 -0.011112
# 4 -0.002224 0.007146 0.000515 0.028066 0.007538 0.010771
# 5 -0.001166 0.019178 -0.005966 0.007538 0.037703 0.019225
# 6 0.009415 0.037395 -0.011112 0.010771 0.019225 0.069366
#
#
# Mechanical properties :
#
#
# Convention : Reuss Voigt Hill
#
# Bulk Modulus (GPa) = 22.71147 39.20390 30.95769
# Shear Modulus (GPa) = 18.59349 31.36632 24.97991
#
# Velocity S-wave (km/s) = 3.06766 3.98437 3.55568
# Velocity P-wave (km/s) = 4.90328 6.40381 5.70311
#
# Compressibility (1/GPa) = 0.04403062
#
# Stress axis : x y z
#
# Youngs Moduli (GPa) = 57.15259 22.32281 51.89177
#
# Poissons Ratio (x) = 0.05012 0.11451
# Poissons Ratio (y) = 0.12833 0.74284
# Poissons Ratio (z) = 0.12612 0.31955
#
# Static dielectric constant tensor:
#      x y z
#    x 1.733130 -0.008040 -0.028320 
#    y -0.008040 1.755700 0.002880 
#    z -0.028320 0.002880 1.756760 
# 
# From -- ./inp_files/351874.got.cif
#   From: 2010.05.17/outbox.cif.g08.bks.cpg/sg2_176_cif.got.tgz:351874.got - 2010.06.03 11:33:40.
