data_PCOD9101454
_publ_section_title
;
Structure prediction by ZEFSAII (Michael W. Deem and Ramdas Pophale) SiO2 
 PCOD9101454
Probable space group: P -1
;
_chemical_formula_sum "Si O2"
_cell_formula_units_Z 14
_cell_length_a 8.591797
_cell_length_b 14.505119
_cell_length_c 8.809022
_cell_angle_alpha 65.456012
_cell_angle_beta 103.961631
_cell_angle_gamma 141.032345
_cell_volume 621.581732
_symmetry_space_group_name_H-M "P -1"
_symmetry_group_IT_number 2
_symmetry_cell_setting 'triclinic'
loop_
_space_group_symop_operation_xyz
x,y,z
-x,-y,-z
loop_
_atom_site_type_symbol
_atom_site_label
_atom_site_fract_x
_atom_site_fract_y
_atom_site_fract_z
Si Si1 0.425653 0.117152 0.372584
Si Si2 0.462178 0.998164 0.741258
Si Si3 0.213831 0.096212 0.857161
Si Si4 0.617256 0.651802 0.512603
Si Si5 0.269706 0.759210 0.089844
Si Si6 0.827052 0.441590 0.358127
Si Si7 0.080629 0.126988 0.314639
O O1 0.354077 0.025778 0.575923
O O2 0.710994 0.285933 0.359611
O O3 0.306023 0.166961 0.267024
O O4 0.385754 0.011863 0.312196
O O5 0.644520 0.139323 0.807674
O O6 0.268254 0.834776 0.898240
O O7 0.254725 0.214222 0.677381
O O8 0.492476 0.200827 0.905875
O O9 0.109279 0.958725 0.811775
O O10 0.000000 0.000000 0.000000
O O11 0.500000 0.500000 0.500000
O O12 0.395319 0.604171 0.580306
O O13 0.809819 0.732582 0.645433
O O14 0.002794 0.582350 0.182612
O O15 0.000000 0.500000 0.500000
O O16 0.000000 0.000000 0.500000
#
# Coordination Sequence:
#
# PCOD9101454 Si02
#       7
#     2   2   2   2   2   2   2
#     4  10  20  38  59  87 114 158 198 244 304 352
#     4  10  21  35  58  89 117 145 204 251 286 354
#     4  11  22  40  61  86 123 161 199 244 306 359
#     4  10  22  40  63  90 115 161 208 246 298 359
#     4  11  22  38  59  91 122 157 195 251 305 349
#     4  11  20  40  62  84 125 160 195 245 307 363
#     4   9  19  37  60  81 119 157 198 239 294 363
#
# _framework density 22.523184000000001
#
# number of rings (size 3 to 8) (size 9 to 14) (size 15 to 20)
#    0.000    1.714    2.857    2.571    0.000    5.143 
#    2.571    0.714    0.000    0.000    0.000    0.000 
#    0.000    0.000    0.000    0.000    0.000    0.000 
#
# Total GULP energy -78021.966229 kJ/mol
# GULP energy per Si atom -5572.997588 kJ/mol
# Density = 2.247192 g / cm^3
# Si number density = 22.523184 Si / 1000 Ang^3
#
#
#
# Elastic Constant Matrix: (Units=GPa)
#
#
# Indices 1 2 3 4 5 6 
#
# 1 58.6470 21.2779 24.9060 -3.1439 -17.2881 -5.9954
# 2 21.2779 100.3776 28.2378 -8.3118 -11.0163 0.3744
# 3 24.9060 28.2378 124.0100 -29.6375 -19.0099 4.0376
# 4 -3.1439 -8.3118 -29.6375 35.3034 4.1155 -8.1743
# 5 -17.2881 -11.0163 -19.0099 4.1155 42.4716 4.1383
# 6 -5.9954 0.3744 4.0376 -8.1743 4.1383 37.5282
#
#
#
# Elastic Compliance Matrix: (Units=1/GPa)
#
#
# Indices 1 2 3 4 5 6 
#
# 1 0.021612 -0.003138 -0.003086 -0.001519 0.006479 0.002771
# 2 -0.003138 0.011241 -0.001577 0.000858 0.000884 -0.000354
# 3 -0.003086 -0.001577 0.011534 0.008699 0.002666 -0.000117
# 4 -0.001519 0.000858 0.008699 0.037424 -0.000816 0.007054
# 5 0.006479 0.000884 0.002666 -0.000816 0.027929 -0.002518
# 6 0.002771 -0.000354 -0.000117 0.007054 -0.002518 0.028920
#
#
# Mechanical properties :
#
#
# Convention : Reuss Voigt Hill
#
# Bulk Modulus (GPa) = 34.74123 47.98643 41.36383
# Shear Modulus (GPa) = 30.51434 36.96817 33.74126
#
# Velocity S-wave (km/s) = 3.68475 4.05574 3.87469
# Velocity P-wave (km/s) = 5.79321 6.57903 6.19859
#
# Compressibility (1/GPa) = 0.02878424
#
# Stress axis : x y z
#
# Youngs Moduli (GPa) = 46.27054 88.96277 86.69818
#
# Poissons Ratio (x) = 0.27918 0.26754
# Poissons Ratio (y) = 0.14521 0.13675
# Poissons Ratio (z) = 0.14279 0.14032
#
# Static dielectric constant tensor:
#      x y z
#    x 2.191040 0.133980 -0.113310 
#    y 0.133980 1.930160 -0.038370 
#    z -0.113310 -0.038370 1.888450 
# 
# From -- ./inp_files/190346.got.cif
#   From: 2010.05.17/outbox.cif.g08.bks.cpg/sg2_96_cif.got.tgz:190346.got - 2010.06.03 11:33:40.
