data_PCOD9101816
_publ_section_title
;
Structure prediction by ZEFSAII (Michael W. Deem and Ramdas Pophale) SiO2 
 PCOD9101816
Probable space group: P -1
;
_chemical_formula_sum "Si O2"
_cell_formula_units_Z 12
_cell_length_a 12.729996
_cell_length_b 8.988723
_cell_length_c 7.717410
_cell_angle_alpha 125.657296
_cell_angle_beta 45.612934
_cell_angle_gamma 130.235599
_cell_volume 467.639292
_symmetry_space_group_name_H-M "P -1"
_symmetry_group_IT_number 2
_symmetry_cell_setting 'triclinic'
loop_
_space_group_symop_operation_xyz
x,y,z
-x,-y,-z
loop_
_atom_site_type_symbol
_atom_site_label
_atom_site_fract_x
_atom_site_fract_y
_atom_site_fract_z
Si Si1 0.785217 0.276360 0.638136
Si Si2 0.575769 0.899761 0.985072
Si Si3 0.952430 0.007107 0.359600
Si Si4 0.328222 0.829365 0.646640
Si Si5 0.456598 0.506292 0.355294
Si Si6 0.824820 0.698643 0.986967
O O1 0.596723 0.231630 0.814417
O O2 0.826745 0.114629 0.583399
O O3 0.808379 0.226363 0.377779
O O4 0.857555 0.498124 0.783502
O O5 0.698309 0.068909 0.080298
O O6 0.629745 0.725987 0.753341
O O7 0.500000 0.000000 0.000000
O O8 0.877452 0.807493 0.187883
O O9 0.000000 0.000000 0.500000
O O10 0.092341 0.157050 0.172357
O O11 0.350783 0.630123 0.533720
O O12 0.500000 0.000000 0.500000
O O13 0.500000 0.500000 0.500000
O O14 0.631076 0.628598 0.149158
#
# Coordination Sequence:
#
# PCOD9101816 Si02
#       6
#     2   2   2   2   2   2
#     4  10  23  43  64  93 134 169 221 275 331 392
#     4  10  20  38  61 100 134 171 214 262 331 402
#     4  11  25  48  70  93 128 179 230 282 325 388
#     4  10  21  38  62  96 137 175 209 269 333 393
#     4  11  22  39  68 101 139 175 216 269 333 406
#     4  10  24  46  67  98 132 171 227 272 333 395
#
# _framework density 25.660806000000001
#
# number of rings (size 3 to 8) (size 9 to 14) (size 15 to 20)
#    0.000    1.667    1.667    2.500    0.000    9.333 
#   12.000    0.000    0.000    0.000    0.000    0.000 
#    0.000    0.000    0.000    0.000    0.000    0.000 
#
# Total GULP energy -67093.098434 kJ/mol
# GULP energy per Si atom -5591.091536 kJ/mol
# Density = 2.560240 g / cm^3
# Si number density = 25.660806 Si / 1000 Ang^3
#
#
#
# Elastic Constant Matrix: (Units=GPa)
#
#
# Indices 1 2 3 4 5 6 
#
# 1 157.2600 53.2568 69.9711 45.0902 38.9226 -21.6470
# 2 53.2568 113.0832 67.3405 52.1904 23.6358 -1.0178
# 3 69.9711 67.3405 152.1068 53.1121 32.7822 -4.6537
# 4 45.0902 52.1904 53.1121 76.4992 11.9159 -7.8564
# 5 38.9226 23.6358 32.7822 11.9159 48.7488 1.6035
# 6 -21.6470 -1.0178 -4.6537 -7.8564 1.6035 47.6773
#
#
#
# Elastic Compliance Matrix: (Units=1/GPa)
#
#
# Indices 1 2 3 4 5 6 
#
# 1 0.010457 -0.001319 -0.001921 -0.002563 -0.005933 0.004309
# 2 -0.001319 0.015111 -0.003121 -0.007169 -0.002367 -0.001683
# 3 -0.001921 -0.003121 0.010874 -0.003811 -0.003321 -0.000394
# 4 -0.002563 -0.007169 -0.003811 0.021891 0.002674 0.001828
# 5 -0.005933 -0.002367 -0.003321 0.002674 0.028095 -0.003573
# 6 0.004309 -0.001683 -0.000394 0.001828 -0.003573 0.023278
#
#
# Mechanical properties :
#
#
# Convention : Reuss Voigt Hill
#
# Bulk Modulus (GPa) = 42.15827 89.28741 65.72284
# Shear Modulus (GPa) = 38.36254 50.04385 44.20319
#
# Velocity S-wave (km/s) = 3.87070 4.42090 4.15492
# Velocity P-wave (km/s) = 6.03665 7.80577 6.97750
#
# Compressibility (1/GPa) = 0.02372014
#
# Stress axis : x y z
#
# Youngs Moduli (GPa) = 95.63173 66.17626 91.95939
#
# Poissons Ratio (x) = 0.08728 0.17663
# Poissons Ratio (y) = 0.12613 0.28704
# Poissons Ratio (z) = 0.18368 0.20656
#
# Static dielectric constant tensor:
#      x y z
#    x 1.978530 0.042120 0.030500 
#    y 0.042120 2.092210 -0.132660 
#    z 0.030500 -0.132660 2.371920 
# 
# From -- ./inp_files/293347.got.cif
#   From: 2010.05.17/outbox.cif.g08.bks.cpg/sg2_147_cif.got.tgz:293347.got - 2010.06.03 11:33:40.
