data_PCOD9101683
_publ_section_title
;
Structure prediction by ZEFSAII (Michael W. Deem and Ramdas Pophale) SiO2 
 PCOD9101683
Probable space group: P -1
;
_chemical_formula_sum "Si O2"
_cell_formula_units_Z 15
_cell_length_a 10.480625
_cell_length_b 6.974775
_cell_length_c 13.700016
_cell_angle_alpha 77.672161
_cell_angle_beta 53.931084
_cell_angle_gamma 49.690492
_cell_volume 594.098969
_symmetry_space_group_name_H-M "P -1"
_symmetry_group_IT_number 2
_symmetry_cell_setting 'triclinic'
loop_
_space_group_symop_operation_xyz
x,y,z
-x,-y,-z
loop_
_atom_site_type_symbol
_atom_site_label
_atom_site_fract_x
_atom_site_fract_y
_atom_site_fract_z
Si Si1 0.770080 0.419023 0.186784
Si Si2 0.422874 0.466395 0.246575
Si Si3 0.694534 0.139575 0.406215
Si Si4 0.781668 0.372090 0.480272
Si Si5 0.138966 0.369829 0.708595
Si Si6 0.228690 0.022291 0.958471
Si Si7 0.500000 0.000000 0.000000
Si Si8 0.746579 0.421527 0.904793
O O1 0.555188 0.547329 0.213846
O O2 0.786551 0.215994 0.275083
O O3 0.764730 0.609014 0.240824
O O4 0.977455 0.263412 0.043323
O O5 0.254283 0.568047 0.396604
O O6 0.303368 0.577424 0.186635
O O7 0.605617 0.148252 0.186713
O O8 0.793351 0.139018 0.462731
O O9 0.443880 0.375446 0.491253
O O10 0.733420 0.885068 0.388457
O O11 0.940601 0.385104 0.351462
O O12 0.950708 0.386333 0.822965
O O13 0.236639 0.795324 0.024155
O O14 0.326564 0.102325 0.977789
O O15 0.431675 0.285448 0.009712
#
# Coordination Sequence:
#
# PCOD9101683 Si02
#       8
#     2   2   2   2   2   2   1   2
#     4  10  20  38  64  89 118 153 206 247 296 345
#     4  10  22  39  58  89 127 155 189 259 297 343
#     4   9  18  37  62  87 120 158 200 246 293 355
#     4   9  20  36  58  90 122 156 196 247 302 342
#     4  11  20  37  67  88 115 163 204 240 290 372
#     4  11  21  41  64  86 119 162 201 240 300 366
#     4  10  20  38  60  88 114 156 200 238 284 362
#     4  11  23  40  64  87 122 161 200 239 306 353
#
# _framework density 25.248321000000001
#
# number of rings (size 3 to 8) (size 9 to 14) (size 15 to 20)
#    0.000    1.867    2.667    3.200    0.000    0.533 
#    0.000   17.333    0.000    0.000    0.000    0.000 
#    0.000    0.000    0.000    0.000    0.000    0.000 
#
# Total GULP energy -83580.646322 kJ/mol
# GULP energy per Si atom -5572.043088 kJ/mol
# Density = 2.519085 g / cm^3
# Si number density = 25.248321 Si / 1000 Ang^3
#
#
#
# Elastic Constant Matrix: (Units=GPa)
#
#
# Indices 1 2 3 4 5 6 
#
# 1 96.8782 39.4796 27.9586 -1.8569 23.8254 53.9222
# 2 39.4796 114.3237 22.1688 12.1418 19.7663 35.1995
# 3 27.9586 22.1688 87.7148 0.6065 29.7705 13.9732
# 4 -1.8569 12.1418 0.6065 30.5867 6.0334 1.4895
# 5 23.8254 19.7663 29.7705 6.0334 43.5045 9.5189
# 6 53.9222 35.1995 13.9732 1.4895 9.5189 46.1650
#
#
#
# Elastic Compliance Matrix: (Units=1/GPa)
#
#
# Indices 1 2 3 4 5 6 
#
# 1 0.034804 0.001722 -0.001589 0.005530 -0.010898 -0.039415
# 2 0.001722 0.012506 -0.000935 -0.003704 -0.003177 -0.010489
# 3 -0.001589 -0.000935 0.015362 0.001840 -0.009430 -0.000196
# 4 0.005530 -0.003704 0.001840 0.035984 -0.006727 -0.003966
# 5 -0.010898 -0.003177 -0.009430 -0.006727 0.035393 0.010925
# 6 -0.039415 -0.010489 -0.000196 -0.003966 0.010925 0.073632
#
#
# Mechanical properties :
#
#
# Convention : Reuss Voigt Hill
#
# Bulk Modulus (GPa) = 16.37530 53.12564 34.75047
# Shear Modulus (GPa) = 21.77316 38.00522 29.88919
#
# Velocity S-wave (km/s) = 2.93978 3.88397 3.44439
# Velocity P-wave (km/s) = 4.24534 6.41877 5.44167
#
# Compressibility (1/GPa) = 0.06106757
#
# Stress axis : x y z
#
# Youngs Moduli (GPa) = 28.73268 79.96226 65.09412
#
# Poissons Ratio (x) = -0.13769 0.10345
# Poissons Ratio (y) = -0.04947 0.06085
# Poissons Ratio (z) = 0.04566 0.07475
#
# Static dielectric constant tensor:
#      x y z
#    x 2.012660 -0.052730 -0.019210 
#    y -0.052730 1.999090 -0.002410 
#    z -0.019210 -0.002410 2.151820 
# 
# From -- ./inp_files/123581.got.cif
#   From: 2010.05.17/outbox.cif.g08.bks.cpg/sg2_62_cif.got.tgz:123581.got - 2010.06.03 11:33:40.
