data_PCOD9101621
_publ_section_title
;
Structure prediction by ZEFSAII (Michael W. Deem and Ramdas Pophale) SiO2 
 PCOD9101621
Probable space group: P -1
;
_chemical_formula_sum "Si O2"
_cell_formula_units_Z 14
_cell_length_a 12.823099
_cell_length_b 8.317051
_cell_length_c 10.906683
_cell_angle_alpha 93.974383
_cell_angle_beta 49.750750
_cell_angle_gamma 126.293011
_cell_volume 615.930837
_symmetry_space_group_name_H-M "P -1"
_symmetry_group_IT_number 2
_symmetry_cell_setting 'triclinic'
loop_
_space_group_symop_operation_xyz
x,y,z
-x,-y,-z
loop_
_atom_site_type_symbol
_atom_site_label
_atom_site_fract_x
_atom_site_fract_y
_atom_site_fract_z
Si Si1 0.198199 0.449066 0.674722
Si Si2 0.208397 0.736417 0.501012
Si Si3 0.903429 0.955661 0.940847
Si Si4 0.246674 0.708933 0.197730
Si Si5 0.416164 0.536688 0.955710
Si Si6 0.781386 0.182355 0.027779
Si Si7 0.498161 0.766474 0.662654
O O1 0.253753 0.604903 0.524920
O O2 0.382327 0.584275 0.630787
O O3 0.077351 0.180652 0.736771
O O4 0.018884 0.401700 0.870946
O O5 0.290190 0.806251 0.304713
O O6 0.975480 0.547533 0.652846
O O7 0.306475 0.969897 0.507447
O O8 0.750471 0.973537 0.082853
O O9 0.786229 0.713664 0.953687
O O10 0.000000 0.000000 0.000000
O O11 0.379944 0.676739 0.052979
O O12 0.252845 0.845740 0.094049
O O13 0.500000 0.500000 0.000000
O O14 0.529681 0.674724 0.749574
O O15 0.653197 0.215929 0.182978
#
# Coordination Sequence:
#
# PCOD9101621 Si02
#       7
#     2   2   2   2   2   2   2
#     4   9  19  36  57  85 116 154 195 238 293 347
#     4  10  21  36  61  85 117 153 199 242 285 352
#     4  10  20  38  60  85 122 150 190 239 304 344
#     4   9  21  40  58  84 116 160 197 231 296 351
#     4  11  24  37  62  92 118 151 199 249 292 343
#     4   8  19  33  62  82 109 151 202 239 282 337
#     4  11  20  35  61  90 112 150 204 251 282 342
#
# _framework density 22.729825000000002
#
# number of rings (size 3 to 8) (size 9 to 14) (size 15 to 20)
#    0.857    1.429    1.429    0.857    4.000    2.286 
#    0.000    2.857    0.000    2.571    0.000    0.000 
#    0.000    0.000    0.000    0.000    0.000    0.000 
#
# Total GULP energy -78067.964082 kJ/mol
# GULP energy per Si atom -5576.283149 kJ/mol
# Density = 2.267809 g / cm^3
# Si number density = 22.729825 Si / 1000 Ang^3
#
#
#
# Elastic Constant Matrix: (Units=GPa)
#
#
# Indices 1 2 3 4 5 6 
#
# 1 105.0844 10.1276 8.2918 -6.1075 10.9649 -2.8358
# 2 10.1276 84.0952 11.0129 -35.8822 -1.2333 18.5630
# 3 8.2918 11.0129 32.4505 -22.7068 2.2396 6.8522
# 4 -6.1075 -35.8822 -22.7068 39.0142 -3.3244 -3.5500
# 5 10.9649 -1.2333 2.2396 -3.3244 18.7208 -10.2647
# 6 -2.8358 18.5630 6.8522 -3.5500 -10.2647 31.3634
#
#
#
# Elastic Compliance Matrix: (Units=1/GPa)
#
#
# Indices 1 2 3 4 5 6 
#
# 1 0.010520 -0.002499 -0.004027 -0.003409 -0.005906 0.000991
# 2 -0.002499 0.029053 0.020220 0.036153 -0.002866 -0.018685
# 3 -0.004027 0.020220 0.069390 0.055529 -0.007772 -0.023750
# 4 -0.003409 0.036153 0.055529 0.088557 0.000492 -0.023653
# 5 -0.005906 -0.002866 -0.007772 0.000492 0.072272 0.026569
# 6 0.000991 -0.018685 -0.023750 -0.023653 0.026569 0.054240
#
#
# Mechanical properties :
#
#
# Convention : Reuss Voigt Hill
#
# Bulk Modulus (GPa) = 7.33409 31.16608 19.25009
# Shear Modulus (GPa) = 14.61587 30.63288 22.62437
#
# Velocity S-wave (km/s) = 2.53855 3.67508 3.15836
# Velocity P-wave (km/s) = 3.43889 5.63468 4.66774
#
# Compressibility (1/GPa) = 0.13634956
#
# Stress axis : x y z
#
# Youngs Moduli (GPa) = 95.05995 34.42020 14.41132
#
# Poissons Ratio (x) = 0.08603 0.05803
# Poissons Ratio (y) = 0.23759 -0.29139
# Poissons Ratio (z) = 0.38277 -0.69596
#
# Static dielectric constant tensor:
#      x y z
#    x 1.873130 0.010610 -0.004460 
#    y 0.010610 1.851850 -0.017490 
#    z -0.004460 -0.017490 1.912790 
# 
# From -- ./inp_files/414132.got.cif
#   From: 2010.05.17/outbox.cif.g08.bks.cpg/sg2_208_cif.got.tgz:414132.got - 2010.06.03 11:33:40.
