data_PCOD9101949
_publ_section_title
;
Structure prediction by ZEFSAII (Michael W. Deem and Ramdas Pophale) SiO2 
 PCOD9101949
Probable space group: P -1
;
_chemical_formula_sum "Si O2"
_cell_formula_units_Z 14
_cell_length_a 12.310144
_cell_length_b 9.183379
_cell_length_c 14.471490
_cell_angle_alpha 111.281262
_cell_angle_beta 29.825489
_cell_angle_gamma 125.373946
_cell_volume 623.103575
_symmetry_space_group_name_H-M "P -1"
_symmetry_group_IT_number 2
_symmetry_cell_setting 'triclinic'
loop_
_space_group_symop_operation_xyz
x,y,z
-x,-y,-z
loop_
_atom_site_type_symbol
_atom_site_label
_atom_site_fract_x
_atom_site_fract_y
_atom_site_fract_z
Si Si1 0.847258 0.373913 0.204086
Si Si2 0.881450 0.859871 0.696469
Si Si3 0.142852 0.280681 0.520234
Si Si4 0.566662 0.041363 0.667580
Si Si5 0.271604 0.393635 0.777664
Si Si6 0.421678 0.850630 0.106634
Si Si7 0.495478 0.819565 0.428039
O O1 0.845356 0.548226 0.204928
O O2 0.768127 0.341937 0.361215
O O3 0.613315 0.180062 0.279932
O O4 0.109228 0.387855 0.984805
O O5 0.123690 0.862020 0.560856
O O6 0.801806 0.749447 0.632802
O O7 0.024967 0.081835 0.614210
O O8 0.621990 0.788758 0.931463
O O9 0.420296 0.441161 0.396523
O O10 0.894782 0.298771 0.702661
O O11 0.534859 0.055702 0.803179
O O12 0.490923 0.158725 0.687217
O O13 0.274916 0.208630 0.717707
O O14 0.500000 0.000000 0.000000
O O15 0.500000 0.000000 0.500000
#
# Coordination Sequence:
#
# PCOD9101949 Si02
#       7
#     2   2   2   2   2   2   2
#     4  10  23  40  62  93 120 163 205 252 305 353
#     4   9  17  34  57  88 120 152 195 247 303 355
#     4   9  18  34  58  88 122 149 197 255 295 354
#     4  10  20  38  61  88 123 156 202 247 297 366
#     4  11  22  40  63  92 126 156 206 258 297 360
#     4   9  19  33  60  95 114 155 200 246 303 356
#     4  10  24  42  60  85 126 169 203 244 304 366
#
# _framework density 22.468177000000001
#
# number of rings (size 3 to 8) (size 9 to 14) (size 15 to 20)
#    0.000    2.286    1.429    1.286    0.000    6.857 
#    7.714    2.857    0.000    5.143    0.000    0.000 
#    0.000    0.000    0.000    0.000    0.000    0.000 
#
# Total GULP energy -78102.094534 kJ/mol
# GULP energy per Si atom -5578.721038 kJ/mol
# Density = 2.241704 g / cm^3
# Si number density = 22.468177 Si / 1000 Ang^3
#
#
#
# Elastic Constant Matrix: (Units=GPa)
#
#
# Indices 1 2 3 4 5 6 
#
# 1 57.2155 27.9088 23.1092 0.4379 19.8196 -8.6337
# 2 27.9088 67.4701 35.7868 23.9006 0.3990 -10.2173
# 3 23.1092 35.7868 140.6479 29.1729 -2.9076 -5.3696
# 4 0.4379 23.9006 29.1729 21.0562 -6.3666 -7.3512
# 5 19.8196 0.3990 -2.9076 -6.3666 30.1501 -4.2168
# 6 -8.6337 -10.2173 -5.3696 -7.3512 -4.2168 32.6641
#
#
#
# Elastic Compliance Matrix: (Units=1/GPa)
#
#
# Indices 1 2 3 4 5 6 
#
# 1 0.037882 -0.021566 -0.007191 0.030555 -0.017928 0.006647
# 2 -0.021566 0.038410 0.003799 -0.048686 0.003251 -0.003599
# 3 -0.007191 0.003799 0.011608 -0.021203 0.000834 -0.003469
# 4 0.030555 -0.048686 -0.021203 0.143198 0.011988 0.023137
# 5 -0.017928 0.003251 0.000834 0.011988 0.048269 0.005345
# 6 0.006647 -0.003599 -0.003469 0.023137 0.005345 0.036573
#
#
# Mechanical properties :
#
#
# Convention : Reuss Voigt Hill
#
# Bulk Modulus (GPa) = 26.32899 48.77143 37.55021
# Shear Modulus (GPa) = 13.20944 28.67600 20.94272
#
# Velocity S-wave (km/s) = 2.42733 3.57640 3.05635
# Velocity P-wave (km/s) = 4.42716 6.22962 5.40407
#
# Compressibility (1/GPa) = 0.03798095
#
# Stress axis : x y z
#
# Youngs Moduli (GPa) = 26.39805 26.03501 86.14952
#
# Poissons Ratio (x) = 0.56148 0.61952
# Poissons Ratio (y) = 0.56931 -0.32725
# Poissons Ratio (z) = 0.18983 -0.09890
#
# Static dielectric constant tensor:
#      x y z
#    x 1.904470 -0.010820 -0.012480 
#    y -0.010820 1.902480 0.029110 
#    z -0.012480 0.029110 1.845260 
# 
# From -- ./inp_files/515739.got.cif
#   From: 2010.05.17/outbox.cif.g08.bks.cpg/sg2_258_cif.got.tgz:515739.got - 2010.06.03 11:33:40.
