data_PCOD9101717
_publ_section_title
;
Structure prediction by ZEFSAII (Michael W. Deem and Ramdas Pophale) SiO2 
 PCOD9101717
Probable space group: P -1
;
_chemical_formula_sum "Si O2"
_cell_formula_units_Z 16
_cell_length_a 17.837727
_cell_length_b 24.873673
_cell_length_c 5.461271
_cell_angle_alpha 86.420215
_cell_angle_beta 73.342071
_cell_angle_gamma 19.946912
_cell_volume 612.818542
_symmetry_space_group_name_H-M "P -1"
_symmetry_group_IT_number 2
_symmetry_cell_setting 'triclinic'
loop_
_space_group_symop_operation_xyz
x,y,z
-x,-y,-z
loop_
_atom_site_type_symbol
_atom_site_label
_atom_site_fract_x
_atom_site_fract_y
_atom_site_fract_z
Si Si1 0.059905 0.993906 0.192263
Si Si2 0.405459 0.364609 0.900187
Si Si3 0.131323 0.130053 0.736367
Si Si4 0.215804 0.382131 0.027457
Si Si5 0.720147 0.315355 0.191235
Si Si6 0.725256 0.467838 0.386544
Si Si7 0.850755 0.772344 0.571286
Si Si8 0.356941 0.201855 0.288540
O O1 0.413223 0.764484 0.984355
O O2 0.000000 0.000000 0.500000
O O3 0.929215 0.140580 0.223051
O O4 0.000000 0.000000 0.000000
O O5 0.492711 0.354931 0.639539
O O6 0.401736 0.309698 0.785684
O O7 0.074191 0.604233 0.198703
O O8 0.194746 0.135018 0.480525
O O9 0.438099 0.915740 0.647695
O O10 0.932086 0.209602 0.845953
O O11 0.929534 0.292328 0.089450
O O12 0.412863 0.205017 0.012307
O O13 0.987988 0.558313 0.392363
O O14 0.000000 0.500000 0.000000
O O15 0.500000 0.500000 0.500000
O O16 0.486612 0.426772 0.266049
O O17 0.947614 0.360519 0.340430
O O18 0.609592 0.884655 0.767242
#
# Coordination Sequence:
#
# PCOD9101717 Si02
#       8
#     2   2   2   2   2   2   2   2
#     4  12  25  46  71 105 139 186 238 292 349 423
#     4  10  21  38  63  90 128 164 223 276 336 406
#     4  10  22  38  58  88 125 162 213 270 336 405
#     4  10  21  38  61  86 119 166 209 273 343 405
#     4  10  22  44  64  94 138 175 225 279 348 410
#     4  10  20  38  60  89 122 167 214 262 338 405
#     4  10  21  37  61  87 120 170 209 275 335 409
#     4  10  21  38  56  86 122 152 219 268 332 404
#
# _framework density 26.108874
#
# number of rings (size 3 to 8) (size 9 to 14) (size 15 to 20)
#    0.000    1.750    1.250    2.625    0.000    2.000 
#    6.750    0.000    0.000    0.000    0.000    0.000 
#    0.000    0.000    0.000    0.000    0.000    0.000 
#
# Total GULP energy -89305.431098 kJ/mol
# GULP energy per Si atom -5581.589444 kJ/mol
# Density = 2.604945 g / cm^3
# Si number density = 26.108874 Si / 1000 Ang^3
#
#
#
# Elastic Constant Matrix: (Units=GPa)
#
#
# Indices 1 2 3 4 5 6 
#
# 1 116.2025 28.0749 23.5631 -4.6003 -20.3498 4.6602
# 2 28.0749 149.1152 23.8569 -7.3675 -5.6855 18.1364
# 3 23.5631 23.8569 71.3349 -1.4399 -17.7286 16.7270
# 4 -4.6003 -7.3675 -1.4399 37.0012 1.5695 6.6020
# 5 -20.3498 -5.6855 -17.7286 1.5695 41.1049 -3.2570
# 6 4.6602 18.1364 16.7270 6.6020 -3.2570 51.1537
#
#
#
# Elastic Compliance Matrix: (Units=1/GPa)
#
#
# Indices 1 2 3 4 5 6 
#
# 1 0.010049 -0.001448 -0.001934 0.000647 0.003947 0.000398
# 2 -0.001448 0.007579 -0.001643 0.001698 -0.000623 -0.002277
# 3 -0.001934 -0.001643 0.017863 0.000722 0.006113 -0.004786
# 4 0.000647 0.001698 0.000722 0.028316 -0.000578 -0.004588
# 5 0.003947 -0.000623 0.006113 -0.000578 0.028836 -0.000227
# 6 0.000398 -0.002277 -0.004786 -0.004588 -0.000227 0.022463
#
#
# Mechanical properties :
#
#
# Convention : Reuss Voigt Hill
#
# Bulk Modulus (GPa) = 39.30923 54.18250 46.74587
# Shear Modulus (GPa) = 37.41504 43.26246 40.33875
#
# Velocity S-wave (km/s) = 3.78966 4.07505 3.93494
# Velocity P-wave (km/s) = 5.85126 6.55278 6.21193
#
# Compressibility (1/GPa) = 0.02543932
#
# Stress axis : x y z
#
# Youngs Moduli (GPa) = 99.51523 131.94689 55.98237
#
# Poissons Ratio (x) = 0.19112 0.10828
# Poissons Ratio (y) = 0.14414 0.09197
# Poissons Ratio (z) = 0.19249 0.21676
#
# Static dielectric constant tensor:
#      x y z
#    x 2.160560 -0.010570 -0.123230 
#    y -0.010570 2.109070 0.108290 
#    z -0.123230 0.108290 2.226510 
# 
# From -- ./inp_files/94404.got.cif
#   From: 2010.05.17/outbox.cif.g08.bks.cpg/sg2_48_cif.got.tgz:94404.got - 2010.06.03 11:33:40.
