data_PCOD9101854
_publ_section_title
;
Structure prediction by ZEFSAII (Michael W. Deem and Ramdas Pophale) SiO2 
 PCOD9101854
Probable space group: P -1
;
_chemical_formula_sum "Si O2"
_cell_formula_units_Z 16
_cell_length_a 16.021877
_cell_length_b 14.329788
_cell_length_c 12.733336
_cell_angle_alpha 35.299879
_cell_angle_beta 25.993925
_cell_angle_gamma 37.930715
_cell_volume 722.608533
_symmetry_space_group_name_H-M "P -1"
_symmetry_group_IT_number 2
_symmetry_cell_setting 'triclinic'
loop_
_space_group_symop_operation_xyz
x,y,z
-x,-y,-z
loop_
_atom_site_type_symbol
_atom_site_label
_atom_site_fract_x
_atom_site_fract_y
_atom_site_fract_z
Si Si1 0.918408 0.561603 0.168997
Si Si2 0.135275 0.380457 0.592391
Si Si3 0.034484 0.832919 0.182068
Si Si4 0.503679 0.787428 0.403666
Si Si5 0.837013 0.205383 0.384226
Si Si6 0.925962 0.271934 0.567195
Si Si7 0.251114 0.941889 0.165768
Si Si8 0.544540 0.171878 0.331285
O O1 0.919464 0.662657 0.186914
O O2 0.691299 0.628636 0.331296
O O3 0.982901 0.369403 0.310465
O O4 0.074413 0.628866 0.860830
O O5 0.106595 0.574877 0.456773
O O6 0.359572 0.309622 0.383593
O O7 0.024692 0.300839 0.704203
O O8 0.942368 0.856228 0.382708
O O9 0.265148 0.799118 0.965408
O O10 0.000000 0.000000 0.000000
O O11 0.323233 0.774085 0.545564
O O12 0.439809 0.815592 0.571578
O O13 0.595171 0.943528 0.123936
O O14 0.737586 0.151644 0.650387
O O15 0.033956 0.059560 0.287326
O O16 0.749455 0.196140 0.795114
O O17 0.500000 0.000000 0.500000
#
# Coordination Sequence:
#
# PCOD9101854 Si02
#       8
#     2   2   2   2   2   2   2   2
#     4   8  20  39  58  79 123 154 189 243 296 342
#     4   9  21  41  53  84 121 154 190 242 292 344
#     4  12  23  36  64  86 117 158 201 239 288 357
#     4  10  20  38  61  84 117 153 202 245 291 347
#     4  10  20  38  65  87 112 159 201 241 300 349
#     4  10  23  40  56  85 128 154 189 253 297 343
#     4  10  22  38  60  91 120 149 196 255 293 346
#     4  11  21  35  60  86 112 154 196 239 291 342
#
# _framework density 22.142002000000002
#
# number of rings (size 3 to 8) (size 9 to 14) (size 15 to 20)
#    0.750    1.250    1.250    2.250    5.250    1.000 
#    0.000    3.125    0.000    0.000    0.000    0.000 
#    0.000    0.000    0.000    0.000    0.000    0.000 
#
# Total GULP energy -89096.749642 kJ/mol
# GULP energy per Si atom -5568.546853 kJ/mol
# Density = 2.209161 g / cm^3
# Si number density = 22.142002 Si / 1000 Ang^3
#
#
#
# Elastic Constant Matrix: (Units=GPa)
#
#
# Indices 1 2 3 4 5 6 
#
# 1 117.0559 12.1573 33.1978 -0.9354 -7.3920 -8.7034
# 2 12.1573 16.7716 3.6423 -5.0241 3.8721 -1.4469
# 3 33.1978 3.6423 100.7067 -13.3612 3.8650 -11.4378
# 4 -0.9354 -5.0241 -13.3612 27.3219 -0.6690 1.4160
# 5 -7.3920 3.8721 3.8650 -0.6690 41.7168 -6.5928
# 6 -8.7034 -1.4469 -11.4378 1.4160 -6.5928 18.9379
#
#
#
# Elastic Compliance Matrix: (Units=1/GPa)
#
#
# Indices 1 2 3 4 5 6 
#
# 1 0.010869 -0.008532 -0.003376 -0.002955 0.003579 0.003772
# 2 -0.008532 0.071265 0.002264 0.013770 -0.008277 -0.001020
# 3 -0.003376 0.002264 0.012408 0.006068 -0.001022 0.005306
# 4 -0.002955 0.013770 0.006068 0.041976 -0.001752 -0.000390
# 5 0.003579 -0.008277 -0.001022 -0.001752 0.027009 0.009929
# 6 0.003772 -0.001020 0.005306 -0.000390 0.009929 0.061150
#
#
# Mechanical properties :
#
#
# Convention : Reuss Voigt Hill
#
# Bulk Modulus (GPa) = 13.28822 36.94767 25.11794
# Shear Modulus (GPa) = 18.58391 29.96446 24.27419
#
# Velocity S-wave (km/s) = 2.90022 3.68269 3.31463
# Velocity P-wave (km/s) = 4.15083 5.89965 5.10075
#
# Compressibility (1/GPa) = 0.07525463
#
# Stress axis : x y z
#
# Youngs Moduli (GPa) = 92.00291 14.03210 80.59539
#
# Poissons Ratio (x) = 0.11972 0.27205
# Poissons Ratio (y) = 0.78497 -0.18246
# Poissons Ratio (z) = 0.31056 -0.03177
#
# Static dielectric constant tensor:
#      x y z
#    x 1.908440 -0.023340 0.112610 
#    y -0.023340 1.891630 -0.027100 
#    z 0.112610 -0.027100 1.772390 
# 
# From -- ./inp_files/455439.got.cif
#   From: 2010.05.17/outbox.cif.g08.bks.cpg/sg2_228_cif.got.tgz:455439.got - 2010.06.03 11:33:40.
