data_PCOD9101283
_publ_section_title
;
Structure prediction by ZEFSAII (Michael W. Deem and Ramdas Pophale) SiO2 
 PCOD9101283
Probable space group: P -1
;
_chemical_formula_sum "Si O2"
_cell_formula_units_Z 12
_cell_length_a 11.387285
_cell_length_b 10.930549
_cell_length_c 10.646455
_cell_angle_alpha 40.435642
_cell_angle_beta 143.227843
_cell_angle_gamma 130.894655
_cell_volume 511.054185
_symmetry_space_group_name_H-M "P -1"
_symmetry_group_IT_number 2
_symmetry_cell_setting 'triclinic'
loop_
_space_group_symop_operation_xyz
x,y,z
-x,-y,-z
loop_
_atom_site_type_symbol
_atom_site_label
_atom_site_fract_x
_atom_site_fract_y
_atom_site_fract_z
Si Si1 0.115221 0.647026 0.352839
Si Si2 0.162123 0.259966 0.547315
Si Si3 0.471685 0.941862 0.377927
Si Si4 0.162802 0.072471 0.454060
Si Si5 0.567377 0.219692 0.031910
Si Si6 0.279884 0.503077 0.858850
O O1 0.120844 0.447680 0.439766
O O2 0.276819 0.796386 0.311356
O O3 0.186495 0.626382 0.573877
O O4 0.885033 0.678405 0.132561
O O5 0.117144 0.240764 0.374661
O O6 0.397823 0.258544 0.762989
O O7 0.026747 0.073525 0.632992
O O8 0.675389 0.868979 0.559530
O O9 0.500000 0.000000 0.500000
O O10 0.455411 0.121610 0.134732
O O11 0.285837 0.933860 0.755149
O O12 0.693312 0.402351 0.055477
O O13 0.500000 0.500000 0.000000
#
# Coordination Sequence:
#
# PCOD9101283 Si02
#       6
#     2   2   2   2   2   2
#     4  11  21  36  58  85 116 150 191 236 285 337
#     4  11  20  38  66  82 109 160 199 228 277 344
#     4  10  21  38  56  84 128 145 181 245 291 331
#     4   9  22  39  59  85 119 149 194 237 282 336
#     4  10  20  38  58  85 113 152 191 233 283 339
#     4  11  21  36  59  85 112 152 196 234 278 345
#
# _framework density 23.480875000000001
#
# number of rings (size 3 to 8) (size 9 to 14) (size 15 to 20)
#    1.000    0.667    5.000    0.500    2.333    0.667 
#    3.000    1.667    0.000    3.000    0.000    0.000 
#    0.000    0.000    0.000    0.000    0.000    0.000 
#
# Total GULP energy -66876.953539 kJ/mol
# GULP energy per Si atom -5573.079462 kJ/mol
# Density = 2.342743 g / cm^3
# Si number density = 23.480875 Si / 1000 Ang^3
#
#
#
# Elastic Constant Matrix: (Units=GPa)
#
#
# Indices 1 2 3 4 5 6 
#
# 1 102.1644 35.7649 0.2847 16.7535 17.7680 -0.5233
# 2 35.7649 115.6692 23.6736 42.9114 7.1967 4.8377
# 3 0.2847 23.6736 70.7735 31.9577 20.5257 7.9562
# 4 16.7535 42.9114 31.9577 36.6951 9.3696 12.4689
# 5 17.7680 7.1967 20.5257 9.3696 29.4814 9.6469
# 6 -0.5233 4.8377 7.9562 12.4689 9.6469 51.2813
#
#
#
# Elastic Compliance Matrix: (Units=1/GPa)
#
#
# Indices 1 2 3 4 5 6 
#
# 1 0.013934 -0.002006 0.007545 -0.008832 -0.011490 0.003470
# 2 -0.002006 0.017372 0.005047 -0.025084 0.000245 0.003611
# 3 0.007545 0.005047 0.033652 -0.035868 -0.020059 0.006874
# 4 -0.008832 -0.025084 -0.035868 0.094713 0.012027 -0.017451
# 5 -0.011490 0.000245 -0.020059 0.012027 0.054251 -0.010158
# 6 0.003470 0.003611 0.006874 -0.017451 -0.010158 0.024283
#
#
# Mechanical properties :
#
#
# Convention : Reuss Voigt Hill
#
# Bulk Modulus (GPa) = 11.61057 45.33926 28.47492
# Shear Modulus (GPa) = 20.34641 38.75049 29.54845
#
# Velocity S-wave (km/s) = 2.94685 4.06680 3.55125
# Velocity P-wave (km/s) = 4.06620 6.43449 5.38222
#
# Compressibility (1/GPa) = 0.08612841
#
# Stress axis : x y z
#
# Youngs Moduli (GPa) = 71.76814 57.56314 29.71600
#
# Poissons Ratio (x) = 0.11550 -0.22421
# Poissons Ratio (y) = 0.14400 -0.14996
# Poissons Ratio (z) = -0.54150 -0.29049
#
# Static dielectric constant tensor:
#      x y z
#    x 1.960890 -0.014560 0.045190 
#    y -0.014560 1.942050 -0.034460 
#    z 0.045190 -0.034460 1.932930 
# 
# From -- ./inp_files/123464.got.cif
#   From: 2010.05.17/outbox.cif.g08.bks.cpg/sg2_62_cif.got.tgz:123464.got - 2010.06.03 11:33:40.
