data_PCOD9101230
_publ_section_title
;
Structure prediction by ZEFSAII (Michael W. Deem and Ramdas Pophale) SiO2 
 PCOD9101230
Probable space group: P -1
;
_chemical_formula_sum "Si O2"
_cell_formula_units_Z 16
_cell_length_a 12.494138
_cell_length_b 5.106464
_cell_length_c 15.132924
_cell_angle_alpha 102.199473
_cell_angle_beta 46.714540
_cell_angle_gamma 110.337327
_cell_volume 658.500815
_symmetry_space_group_name_H-M "P -1"
_symmetry_group_IT_number 2
_symmetry_cell_setting 'triclinic'
loop_
_space_group_symop_operation_xyz
x,y,z
-x,-y,-z
loop_
_atom_site_type_symbol
_atom_site_label
_atom_site_fract_x
_atom_site_fract_y
_atom_site_fract_z
Si Si1 0.897949 0.110586 0.997398
Si Si2 0.303246 0.791609 0.735595
Si Si3 0.050931 0.904341 0.586906
Si Si4 0.836175 0.804807 0.273315
Si Si5 0.601689 0.213378 0.884871
Si Si6 0.661392 0.553622 0.024043
Si Si7 0.538332 0.800378 0.743969
Si Si8 0.186670 0.419541 0.423081
O O1 0.010316 0.233959 0.862662
O O2 0.814897 0.278925 0.119199
O O3 0.772864 0.841416 0.011888
O O4 0.000000 0.000000 0.000000
O O5 0.273237 0.509913 0.674971
O O6 0.468058 0.873892 0.697702
O O7 0.256870 0.032176 0.724276
O O8 0.156485 0.713227 0.480084
O O9 0.881356 0.707085 0.642996
O O10 0.100528 0.004430 0.664381
O O11 0.085015 0.190857 0.532529
O O12 0.493521 0.381352 0.915415
O O13 0.637745 0.046706 0.769269
O O14 0.723003 0.415538 0.895910
O O15 0.500000 0.000000 0.000000
O O16 0.605700 0.346230 0.121981
O O17 0.641832 0.592441 0.658680
#
# Coordination Sequence:
#
# PCOD9101230 Si02
#       8
#     2   2   2   2   2   2   2   2
#     4  10  21  39  61  93 130 177 209 254 313 384
#     4  11  23  41  63  98 133 171 217 259 314 398
#     4  10  23  48  66  96 126 160 225 274 315 393
#     4  11  24  42  68  91 132 177 216 267 320 372
#     4   9  20  35  55  86 127 162 208 262 309 378
#     4  10  20  38  57  90 131 167 214 262 305 396
#     4  11  22  39  65  91 130 173 208 266 337 378
#     4  10  24  44  72  93 125 168 212 276 336 372
#
# _framework density 24.297613999999999
#
# number of rings (size 3 to 8) (size 9 to 14) (size 15 to 20)
#    0.000    1.750    1.250    2.625    1.750    4.000 
#    9.000    3.750    0.000    0.000    0.000    0.000 
#    0.000    0.000    0.000    0.000    0.000    0.000 
#
# Total GULP energy -89365.529591 kJ/mol
# GULP energy per Si atom -5585.345599 kJ/mol
# Density = 2.424231 g / cm^3
# Si number density = 24.297614 Si / 1000 Ang^3
#
#
#
# Elastic Constant Matrix: (Units=GPa)
#
#
# Indices 1 2 3 4 5 6 
#
# 1 117.7694 9.3513 22.3980 19.7881 7.4033 3.8978
# 2 9.3513 92.7834 18.9992 29.1384 10.7075 15.9124
# 3 22.3980 18.9992 34.2805 12.8850 6.9514 12.8080
# 4 19.7881 29.1384 12.8850 34.1984 -0.3435 11.6173
# 5 7.4033 10.7075 6.9514 -0.3435 27.7684 9.7249
# 6 3.8978 15.9124 12.8080 11.6173 9.7249 49.5672
#
#
#
# Elastic Compliance Matrix: (Units=1/GPa)
#
#
# Indices 1 2 3 4 5 6 
#
# 1 0.010659 0.002175 -0.005882 -0.006553 -0.003029 0.002114
# 2 0.002175 0.016421 -0.004134 -0.013768 -0.006062 0.000042
# 3 -0.005882 -0.004134 0.041115 -0.006461 -0.004989 -0.006341
# 4 -0.006553 -0.013768 -0.006461 0.049833 0.011884 -0.007406
# 5 -0.003029 -0.006062 -0.004989 0.011884 0.043286 -0.007804
# 6 0.002114 0.000042 -0.006341 -0.007406 -0.007804 0.024901
#
#
# Mechanical properties :
#
#
# Convention : Reuss Voigt Hill
#
# Bulk Modulus (GPa) = 19.04265 38.48116 28.76190
# Shear Modulus (GPa) = 22.78934 35.24579 29.01756
#
# Velocity S-wave (km/s) = 3.06588 3.81279 3.45955
# Velocity P-wave (km/s) = 4.51521 5.93759 5.27456
#
# Compressibility (1/GPa) = 0.05251371
#
# Stress axis : x y z
#
# Youngs Moduli (GPa) = 93.82039 60.89697 24.32209
#
# Poissons Ratio (x) = -0.13247 0.14306
# Poissons Ratio (y) = -0.20409 0.10054
# Poissons Ratio (z) = 0.55185 0.25173
#
# Static dielectric constant tensor:
#      x y z
#    x 1.918850 0.022320 -0.003110 
#    y 0.022320 1.972070 0.008400 
#    z -0.003110 0.008400 1.999260 
# 
# From -- ./inp_files/366952.got.cif
#   From: 2010.05.17/outbox.cif.g08.bks.cpg/sg2_184_cif.got.tgz:366952.got - 2010.06.03 11:33:40.
