data_PCOD9101220
_publ_section_title
;
Structure prediction by ZEFSAII (Michael W. Deem and Ramdas Pophale) SiO2 
 PCOD9101220
Probable space group: P -1
;
_chemical_formula_sum "Si O2"
_cell_formula_units_Z 16
_cell_length_a 23.370924
_cell_length_b 14.805684
_cell_length_c 14.470630
_cell_angle_alpha 160.620645
_cell_angle_beta 149.613968
_cell_angle_gamma 28.864577
_cell_volume 780.974995
_symmetry_space_group_name_H-M "P -1"
_symmetry_group_IT_number 2
_symmetry_cell_setting 'triclinic'
loop_
_space_group_symop_operation_xyz
x,y,z
-x,-y,-z
loop_
_atom_site_type_symbol
_atom_site_label
_atom_site_fract_x
_atom_site_fract_y
_atom_site_fract_z
Si Si1 0.658232 0.970018 0.383865
Si Si2 0.958102 0.724473 0.746023
Si Si3 0.408135 0.834124 0.713901
Si Si4 0.620361 0.986576 0.951056
Si Si5 0.346925 0.492202 0.597644
Si Si6 0.802729 0.315963 0.996732
Si Si7 0.743837 0.621719 0.446172
Si Si8 0.412580 0.704591 0.153136
O O1 0.678983 0.029244 0.362260
O O2 0.690379 0.224798 0.723292
O O3 0.522779 0.966983 0.198498
O O4 0.746331 0.668783 0.261135
O O5 0.875072 0.612351 0.587870
O O6 0.000000 0.500000 0.500000
O O7 0.877394 0.053293 0.917823
O O8 0.085794 0.731090 0.966863
O O9 0.500000 0.500000 0.500000
O O10 0.349291 0.912357 0.808789
O O11 0.500000 0.000000 0.000000
O O12 0.649893 0.194087 0.118916
O O13 0.682384 0.661530 0.681898
O O14 0.266146 0.491986 0.574388
O O15 0.487900 0.307007 0.642939
O O16 0.655682 0.961685 0.648416
O O17 0.687629 0.447165 0.128555
O O18 0.500000 0.500000 0.000000
#
# Coordination Sequence:
#
# PCOD9101220 Si02
#       8
#     2   2   2   2   2   2   2   2
#     4  11  22  37  60  85 117 153 188 230 299 347
#     4  11  26  42  58  83 119 149 208 257 290 327
#     4  10  20  38  57  88 121 153 184 235 294 355
#     4  11  22  34  58  87 123 148 187 231 280 360
#     4  11  21  35  51  86 113 156 194 224 280 358
#     4  11  24  39  57  86 110 152 200 243 292 335
#     4  11  24  37  57  76 118 159 193 246 294 328
#     4  10  21  36  52  80 114 156 195 233 273 347
#
# _framework density 20.487212
#
# number of rings (size 3 to 8) (size 9 to 14) (size 15 to 20)
#    0.000    1.250    1.250    7.500    8.750    0.000 
#    0.000    0.000    0.000    0.000    0.000    5.250 
#    0.000    0.000    0.000    0.000    0.000    0.000 
#
# Total GULP energy -89159.558902 kJ/mol
# GULP energy per Si atom -5572.472431 kJ/mol
# Density = 2.044058 g / cm^3
# Si number density = 20.487212 Si / 1000 Ang^3
#
#
#
# Elastic Constant Matrix: (Units=GPa)
#
#
# Indices 1 2 3 4 5 6 
#
# 1 123.7258 26.8446 33.9829 -2.3575 18.1647 -5.0603
# 2 26.8446 24.8930 12.2024 10.0839 0.7276 -1.1970
# 3 33.9829 12.2024 116.4743 24.5426 7.0761 1.2025
# 4 -2.3575 10.0839 24.5426 25.3154 -3.6980 2.0135
# 5 18.1647 0.7276 7.0761 -3.6980 50.1425 -3.9990
# 6 -5.0603 -1.1970 1.2025 2.0135 -3.9990 29.2893
#
#
#
# Elastic Compliance Matrix: (Units=1/GPa)
#
#
# Indices 1 2 3 4 5 6 
#
# 1 0.013875 -0.017539 -0.004600 0.012228 -0.003173 0.000595
# 2 -0.017539 0.070669 0.004766 -0.034250 0.002316 0.002333
# 3 -0.004600 0.004766 0.012611 -0.014719 -0.001290 -0.000282
# 4 0.012228 -0.034250 -0.014719 0.069234 0.003009 -0.003032
# 5 -0.003173 0.002316 -0.001290 0.003009 0.021650 0.002349
# 6 0.000595 0.002333 -0.000282 -0.003032 0.002349 0.034881
#
#
# Mechanical properties :
#
#
# Convention : Reuss Voigt Hill
#
# Bulk Modulus (GPa) = 16.02377 45.68365 30.85371
# Shear Modulus (GPa) = 17.95528 33.75365 25.85447
#
# Velocity S-wave (km/s) = 2.96364 4.06340 3.55629
# Velocity P-wave (km/s) = 4.42145 6.66048 5.65293
#
# Compressibility (1/GPa) = 0.06240730
#
# Stress axis : x y z
#
# Youngs Moduli (GPa) = 72.07411 14.15055 79.29346
#
# Poissons Ratio (x) = 0.24819 0.36479
# Poissons Ratio (y) = 1.26411 -0.37790
# Poissons Ratio (z) = 0.33158 -0.06744
#
# Static dielectric constant tensor:
#      x y z
#    x 1.893900 0.039200 -0.035360 
#    y 0.039200 1.721520 -0.042570 
#    z -0.035360 -0.042570 1.794220 
# 
# From -- ./inp_files/543097.got.cif
#   From: 2010.05.17/outbox.cif.g08.bks.cpg/sg2_272_cif.got.tgz:543097.got - 2010.06.03 11:33:40.
