data_PCOD9101817
_publ_section_title
;
Structure prediction by ZEFSAII (Michael W. Deem and Ramdas Pophale) SiO2 
 PCOD9101817
Probable space group: P -1
;
_chemical_formula_sum "Si O2"
_cell_formula_units_Z 14
_cell_length_a 5.296525
_cell_length_b 9.675580
_cell_length_c 15.661675
_cell_angle_alpha 59.270005
_cell_angle_beta 97.697472
_cell_angle_gamma 69.547846
_cell_volume 595.783242
_symmetry_space_group_name_H-M "P -1"
_symmetry_group_IT_number 2
_symmetry_cell_setting 'triclinic'
loop_
_space_group_symop_operation_xyz
x,y,z
-x,-y,-z
loop_
_atom_site_type_symbol
_atom_site_label
_atom_site_fract_x
_atom_site_fract_y
_atom_site_fract_z
Si Si1 0.064289 0.796517 0.240046
Si Si2 0.354267 0.597293 0.872117
Si Si3 0.285149 0.286613 0.877622
Si Si4 0.344705 0.160176 0.223262
Si Si5 0.345246 0.476038 0.584947
Si Si6 0.787941 0.944803 0.923378
Si Si7 0.844175 0.808637 0.405905
O O1 0.403321 0.638686 0.300021
O O2 0.006379 0.981898 0.130221
O O3 0.898877 0.700299 0.218636
O O4 0.000883 0.848177 0.320647
O O5 0.350961 0.445380 0.857860
O O6 0.535482 0.695641 0.817944
O O7 0.005634 0.741550 0.816936
O O8 0.500000 0.500000 0.000000
O O9 0.591086 0.106809 0.928177
O O10 0.121386 0.241710 0.961880
O O11 0.397306 0.063213 0.162992
O O12 0.546317 0.996918 0.349774
O O13 0.500000 0.500000 0.500000
O O14 0.234500 0.337643 0.593325
O O15 0.081986 0.682223 0.527372
#
# Coordination Sequence:
#
# PCOD9101817 Si02
#       7
#     2   2   2   2   2   2   2
#     4  11  19  37  64  96 132 167 215 280 336 378
#     4  12  28  45  63  92 138 183 222 267 329 398
#     4  11  25  40  60  96 132 177 222 272 327 388
#     4  12  24  44  69  92 135 177 223 271 325 398
#     4   9  19  33  63  98 132 155 210 289 332 383
#     4  11  23  38  66  93 128 174 224 278 315 388
#     4  10  20  38  61 103 123 167 219 276 334 382
#
# _framework density 23.498474999999999
#
# number of rings (size 3 to 8) (size 9 to 14) (size 15 to 20)
#    0.000    1.143    4.286    1.714    4.000    0.000 
#    0.000    0.000    0.000    1.714    0.000    0.000 
#    0.000    0.000    0.000    0.000    0.000    0.000 
#
# Total GULP energy -78166.275804 kJ/mol
# GULP energy per Si atom -5583.305415 kJ/mol
# Density = 2.344499 g / cm^3
# Si number density = 23.498475 Si / 1000 Ang^3
#
#
#
# Elastic Constant Matrix: (Units=GPa)
#
#
# Indices 1 2 3 4 5 6 
#
# 1 104.5339 25.3820 25.8316 -13.6381 7.5721 15.7479
# 2 25.3820 99.0532 10.4452 -17.9523 2.8077 27.0348
# 3 25.8316 10.4452 61.1768 -22.2184 13.0706 2.9192
# 4 -13.6381 -17.9523 -22.2184 28.0228 -5.0642 3.0159
# 5 7.5721 2.8077 13.0706 -5.0642 49.1149 -3.8871
# 6 15.7479 27.0348 2.9192 3.0159 -3.8871 40.5717
#
#
#
# Elastic Compliance Matrix: (Units=1/GPa)
#
#
# Indices 1 2 3 4 5 6 
#
# 1 0.011649 -0.001114 -0.003473 0.002456 -0.000855 -0.003794
# 2 -0.001114 0.015477 0.003333 0.013014 -0.001144 -0.011197
# 3 -0.003473 0.003333 0.026025 0.020719 -0.004820 -0.004747
# 4 0.002456 0.013014 0.020719 0.063109 -0.001391 -0.015940
# 5 -0.000855 -0.001144 -0.004820 -0.001391 0.021986 0.003651
# 6 -0.003794 -0.011197 -0.004747 -0.015940 0.003651 0.035458
#
#
# Mechanical properties :
#
#
# Convention : Reuss Voigt Hill
#
# Bulk Modulus (GPa) = 19.74624 43.12016 31.43320
# Shear Modulus (GPa) = 25.89453 37.08223 31.48838
#
# Velocity S-wave (km/s) = 3.32319 3.97680 3.66460
# Velocity P-wave (km/s) = 4.81105 6.28304 5.59566
#
# Compressibility (1/GPa) = 0.05064255
#
# Stress axis : x y z
#
# Youngs Moduli (GPa) = 85.84571 64.61345 38.42524
#
# Poissons Ratio (x) = 0.07198 0.13344
# Poissons Ratio (y) = 0.09563 -0.12807
# Poissons Ratio (z) = 0.29813 -0.21536
#
# Static dielectric constant tensor:
#      x y z
#    x 2.028300 -0.090200 -0.000750 
#    y -0.090200 1.893360 -0.023630 
#    z -0.000750 -0.023630 1.973260 
# 
# From -- ./inp_files/46587.got.cif
#   From: 2010.05.17/outbox.cif.g08.bks.cpg/sg2_24_cif.got.tgz:46587.got - 2010.06.03 11:33:40.
