data_PCOD9101914
_publ_section_title
;
Structure prediction by ZEFSAII (Michael W. Deem and Ramdas Pophale) SiO2 
 PCOD9101914
Probable space group: P -1
;
_chemical_formula_sum "Si O2"
_cell_formula_units_Z 16
_cell_length_a 12.222738
_cell_length_b 9.317694
_cell_length_c 11.461607
_cell_angle_alpha 126.454206
_cell_angle_beta 53.065750
_cell_angle_gamma 106.715599
_cell_volume 834.324453
_symmetry_space_group_name_H-M "P -1"
_symmetry_group_IT_number 2
_symmetry_cell_setting 'triclinic'
loop_
_space_group_symop_operation_xyz
x,y,z
-x,-y,-z
loop_
_atom_site_type_symbol
_atom_site_label
_atom_site_fract_x
_atom_site_fract_y
_atom_site_fract_z
Si Si1 0.734193 0.474236 0.871529
Si Si2 0.117874 0.488957 0.818470
Si Si3 0.498733 0.984168 0.353249
Si Si4 0.433756 0.381041 0.580682
Si Si5 0.961950 0.184695 0.682291
Si Si6 0.042785 0.882433 0.074629
Si Si7 0.446482 0.601098 0.234864
Si Si8 0.189026 0.139946 0.947158
O O1 0.830229 0.299426 0.764886
O O2 0.685109 0.481159 0.771548
O O3 0.589176 0.498137 0.045585
O O4 0.809847 0.648210 0.936359
O O5 0.274182 0.446595 0.741790
O O6 0.077216 0.327434 0.684757
O O7 0.105574 0.695128 0.882586
O O8 0.000000 0.500000 0.000000
O O9 0.431759 0.801786 0.286018
O O10 0.654884 0.946030 0.192920
O O11 0.500000 0.000000 0.500000
O O12 0.435171 0.174820 0.439488
O O13 0.500000 0.500000 0.500000
O O14 0.528213 0.386228 0.637985
O O15 0.935244 0.134777 0.810262
O O16 0.000000 0.000000 0.500000
O O17 0.882637 0.897762 0.148126
O O18 0.107093 0.047242 0.054632
#
# Coordination Sequence:
#
# PCOD9101914 Si02
#       8
#     2   2   2   2   2   2   2   2
#     4  10  20  39  60  84 116 157 204 240 298 357
#     4  10  21  38  65  86 117 163 207 241 287 367
#     4   9  20  32  57  87 114 150 192 246 292 349
#     4  11  22  37  59  92 122 151 196 252 308 348
#     4  11  24  37  59  91 121 157 200 254 298 357
#     4  10  21  38  64  86 114 162 202 247 294 358
#     4   9  20  37  60  84 114 158 196 244 290 365
#     4  10  20  38  61  87 118 152 206 244 298 363
#
# _framework density 19.177192000000002
#
# number of rings (size 3 to 8) (size 9 to 14) (size 15 to 20)
#    0.000    2.000    1.250    2.250   10.500    1.000 
#    2.250    0.625    0.000    5.250    0.000    0.000 
#    0.000    0.000    0.000    0.000    0.000    0.000 
#
# Total GULP energy -89190.522424 kJ/mol
# GULP energy per Si atom -5574.407652 kJ/mol
# Density = 1.913354 g / cm^3
# Si number density = 19.177192 Si / 1000 Ang^3
#
#
#
# Elastic Constant Matrix: (Units=GPa)
#
#
# Indices 1 2 3 4 5 6 
#
# 1 100.3363 40.0837 29.7892 -4.4522 8.7080 -5.1224
# 2 40.0837 92.9226 41.3084 7.8299 -5.5417 -8.7269
# 3 29.7892 41.3084 78.2831 21.4667 2.6112 -3.2127
# 4 -4.4522 7.8299 21.4667 23.9610 -4.5443 -3.0719
# 5 8.7080 -5.5417 2.6112 -4.5443 27.7225 6.1498
# 6 -5.1224 -8.7269 -3.2127 -3.0719 6.1498 27.5652
#
#
#
# Elastic Compliance Matrix: (Units=1/GPa)
#
#
# Indices 1 2 3 4 5 6 
#
# 1 0.014096 -0.004593 -0.004913 0.008053 -0.004096 0.002404
# 2 -0.004593 0.016475 -0.007506 0.001794 0.005176 0.002533
# 3 -0.004913 -0.007506 0.024715 -0.021854 -0.005509 -0.001615
# 4 0.008053 0.001794 -0.021854 0.064608 0.009456 0.004608
# 5 -0.004096 0.005176 -0.005509 0.009456 0.042268 -0.008141
# 6 0.002404 0.002533 -0.001615 0.004608 -0.008141 0.039668
#
#
# Mechanical properties :
#
#
# Convention : Reuss Voigt Hill
#
# Bulk Modulus (GPa) = 47.03589 54.87830 50.95710
# Shear Modulus (GPa) = 20.58100 26.54046 23.56073
#
# Velocity S-wave (km/s) = 3.27953 3.72420 3.50891
# Velocity P-wave (km/s) = 6.23864 6.86815 6.56095
#
# Compressibility (1/GPa) = 0.02126036
#
# Stress axis : x y z
#
# Youngs Moduli (GPa) = 70.94326 60.69642 40.46117
#
# Poissons Ratio (x) = 0.27881 0.19879
# Poissons Ratio (y) = 0.32588 0.30372
# Poissons Ratio (z) = 0.34855 0.45561
#
# Static dielectric constant tensor:
#      x y z
#    x 1.787070 0.057930 -0.028200 
#    y 0.057930 1.721580 0.002740 
#    z -0.028200 0.002740 1.732970 
# 
# From -- ./inp_files/419954.got.cif
#   From: 2010.05.17/outbox.cif.g08.bks.cpg/sg2_210_cif.got.tgz:419954.got - 2010.06.03 11:33:40.
