data_PCOD9101680
_publ_section_title
;
Structure prediction by ZEFSAII (Michael W. Deem and Ramdas Pophale) SiO2 
 PCOD9101680
Probable space group: P -1
;
_chemical_formula_sum "Si O2"
_cell_formula_units_Z 14
_cell_length_a 14.551538
_cell_length_b 7.002612
_cell_length_c 13.633635
_cell_angle_alpha 140.077705
_cell_angle_beta 130.931223
_cell_angle_gamma 60.884982
_cell_volume 673.200713
_symmetry_space_group_name_H-M "P -1"
_symmetry_group_IT_number 2
_symmetry_cell_setting 'triclinic'
loop_
_space_group_symop_operation_xyz
x,y,z
-x,-y,-z
loop_
_atom_site_type_symbol
_atom_site_label
_atom_site_fract_x
_atom_site_fract_y
_atom_site_fract_z
Si Si1 0.669943 0.908775 0.654927
Si Si2 0.991180 0.781680 0.499063
Si Si3 0.469448 0.496659 0.259485
Si Si4 0.741043 0.701979 0.832098
Si Si5 0.146743 0.789051 0.792682
Si Si6 0.596557 0.502652 0.156358
Si Si7 0.233783 0.998114 0.445951
O O1 0.570117 0.646114 0.460495
O O2 0.722633 0.866213 0.781575
O O3 0.606227 0.224538 0.723974
O O4 0.762166 0.901665 0.625172
O O5 0.946710 0.443744 0.311710
O O6 0.110684 0.782310 0.650272
O O7 0.884809 0.898309 0.540995
O O8 0.000000 0.000000 0.500000
O O9 0.377335 0.293917 0.178391
O O10 0.534519 0.370076 0.159545
O O11 0.759624 0.356140 0.687097
O O12 0.849601 0.877535 0.033195
O O13 0.281468 0.665684 0.851803
O O14 0.649054 0.833728 0.355094
O O15 0.500000 0.500000 0.000000
#
# Coordination Sequence:
#
# PCOD9101680 Si02
#       7
#     2   2   2   2   2   2   2
#     4   9  18  35  54  83 124 154 188 237 286 344
#     4  10  23  46  65  81 116 157 197 250 299 347
#     4   9  19  33  53  84 122 160 192 227 283 353
#     4  11  21  35  60  89 116 151 195 243 294 345
#     4  10  24  40  60  91 116 152 205 243 292 358
#     4  10  20  38  60  87 128 163 192 240 292 347
#     4   9  22  39  60  87 116 155 199 240 293 349
#
# _framework density 20.796175000000002
#
# number of rings (size 3 to 8) (size 9 to 14) (size 15 to 20)
#    0.000    2.286    0.000    2.143    0.000   11.429 
#    0.000    2.857    0.000    0.000    0.000    0.000 
#    0.000    0.000    0.000    0.000    0.000    0.000 
#
# Total GULP energy -78188.105308 kJ/mol
# GULP energy per Si atom -5584.864665 kJ/mol
# Density = 2.074884 g / cm^3
# Si number density = 20.796175 Si / 1000 Ang^3
#
#
#
# Elastic Constant Matrix: (Units=GPa)
#
#
# Indices 1 2 3 4 5 6 
#
# 1 63.7302 25.1250 29.1230 -3.0869 4.2598 10.5120
# 2 25.1250 72.9923 53.0262 -5.0844 7.8455 20.9597
# 3 29.1230 53.0262 119.9987 5.8270 2.6758 10.5919
# 4 -3.0869 -5.0844 5.8270 38.2664 -3.2970 0.5517
# 5 4.2598 7.8455 2.6758 -3.2970 17.3657 -1.5036
# 6 10.5120 20.9597 10.5919 0.5517 -1.5036 32.3878
#
#
#
# Elastic Compliance Matrix: (Units=1/GPa)
#
#
# Indices 1 2 3 4 5 6 
#
# 1 0.019071 -0.002982 -0.003011 0.001400 -0.002898 -0.003434
# 2 -0.002982 0.027648 -0.010216 0.004280 -0.010598 -0.014148
# 3 -0.003011 -0.010216 0.013379 -0.003434 0.002936 0.003408
# 4 0.001400 0.004280 -0.003434 0.027656 0.003293 -0.002419
# 5 -0.002898 -0.010598 0.002936 0.003293 0.064101 0.009759
# 6 -0.003434 -0.014148 0.003408 -0.002419 0.009759 0.040526
#
#
# Mechanical properties :
#
#
# Convention : Reuss Voigt Hill
#
# Bulk Modulus (GPa) = 36.12807 52.36329 44.24568
# Shear Modulus (GPa) = 21.36511 27.56712 24.46612
#
# Velocity S-wave (km/s) = 3.20872 3.64481 3.43369
# Velocity P-wave (km/s) = 5.58014 6.55338 6.08625
#
# Compressibility (1/GPa) = 0.02767931
#
# Stress axis : x y z
#
# Youngs Moduli (GPa) = 52.43672 36.16857 74.74321
#
# Poissons Ratio (x) = 0.10786 0.22504
# Poissons Ratio (y) = 0.15637 0.76361
# Poissons Ratio (z) = 0.15788 0.36951
#
# Static dielectric constant tensor:
#      x y z
#    x 1.762310 -0.029910 -0.006570 
#    y -0.029910 1.731040 0.031700 
#    z -0.006570 0.031700 1.759320 
# 
# From -- ./inp_files/94663.got.cif
#   From: 2010.05.17/outbox.cif.g08.bks.cpg/sg2_48_cif.got.tgz:94663.got - 2010.06.03 11:33:40.
