data_PCOD9101927
_publ_section_title
;
Structure prediction by ZEFSAII (Michael W. Deem and Ramdas Pophale) SiO2 
 PCOD9101927
Probable space group: P -1
;
_chemical_formula_sum "Si O2"
_cell_formula_units_Z 15
_cell_length_a 12.393777
_cell_length_b 7.051251
_cell_length_c 12.256236
_cell_angle_alpha 110.289054
_cell_angle_beta 38.640401
_cell_angle_gamma 105.036128
_cell_volume 627.206653
_symmetry_space_group_name_H-M "P -1"
_symmetry_group_IT_number 2
_symmetry_cell_setting 'triclinic'
loop_
_space_group_symop_operation_xyz
x,y,z
-x,-y,-z
loop_
_atom_site_type_symbol
_atom_site_label
_atom_site_fract_x
_atom_site_fract_y
_atom_site_fract_z
Si Si1 0.207748 0.542422 0.721929
Si Si2 0.804858 0.596725 0.066327
Si Si3 0.000000 0.000000 0.500000
Si Si4 0.526070 0.988580 0.161596
Si Si5 0.202326 0.690494 0.394550
Si Si6 0.325746 0.399667 0.073050
Si Si7 0.278194 0.323510 0.416729
Si Si8 0.667670 0.025910 0.298016
O O1 0.267543 0.518993 0.795027
O O2 0.294284 0.376576 0.542118
O O3 0.245427 0.767001 0.697471
O O4 0.000665 0.520982 0.878149
O O5 0.793998 0.829979 0.161038
O O6 0.703191 0.579930 0.029651
O O7 0.045201 0.847617 0.540008
O O8 0.879218 0.824105 0.508636
O O9 0.445833 0.194133 0.216883
O O10 0.607752 0.036965 0.222357
O O11 0.365806 0.838196 0.278489
O O12 0.659151 0.840910 0.962530
O O13 0.186047 0.536165 0.273854
O O14 0.243182 0.537718 0.429162
O O15 0.500000 0.500000 0.000000
O O16 0.500000 0.000000 0.500000
#
# Coordination Sequence:
#
# PCOD9101927 Si02
#       8
#     2   2   1   2   2   2   2   2
#     4  11  24  41  65  93 131 179 216 266 337 397
#     4  10  23  43  62  92 133 173 221 269 327 401
#     4  10  22  38  56  88 120 156 210 258 316 390
#     4   9  21  36  55  89 122 157 213 265 318 385
#     4  10  20  38  61  87 123 163 210 271 329 383
#     4   9  19  39  64  89 125 170 216 270 324 384
#     4  11  22  38  61  90 123 164 213 268 330 388
#     4  11  22  39  63  93 127 167 219 273 322 389
#
# _framework density 23.915562000000001
#
# number of rings (size 3 to 8) (size 9 to 14) (size 15 to 20)
#    0.000    1.867    0.000    3.200    0.000    6.933 
#    0.000   13.333    0.000    0.000    0.000    0.000 
#    0.000    0.000    0.000    0.000    0.000    0.000 
#
# Total GULP energy -83521.377740 kJ/mol
# GULP energy per Si atom -5568.091849 kJ/mol
# Density = 2.386113 g / cm^3
# Si number density = 23.915562 Si / 1000 Ang^3
#
#
#
# Elastic Constant Matrix: (Units=GPa)
#
#
# Indices 1 2 3 4 5 6 
#
# 1 76.5100 20.5036 25.6683 10.0776 16.6750 -16.0160
# 2 20.5036 116.9222 14.9781 11.8524 -3.8270 -15.2525
# 3 25.6683 14.9781 23.9864 8.5591 -17.3962 -13.2645
# 4 10.0776 11.8524 8.5591 29.0032 -9.7575 -4.3358
# 5 16.6750 -3.8270 -17.3962 -9.7575 17.8161 4.0954
# 6 -16.0160 -15.2525 -13.2645 -4.3358 4.0954 45.0970
#
#
#
# Elastic Compliance Matrix: (Units=1/GPa)
#
#
# Indices 1 2 3 4 5 6 
#
# 1 -0.003305 -0.002072 0.029502 0.005124 0.033279 0.004273
# 2 -0.002072 0.009516 -0.000576 -0.002093 0.001828 0.001946
# 3 0.029502 -0.000576 -0.028538 -0.024360 -0.070307 0.005931
# 4 0.005124 -0.002093 -0.024360 0.037822 -0.007927 -0.001697
# 5 0.033279 0.001828 -0.070307 -0.007927 -0.046518 -0.004780
# 6 0.004273 0.001946 0.005931 -0.001697 -0.004780 0.026366
#
#
# Mechanical properties :
#
#
# Convention : Reuss Voigt Hill
#
# Bulk Modulus (GPa) = 31.86806 37.74653 34.80729
# Shear Modulus (GPa) = -104.37005 28.80116 -37.78444
#
# Velocity S-wave (km/s) = -6.61330 3.47405 -3.97912
# Velocity P-wave (km/s) = 6.70524 5.64885 2.55448
#
# Compressibility (1/GPa) = 0.03137938
#
# Stress axis : x y z
#
# Youngs Moduli (GPa) = -302.52732 105.08984 -35.04068
#
# Poissons Ratio (x) = 0.21778 1.03376
# Poissons Ratio (y) = -0.62694 -0.02017
# Poissons Ratio (z) = 8.92510 0.06050
#
# Static dielectric constant tensor:
#      x y z
#    x 1.896420 -0.040060 -0.047560 
#    y -0.040060 1.942190 0.032170 
#    z -0.047560 0.032170 2.035720 
# 
# From -- ./inp_files/410978.got.cif
#   From: 2010.05.17/outbox.cif.g08.bks.cpg/sg2_206_cif.got.tgz:410978.got - 2010.06.03 11:33:40.
