data_PCOD9101045
_publ_section_title
;
Structure prediction by ZEFSAII (Michael W. Deem and Ramdas Pophale) SiO2 
 PCOD9101045
Probable space group: P -1
;
_chemical_formula_sum "Si O2"
_cell_formula_units_Z 14
_cell_length_a 11.465062
_cell_length_b 14.718267
_cell_length_c 9.206697
_cell_angle_alpha 30.855820
_cell_angle_beta 119.531754
_cell_angle_gamma 128.870415
_cell_volume 616.266948
_symmetry_space_group_name_H-M "P -1"
_symmetry_group_IT_number 2
_symmetry_cell_setting 'triclinic'
loop_
_space_group_symop_operation_xyz
x,y,z
-x,-y,-z
loop_
_atom_site_type_symbol
_atom_site_label
_atom_site_fract_x
_atom_site_fract_y
_atom_site_fract_z
Si Si1 0.627544 0.022322 0.657505
Si Si2 0.815083 0.027718 0.495034
Si Si3 0.433337 0.344400 0.324325
Si Si4 0.408121 0.270286 0.721166
Si Si5 0.039239 0.562534 0.106685
Si Si6 0.722241 0.463741 0.157021
Si Si7 0.939433 0.840738 0.314329
O O1 0.750400 0.017730 0.631338
O O2 0.694642 0.240226 0.464696
O O3 0.500000 0.000000 0.500000
O O4 0.564498 0.861149 0.963340
O O5 0.981573 0.075801 0.591953
O O6 0.695157 0.827550 0.618008
O O7 0.831763 0.211257 0.150716
O O8 0.446703 0.244892 0.615946
O O9 0.603659 0.468258 0.197518
O O10 0.357575 0.493737 0.091139
O O11 0.500000 0.500000 0.500000
O O12 0.232570 0.208624 0.704544
O O13 0.902075 0.577690 0.087770
O O14 0.060094 0.371456 0.435411
O O15 0.000000 0.500000 0.000000
O O16 0.000000 0.000000 0.000000
#
# Coordination Sequence:
#
# PCOD9101045 Si02
#       7
#     2   2   2   2   2   2   2
#     4  12  23  43  73  98 135 188 231 280 348 423
#     4  11  23  42  72 106 135 183 229 284 346 409
#     4  11  26  43  70 104 143 183 230 296 341 407
#     4  12  28  45  71 103 138 185 238 288 347 419
#     4  10  20  37  69 101 133 186 230 271 337 423
#     4  11  22  41  67 100 141 183 228 275 349 410
#     4  11  22  42  71 105 139 180 234 283 339 412
#
# _framework density 22.717427000000001
#
# number of rings (size 3 to 8) (size 9 to 14) (size 15 to 20)
#    0.000    0.857    5.714    2.571    4.000    2.857 
#    0.000    1.429    0.000    6.000    0.000    0.000 
#    0.000    0.000    0.000    0.000    0.000    0.000 
#
# Total GULP energy -77974.772723 kJ/mol
# GULP energy per Si atom -5569.626623 kJ/mol
# Density = 2.266572 g / cm^3
# Si number density = 22.717427 Si / 1000 Ang^3
#
#
#
# Elastic Constant Matrix: (Units=GPa)
#
#
# Indices 1 2 3 4 5 6 
#
# 1 55.8486 16.1927 16.7647 10.7306 -17.5792 2.9743
# 2 16.1927 66.8922 57.6300 -13.9510 -5.7168 5.9535
# 3 16.7647 57.6300 198.0067 6.0401 -31.0323 -8.2519
# 4 10.7306 -13.9510 6.0401 34.6635 8.7462 2.9009
# 5 -17.5792 -5.7168 -31.0323 8.7462 32.7330 -4.4791
# 6 2.9743 5.9535 -8.2519 2.9009 -4.4791 13.7938
#
#
#
# Elastic Compliance Matrix: (Units=1/GPa)
#
#
# Indices 1 2 3 4 5 6 
#
# 1 0.052953 -0.044005 0.022701 -0.059209 0.065609 0.054912
# 2 -0.044005 0.071920 -0.034682 0.074456 -0.075115 -0.082350
# 3 0.022701 -0.034682 0.023656 -0.040699 0.045965 0.047711
# 4 -0.059209 0.074456 -0.040699 0.118802 -0.103104 -0.102181
# 5 0.065609 -0.075115 0.045965 -0.103104 0.139208 0.112658
# 6 0.054912 -0.082350 0.047711 -0.102181 0.112658 0.182813
#
#
# Mechanical properties :
#
#
# Convention : Reuss Voigt Hill
#
# Bulk Modulus (GPa) = 27.35421 55.76913 41.56167
# Shear Modulus (GPa) = 7.00762 31.58205 19.29484
#
# Velocity S-wave (km/s) = 1.75823 3.73260 2.91751
# Velocity P-wave (km/s) = 4.02356 6.57105 5.44829
#
# Compressibility (1/GPa) = 0.03655744
#
# Stress axis : x y z
#
# Youngs Moduli (GPa) = 18.88467 13.90436 42.27242
#
# Poissons Ratio (x) = 0.61186 -0.95964
# Poissons Ratio (y) = 0.83102 1.46609
# Poissons Ratio (z) = -0.42871 0.48223
#
# Static dielectric constant tensor:
#      x y z
#    x 2.019810 0.085250 -0.053870 
#    y 0.085250 1.969870 -0.105630 
#    z -0.053870 -0.105630 2.177380 
# 
# From -- ./inp_files/271421.got.cif
#   From: 2010.05.17/outbox.cif.g08.bks.cpg/sg2_136_cif.got.tgz:271421.got - 2010.06.03 11:33:40.
