data_PCOD9101074
_publ_section_title
;
Structure prediction by ZEFSAII (Michael W. Deem and Ramdas Pophale) SiO2 
 PCOD9101074
Probable space group: P -1
;
_chemical_formula_sum "Si O2"
_cell_formula_units_Z 14
_cell_length_a 9.517317
_cell_length_b 18.031715
_cell_length_c 5.416221
_cell_angle_alpha 88.154263
_cell_angle_beta 80.621389
_cell_angle_gamma 44.737283
_cell_volume 640.799539
_symmetry_space_group_name_H-M "P -1"
_symmetry_group_IT_number 2
_symmetry_cell_setting 'triclinic'
loop_
_space_group_symop_operation_xyz
x,y,z
-x,-y,-z
loop_
_atom_site_type_symbol
_atom_site_label
_atom_site_fract_x
_atom_site_fract_y
_atom_site_fract_z
Si Si1 0.814958 0.126438 0.516874
Si Si2 0.649840 0.530085 0.364095
Si Si3 0.947206 0.782706 0.131720
Si Si4 0.571293 0.373206 0.089351
Si Si5 0.958651 0.104050 0.980172
Si Si6 0.913706 0.707493 0.658947
Si Si7 0.598399 0.701259 0.591636
O O1 0.812377 0.164173 0.778615
O O2 0.591691 0.184790 0.492901
O O3 0.883827 0.153127 0.270144
O O4 0.000000 0.000000 0.500000
O O5 0.493267 0.570890 0.629008
O O6 0.681840 0.607828 0.387903
O O7 0.861225 0.410549 0.362839
O O8 0.560375 0.551974 0.115186
O O9 0.873959 0.896287 0.129678
O O10 0.909059 0.761294 0.411376
O O11 0.193325 0.696443 0.027262
O O12 0.864192 0.767738 0.923593
O O13 0.495866 0.316254 0.166984
O O14 0.000000 0.000000 0.000000
O O15 0.760704 0.697254 0.648714
#
# Coordination Sequence:
#
# PCOD9101074 Si02
#       7
#     2   2   2   2   2   2   2
#     4  10  20  37  70  96 111 152 221 265 299 360
#     4  10  22  40  62  90 121 180 221 249 296 379
#     4  12  24  41  59 101 124 167 200 274 319 362
#     4  10  22  38  67  82 127 162 238 244 294 371
#     4  10  20  39  67  93 114 157 210 258 304 379
#     4  12  27  37  62  89 145 161 203 262 333 356
#     4  10  24  41  64  92 124 175 215 254 305 388
#
# _framework density 21.847705000000001
#
# number of rings (size 3 to 8) (size 9 to 14) (size 15 to 20)
#    0.857    0.571    1.429    3.857    2.000    4.000 
#    0.000    0.000    0.000   20.571    0.000    0.000 
#    0.000    0.000    0.000    0.000    0.000    0.000 
#
# Total GULP energy -77985.153198 kJ/mol
# GULP energy per Si atom -5570.368086 kJ/mol
# Density = 2.179798 g / cm^3
# Si number density = 21.847705 Si / 1000 Ang^3
#
#
#
# Elastic Constant Matrix: (Units=GPa)
#
#
# Indices 1 2 3 4 5 6 
#
# 1 104.0031 17.4855 39.0892 -12.3029 13.6256 16.1348
# 2 17.4855 62.2917 21.9906 -6.1384 3.9647 19.7458
# 3 39.0892 21.9906 185.0842 -13.8150 16.9334 8.5130
# 4 -12.3029 -6.1384 -13.8150 31.8927 6.4399 0.3104
# 5 13.6256 3.9647 16.9334 6.4399 33.7329 -1.5716
# 6 16.1348 19.7458 8.5130 0.3104 -1.5716 24.3931
#
#
#
# Elastic Compliance Matrix: (Units=1/GPa)
#
#
# Indices 1 2 3 4 5 6 
#
# 1 0.012932 0.000723 -0.001398 0.005853 -0.006149 -0.009122
# 2 0.000723 0.023138 -0.001239 0.005246 -0.004282 -0.019118
# 3 -0.001398 -0.001239 0.006334 0.002573 -0.002984 -0.000508
# 4 0.005853 0.005246 0.002573 0.038272 -0.012058 -0.010280
# 5 -0.006149 -0.004282 -0.002984 -0.012058 0.036949 0.011109
# 6 -0.009122 -0.019118 -0.000508 -0.010280 0.011109 0.063528
#
#
# Mechanical properties :
#
#
# Convention : Reuss Voigt Hill
#
# Bulk Modulus (GPa) = 25.92323 56.50108 41.21215
# Shear Modulus (GPa) = 25.27295 36.19131 30.73213
#
# Velocity S-wave (km/s) = 3.40483 4.07446 3.75461
# Velocity P-wave (km/s) = 5.22957 6.93199 6.14007
#
# Compressibility (1/GPa) = 0.03857544
#
# Stress axis : x y z
#
# Youngs Moduli (GPa) = 77.32694 43.21960 157.88075
#
# Poissons Ratio (x) = -0.03126 0.22074
# Poissons Ratio (y) = -0.05592 0.19564
# Poissons Ratio (z) = 0.10811 0.05356
#
# Static dielectric constant tensor:
#      x y z
#    x 1.678320 -0.186030 -0.051170 
#    y -0.186030 1.398320 -0.084380 
#    z -0.051170 -0.084380 1.800470 
# 
# From -- ./inp_files/47440.got.cif
#   From: 2010.05.17/outbox.cif.g08.bks.cpg/sg2_24_cif.got.tgz:47440.got - 2010.06.03 11:33:40.
