data_PCOD9101420
_publ_section_title
;
Structure prediction by ZEFSAII (Michael W. Deem and Ramdas Pophale) SiO2 
 PCOD9101420
Probable space group: P -1
;
_chemical_formula_sum "Si O2"
_cell_formula_units_Z 14
_cell_length_a 9.161641
_cell_length_b 7.657046
_cell_length_c 10.149306
_cell_angle_alpha 130.164082
_cell_angle_beta 96.187094
_cell_angle_gamma 66.898815
_cell_volume 489.663090
_symmetry_space_group_name_H-M "P -1"
_symmetry_group_IT_number 2
_symmetry_cell_setting 'triclinic'
loop_
_space_group_symop_operation_xyz
x,y,z
-x,-y,-z
loop_
_atom_site_type_symbol
_atom_site_label
_atom_site_fract_x
_atom_site_fract_y
_atom_site_fract_z
Si Si1 0.015827 0.983428 0.818221
Si Si2 0.293841 0.879645 0.279429
Si Si3 0.355962 0.247926 0.816706
Si Si4 0.470127 0.253071 0.307731
Si Si5 0.279109 0.093211 0.004044
Si Si6 0.184798 0.734977 0.472030
Si Si7 0.887311 0.583964 0.359072
O O1 0.095698 0.971455 0.675179
O O2 0.069961 0.686626 0.704518
O O3 0.101789 0.102657 0.982625
O O4 0.824630 0.133266 0.853187
O O5 0.481689 0.722156 0.188921
O O6 0.242277 0.791727 0.366469
O O7 0.231537 0.181015 0.447735
O O8 0.299967 0.269645 0.974970
O O9 0.211325 0.380577 0.767759
O O10 0.434091 0.939139 0.661516
O O11 0.347216 0.534449 0.460316
O O12 0.603263 0.188551 0.173083
O O13 0.351970 0.143821 0.168754
O O14 0.051800 0.623442 0.380261
#
# Coordination Sequence:
#
# PCOD9101420 Si02
#       7
#     2   2   2   2   2   2   2
#     4  11  22  39  63  88 120 157 199 241 297 348
#     4  11  22  37  59  92 124 154 194 247 295 348
#     4  10  20  38  59  84 120 156 194 238 292 350
#     4   9  21  42  65  82 121 155 199 244 297 345
#     4   9  21  42  65  82 121 155 199 244 297 345
#     4  11  22  39  63  88 120 157 199 241 297 348
#     4  11  22  37  59  92 124 154 194 247 295 348
#
# _framework density 28.591089
#
# number of rings (size 3 to 8) (size 9 to 14) (size 15 to 20)
#    0.857    0.857    0.000    7.286    2.000    0.571 
#    0.000    8.571    0.000    0.000    0.000    0.000 
#    0.000    0.000    0.000    0.000    0.000    0.000 
#
# Total GULP energy -78502.802317 kJ/mol
# GULP energy per Si atom -5607.343023 kJ/mol
# Density = 2.852601 g / cm^3
# Si number density = 28.591089 Si / 1000 Ang^3
#
#
#
# Elastic Constant Matrix: (Units=GPa)
#
#
# Indices 1 2 3 4 5 6 
#
# 1 179.9797 50.1006 19.8567 -12.2360 1.0159 -11.7643
# 2 50.1006 134.3231 18.3250 -28.1868 4.8127 -14.8383
# 3 19.8567 18.3250 108.4536 -2.2237 2.1731 6.3181
# 4 -12.2360 -28.1868 -2.2237 37.9244 -10.6458 2.9198
# 5 1.0159 4.8127 2.1731 -10.6458 40.0659 -6.0481
# 6 -11.7643 -14.8383 6.3181 2.9198 -6.0481 61.0894
#
#
#
# Elastic Compliance Matrix: (Units=1/GPa)
#
#
# Indices 1 2 3 4 5 6 
#
# 1 0.006308 -0.002054 -0.000853 0.000505 0.000391 0.000819
# 2 -0.002054 0.010001 -0.001308 0.006833 0.001031 0.001944
# 3 -0.000853 -0.001308 0.009686 -0.000782 -0.000784 -0.001524
# 4 0.000505 0.006833 -0.000782 0.033829 0.008356 0.001048
# 5 0.000391 0.001031 -0.000784 0.008356 0.027500 0.002730
# 6 0.000819 0.001944 -0.001524 0.001048 0.002730 0.017377
#
#
# Mechanical properties :
#
#
# Convention : Reuss Voigt Hill
#
# Bulk Modulus (GPa) = 56.92855 66.59123 61.75989
# Shear Modulus (GPa) = 42.02203 50.11420 46.06812
#
# Velocity S-wave (km/s) = 3.83790 4.19118 4.01842
# Velocity P-wave (km/s) = 6.29236 6.83833 6.57102
#
# Compressibility (1/GPa) = 0.01756588
#
# Stress axis : x y z
#
# Youngs Moduli (GPa) = 158.53716 99.99008 103.24061
#
# Poissons Ratio (x) = 0.20536 0.08806
# Poissons Ratio (y) = 0.32561 0.13500
# Poissons Ratio (z) = 0.13523 0.13075
#
# Static dielectric constant tensor:
#      x y z
#    x 2.319770 0.112260 0.054470 
#    y 0.112260 2.220460 0.071010 
#    z 0.054470 0.071010 2.261570 
# 
# From -- ./inp_files/380642.got.cif
#   From: 2010.05.17/outbox.cif.g08.bks.cpg/sg2_191_cif.got.tgz:380642.got - 2010.06.03 11:33:40.
