data_PCOD9101982
_publ_section_title
;
Structure prediction by ZEFSAII (Michael W. Deem and Ramdas Pophale) SiO2 
 PCOD9101982
Probable space group: P -1
;
_chemical_formula_sum "Si O2"
_cell_formula_units_Z 14
_cell_length_a 12.446105
_cell_length_b 8.739848
_cell_length_c 12.308313
_cell_angle_alpha 121.588729
_cell_angle_beta 34.512867
_cell_angle_gamma 123.882196
_cell_volume 623.828979
_symmetry_space_group_name_H-M "P -1"
_symmetry_group_IT_number 2
_symmetry_cell_setting 'triclinic'
loop_
_space_group_symop_operation_xyz
x,y,z
-x,-y,-z
loop_
_atom_site_type_symbol
_atom_site_label
_atom_site_fract_x
_atom_site_fract_y
_atom_site_fract_z
Si Si1 0.338658 0.237182 0.960873
Si Si2 0.345025 0.117934 0.149936
Si Si3 0.690494 0.168634 0.230412
Si Si4 0.690777 0.729647 0.380472
Si Si5 0.407073 0.543091 0.844204
Si Si6 0.090514 0.901140 0.790250
Si Si7 0.916222 0.247425 0.844923
O O1 0.428860 0.413395 0.878550
O O2 0.379866 0.055692 0.801395
O O3 0.397533 0.220212 0.028839
O O4 0.103571 0.216301 0.150277
O O5 0.399145 0.283112 0.253559
O O6 0.144703 0.955814 0.238200
O O7 0.500000 0.000000 0.000000
O O8 0.512516 0.258357 0.394256
O O9 0.783683 0.211055 0.288195
O O10 0.839853 0.220940 0.024680
O O11 0.641985 0.590407 0.268054
O O12 0.851431 0.679564 0.306676
O O13 0.787060 0.936599 0.328025
O O14 0.215050 0.625720 0.048693
O O15 0.000000 0.000000 0.000000
#
# Coordination Sequence:
#
# PCOD9101982 Si02
#       7
#     2   2   2   2   2   2   2
#     4  10  18  36  59  84 110 150 187 226 279 331
#     4   9  19  36  58  79 112 151 184 228 280 331
#     4  10  20  34  59  84 114 148 185 228 278 335
#     4  12  20  34  61  87 110 150 187 229 278 328
#     4  11  21  32  58  88 112 144 192 229 275 333
#     4  10  16  32  55  84 111 144 179 233 275 322
#     4  10  21  40  56  81 115 151 186 228 278 329
#
# _framework density 22.442049999999998
#
# number of rings (size 3 to 8) (size 9 to 14) (size 15 to 20)
#    0.000    1.714    7.143    1.286    0.000    0.571 
#    0.000    0.000    0.000   31.714    0.000    0.000 
#    0.000    0.000    0.000    0.000    0.000    0.000 
#
# Total GULP energy -78151.168574 kJ/mol
# GULP energy per Si atom -5582.226327 kJ/mol
# Density = 2.239097 g / cm^3
# Si number density = 22.442050 Si / 1000 Ang^3
#
#
#
# Elastic Constant Matrix: (Units=GPa)
#
#
# Indices 1 2 3 4 5 6 
#
# 1 133.3586 32.7709 24.2287 11.9129 -8.1539 0.2400
# 2 32.7709 91.2839 18.7246 12.3949 3.7695 5.1139
# 3 24.2287 18.7246 59.9044 3.2389 -19.1936 7.4495
# 4 11.9129 12.3949 3.2389 19.4408 -5.4623 3.9686
# 5 -8.1539 3.7695 -19.1936 -5.4623 21.9469 0.8900
# 6 0.2400 5.1139 7.4495 3.9686 0.8900 52.9662
#
#
#
# Elastic Compliance Matrix: (Units=1/GPa)
#
#
# Indices 1 2 3 4 5 6 
#
# 1 0.008875 -0.002204 -0.002679 -0.003643 0.000393 0.000816
# 2 -0.002204 0.015214 -0.007395 -0.010783 -0.012608 0.000601
# 3 -0.002679 -0.007395 0.029295 0.010491 0.028695 -0.004662
# 4 -0.003643 -0.010783 0.010491 0.067514 0.026717 -0.005925
# 5 0.000393 -0.012608 0.028695 0.026717 0.079870 -0.006164
# 6 0.000816 0.000601 -0.004662 -0.005925 -0.006164 0.020022
#
#
# Mechanical properties :
#
#
# Convention : Reuss Voigt Hill
#
# Bulk Modulus (GPa) = 34.68974 48.44393 41.56683
# Shear Modulus (GPa) = 19.61126 32.79227 26.20177
#
# Velocity S-wave (km/s) = 2.95932 3.82671 3.42062
# Velocity P-wave (km/s) = 5.21228 6.41545 5.84491
#
# Compressibility (1/GPa) = 0.02882697
#
# Stress axis : x y z
#
# Youngs Moduli (GPa) = 112.67764 65.72875 34.13553
#
# Poissons Ratio (x) = 0.14485 0.09146
# Poissons Ratio (y) = 0.24831 0.25245
# Poissons Ratio (z) = 0.30189 0.48609
#
# Static dielectric constant tensor:
#      x y z
#    x 1.922710 0.010810 -0.000540 
#    y 0.010810 1.891800 0.006580 
#    z -0.000540 0.006580 1.810050 
# 
# From -- ./inp_files/417994.got.cif
#   From: 2010.05.17/outbox.cif.g08.bks.cpg/sg2_209_cif.got.tgz:417994.got - 2010.06.03 11:33:40.
