data_PCOD9101005
_publ_section_title
;
Structure prediction by ZEFSAII (Michael W. Deem and Ramdas Pophale) SiO2 
 PCOD9101005
Probable space group: P -1
;
_chemical_formula_sum "Si O2"
_cell_formula_units_Z 16
_cell_length_a 9.592133
_cell_length_b 8.809639
_cell_length_c 19.420068
_cell_angle_alpha 38.227698
_cell_angle_beta 51.220652
_cell_angle_gamma 75.339535
_cell_volume 687.701921
_symmetry_space_group_name_H-M "P -1"
_symmetry_group_IT_number 2
_symmetry_cell_setting 'triclinic'
loop_
_space_group_symop_operation_xyz
x,y,z
-x,-y,-z
loop_
_atom_site_type_symbol
_atom_site_label
_atom_site_fract_x
_atom_site_fract_y
_atom_site_fract_z
Si Si1 0.279882 0.655476 0.467469
Si Si2 0.152630 0.183723 0.998371
Si Si3 0.915937 0.021508 0.369016
Si Si4 0.588145 0.415112 0.730344
Si Si5 0.286466 0.199511 0.722910
Si Si6 0.718315 0.901880 0.600888
Si Si7 0.719176 0.200007 0.255551
Si Si8 0.146114 0.863435 0.252911
O O1 0.293134 0.482632 0.591965
O O2 0.496451 0.736119 0.335420
O O3 0.273310 0.935046 0.391108
O O4 0.063407 0.440549 0.577685
O O5 0.344044 0.273995 0.856253
O O6 0.180718 0.477815 0.913895
O O7 0.927170 0.992197 0.104903
O O8 0.167428 0.013628 0.119870
O O9 0.725506 0.696380 0.542672
O O10 0.104314 0.028473 0.267895
O O11 0.921525 0.079508 0.427958
O O12 0.836715 0.198067 0.287975
O O13 0.668939 0.197821 0.773001
O O14 0.657269 0.574919 0.728201
O O15 0.265734 0.010370 0.728687
O O16 0.521463 0.900382 0.624730
#
# Coordination Sequence:
#
# PCOD9101005 Si02
#       8
#     2   2   2   2   2   2   2   2
#     4   9  17  32  50  78 107 133 173 208 258 310
#     4  10  19  31  53  83 107 129 170 225 260 298
#     4  10  19  33  52  81 100 139 172 218 257 297
#     4   9  21  34  51  80 107 135 177 209 259 301
#     4   9  17  29  51  78 104 131 165 217 258 304
#     4   8  19  30  51  76 105 133 165 218 257 301
#     4  10  16  32  51  83 103 128 172 217 271 294
#     4  11  20  34  56  78 103 141 175 213 250 304
#
# _framework density 23.265893999999999
#
# number of rings (size 3 to 8) (size 9 to 14) (size 15 to 20)
#    0.750    1.750    2.500    1.500    0.000    0.500 
#    0.000    0.000    0.000    6.750    0.000    5.250 
#    0.000    0.000    0.000    0.000    0.000    0.000 
#
# Total GULP energy -89236.106630 kJ/mol
# GULP energy per Si atom -5577.256664 kJ/mol
# Density = 2.321294 g / cm^3
# Si number density = 23.265894 Si / 1000 Ang^3
#
#
#
# Elastic Constant Matrix: (Units=GPa)
#
#
# Indices 1 2 3 4 5 6 
#
# 1 54.6331 12.1623 6.1688 -8.1146 -1.9659 -8.0033
# 2 12.1623 70.3864 29.6400 21.7029 -5.0286 -21.1404
# 3 6.1688 29.6400 79.0776 3.2457 -16.5016 -9.3780
# 4 -8.1146 21.7029 3.2457 31.7879 -4.1160 -2.5278
# 5 -1.9659 -5.0286 -16.5016 -4.1160 26.1743 1.8078
# 6 -8.0033 -21.1404 -9.3780 -2.5278 1.8078 29.4328
#
#
#
# Elastic Compliance Matrix: (Units=1/GPa)
#
#
# Indices 1 2 3 4 5 6 
#
# 1 0.021600 -0.006554 0.001149 0.010383 0.002564 0.002266
# 2 -0.006554 0.029604 -0.008927 -0.020373 -0.004684 0.015175
# 3 0.001149 -0.008927 0.017795 0.005892 0.010556 -0.000571
# 4 0.010383 -0.020373 0.005892 0.048023 0.008570 -0.006334
# 5 0.002564 -0.004684 0.010556 0.008570 0.045596 -0.001368
# 6 0.002266 0.015175 -0.000571 -0.006334 -0.001368 0.044849
#
#
# Mechanical properties :
#
#
# Convention : Reuss Voigt Hill
#
# Bulk Modulus (GPa) = 24.79170 33.33770 29.06470
# Shear Modulus (GPa) = 20.03414 27.88740 23.96077
#
# Velocity S-wave (km/s) = 2.93762 3.46589 3.21264
# Velocity P-wave (km/s) = 4.71011 5.51150 5.12649
#
# Compressibility (1/GPa) = 0.04033608
#
# Stress axis : x y z
#
# Youngs Moduli (GPa) = 46.29702 33.77970 56.19469
#
# Poissons Ratio (x) = 0.22139 -0.06458
# Poissons Ratio (y) = 0.30343 0.50162
# Poissons Ratio (z) = -0.05321 0.30154
#
# Static dielectric constant tensor:
#      x y z
#    x 1.893260 0.032930 -0.030540 
#    y 0.032930 1.931000 0.040360 
#    z -0.030540 0.040360 1.847330 
# 
# From -- ./inp_files/330858.got.cif
#   From: 2010.05.17/outbox.cif.g08.bks.cpg/sg2_166_cif.got.tgz:330858.got - 2010.06.03 11:33:40.
