data_PCOD9101353
_publ_section_title
;
Structure prediction by ZEFSAII (Michael W. Deem and Ramdas Pophale) SiO2 
 PCOD9101353
Probable space group: P -1
;
_chemical_formula_sum "Si O2"
_cell_formula_units_Z 16
_cell_length_a 15.994533
_cell_length_b 12.010486
_cell_length_c 23.953645
_cell_angle_alpha 19.910987
_cell_angle_beta 154.011711
_cell_angle_gamma 153.578496
_cell_volume 646.345437
_symmetry_space_group_name_H-M "P -1"
_symmetry_group_IT_number 2
_symmetry_cell_setting 'triclinic'
loop_
_space_group_symop_operation_xyz
x,y,z
-x,-y,-z
loop_
_atom_site_type_symbol
_atom_site_label
_atom_site_fract_x
_atom_site_fract_y
_atom_site_fract_z
Si Si1 0.646261 0.727838 0.329738
Si Si2 0.722559 0.758900 0.490932
Si Si3 0.320467 0.638952 0.578952
Si Si4 0.794140 0.805877 0.704409
Si Si5 0.579317 0.763485 0.073561
Si Si6 0.464628 0.741884 0.816159
Si Si7 0.092611 0.766714 0.128576
Si Si8 0.016320 0.671776 0.000920
O O1 0.717172 0.779374 0.411273
O O2 0.762841 0.569962 0.429357
O O3 0.424725 0.420270 0.343596
O O4 0.595470 0.064396 0.118773
O O5 0.500000 0.500000 0.500000
O O6 0.909662 0.629030 0.679574
O O7 0.719958 0.120984 0.345483
O O8 0.398375 0.385020 0.782923
O O9 0.500000 0.000000 0.500000
O O10 0.184979 0.797877 0.461110
O O11 0.951548 0.698532 0.811331
O O12 0.830676 0.678695 0.848467
O O13 0.546914 0.450700 0.158079
O O14 0.786468 0.056001 0.039332
O O15 0.673900 0.052586 0.800343
O O16 0.500000 0.500000 0.000000
O O17 0.025235 0.789427 0.014085
O O18 0.000000 0.000000 0.000000
#
# Coordination Sequence:
#
# PCOD9101353 Si02
#       8
#     2   2   2   2   2   2   2   2
#     4  10  20  38  58  92 122 153 204 258 310 363
#     4  10  21  37  67  93 122 164 213 253 302 385
#     4  10  23  34  58  89 115 153 202 260 313 356
#     4   9  20  37  62  81 121 160 207 248 296 370
#     4  11  21  37  64  85 123 162 210 252 306 382
#     4  11  20  40  67  93 117 171 217 250 307 378
#     4  11  25  39  64  97 130 162 207 265 318 359
#     4  10  21  40  59  86 123 166 208 243 306 380
#
# _framework density 24.754563999999998
#
# number of rings (size 3 to 8) (size 9 to 14) (size 15 to 20)
#    0.000    1.750    2.500    2.625   10.500    1.500 
#    0.000    1.875    2.750    0.000    0.000    0.000 
#    0.000    0.000    0.000    0.000    0.000    0.000 
#
# Total GULP energy -89371.249370 kJ/mol
# GULP energy per Si atom -5585.703086 kJ/mol
# Density = 2.469822 g / cm^3
# Si number density = 24.754564 Si / 1000 Ang^3
#
#
#
# Elastic Constant Matrix: (Units=GPa)
#
#
# Indices 1 2 3 4 5 6 
#
# 1 100.6044 40.0754 46.9242 -9.6212 10.3385 -34.9005
# 2 40.0754 68.7110 -5.4578 -4.2025 -4.0248 -20.4801
# 3 46.9242 -5.4578 119.8861 -7.3907 17.0385 -7.0767
# 4 -9.6212 -4.2025 -7.3907 29.4634 -7.8254 2.5838
# 5 10.3385 -4.0248 17.0385 -7.8254 38.6982 -10.2424
# 6 -34.9005 -20.4801 -7.0767 2.5838 -10.2424 51.1562
#
#
#
# Elastic Compliance Matrix: (Units=1/GPa)
#
#
# Indices 1 2 3 4 5 6 
#
# 1 0.021112 -0.010100 -0.007993 0.002587 -0.000247 0.009074
# 2 -0.010100 0.022188 0.004678 0.001864 0.004220 0.003390
# 3 -0.007993 0.004678 0.012021 0.000432 -0.003270 -0.002594
# 4 0.002587 0.001864 0.000432 0.036922 0.007356 0.002179
# 5 -0.000247 0.004220 -0.003270 0.007356 0.031106 0.006925
# 6 0.009074 0.003390 -0.002594 0.002179 0.006925 0.028014
#
#
# Mechanical properties :
#
#
# Convention : Reuss Voigt Hill
#
# Bulk Modulus (GPa) = 35.09766 50.25388 42.67577
# Shear Modulus (GPa) = 26.63992 37.70752 32.17372
#
# Velocity S-wave (km/s) = 3.28405 3.90712 3.60906
# Velocity P-wave (km/s) = 5.34687 6.37958 5.88592
#
# Compressibility (1/GPa) = 0.02849193
#
# Stress axis : x y z
#
# Youngs Moduli (GPa) = 47.36658 45.06993 83.18784
#
# Poissons Ratio (x) = 0.45520 0.66492
# Poissons Ratio (y) = 0.47840 -0.38919
# Poissons Ratio (z) = 0.37860 -0.21086
#
# Static dielectric constant tensor:
#      x y z
#    x 2.043250 0.078060 0.052230 
#    y 0.078060 2.052810 -0.171820 
#    z 0.052230 -0.171820 2.255980 
# 
# From -- ./inp_files/613159.got.cif
#   From: 2010.05.17/outbox.cif.g08.bks.cpg/sg2_307_cif.got.tgz:613159.got - 2010.06.03 11:33:40.
