data_PCOD9101578
_publ_section_title
;
Structure prediction by ZEFSAII (Michael W. Deem and Ramdas Pophale) SiO2 
 PCOD9101578
Probable space group: P -1
;
_chemical_formula_sum "Si O2"
_cell_formula_units_Z 12
_cell_length_a 19.698057
_cell_length_b 8.080990
_cell_length_c 15.060617
_cell_angle_alpha 115.042462
_cell_angle_beta 13.722905
_cell_angle_gamma 119.486172
_cell_volume 477.252777
_symmetry_space_group_name_H-M "P -1"
_symmetry_group_IT_number 2
_symmetry_cell_setting 'triclinic'
loop_
_space_group_symop_operation_xyz
x,y,z
-x,-y,-z
loop_
_atom_site_type_symbol
_atom_site_label
_atom_site_fract_x
_atom_site_fract_y
_atom_site_fract_z
Si Si1 0.619333 0.574364 0.463872
Si Si2 0.687817 0.746090 0.744775
Si Si3 0.363879 0.800847 0.566799
Si Si4 0.821197 0.069672 0.515297
Si Si5 0.742243 0.987296 0.399431
Si Si6 0.174464 0.358779 0.276091
O O1 0.500000 0.500000 0.500000
O O2 0.517933 0.375075 0.603718
O O3 0.520070 0.760401 0.647155
O O4 0.991823 0.686027 0.027625
O O5 0.911162 0.750115 0.544236
O O6 0.769259 0.854368 0.571513
O O7 0.461023 0.852892 0.095541
O O8 0.521695 0.513834 0.881420
O O9 0.413434 0.882408 0.422724
O O10 0.500000 0.000000 0.500000
O O11 0.882450 0.073504 0.334645
O O12 0.077618 0.203959 0.286450
O O13 0.000000 0.000000 0.000000
O O14 0.000000 0.500000 0.500000
#
# Coordination Sequence:
#
# PCOD9101578 Si02
#       6
#     2   2   2   2   2   2
#     4  10  20  38  60  83 116 164 213 260 306 369
#     4   9  19  38  62  92 116 155 204 252 316 369
#     4  10  20  38  61  82 117 165 210 262 310 364
#     4  10  20  39  60  88 124 158 203 252 314 370
#     4  10  22  42  59  89 128 167 211 259 313 377
#     4   9  18  37  64  89 123 153 198 259 308 376
#
# _framework density 25.143909000000001
#
# number of rings (size 3 to 8) (size 9 to 14) (size 15 to 20)
#    0.000    2.333    1.667    0.500    0.000    0.000 
#   21.000    0.000    0.000    0.000    0.000    0.000 
#    0.000    0.000    0.000    0.000    0.000    0.000 
#
# Total GULP energy -66934.520694 kJ/mol
# GULP energy per Si atom -5577.876724 kJ/mol
# Density = 2.508668 g / cm^3
# Si number density = 25.143909 Si / 1000 Ang^3
#
#
#
# Elastic Constant Matrix: (Units=GPa)
#
#
# Indices 1 2 3 4 5 6 
#
# 1 232.4857 42.6397 25.0194 -22.3236 -19.4803 -26.2046
# 2 42.6397 76.7839 8.6501 -46.4423 -2.2172 -52.3315
# 3 25.0194 8.6501 54.8067 -10.1836 -9.1850 6.6376
# 4 -22.3236 -46.4423 -10.1836 47.2125 8.9476 -11.6796
# 5 -19.4803 -2.2172 -9.1850 8.9476 27.5479 -7.5546
# 6 -26.2046 -52.3315 6.6376 -11.6796 -7.5546 64.2542
#
#
#
# Elastic Compliance Matrix: (Units=1/GPa)
#
#
# Indices 1 2 3 4 5 6 
#
# 1 0.005229 -0.001868 -0.001689 -0.000072 0.003326 0.001163
# 2 -0.001868 -0.027486 0.002386 -0.034830 0.000438 -0.029674
# 3 -0.001689 0.002386 0.020250 0.005272 0.004206 0.000616
# 4 -0.000072 -0.034830 0.005272 -0.019397 -0.003824 -0.032917
# 5 0.003326 0.000438 0.004206 -0.003824 0.042875 0.005624
# 6 0.001163 -0.029674 0.000616 -0.032917 0.005624 -0.013516
#
#
# Mechanical properties :
#
#
# Convention : Reuss Voigt Hill
#
# Bulk Modulus (GPa) = -229.95226 57.41054 -86.27086
# Shear Modulus (GPa) = 565.18476 46.98739 306.08607
#
# Velocity S-wave (km/s) = 15.00893 4.32758 11.04527
# Velocity P-wave (km/s) = 14.44660 6.91758 11.32602
#
# Compressibility (1/GPa) = -0.00434873
#
# Stress axis : x y z
#
# Youngs Moduli (GPa) = 191.25481 -36.38194 49.38222
#
# Poissons Ratio (x) = -0.06796 0.08340
# Poissons Ratio (y) = 0.35728 -0.11784
# Poissons Ratio (z) = 0.32301 0.08682
#
# Static dielectric constant tensor:
#      x y z
#    x 1.898600 -0.076260 -0.005930 
#    y -0.076260 2.081710 0.073070 
#    z -0.005930 0.073070 2.230480 
# 
# From -- ./inp_files/537086.got.cif
#   From: 2010.05.17/outbox.cif.g08.bks.cpg/sg2_269_cif.got.tgz:537086.got - 2010.06.03 11:33:40.
