data_PCOD9101673
_publ_section_title
;
Structure prediction by ZEFSAII (Michael W. Deem and Ramdas Pophale) SiO2 
 PCOD9101673
Probable space group: P -1
;
_chemical_formula_sum "Si O2"
_cell_formula_units_Z 16
_cell_length_a 8.231731
_cell_length_b 13.997091
_cell_length_c 14.731875
_cell_angle_alpha 50.097016
_cell_angle_beta 50.139331
_cell_angle_gamma 90.341090
_cell_volume 705.556310
_symmetry_space_group_name_H-M "P -1"
_symmetry_group_IT_number 2
_symmetry_cell_setting 'triclinic'
loop_
_space_group_symop_operation_xyz
x,y,z
-x,-y,-z
loop_
_atom_site_type_symbol
_atom_site_label
_atom_site_fract_x
_atom_site_fract_y
_atom_site_fract_z
Si Si1 0.590606 0.688728 0.302478
Si Si2 0.417155 0.847933 0.181554
Si Si3 0.027852 0.469373 0.111799
Si Si4 0.477782 0.170071 0.176916
Si Si5 0.865271 0.383508 0.750185
Si Si6 0.032032 0.193003 0.340217
Si Si7 0.503995 0.599184 0.581245
Si Si8 0.847171 0.661389 0.599828
O O1 0.652350 0.847645 0.138488
O O2 0.696297 0.713847 0.352706
O O3 0.655324 0.598345 0.269500
O O4 0.224089 0.530025 0.541349
O O5 0.221846 0.687211 0.277310
O O6 0.200399 0.803735 0.365387
O O7 0.500000 0.000000 0.000000
O O8 0.054841 0.332099 0.194512
O O9 0.734475 0.393087 0.317717
O O10 0.298142 0.657954 0.945252
O O11 0.000000 0.500000 0.000000
O O12 0.206193 0.150577 0.258256
O O13 0.306627 0.990930 0.402595
O O14 0.681126 0.221921 0.985388
O O15 0.759699 0.480289 0.749869
O O16 0.189555 0.284876 0.325270
O O17 0.688685 0.653527 0.573785
#
# Coordination Sequence:
#
# PCOD9101673 Si02
#       8
#     2   2   2   2   2   2   2   2
#     4  10  20  38  60  87 123 169 206 252 312 375
#     4  11  21  36  59  93 126 165 218 259 305 364
#     4  12  25  41  67  96 128 169 202 256 327 384
#     4  11  24  44  68  92 124 165 215 268 309 370
#     4  11  19  38  65  88 121 166 216 258 299 370
#     4  11  25  44  67  95 122 163 220 266 310 372
#     4  11  21  37  64  90 125 164 207 251 320 377
#     4  11  20  39  64  90 121 166 217 258 304 378
#
# _framework density 22.677140999999999
#
# number of rings (size 3 to 8) (size 9 to 14) (size 15 to 20)
#    0.000    1.000    5.000    3.375    1.750    0.500 
#    0.000    1.875    0.000    0.000    0.000    0.000 
#    0.000    0.000    0.000    0.000    0.000    0.000 
#
# Total GULP energy -89431.877674 kJ/mol
# GULP energy per Si atom -5589.492355 kJ/mol
# Density = 2.262553 g / cm^3
# Si number density = 22.677141 Si / 1000 Ang^3
#
#
#
# Elastic Constant Matrix: (Units=GPa)
#
#
# Indices 1 2 3 4 5 6 
#
# 1 92.1040 10.3903 11.1689 -14.6747 33.1476 0.4540
# 2 10.3903 45.4891 11.1069 2.3984 8.0087 -6.1615
# 3 11.1689 11.1069 78.0808 -17.3125 21.6172 0.3050
# 4 -14.6747 2.3984 -17.3125 41.7132 -6.7453 3.5456
# 5 33.1476 8.0087 21.6172 -6.7453 39.2520 3.8291
# 6 0.4540 -6.1615 0.3050 3.5456 3.8291 25.6825
#
#
#
# Elastic Compliance Matrix: (Units=1/GPa)
#
#
# Indices 1 2 3 4 5 6 
#
# 1 0.016765 -0.002164 0.003031 0.004861 -0.014614 0.000656
# 2 -0.002164 0.025067 -0.003548 -0.004745 -0.002849 0.007174
# 3 0.003031 -0.003548 0.017181 0.006819 -0.010073 -0.000548
# 4 0.004861 -0.004745 0.006819 0.028991 -0.001413 -0.005097
# 5 -0.014614 -0.002849 -0.010073 -0.001413 0.044359 -0.006724
# 6 0.000656 0.007174 -0.000548 -0.005097 -0.006724 0.042359
#
#
# Mechanical properties :
#
#
# Convention : Reuss Voigt Hill
#
# Bulk Modulus (GPa) = 18.63880 31.22290 24.93085
# Shear Modulus (GPa) = 25.25667 33.53006 29.39336
#
# Velocity S-wave (km/s) = 3.34091 3.84941 3.60414
# Velocity P-wave (km/s) = 4.80825 5.79272 5.32329
#
# Compressibility (1/GPa) = 0.05365152
#
# Stress axis : x y z
#
# Youngs Moduli (GPa) = 59.64981 39.89266 58.20355
#
# Poissons Ratio (x) = 0.08632 -0.17641
# Poissons Ratio (y) = 0.12907 0.20649
# Poissons Ratio (z) = -0.18080 0.14153
#
# Static dielectric constant tensor:
#      x y z
#    x 1.882280 -0.029510 0.004970 
#    y -0.029510 1.870920 -0.007280 
#    z 0.004970 -0.007280 1.903120 
# 
# From -- ./inp_files/398895.got.cif
#   From: 2010.05.17/outbox.cif.g08.bks.cpg/sg2_200_cif.got.tgz:398895.got - 2010.06.03 11:33:40.
