data_PCOD9101378
_publ_section_title
;
Structure prediction by ZEFSAII (Michael W. Deem and Ramdas Pophale) SiO2 
 PCOD9101378
Probable space group: P -1
;
_chemical_formula_sum "Si O2"
_cell_formula_units_Z 16
_cell_length_a 6.533341
_cell_length_b 14.470296
_cell_length_c 15.767199
_cell_angle_alpha 36.644452
_cell_angle_beta 114.015514
_cell_angle_gamma 96.837035
_cell_volume 751.496134
_symmetry_space_group_name_H-M "P -1"
_symmetry_group_IT_number 2
_symmetry_cell_setting 'triclinic'
loop_
_space_group_symop_operation_xyz
x,y,z
-x,-y,-z
loop_
_atom_site_type_symbol
_atom_site_label
_atom_site_fract_x
_atom_site_fract_y
_atom_site_fract_z
Si Si1 0.851593 0.166578 0.667067
Si Si2 0.670842 0.815069 0.195895
Si Si3 0.280545 0.638803 0.747891
Si Si4 0.335884 0.130733 0.146866
Si Si5 0.761710 0.605423 0.931060
Si Si6 0.171428 0.405458 0.771211
Si Si7 0.356688 0.344872 0.511126
Si Si8 0.866635 0.895402 0.418092
O O1 0.612069 0.331456 0.525942
O O2 0.066269 0.175722 0.753995
O O3 0.976236 0.126873 0.624677
O O4 0.759360 0.016511 0.777143
O O5 0.693640 0.677074 0.230764
O O6 0.602727 0.752703 0.319908
O O7 0.500000 0.000000 0.000000
O O8 0.535956 0.652776 0.794678
O O9 0.254803 0.544472 0.726744
O O10 0.066493 0.822203 0.578322
O O11 0.261687 0.516980 0.908675
O O12 0.231503 0.231761 0.140837
O O13 0.630000 0.065602 0.252827
O O14 0.242860 0.257125 0.960448
O O15 0.000000 0.500000 0.000000
O O16 0.880889 0.485517 0.646689
O O17 0.260133 0.239455 0.507927
#
# Coordination Sequence:
#
# PCOD9101378 Si02
#       8
#     2   2   2   2   2   2   2   2
#     4  10  21  38  57  82 117 150 183 232 279 326
#     4  11  22  36  57  84 115 152 190 229 278 331
#     4   9  21  40  60  81 114 148 185 237 281 327
#     4  10  22  38  58  85 113 146 189 229 279 342
#     4  10  22  39  60  87 113 145 188 232 282 336
#     4  10  20  38  59  81 113 151 188 232 280 331
#     4   9  20  37  56  83 115 147 192 233 272 332
#     4   9  19  38  60  83 113 150 187 227 280 334
#
# _framework density 21.290859999999999
#
# number of rings (size 3 to 8) (size 9 to 14) (size 15 to 20)
#    0.000    2.250    0.000    2.625    0.000   11.000 
#    0.000    7.500    0.000    0.000    0.000    0.000 
#    0.000    0.000    0.000    0.000    0.000    0.000 
#
# Total GULP energy -89218.842465 kJ/mol
# GULP energy per Si atom -5576.177654 kJ/mol
# Density = 2.124240 g / cm^3
# Si number density = 21.290860 Si / 1000 Ang^3
#
#
#
# Elastic Constant Matrix: (Units=GPa)
#
#
# Indices 1 2 3 4 5 6 
#
# 1 81.9266 34.8661 34.4879 5.0641 25.3307 -7.6214
# 2 34.8661 98.6201 23.6495 0.1399 7.7011 -10.6604
# 3 34.4879 23.6495 120.8737 -5.9095 26.0755 -3.6920
# 4 5.0641 0.1399 -5.9095 24.1216 3.4634 8.4771
# 5 25.3307 7.7011 26.0755 3.4634 27.3318 -11.8431
# 6 -7.6214 -10.6604 -3.6920 8.4771 -11.8431 25.8140
#
#
#
# Elastic Compliance Matrix: (Units=1/GPa)
#
#
# Indices 1 2 3 4 5 6 
#
# 1 0.020458 -0.006161 -0.000721 0.000133 -0.018850 -0.005299
# 2 -0.006161 0.013177 -0.002578 -0.003567 0.008520 0.008334
# 3 -0.000721 -0.002578 0.012563 0.008956 -0.015945 -0.009737
# 4 0.000133 -0.003567 0.008956 0.059619 -0.029664 -0.033341
# 5 -0.018850 0.008520 -0.015945 -0.029664 0.091080 0.047200
# 6 -0.005299 0.008334 -0.009737 -0.033341 0.047200 0.071827
#
#
# Mechanical properties :
#
#
# Convention : Reuss Voigt Hill
#
# Bulk Modulus (GPa) = 36.65801 54.15858 45.40830
# Shear Modulus (GPa) = 16.84989 29.34795 23.09892
#
# Velocity S-wave (km/s) = 2.81626 3.71675 3.29739
# Velocity P-wave (km/s) = 5.27543 6.62659 5.98923
#
# Compressibility (1/GPa) = 0.02727917
#
# Stress axis : x y z
#
# Youngs Moduli (GPa) = 48.87949 75.89028 79.59631
#
# Poissons Ratio (x) = 0.46756 0.05737
# Poissons Ratio (y) = 0.30115 0.20520
# Poissons Ratio (z) = 0.03523 0.19564
#
# Static dielectric constant tensor:
#      x y z
#    x 1.769550 -0.015510 0.017060 
#    y -0.015510 1.799560 -0.019070 
#    z 0.017060 -0.019070 1.816800 
# 
# From -- ./inp_files/55636.got.cif
#   From: 2010.05.17/outbox.cif.g08.bks.cpg/sg2_28_cif.got.tgz:55636.got - 2010.06.03 11:33:40.
