data_PCOD9101484
_publ_section_title
;
Structure prediction by ZEFSAII (Michael W. Deem and Ramdas Pophale) SiO2 
 PCOD9101484
Probable space group: P -1
;
_chemical_formula_sum "Si O2"
_cell_formula_units_Z 14
_cell_length_a 11.289327
_cell_length_b 15.711909
_cell_length_c 5.484326
_cell_angle_alpha 117.469304
_cell_angle_beta 58.413552
_cell_angle_gamma 129.358596
_cell_volume 628.294888
_symmetry_space_group_name_H-M "P -1"
_symmetry_group_IT_number 2
_symmetry_cell_setting 'triclinic'
loop_
_space_group_symop_operation_xyz
x,y,z
-x,-y,-z
loop_
_atom_site_type_symbol
_atom_site_label
_atom_site_fract_x
_atom_site_fract_y
_atom_site_fract_z
Si Si1 0.693746 0.542195 0.699289
Si Si2 0.336770 0.003042 0.728316
Si Si3 0.088970 0.372465 0.800750
Si Si4 0.410059 0.132215 0.332097
Si Si5 0.828833 0.431023 0.731653
Si Si6 0.771149 0.223419 0.262684
Si Si7 0.621806 0.652192 0.322277
O O1 0.876929 0.625168 0.517219
O O2 0.708922 0.460564 0.763157
O O3 0.554173 0.453439 0.553196
O O4 0.637144 0.619973 0.985225
O O5 0.314324 0.052628 0.564772
O O6 0.500000 0.000000 0.500000
O O7 0.210521 0.874536 0.767206
O O8 0.361945 0.073816 0.041273
O O9 0.223517 0.345513 0.721390
O O10 0.142266 0.502585 0.961824
O O11 0.918172 0.294493 0.009353
O O12 0.599931 0.174605 0.238928
O O13 0.382077 0.236043 0.497955
O O14 0.767989 0.302317 0.584840
O O15 0.000000 0.500000 0.500000
#
# Coordination Sequence:
#
# PCOD9101484 Si02
#       7
#     2   2   2   2   2   2   2
#     4  10  20  38  59  88 126 164 209 249 317 390
#     4  10  23  43  66  97 126 163 220 266 317 371
#     4  10  22  38  60  92 128 164 205 257 323 384
#     4  11  23  44  69  95 123 169 219 265 313 376
#     4   9  19  36  54  92 127 152 204 250 320 380
#     4  10  20  41  60  92 125 161 211 268 320 368
#     4  10  22  39  60  88 126 165 212 255 315 379
#
# _framework density 22.282530000000001
#
# number of rings (size 3 to 8) (size 9 to 14) (size 15 to 20)
#    0.000    2.000    1.429    2.143    2.000    4.571 
#   25.714    1.429    0.000    0.000    0.000    0.000 
#    0.000    0.000    0.000    0.000    0.000    0.000 
#
# Total GULP energy -78044.233237 kJ/mol
# GULP energy per Si atom -5574.588088 kJ/mol
# Density = 2.223181 g / cm^3
# Si number density = 22.282530 Si / 1000 Ang^3
#
#
#
# Elastic Constant Matrix: (Units=GPa)
#
#
# Indices 1 2 3 4 5 6 
#
# 1 94.8845 21.8028 25.0137 1.3342 -5.1109 -17.5158
# 2 21.8028 114.7050 81.4459 12.5465 0.9025 -10.5859
# 3 25.0137 81.4459 140.3793 11.4945 -13.6375 -15.3170
# 4 1.3342 12.5465 11.4945 40.6893 -1.2868 -13.6790
# 5 -5.1109 0.9025 -13.6375 -1.2868 23.8902 -4.8063
# 6 -17.5158 -10.5859 -15.3170 -13.6790 -4.8063 26.6018
#
#
#
# Elastic Compliance Matrix: (Units=1/GPa)
#
#
# Indices 1 2 3 4 5 6 
#
# 1 0.013262 -0.002239 0.000363 0.004082 0.005594 0.011160
# 2 -0.002239 0.016311 -0.009957 -0.003753 -0.007797 -0.004055
# 3 0.000363 -0.009957 0.014500 0.001777 0.010316 0.007403
# 4 0.004082 -0.003753 0.001777 0.032117 0.007812 0.020144
# 5 0.005594 -0.007797 0.010316 0.007812 0.053732 0.020246
# 6 0.011160 -0.004055 0.007403 0.020144 0.020246 0.061604
#
#
# Mechanical properties :
#
#
# Convention : Reuss Voigt Hill
#
# Bulk Modulus (GPa) = 49.00313 67.38816 58.19565
# Shear Modulus (GPa) = 22.52285 33.01668 27.76977
#
# Velocity S-wave (km/s) = 3.18273 3.85350 3.53407
# Velocity P-wave (km/s) = 5.96204 7.07867 6.54421
#
# Compressibility (1/GPa) = 0.02040686
#
# Stress axis : x y z
#
# Youngs Moduli (GPa) = 75.40356 61.30702 68.96328
#
# Poissons Ratio (x) = 0.13726 -0.02502
# Poissons Ratio (y) = 0.16882 0.68669
# Poissons Ratio (z) = -0.02735 0.61045
#
# Static dielectric constant tensor:
#      x y z
#    x 1.911810 0.012010 0.087730 
#    y 0.012010 1.896520 -0.058030 
#    z 0.087730 -0.058030 1.923260 
# 
# From -- ./inp_files/76605.got.cif
#   From: 2010.05.17/outbox.cif.g08.bks.cpg/sg2_39_cif.got.tgz:76605.got - 2010.06.03 11:33:40.
