data_PCOD9101843
_publ_section_title
;
Structure prediction by ZEFSAII (Michael W. Deem and Ramdas Pophale) SiO2 
 PCOD9101843
Probable space group: P -1
;
_chemical_formula_sum "Si O2"
_cell_formula_units_Z 16
_cell_length_a 20.299400
_cell_length_b 11.112597
_cell_length_c 9.594581
_cell_angle_alpha 105.992259
_cell_angle_beta 143.977120
_cell_angle_gamma 46.677876
_cell_volume 701.310494
_symmetry_space_group_name_H-M "P -1"
_symmetry_group_IT_number 2
_symmetry_cell_setting 'triclinic'
loop_
_space_group_symop_operation_xyz
x,y,z
-x,-y,-z
loop_
_atom_site_type_symbol
_atom_site_label
_atom_site_fract_x
_atom_site_fract_y
_atom_site_fract_z
Si Si1 0.759359 0.296127 0.077968
Si Si2 0.331584 0.253481 0.252592
Si Si3 0.234474 0.617386 0.595850
Si Si4 0.984680 0.643024 0.247530
Si Si5 0.321734 0.348024 0.952221
Si Si6 0.623024 0.144259 0.860101
Si Si7 0.932657 0.018067 0.741550
Si Si8 0.391220 0.862186 0.846867
O O1 0.864345 0.238822 0.384974
O O2 0.651115 0.526990 0.932331
O O3 0.651983 0.265911 0.925523
O O4 0.896324 0.147990 0.132748
O O5 0.414522 0.298889 0.486908
O O6 0.500000 0.000000 0.500000
O O7 0.120070 0.391856 0.974875
O O8 0.331298 0.272289 0.091624
O O9 0.205409 0.744003 0.470646
O O10 0.139981 0.568741 0.388802
O O11 0.455984 0.391261 0.945077
O O12 0.113977 0.516877 0.571370
O O13 0.803209 0.906420 0.021119
O O14 0.490659 0.161325 0.068570
O O15 0.640833 0.074376 0.026577
O O16 0.808055 0.005207 0.517341
O O17 0.000000 0.000000 0.000000
#
# Coordination Sequence:
#
# PCOD9101843 Si02
#       8
#     2   2   2   2   2   2   2   2
#     4  10  21  37  60  87 122 160 194 229 302 367
#     4  10  23  40  62  86 114 161 208 244 291 349
#     4  10  20  38  61  83 120 162 195 232 295 358
#     4   9  19  39  64  83 113 163 206 238 284 353
#     4  10  23  38  63  91 121 152 198 252 294 349
#     4  11  20  37  65  85 122 161 198 233 300 357
#     4  12  23  33  55  90 127 152 189 241 294 351
#     4  10  22  37  57  91 121 156 193 241 300 353
#
# _framework density 22.814430000000002
#
# number of rings (size 3 to 8) (size 9 to 14) (size 15 to 20)
#    0.000    2.000    2.500    2.625    3.500    1.500 
#    0.000    5.000    0.000    6.000    0.000    0.000 
#    0.000    0.000    0.000    0.000    0.000    0.000 
#
# Total GULP energy -89178.939754 kJ/mol
# GULP energy per Si atom -5573.683735 kJ/mol
# Density = 2.276250 g / cm^3
# Si number density = 22.814430 Si / 1000 Ang^3
#
#
#
# Elastic Constant Matrix: (Units=GPa)
#
#
# Indices 1 2 3 4 5 6 
#
# 1 69.7531 14.3892 45.6273 5.4115 13.6654 6.1747
# 2 14.3892 31.7904 18.0651 7.3717 10.2817 3.7227
# 3 45.6273 18.0651 121.0657 41.6937 24.0608 5.3433
# 4 5.4115 7.3717 41.6937 27.5283 12.9821 7.1871
# 5 13.6654 10.2817 24.0608 12.9821 39.3151 3.0621
# 6 6.1747 3.7227 5.3433 7.1871 3.0621 31.4374
#
#
#
# Elastic Compliance Matrix: (Units=1/GPa)
#
#
# Indices 1 2 3 4 5 6 
#
# 1 0.025881 -0.005816 -0.016288 0.025487 -0.005383 -0.006929
# 2 -0.005816 0.037554 -0.000424 -0.005189 -0.005711 -0.001490
# 3 -0.016288 -0.000424 0.028469 -0.042765 0.001847 0.008007
# 4 0.025487 -0.005189 -0.042765 0.110559 -0.016216 -0.020819
# 5 -0.005383 -0.005711 0.001847 -0.016216 0.032874 0.001925
# 6 -0.006929 -0.001490 0.008007 -0.020819 0.001925 0.036558
#
#
# Mechanical properties :
#
#
# Convention : Reuss Voigt Hill
#
# Bulk Modulus (GPa) = 21.34564 42.08583 31.71573
# Shear Modulus (GPa) = 15.03450 29.29131 22.16290
#
# Velocity S-wave (km/s) = 2.56987 3.58703 3.12018
# Velocity P-wave (km/s) = 4.26405 5.97016 5.18772
#
# Compressibility (1/GPa) = 0.04684798
#
# Stress axis : x y z
#
# Youngs Moduli (GPa) = 38.63817 26.62810 35.12573
#
# Poissons Ratio (x) = 0.15488 0.57213
# Poissons Ratio (y) = 0.22474 0.01489
# Poissons Ratio (z) = 0.62934 0.01129
#
# Static dielectric constant tensor:
#      x y z
#    x 1.904870 -0.017680 0.066770 
#    y -0.017680 1.967750 0.024040 
#    z 0.066770 0.024040 1.892430 
# 
# From -- ./inp_files/333455.got.cif
#   From: 2010.05.17/outbox.cif.g08.bks.cpg/sg2_167_cif.got.tgz:333455.got - 2010.06.03 11:33:40.
