data_PCOD9101000
_publ_section_title
;
Structure prediction by ZEFSAII (Michael W. Deem and Ramdas Pophale) SiO2 
 PCOD9101000
Probable space group: P -1
;
_chemical_formula_sum "Si O2"
_cell_formula_units_Z 14
_cell_length_a 20.718571
_cell_length_b 7.557374
_cell_length_c 6.536532
_cell_angle_alpha 80.196136
_cell_angle_beta 96.329667
_cell_angle_gamma 146.018788
_cell_volume 562.798366
_symmetry_space_group_name_H-M "P -1"
_symmetry_group_IT_number 2
_symmetry_cell_setting 'triclinic'
loop_
_space_group_symop_operation_xyz
x,y,z
-x,-y,-z
loop_
_atom_site_type_symbol
_atom_site_label
_atom_site_fract_x
_atom_site_fract_y
_atom_site_fract_z
Si Si1 0.494471 0.773197 0.426758
Si Si2 0.067642 0.233291 0.279665
Si Si3 0.806841 0.258652 0.282714
Si Si4 0.417334 0.337644 0.815058
Si Si5 0.254718 0.551330 0.535378
Si Si6 0.050820 0.846892 0.081221
Si Si7 0.754434 0.815262 0.642479
O O1 0.446567 0.588393 0.661154
O O2 0.553974 0.748434 0.325661
O O3 0.379524 0.546222 0.296467
O O4 0.607171 0.148942 0.445646
O O5 0.200388 0.554139 0.337123
O O6 0.074094 0.095024 0.138722
O O7 0.000000 0.000000 0.500000
O O8 0.996436 0.231174 0.149704
O O9 0.791976 0.437876 0.291308
O O10 0.938407 0.518532 0.226324
O O11 0.717870 0.999461 0.125095
O O12 0.766904 0.037100 0.497174
O O13 0.500000 0.500000 0.000000
O O14 0.210847 0.255521 0.504304
O O15 0.165440 0.008650 0.164059
#
# Coordination Sequence:
#
# PCOD9101000 Si02
#       7
#     2   2   2   2   2   2   2
#     4   9  19  37  58  89 123 159 204 248 305 359
#     4  10  20  38  62  90 119 156 212 252 297 368
#     4  10  20  38  63  92 123 160 211 247 305 371
#     4   9  19  35  61  88 121 161 203 255 295 362
#     4  10  20  37  68  84 120 172 196 254 311 348
#     4  10  21  37  61  90 122 165 199 253 310 359
#     4  10  21  38  61  92 134 156 201 260 296 372
#
# _framework density 24.875695
#
# number of rings (size 3 to 8) (size 9 to 14) (size 15 to 20)
#    0.000    2.286    1.429    1.714    2.000    0.000 
#    0.000    6.429    0.000    8.571    0.000    0.000 
#    0.000    0.000    0.000    0.000    0.000    0.000 
#
# Total GULP energy -78009.258474 kJ/mol
# GULP energy per Si atom -5572.089891 kJ/mol
# Density = 2.481908 g / cm^3
# Si number density = 24.875695 Si / 1000 Ang^3
#
#
#
# Elastic Constant Matrix: (Units=GPa)
#
#
# Indices 1 2 3 4 5 6 
#
# 1 96.1781 45.9528 19.4560 10.3997 7.0646 10.4940
# 2 45.9528 133.3186 38.6574 37.6675 12.1486 30.9548
# 3 19.4560 38.6574 78.0484 22.0382 23.4469 13.6313
# 4 10.3997 37.6675 22.0382 32.5272 19.2826 12.3069
# 5 7.0646 12.1486 23.4469 19.2826 29.6425 21.4456
# 6 10.4940 30.9548 13.6313 12.3069 21.4456 58.8234
#
#
#
# Elastic Compliance Matrix: (Units=1/GPa)
#
#
# Indices 1 2 3 4 5 6 
#
# 1 0.012817 -0.005458 -0.000794 0.004786 -0.004258 0.001321
# 2 -0.005458 0.018302 -0.005412 -0.024663 0.021389 -0.010041
# 3 -0.000794 -0.005412 0.019657 0.001984 -0.017655 0.004456
# 4 0.004786 -0.024663 0.001984 0.085981 -0.059706 0.015444
# 5 -0.004258 0.021389 -0.017655 -0.059706 0.101034 -0.030747
# 6 0.001321 -0.010041 0.004456 0.015444 -0.030747 0.028994
#
#
# Mechanical properties :
#
#
# Convention : Reuss Voigt Hill
#
# Bulk Modulus (GPa) = 36.43523 57.29751 46.86637
# Shear Modulus (GPa) = 16.70763 37.76389 27.23576
#
# Velocity S-wave (km/s) = 2.59442 3.90051 3.31248
# Velocity P-wave (km/s) = 4.86348 6.58550 5.78888
#
# Compressibility (1/GPa) = 0.02744596
#
# Stress axis : x y z
#
# Youngs Moduli (GPa) = 78.02021 54.63827 50.87307
#
# Poissons Ratio (x) = 0.29824 0.04041
# Poissons Ratio (y) = 0.42587 0.27534
# Poissons Ratio (z) = 0.06198 0.29572
#
# Static dielectric constant tensor:
#      x y z
#    x 2.082980 0.035870 0.003750 
#    y 0.035870 2.059510 0.029660 
#    z 0.003750 0.029660 1.984070 
# 
# From -- ./inp_files/122885.got.cif
#   From: 2010.05.17/outbox.cif.g08.bks.cpg/sg2_62_cif.got.tgz:122885.got - 2010.06.03 11:33:40.
