data_PCOD9101157
_publ_section_title
;
Structure prediction by ZEFSAII (Michael W. Deem and Ramdas Pophale) SiO2 
 PCOD9101157
Probable space group: P -1
;
_chemical_formula_sum "Si O2"
_cell_formula_units_Z 16
_cell_length_a 5.391025
_cell_length_b 5.363803
_cell_length_c 24.682315
_cell_angle_alpha 62.120251
_cell_angle_beta 90.430577
_cell_angle_gamma 79.538968
_cell_volume 616.879731
_symmetry_space_group_name_H-M "P -1"
_symmetry_group_IT_number 2
_symmetry_cell_setting 'triclinic'
loop_
_space_group_symop_operation_xyz
x,y,z
-x,-y,-z
loop_
_atom_site_type_symbol
_atom_site_label
_atom_site_fract_x
_atom_site_fract_y
_atom_site_fract_z
Si Si1 0.650452 0.878840 0.161016
Si Si2 0.837066 0.143271 0.898485
Si Si3 0.395935 0.941654 0.741277
Si Si4 0.898796 0.113335 0.402056
Si Si5 0.741121 0.734312 0.519132
Si Si6 0.668720 0.579661 0.943811
Si Si7 0.096355 0.118335 0.284387
Si Si8 0.545219 0.384153 0.632615
O O1 0.532651 0.222130 0.117292
O O2 0.434270 0.755940 0.142316
O O3 0.645323 0.849023 0.228554
O O4 0.924029 0.814948 0.140491
O O5 0.817916 0.310646 0.937779
O O6 0.843871 0.800990 0.939833
O O7 0.678935 0.761373 0.754045
O O8 0.378353 0.142133 0.666527
O O9 0.166930 0.782155 0.755633
O O10 0.624059 0.324181 0.375114
O O11 0.050092 0.230206 0.439227
O O12 0.856246 0.802389 0.454815
O O13 0.053102 0.144452 0.345281
O O14 0.633946 0.455474 0.565713
O O15 0.500000 0.000000 0.500000
O O16 0.500000 0.500000 0.000000
O O17 0.212095 0.770059 0.315501
#
# Coordination Sequence:
#
# PCOD9101157 Si02
#       8
#     2   2   2   2   2   2   2   2
#     4  10  24  44  67  96 147 178 243 283 355 408
#     4  10  24  42  73 102 144 188 236 286 353 408
#     4  10  22  45  59  90 126 165 213 284 318 412
#     4  10  20  38  56  87 116 160 201 267 328 409
#     4   9  19  35  58  82 121 152 205 259 331 402
#     4  10  24  45  72 109 147 189 237 291 350 415
#     4  10  23  38  63  84 121 154 216 255 338 385
#     4   9  21  36  60  82 119 152 208 252 327 384
#
# _framework density 25.936986000000001
#
# number of rings (size 3 to 8) (size 9 to 14) (size 15 to 20)
#    1.500    0.750    0.000    1.875    5.250    1.500 
#    4.500    6.250    0.000    0.000    0.000    0.000 
#    0.000    0.000    0.000    0.000    0.000    0.000 
#
# Total GULP energy -89369.686220 kJ/mol
# GULP energy per Si atom -5585.605389 kJ/mol
# Density = 2.587795 g / cm^3
# Si number density = 25.936986 Si / 1000 Ang^3
#
#
#
# Elastic Constant Matrix: (Units=GPa)
#
#
# Indices 1 2 3 4 5 6 
#
# 1 177.8967 48.4144 58.8326 19.1207 -27.3276 -15.8981
# 2 48.4144 114.4535 51.6676 18.1430 -18.7282 2.0968
# 3 58.8326 51.6676 104.1785 20.9562 -30.1802 5.7756
# 4 19.1207 18.1430 20.9562 51.1208 -5.2389 -11.8165
# 5 -27.3276 -18.7282 -30.1802 -5.2389 53.6651 2.0255
# 6 -15.8981 2.0968 5.7756 -11.8165 2.0255 36.2464
#
#
#
# Elastic Compliance Matrix: (Units=1/GPa)
#
#
# Indices 1 2 3 4 5 6 
#
# 1 0.007742 -0.001600 -0.003453 0.000149 0.001305 0.004014
# 2 -0.001600 0.011809 -0.004221 -0.002116 0.000781 -0.001446
# 3 -0.003453 -0.004221 0.016623 -0.004764 0.005871 -0.005800
# 4 0.000149 -0.002116 -0.004764 0.024128 -0.001322 0.008887
# 5 0.001305 0.000781 0.005871 -0.001322 0.022823 -0.002114
# 6 0.004014 -0.001446 -0.005800 0.008887 -0.002114 0.033373
#
#
# Mechanical properties :
#
#
# Convention : Reuss Voigt Hill
#
# Bulk Modulus (GPa) = 56.73501 79.37311 68.05406
# Shear Modulus (GPa) = 35.48056 44.04742 39.76399
#
# Velocity S-wave (km/s) = 3.70260 4.12545 3.91973
# Velocity P-wave (km/s) = 6.34040 7.30487 6.83966
#
# Compressibility (1/GPa) = 0.01762580
#
# Stress axis : x y z
#
# Youngs Moduli (GPa) = 129.17007 84.67968 60.15693
#
# Poissons Ratio (x) = 0.13545 0.20773
# Poissons Ratio (y) = 0.20662 0.25395
# Poissons Ratio (z) = 0.44604 0.35747
#
# Static dielectric constant tensor:
#      x y z
#    x 2.080400 0.001960 0.010280 
#    y 0.001960 2.060480 -0.044190 
#    z 0.010280 -0.044190 2.009090 
# 
# From -- ./inp_files/603157.got.cif
#   From: 2010.05.17/outbox.cif.g08.bks.cpg/sg2_302_cif.got.tgz:603157.got - 2010.06.03 11:33:40.
