data_PCOD9101899
_publ_section_title
;
Structure prediction by ZEFSAII (Michael W. Deem and Ramdas Pophale) SiO2 
 PCOD9101899
Probable space group: P -1
;
_chemical_formula_sum "Si O2"
_cell_formula_units_Z 16
_cell_length_a 13.496294
_cell_length_b 11.481392
_cell_length_c 9.518318
_cell_angle_alpha 37.008061
_cell_angle_beta 133.196701
_cell_angle_gamma 134.605659
_cell_volume 605.148564
_symmetry_space_group_name_H-M "P -1"
_symmetry_group_IT_number 2
_symmetry_cell_setting 'triclinic'
loop_
_space_group_symop_operation_xyz
x,y,z
-x,-y,-z
loop_
_atom_site_type_symbol
_atom_site_label
_atom_site_fract_x
_atom_site_fract_y
_atom_site_fract_z
Si Si1 0.926772 0.107715 0.216330
Si Si2 0.694426 0.072102 0.711840
Si Si3 0.608130 0.312764 0.865341
Si Si4 0.871325 0.382708 0.378134
Si Si5 0.316543 0.267202 0.777400
Si Si6 0.873760 0.450263 0.721199
Si Si7 0.444363 0.098449 0.632069
Si Si8 0.781534 0.680178 0.839412
O O1 0.052145 0.168835 0.158728
O O2 0.773242 0.930943 0.210944
O O3 0.895196 0.319777 0.001794
O O4 0.000000 0.000000 0.500000
O O5 0.763454 0.165123 0.540596
O O6 0.807359 0.249656 0.748282
O O7 0.542132 0.083217 0.608620
O O8 0.689207 0.843455 0.970009
O O9 0.475713 0.347501 0.789227
O O10 0.551212 0.230559 0.734263
O O11 0.736762 0.531323 0.801086
O O12 0.629975 0.124962 0.152439
O O13 0.000000 0.500000 0.500000
O O14 0.969517 0.391378 0.328622
O O15 0.778147 0.526471 0.112081
O O16 0.233161 0.424937 0.529087
O O17 0.330769 0.203674 0.378927
#
# Coordination Sequence:
#
# PCOD9101899 Si02
#       8
#     2   2   2   2   2   2   2   2
#     4  10  22  37  55  87 124 156 201 253 301 367
#     4   9  19  37  59  86 118 157 206 249 298 362
#     4  10  22  40  62  92 127 159 203 253 307 375
#     4   9  20  40  60  86 125 162 206 260 304 358
#     4  10  20  38  61  86 119 161 202 245 306 369
#     4   9  19  36  59  82 113 160 202 244 306 361
#     4  10  21  38  62  88 125 166 197 252 315 361
#     4  11  22  38  63  92 122 162 209 251 306 372
#
# _framework density 26.439788
#
# number of rings (size 3 to 8) (size 9 to 14) (size 15 to 20)
#    0.000    2.250    0.000    2.625    0.000    5.500 
#    0.000    5.000    0.000    2.250    0.000    0.000 
#    0.000    0.000    0.000    0.000    0.000    0.000 
#
# Total GULP energy -89466.839648 kJ/mol
# GULP energy per Si atom -5591.677478 kJ/mol
# Density = 2.637961 g / cm^3
# Si number density = 26.439788 Si / 1000 Ang^3
#
#
#
# Elastic Constant Matrix: (Units=GPa)
#
#
# Indices 1 2 3 4 5 6 
#
# 1 84.4782 28.4315 81.1006 -12.2037 -2.9204 20.6776
# 2 28.4315 92.1612 20.2525 -4.7426 7.6663 8.6607
# 3 81.1006 20.2525 252.9837 -15.5336 32.1601 7.7584
# 4 -12.2037 -4.7426 -15.5336 44.8172 10.2624 -5.2903
# 5 -2.9204 7.6663 32.1601 10.2624 47.0083 -1.4012
# 6 20.6776 8.6607 7.7584 -5.2903 -1.4012 46.1477
#
#
#
# Elastic Compliance Matrix: (Units=1/GPa)
#
#
# Indices 1 2 3 4 5 6 
#
# 1 0.023230 -0.005317 -0.007664 0.000531 0.007204 -0.007843
# 2 -0.005317 0.012583 0.001206 0.001072 -0.003446 -0.000164
# 3 -0.007664 0.001206 0.007137 0.002123 -0.005958 0.002070
# 4 0.000531 0.001072 0.002123 0.025137 -0.007026 0.001872
# 5 0.007204 -0.003446 -0.005958 -0.007026 0.027846 -0.001539
# 6 -0.007843 -0.000164 0.002070 0.001872 -0.001539 0.025034
#
#
# Mechanical properties :
#
#
# Convention : Reuss Voigt Hill
#
# Bulk Modulus (GPa) = 51.54511 76.57691 64.06101
# Shear Modulus (GPa) = 33.11620 47.58388 40.35004
#
# Velocity S-wave (km/s) = 3.54293 4.24690 3.91078
# Velocity P-wave (km/s) = 6.02279 7.28518 6.68386
#
# Compressibility (1/GPa) = 0.01940048
#
# Stress axis : x y z
#
# Youngs Moduli (GPa) = 43.04827 79.47228 140.10817
#
# Poissons Ratio (x) = 0.42256 1.07377
# Poissons Ratio (y) = 0.22889 -0.16899
# Poissons Ratio (z) = 0.32992 -0.09585
#
# Static dielectric constant tensor:
#      x y z
#    x 2.180380 -0.046630 -0.085650 
#    y -0.046630 2.104950 0.078560 
#    z -0.085650 0.078560 2.165060 
# 
# From -- ./inp_files/454415.got.cif
#   From: 2010.05.17/outbox.cif.g08.bks.cpg/sg2_228_cif.got.tgz:454415.got - 2010.06.03 11:33:40.
