data_PCOD9101957
_publ_section_title
;
Structure prediction by ZEFSAII (Michael W. Deem and Ramdas Pophale) SiO2 
 PCOD9101957
Probable space group: P -1
;
_chemical_formula_sum "Si O2"
_cell_formula_units_Z 16
_cell_length_a 16.101425
_cell_length_b 8.310418
_cell_length_c 9.705901
_cell_angle_alpha 44.142492
_cell_angle_beta 85.624695
_cell_angle_gamma 112.383790
_cell_volume 702.408417
_symmetry_space_group_name_H-M "P -1"
_symmetry_group_IT_number 2
_symmetry_cell_setting 'triclinic'
loop_
_space_group_symop_operation_xyz
x,y,z
-x,-y,-z
loop_
_atom_site_type_symbol
_atom_site_label
_atom_site_fract_x
_atom_site_fract_y
_atom_site_fract_z
Si Si1 0.972673 0.483938 0.175589
Si Si2 0.101249 0.353404 0.680408
Si Si3 0.275292 0.253948 0.719389
Si Si4 0.275378 0.005988 0.155843
Si Si5 0.231818 0.141334 0.492891
Si Si6 0.926372 0.738200 0.560291
Si Si7 0.596983 0.494761 0.965823
Si Si8 0.452595 0.913452 0.213555
O O1 0.958922 0.687939 0.145532
O O2 0.061024 0.495523 0.241901
O O3 0.855368 0.161349 0.389579
O O4 0.000000 0.500000 0.000000
O O5 0.188572 0.306225 0.725249
O O6 0.037697 0.184763 0.650598
O O7 0.166123 0.697259 0.410116
O O8 0.240026 0.080139 0.686708
O O9 0.389442 0.575358 0.475933
O O10 0.277383 0.085865 0.949017
O O11 0.313988 0.297905 0.057771
O O12 0.363229 0.959413 0.197029
O O13 0.186804 0.326917 0.383851
O O14 0.344756 0.334222 0.287530
O O15 0.000000 0.000000 0.500000
O O16 0.500000 0.500000 0.000000
O O17 0.545751 0.154440 0.159163
O O18 0.500000 0.000000 0.000000
#
# Coordination Sequence:
#
# PCOD9101957 Si02
#       8
#     2   2   2   2   2   2   2   2
#     4  11  23  39  62  95 121 163 215 258 314 376
#     4  10  21  42  64  87 130 161 204 266 312 370
#     4  10  22  39  62  93 122 165 210 250 314 379
#     4  10  22  38  62  91 121 166 204 250 321 367
#     4  10  20  41  60  86 128 161 205 262 307 374
#     4   9  21  40  62  86 120 168 203 254 324 368
#     4  10  20  38  63  87 126 166 199 253 317 367
#     4  10  20  38  61  88 127 162 203 255 307 370
#
# _framework density 22.778767999999999
#
# number of rings (size 3 to 8) (size 9 to 14) (size 15 to 20)
#    0.000    2.000    2.500    0.375    1.750    2.000 
#    2.250    4.375    0.000    0.000    0.000    0.000 
#    0.000    0.000    0.000    0.000    0.000    0.000 
#
# Total GULP energy -89317.176522 kJ/mol
# GULP energy per Si atom -5582.323533 kJ/mol
# Density = 2.272692 g / cm^3
# Si number density = 22.778768 Si / 1000 Ang^3
#
#
#
# Elastic Constant Matrix: (Units=GPa)
#
#
# Indices 1 2 3 4 5 6 
#
# 1 27.8730 12.5354 28.7788 18.9475 -10.5391 -8.1284
# 2 12.5354 133.2323 35.4334 10.5793 -11.6334 5.4675
# 3 28.7788 35.4334 122.3022 17.1159 -12.2194 10.4205
# 4 18.9475 10.5793 17.1159 46.1272 0.5971 -9.4048
# 5 -10.5391 -11.6334 -12.2194 0.5971 27.2835 14.1558
# 6 -8.1284 5.4675 10.4205 -9.4048 14.1558 31.2423
#
#
#
# Elastic Compliance Matrix: (Units=1/GPa)
#
#
# Indices 1 2 3 4 5 6 
#
# 1 0.076398 -0.000270 -0.012980 -0.025241 0.020256 0.007477
# 2 -0.000270 0.008689 -0.001217 -0.002382 0.005353 -0.004327
# 3 -0.012980 -0.001217 0.013355 -0.001645 0.006137 -0.010894
# 4 -0.025241 -0.002382 -0.001645 0.036370 -0.019705 0.014275
# 5 0.020256 0.005353 0.006137 -0.019705 0.067759 -0.034347
# 6 0.007477 -0.004327 -0.010894 0.014275 -0.034347 0.058204
#
#
# Mechanical properties :
#
#
# Convention : Reuss Voigt Hill
#
# Bulk Modulus (GPa) = 14.38671 48.54473 31.46572
# Shear Modulus (GPa) = 15.98069 34.70795 25.34432
#
# Velocity S-wave (km/s) = 2.65157 3.90769 3.33923
# Velocity P-wave (km/s) = 3.96283 6.45893 5.35825
#
# Compressibility (1/GPa) = 0.06950862
#
# Stress axis : x y z
#
# Youngs Moduli (GPa) = 13.08932 115.09010 74.87885
#
# Poissons Ratio (x) = 0.03107 0.97191
# Poissons Ratio (y) = 0.00353 0.09113
# Poissons Ratio (z) = 0.16990 0.14006
#
# Static dielectric constant tensor:
#      x y z
#    x 1.783390 -0.034530 -0.049360 
#    y -0.034530 1.934920 -0.059360 
#    z -0.049360 -0.059360 1.858600 
# 
# From -- ./inp_files/207555.got.cif
#   From: 2010.05.17/outbox.cif.g08.bks.cpg/sg2_104_cif.got.tgz:207555.got - 2010.06.03 11:33:40.
