data_PCOD9101077
_publ_section_title
;
Structure prediction by ZEFSAII (Michael W. Deem and Ramdas Pophale) SiO2 
 PCOD9101077
Probable space group: P -1
;
_chemical_formula_sum "Si O2"
_cell_formula_units_Z 16
_cell_length_a 9.733157
_cell_length_b 22.667749
_cell_length_c 26.110033
_cell_angle_alpha 161.762910
_cell_angle_beta 154.616389
_cell_angle_gamma 34.213315
_cell_volume 751.722488
_symmetry_space_group_name_H-M "P -1"
_symmetry_group_IT_number 2
_symmetry_cell_setting 'triclinic'
loop_
_space_group_symop_operation_xyz
x,y,z
-x,-y,-z
loop_
_atom_site_type_symbol
_atom_site_label
_atom_site_fract_x
_atom_site_fract_y
_atom_site_fract_z
Si Si1 0.972973 0.608442 0.160698
Si Si2 0.353084 0.180596 0.406928
Si Si3 0.089216 0.593876 0.373064
Si Si4 0.815211 0.793474 0.744623
Si Si5 0.648749 0.232660 0.884490
Si Si6 0.100276 0.267842 0.870775
Si Si7 0.311183 0.123506 0.572924
Si Si8 0.155498 0.499877 0.673947
O O1 0.643848 0.675844 0.116702
O O2 0.077598 0.690873 0.207095
O O3 0.262268 0.709122 0.378601
O O4 0.959111 0.381722 0.962484
O O5 0.190415 0.182800 0.298842
O O6 0.205099 0.308694 0.503706
O O7 0.338689 0.966815 0.247579
O O8 0.445221 0.718536 0.579958
O O9 0.815068 0.711196 0.362447
O O10 0.052147 0.549094 0.384213
O O11 0.983504 0.392545 0.139848
O O12 0.999967 0.630144 0.690624
O O13 0.000000 0.000000 0.000000
O O14 0.533279 0.192698 0.754319
O O15 0.484375 0.370156 0.082373
O O16 0.021008 0.038501 0.658413
O O17 0.500000 0.000000 0.500000
#
# Coordination Sequence:
#
# PCOD9101077 Si02
#       8
#     2   2   2   2   2   2   2   2
#     4  10  20  37  70  97 133 167 216 258 332 392
#     4  11  24  42  71  99 130 179 223 265 333 398
#     4  12  26  43  67  98 133 172 223 275 336 391
#     4  12  27  48  70  95 125 174 233 283 327 389
#     4  12  23  40  64  98 137 175 214 269 329 405
#     4  10  21  40  68  97 133 178 213 264 331 396
#     4  12  25  39  61 103 143 177 213 267 331 402
#     4  11  24  47  69  96 135 175 225 278 328 387
#
# _framework density 21.284451000000001
#
# number of rings (size 3 to 8) (size 9 to 14) (size 15 to 20)
#    0.000    0.750    2.500    5.250    3.500    2.000 
#    0.000    5.000    0.000    0.000    0.000    0.000 
#    0.000    0.000    0.000    0.000    0.000    0.000 
#
# Total GULP energy -89504.853916 kJ/mol
# GULP energy per Si atom -5594.053370 kJ/mol
# Density = 2.123601 g / cm^3
# Si number density = 21.284451 Si / 1000 Ang^3
#
#
#
# Elastic Constant Matrix: (Units=GPa)
#
#
# Indices 1 2 3 4 5 6 
#
# 1 78.0472 15.3227 40.9903 -10.8340 -14.7404 1.2444
# 2 15.3227 109.1016 26.0154 0.7223 -10.2035 7.0060
# 3 40.9903 26.0154 144.2819 -0.7474 -13.9434 -2.1499
# 4 -10.8340 0.7223 -0.7474 33.9120 3.7756 -4.4160
# 5 -14.7404 -10.2035 -13.9434 3.7756 29.1856 -6.5597
# 6 1.2444 7.0060 -2.1499 -4.4160 -6.5597 35.5899
#
#
#
# Elastic Compliance Matrix: (Units=1/GPa)
#
#
# Indices 1 2 3 4 5 6 
#
# 1 0.016868 -0.000961 -0.004010 0.004801 0.005879 0.001037
# 2 -0.000961 0.009936 -0.001348 -0.001007 0.002082 -0.001745
# 3 -0.004010 -0.001348 0.008515 -0.001136 0.001975 0.001143
# 4 0.004801 -0.001007 -0.001136 0.031680 -0.001766 0.003567
# 5 0.005879 0.002082 0.001975 -0.001766 0.040656 0.006778
# 6 0.001037 -0.001745 0.001143 0.003567 0.006778 0.030166
#
#
# Mechanical properties :
#
#
# Convention : Reuss Voigt Hill
#
# Bulk Modulus (GPa) = 44.09350 55.12083 49.60717
# Shear Modulus (GPa) = 31.64133 36.34432 33.99282
#
# Velocity S-wave (km/s) = 3.85982 4.13674 4.00068
# Velocity P-wave (km/s) = 6.37382 6.98357 6.68565
#
# Compressibility (1/GPa) = 0.02267908
#
# Stress axis : x y z
#
# Youngs Moduli (GPa) = 59.28352 100.64666 117.43437
#
# Poissons Ratio (x) = 0.09675 0.47096
# Poissons Ratio (y) = 0.05699 0.15835
# Poissons Ratio (z) = 0.23775 0.13571
#
# Static dielectric constant tensor:
#      x y z
#    x 1.815600 -0.005560 0.029130 
#    y -0.005560 1.745270 0.013880 
#    z 0.029130 0.013880 1.811830 
# 
# From -- ./inp_files/608680.got.cif
#   From: 2010.05.17/outbox.cif.g08.bks.cpg/sg2_305_cif.got.tgz:608680.got - 2010.06.03 11:33:40.
