data_PCOD9101560
_publ_section_title
;
Structure prediction by ZEFSAII (Michael W. Deem and Ramdas Pophale) SiO2 
 PCOD9101560
Probable space group: P -1
;
_chemical_formula_sum "Si O2"
_cell_formula_units_Z 16
_cell_length_a 13.431852
_cell_length_b 8.000745
_cell_length_c 14.681915
_cell_angle_alpha 127.380415
_cell_angle_beta 134.743316
_cell_angle_gamma 85.873613
_cell_volume 691.765710
_symmetry_space_group_name_H-M "P -1"
_symmetry_group_IT_number 2
_symmetry_cell_setting 'triclinic'
loop_
_space_group_symop_operation_xyz
x,y,z
-x,-y,-z
loop_
_atom_site_type_symbol
_atom_site_label
_atom_site_fract_x
_atom_site_fract_y
_atom_site_fract_z
Si Si1 0.512489 0.043222 0.179412
Si Si2 0.673431 0.058484 0.579659
Si Si3 0.657215 0.418053 0.561316
Si Si4 0.869168 0.301328 0.427059
Si Si5 0.419054 0.307158 0.766574
Si Si6 0.241520 0.047714 0.223233
Si Si7 0.874051 0.366824 0.149548
Si Si8 0.213093 0.243079 0.780091
O O1 0.582178 0.296906 0.372051
O O2 0.659093 0.159180 0.233439
O O3 0.546134 0.869987 0.208548
O O4 0.298318 0.842716 0.964293
O O5 0.741101 0.302336 0.633864
O O6 0.500000 0.000000 0.500000
O O7 0.624527 0.816876 0.402162
O O8 0.801844 0.089922 0.751612
O O9 0.462613 0.267085 0.435611
O O10 0.793186 0.741734 0.751877
O O11 0.000000 0.500000 0.500000
O O12 0.942674 0.480922 0.626248
O O13 0.890691 0.070622 0.375679
O O14 0.276556 0.299053 0.733317
O O15 0.606588 0.605906 0.992624
O O16 0.167848 0.820975 0.024478
O O17 0.868252 0.608435 0.198949
#
# Coordination Sequence:
#
# PCOD9101560 Si02
#       8
#     2   2   2   2   2   2   2   2
#     4   8  17  36  59  78 114 151 183 233 289 340
#     4   9  15  27  50  85 116 141 189 240 278 346
#     4   8  15  31  53  79 115 151 176 237 295 326
#     4  11  23  38  53  84 117 146 194 236 284 347
#     4   8  15  30  57  87 106 146 197 226 284 346
#     4   9  17  31  52  87 114 141 198 231 280 361
#     4  10  20  38  60  82 110 152 191 234 288 338
#     4   9  17  35  57  76 112 152 184 236 287 332
#
# _framework density 23.129216
#
# number of rings (size 3 to 8) (size 9 to 14) (size 15 to 20)
#    0.000    3.000    0.000    3.375    0.000    0.500 
#   13.500    0.625    0.000    6.750    0.000    0.000 
#    0.000    0.000    0.000    0.000    0.000    0.000 
#
# Total GULP energy -89207.558658 kJ/mol
# GULP energy per Si atom -5575.472416 kJ/mol
# Density = 2.307657 g / cm^3
# Si number density = 23.129216 Si / 1000 Ang^3
#
#
#
# Elastic Constant Matrix: (Units=GPa)
#
#
# Indices 1 2 3 4 5 6 
#
# 1 49.0815 19.8979 34.5579 0.4784 -13.2357 -1.2595
# 2 19.8979 73.2522 56.6657 15.5443 -16.3315 7.2625
# 3 34.5579 56.6657 136.7787 18.3872 -23.8455 -3.1424
# 4 0.4784 15.5443 18.3872 27.6381 -6.6439 -6.4296
# 5 -13.2357 -16.3315 -23.8455 -6.6439 53.5865 3.7142
# 6 -1.2595 7.2625 -3.1424 -6.4296 3.7142 23.9088
#
#
#
# Elastic Compliance Matrix: (Units=1/GPa)
#
#
# Indices 1 2 3 4 5 6 
#
# 1 0.026785 -0.004232 -0.005254 0.007062 0.003632 0.003341
# 2 -0.004232 0.024741 -0.007520 -0.011023 0.002621 -0.012098
# 3 -0.005254 -0.007520 0.012465 -0.003028 0.001401 0.002614
# 4 0.007062 -0.011023 -0.003028 0.048474 0.001934 0.016058
# 5 0.003632 0.002621 0.001401 0.001934 0.021444 -0.003232
# 6 0.003341 -0.012098 0.002614 0.016058 -0.003232 0.050840
#
#
# Mechanical properties :
#
#
# Convention : Reuss Voigt Hill
#
# Bulk Modulus (GPa) = 33.35462 53.48393 43.41927
# Shear Modulus (GPa) = 21.85746 30.89274 26.37510
#
# Velocity S-wave (km/s) = 3.07745 3.65863 3.38055
# Velocity P-wave (km/s) = 5.20383 6.40481 5.83530
#
# Compressibility (1/GPa) = 0.02998086
#
# Stress axis : x y z
#
# Youngs Moduli (GPa) = 37.33391 40.41871 80.22374
#
# Poissons Ratio (x) = 0.17104 0.42147
# Poissons Ratio (y) = 0.15799 0.60328
# Poissons Ratio (z) = 0.19614 0.30395
#
# Static dielectric constant tensor:
#      x y z
#    x 1.950290 -0.035190 0.032450 
#    y -0.035190 1.916140 0.001190 
#    z 0.032450 0.001190 1.895690 
# 
# From -- ./inp_files/530153.got.cif
#   From: 2010.05.17/outbox.cif.g08.bks.cpg/sg2_266_cif.got.tgz:530153.got - 2010.06.03 11:33:40.
