data_PCOD9101652
_publ_section_title
;
Structure prediction by ZEFSAII (Michael W. Deem and Ramdas Pophale) SiO2 
 PCOD9101652
Probable space group: P -1
;
_chemical_formula_sum "Si O2"
_cell_formula_units_Z 16
_cell_length_a 9.024422
_cell_length_b 19.542369
_cell_length_c 10.341068
_cell_angle_alpha 44.968606
_cell_angle_beta 77.363877
_cell_angle_gamma 43.604652
_cell_volume 709.609899
_symmetry_space_group_name_H-M "P -1"
_symmetry_group_IT_number 2
_symmetry_cell_setting 'triclinic'
loop_
_space_group_symop_operation_xyz
x,y,z
-x,-y,-z
loop_
_atom_site_type_symbol
_atom_site_label
_atom_site_fract_x
_atom_site_fract_y
_atom_site_fract_z
Si Si1 0.441321 0.228461 0.627030
Si Si2 0.979987 0.091095 0.994311
Si Si3 0.625306 0.439463 0.811632
Si Si4 0.139449 0.824115 0.703660
Si Si5 0.028476 0.717650 0.666035
Si Si6 0.611563 0.588250 0.381904
Si Si7 0.735112 0.546273 0.849398
Si Si8 0.121351 0.222552 0.662516
O O1 0.367873 0.331510 0.630038
O O2 0.279966 0.347912 0.370481
O O3 0.364496 0.158107 0.757061
O O4 0.761117 0.073133 0.748740
O O5 0.658570 0.258618 0.855416
O O6 0.053789 0.157536 0.832662
O O7 0.000000 0.000000 0.000000
O O8 0.327197 0.575610 0.738973
O O9 0.591048 0.506493 0.590568
O O10 0.745573 0.461214 0.848102
O O11 0.824550 0.247484 0.068546
O O12 0.001539 0.820400 0.635418
O O13 0.443942 0.683123 0.786430
O O14 0.000000 0.000000 0.500000
O O15 0.840497 0.818395 0.442445
O O16 0.042070 0.607506 0.885876
O O17 0.867923 0.428629 0.459977
#
# Coordination Sequence:
#
# PCOD9101652 Si02
#       8
#     2   2   2   2   2   2   2   2
#     4  10  22  39  59  84 123 157 193 237 303 348
#     4  10  22  38  57  81 117 159 199 241 285 340
#     4   8  15  32  54  78 112 146 188 242 282 336
#     4   9  17  31  55  86 111 143 195 247 287 332
#     4   9  18  33  55  82 117 147 190 237 297 343
#     4  10  20  38  60  87 112 157 207 239 278 347
#     4   8  17  35  54  77 112 152 185 234 290 350
#     4  12  22  36  59  90 121 155 191 244 294 353
#
# _framework density 22.547599999999999
#
# number of rings (size 3 to 8) (size 9 to 14) (size 15 to 20)
#    0.000    2.500    1.250    2.625    1.750    1.500 
#    2.250    0.000    0.000    0.750    0.000    0.000 
#    0.000    0.000    0.000    0.000    0.000    0.000 
#
# Total GULP energy -89207.705075 kJ/mol
# GULP energy per Si atom -5575.481567 kJ/mol
# Density = 2.249628 g / cm^3
# Si number density = 22.547600 Si / 1000 Ang^3
#
#
#
# Elastic Constant Matrix: (Units=GPa)
#
#
# Indices 1 2 3 4 5 6 
#
# 1 81.4966 11.6986 22.8778 0.3722 -10.4597 13.4056
# 2 11.6986 48.6130 23.2190 -0.2092 5.9884 18.3901
# 3 22.8778 23.2190 85.2206 -1.7521 -14.1028 15.8908
# 4 0.3722 -0.2092 -1.7521 36.9247 1.6028 0.8154
# 5 -10.4597 5.9884 -14.1028 1.6028 32.7353 0.5597
# 6 13.4056 18.3901 15.8908 0.8154 0.5597 32.0205
#
#
#
# Elastic Compliance Matrix: (Units=1/GPa)
#
#
# Indices 1 2 3 4 5 6 
#
# 1 0.014245 -0.001362 -0.002001 -0.000327 0.004028 -0.004251
# 2 -0.001362 0.030262 -0.006835 0.000532 -0.008715 -0.013280
# 3 -0.002001 -0.006835 0.016012 0.000487 0.007542 -0.003328
# 4 -0.000327 0.000532 0.000487 0.027192 -0.001305 -0.001080
# 5 0.004028 -0.008715 0.007542 -0.001305 0.036760 -0.001033
# 6 -0.004251 -0.013280 -0.003328 -0.001080 -0.001033 0.042333
#
#
# Mechanical properties :
#
#
# Convention : Reuss Voigt Hill
#
# Bulk Modulus (GPa) = 24.92200 36.76898 30.84549
# Shear Modulus (GPa) = 24.92840 30.83842 27.88341
#
# Velocity S-wave (km/s) = 3.32865 3.70226 3.52041
# Velocity P-wave (km/s) = 5.08431 5.88373 5.49857
#
# Compressibility (1/GPa) = 0.04012519
#
# Stress axis : x y z
#
# Youngs Moduli (GPa) = 70.19883 33.04460 62.45261
#
# Poissons Ratio (x) = 0.04501 0.12495
# Poissons Ratio (y) = 0.09561 0.42683
# Poissons Ratio (z) = 0.14045 0.22584
#
# Static dielectric constant tensor:
#      x y z
#    x 1.836730 0.038780 0.009550 
#    y 0.038780 1.887400 0.021710 
#    z 0.009550 0.021710 1.914580 
# 
# From -- ./inp_files/405403.got.cif
#   From: 2010.05.17/outbox.cif.g08.bks.cpg/sg2_203_cif.got.tgz:405403.got - 2010.06.03 11:33:40.
