data_PCOD9101289
_publ_section_title
;
Structure prediction by ZEFSAII (Michael W. Deem and Ramdas Pophale) SiO2 
 PCOD9101289
Probable space group: P -1
;
_chemical_formula_sum "Si O2"
_cell_formula_units_Z 14
_cell_length_a 12.597835
_cell_length_b 11.466439
_cell_length_c 12.499271
_cell_angle_alpha 112.942426
_cell_angle_beta 156.801947
_cell_angle_gamma 57.128306
_cell_volume 563.953628
_symmetry_space_group_name_H-M "P -1"
_symmetry_group_IT_number 2
_symmetry_cell_setting 'triclinic'
loop_
_space_group_symop_operation_xyz
x,y,z
-x,-y,-z
loop_
_atom_site_type_symbol
_atom_site_label
_atom_site_fract_x
_atom_site_fract_y
_atom_site_fract_z
Si Si1 0.769393 0.500203 0.954499
Si Si2 0.457189 0.096155 0.601254
Si Si3 0.455746 0.159553 0.988568
Si Si4 0.296327 0.430947 0.827505
Si Si5 0.453802 0.321473 0.533512
Si Si6 0.082342 0.965349 0.268911
Si Si7 0.849550 0.214596 0.534803
O O1 0.687934 0.374979 0.805515
O O2 0.479423 0.644514 0.684412
O O3 0.744588 0.527807 0.069257
O O4 0.121269 0.447485 0.225950
O O5 0.367494 0.255155 0.532520
O O6 0.500000 0.000000 0.500000
O O7 0.207132 0.078595 0.433179
O O8 0.787813 0.026388 0.940738
O O9 0.427778 0.253026 0.889247
O O10 0.107298 0.254656 0.753460
O O11 0.735351 0.161232 0.309565
O O12 0.500000 0.000000 0.000000
O O13 0.000000 0.500000 0.500000
O O14 0.500000 0.500000 0.000000
O O15 0.638110 0.185508 0.576052
O O16 0.012053 0.913389 0.295661
#
# Coordination Sequence:
#
# PCOD9101289 Si02
#       7
#     2   2   2   2   2   2   2
#     4  11  23  40  63  92 129 167 206 265 329 374
#     4  10  20  38  58  85 127 175 210 263 318 349
#     4  11  24  47  70  94 133 172 217 276 338 393
#     4  11  23  45  68  94 128 168 214 275 333 387
#     4  11  21  38  61  92 128 170 214 254 313 386
#     4  11  22  39  63  91 130 173 215 257 313 385
#     4  11  24  43  65  94 132 170 209 266 330 379
#
# _framework density 24.824739000000001
#
# number of rings (size 3 to 8) (size 9 to 14) (size 15 to 20)
#    0.000    1.143    0.000    9.857    0.000    1.143 
#   15.429    0.000    0.000    0.000    0.000    0.000 
#    0.000    0.000    0.000    0.000    0.000    0.000 
#
# Total GULP energy -78271.967027 kJ/mol
# GULP energy per Si atom -5590.854788 kJ/mol
# Density = 2.476824 g / cm^3
# Si number density = 24.824739 Si / 1000 Ang^3
#
#
#
# Elastic Constant Matrix: (Units=GPa)
#
#
# Indices 1 2 3 4 5 6 
#
# 1 64.9940 24.6355 16.2557 0.1271 9.6576 31.0151
# 2 24.6355 100.5924 21.7100 -4.4452 -9.7962 27.0448
# 3 16.2557 21.7100 145.5992 -6.7114 9.6479 14.6022
# 4 0.1271 -4.4452 -6.7114 46.1007 15.2139 1.5012
# 5 9.6576 -9.7962 9.6479 15.2139 32.6188 -4.3747
# 6 31.0151 27.0448 14.6022 1.5012 -4.3747 43.5934
#
#
#
# Elastic Compliance Matrix: (Units=1/GPa)
#
#
# Indices 1 2 3 4 5 6 
#
# 1 0.027937 -0.002750 0.000472 0.005090 -0.014285 -0.019937
# 2 -0.002750 0.012681 -0.001397 -0.000298 0.004507 -0.004980
# 3 0.000472 -0.001397 0.007684 0.002499 -0.004341 -0.002565
# 4 0.005090 -0.000298 0.002499 0.027549 -0.016102 -0.006838
# 5 -0.014285 0.004507 -0.004341 -0.016102 0.046923 0.014085
# 6 -0.019937 -0.004980 -0.002565 -0.006838 0.014085 0.042721
#
#
# Mechanical properties :
#
#
# Convention : Reuss Voigt Hill
#
# Bulk Modulus (GPa) = 24.41901 48.48757 36.45329
# Shear Modulus (GPa) = 26.81034 41.03487 33.92260
#
# Velocity S-wave (km/s) = 3.28988 4.07010 3.70061
# Velocity P-wave (km/s) = 4.92838 6.45461 5.74243
#
# Compressibility (1/GPa) = 0.04095171
#
# Stress axis : x y z
#
# Youngs Moduli (GPa) = 35.79503 78.86050 130.14362
#
# Poissons Ratio (x) = 0.21684 -0.06137
# Poissons Ratio (y) = 0.09843 0.18177
# Poissons Ratio (z) = -0.01688 0.11014
#
# Static dielectric constant tensor:
#      x y z
#    x 1.719150 -0.304190 -0.072540 
#    y -0.304190 1.832890 -0.211720 
#    z -0.072540 -0.211720 1.853240 
# 
# From -- ./inp_files/454700.got.cif
#   From: 2010.05.17/outbox.cif.g08.bks.cpg/sg2_228_cif.got.tgz:454700.got - 2010.06.03 11:33:40.
