data_PCOD9101462
_publ_section_title
;
Structure prediction by ZEFSAII (Michael W. Deem and Ramdas Pophale) SiO2 
 PCOD9101462
Probable space group: P -1
;
_chemical_formula_sum "Si O2"
_cell_formula_units_Z 16
_cell_length_a 14.471458
_cell_length_b 16.758887
_cell_length_c 8.232058
_cell_angle_alpha 113.157668
_cell_angle_beta 77.442718
_cell_angle_gamma 153.787850
_cell_volume 764.390454
_symmetry_space_group_name_H-M "P -1"
_symmetry_group_IT_number 2
_symmetry_cell_setting 'triclinic'
loop_
_space_group_symop_operation_xyz
x,y,z
-x,-y,-z
loop_
_atom_site_type_symbol
_atom_site_label
_atom_site_fract_x
_atom_site_fract_y
_atom_site_fract_z
Si Si1 0.459137 0.804283 0.263513
Si Si2 0.131999 0.678179 0.200291
Si Si3 0.977995 0.109713 0.829575
Si Si4 0.250903 0.468962 0.239449
Si Si5 0.314659 0.007721 0.336976
Si Si6 0.572724 0.767064 0.941080
Si Si7 0.244826 0.542602 0.632603
Si Si8 0.360965 0.302715 0.834448
O O1 0.335618 0.792584 0.286470
O O2 0.286671 0.586371 0.215459
O O3 0.634948 0.952930 0.459732
O O4 0.557966 0.850943 0.093859
O O5 0.955916 0.567188 0.310182
O O6 0.226132 0.838606 0.193828
O O7 0.000000 0.500000 0.000000
O O8 0.125728 0.149238 0.759267
O O9 0.875846 0.081023 0.700716
O O10 0.113611 0.287841 0.038797
O O11 0.767160 0.909298 0.856143
O O12 0.164566 0.420604 0.411285
O O13 0.495749 0.628907 0.299769
O O14 0.542474 0.225106 0.331313
O O15 0.625451 0.750373 0.060454
O O16 0.346134 0.571506 0.767695
O O17 0.500000 0.500000 0.000000
#
# Coordination Sequence:
#
# PCOD9101462 Si02
#       8
#     2   2   2   2   2   2   2   2
#     4  10  21  41  57  87 121 156 195 249 291 349
#     4  12  23  39  65  88 117 162 199 240 303 350
#     4  10  20  38  60  89 115 160 195 241 300 349
#     4   9  20  39  60  86 120 155 195 247 293 347
#     4  10  24  40  59  89 124 154 200 247 293 349
#     4  10  20  38  59  87 123 148 198 247 294 349
#     4  10  23  41  60  89 122 156 197 246 295 353
#     4   9  19  36  62  84 118 156 195 240 294 354
#
# _framework density 20.931709000000001
#
# number of rings (size 3 to 8) (size 9 to 14) (size 15 to 20)
#    0.000    2.000    1.250    1.500    5.250    2.500 
#    2.250   13.750    0.000    0.000    0.000    0.000 
#    0.000    0.000    0.000    0.000    0.000    0.000 
#
# Total GULP energy -89260.956867 kJ/mol
# GULP energy per Si atom -5578.809804 kJ/mol
# Density = 2.088407 g / cm^3
# Si number density = 20.931709 Si / 1000 Ang^3
#
#
#
# Elastic Constant Matrix: (Units=GPa)
#
#
# Indices 1 2 3 4 5 6 
#
# 1 122.8736 21.9594 3.0502 -14.7298 15.5422 29.6923
# 2 21.9594 46.2239 -4.5738 -8.8820 -2.0902 19.6311
# 3 3.0502 -4.5738 62.9465 -4.7825 13.3728 10.8984
# 4 -14.7298 -8.8820 -4.7825 22.9514 2.4358 -13.2966
# 5 15.5422 -2.0902 13.3728 2.4358 29.9967 3.8140
# 6 29.6923 19.6311 10.8984 -13.2966 3.8140 35.9918
#
#
#
# Elastic Compliance Matrix: (Units=1/GPa)
#
#
# Indices 1 2 3 4 5 6 
#
# 1 0.011342 -0.001780 0.002167 0.003653 -0.006371 -0.007018
# 2 -0.001780 0.030230 0.004593 0.001943 0.002857 -0.015996
# 3 0.002167 0.004593 0.019647 0.003574 -0.008836 -0.007985
# 4 0.003653 0.001943 0.003574 0.058730 -0.010362 0.017640
# 5 -0.006371 0.002857 -0.008836 -0.010362 0.041858 -0.001890
# 6 -0.007018 -0.015996 -0.007985 0.017640 -0.001890 0.051433
#
#
# Mechanical properties :
#
#
# Convention : Reuss Voigt Hill
#
# Bulk Modulus (GPa) = 14.04897 30.32397 22.18647
# Shear Modulus (GPa) = 22.02584 31.89519 26.96051
#
# Velocity S-wave (km/s) = 3.24739 3.90779 3.59280
# Velocity P-wave (km/s) = 4.55929 5.90590 5.27573
#
# Compressibility (1/GPa) = 0.07117962
#
# Stress axis : x y z
#
# Youngs Moduli (GPa) = 88.16484 33.08026 50.89946
#
# Poissons Ratio (x) = 0.05887 -0.11031
# Poissons Ratio (y) = 0.15690 -0.23378
# Poissons Ratio (z) = -0.19108 -0.15193
#
# Static dielectric constant tensor:
#      x y z
#    x 1.686480 0.016310 0.008770 
#    y 0.016310 1.798210 0.035950 
#    z 0.008770 0.035950 1.770600 
# 
# From -- ./inp_files/177384.got.cif
#   From: 2010.05.17/outbox.cif.g08.bks.cpg/sg2_89_cif.got.tgz:177384.got - 2010.06.03 11:33:40.
