data_PCOD9101506
_publ_section_title
;
Structure prediction by ZEFSAII (Michael W. Deem and Ramdas Pophale) SiO2 
 PCOD9101506
Probable space group: P -1
;
_chemical_formula_sum "Si O2"
_cell_formula_units_Z 16
_cell_length_a 5.292887
_cell_length_b 13.924629
_cell_length_c 25.430310
_cell_angle_alpha 22.009367
_cell_angle_beta 72.650330
_cell_angle_gamma 66.193435
_cell_volume 626.628366
_symmetry_space_group_name_H-M "P -1"
_symmetry_group_IT_number 2
_symmetry_cell_setting 'triclinic'
loop_
_space_group_symop_operation_xyz
x,y,z
-x,-y,-z
loop_
_atom_site_type_symbol
_atom_site_label
_atom_site_fract_x
_atom_site_fract_y
_atom_site_fract_z
Si Si1 0.188237 0.472801 0.719009
Si Si2 0.159708 0.105390 0.980749
Si Si3 0.690966 0.171905 0.782677
Si Si4 0.711842 0.161339 0.403545
Si Si5 0.066172 0.397066 0.440905
Si Si6 0.479827 0.218820 0.665218
Si Si7 0.381819 0.315715 0.138562
Si Si8 0.183123 0.776236 0.755653
O O1 0.039453 0.418638 0.808475
O O2 0.383029 0.213387 0.804713
O O3 0.407340 0.581880 0.680260
O O4 0.989476 0.628779 0.604731
O O5 0.500000 0.000000 0.000000
O O6 0.116717 0.018183 0.086847
O O7 0.000000 0.000000 0.000000
O O8 0.705891 0.079911 0.768287
O O9 0.685249 0.487211 0.620526
O O10 0.765580 0.240992 0.301104
O O11 0.500000 0.000000 0.500000
O O12 0.000000 0.000000 0.500000
O O13 0.820755 0.652460 0.352793
O O14 0.077185 0.103586 0.610115
O O15 0.500000 0.500000 0.500000
O O16 0.494224 0.993400 0.735810
O O17 0.521652 0.341123 0.172507
O O18 0.049427 0.355637 0.145806
O O19 0.500000 0.500000 0.000000
#
# Coordination Sequence:
#
# PCOD9101506 Si02
#       8
#     2   2   2   2   2   2   2   2
#     4  10  22  39  62  99 141 179 222 286 346 425
#     4  10  20  38  59  91 134 178 212 267 344 414
#     4  10  22  38  66 101 138 180 230 287 354 426
#     4  12  25  42  69 104 140 182 228 284 355 426
#     4  11  21  39  73 104 135 177 235 300 357 420
#     4  11  24  43  71 106 137 181 243 305 359 415
#     4  12  29  53  73 101 147 195 243 304 364 425
#     4  12  26  47  75 104 143 189 247 296 361 429
#
# _framework density 25.533477000000001
#
# number of rings (size 3 to 8) (size 9 to 14) (size 15 to 20)
#    0.000    1.000    3.750    2.625    3.500    2.000 
#    2.250    0.000    0.000    0.000    0.000    0.000 
#    0.000    0.000    0.000    0.000    0.000    0.000 
#
# Total GULP energy -89130.774499 kJ/mol
# GULP energy per Si atom -5570.673406 kJ/mol
# Density = 2.547536 g / cm^3
# Si number density = 25.533477 Si / 1000 Ang^3
#
#
#
# Elastic Constant Matrix: (Units=GPa)
#
#
# Indices 1 2 3 4 5 6 
#
# 1 107.6606 35.4415 22.7169 16.7699 -23.9276 29.6044
# 2 35.4415 117.2482 8.5336 19.2042 -6.8415 24.4295
# 3 22.7169 8.5336 101.1361 28.1636 -19.7201 14.6054
# 4 16.7699 19.2042 28.1636 38.6237 6.1216 8.9682
# 5 -23.9276 -6.8415 -19.7201 6.1216 40.3785 5.4902
# 6 29.6044 24.4295 14.6054 8.9682 5.4902 46.5020
#
#
#
# Elastic Compliance Matrix: (Units=1/GPa)
#
#
# Indices 1 2 3 4 5 6 
#
# 1 0.016295 -0.000635 0.003096 -0.008665 0.013867 -0.010978
# 2 -0.000635 0.011031 0.002765 -0.006674 0.004605 -0.005516
# 3 0.003096 0.002765 0.017162 -0.015737 0.014082 -0.007441
# 4 -0.008665 -0.006674 -0.015737 0.046153 -0.021990 0.007661
# 5 0.013867 0.004605 0.014082 -0.021990 0.046271 -0.016892
# 6 -0.010978 -0.005516 -0.007441 0.007661 -0.016892 0.034245
#
#
# Mechanical properties :
#
#
# Convention : Reuss Voigt Hill
#
# Bulk Modulus (GPa) = 18.20228 51.04766 34.62497
# Shear Modulus (GPa) = 27.93018 42.39101 35.16060
#
# Velocity S-wave (km/s) = 3.31095 4.07899 3.71487
# Velocity P-wave (km/s) = 4.66485 6.49770 5.65601
#
# Compressibility (1/GPa) = 0.05493818
#
# Stress axis : x y z
#
# Youngs Moduli (GPa) = 61.36965 90.65625 58.26933
#
# Poissons Ratio (x) = 0.05757 -0.18039
# Poissons Ratio (y) = 0.03897 -0.16110
# Poissons Ratio (z) = -0.18999 -0.25065
#
# Static dielectric constant tensor:
#      x y z
#    x 2.288100 0.001180 -0.280350 
#    y 0.001180 1.710060 0.695410 
#    z -0.280350 0.695410 0.815250 
# 
# From -- ./inp_files/615623.got.cif
#   From: 2010.05.17/outbox.cif.g08.bks.cpg/sg2_308_cif.got.tgz:615623.got - 2010.06.03 11:33:40.
