data_PCOD9101411
_publ_section_title
;
Structure prediction by ZEFSAII (Michael W. Deem and Ramdas Pophale) SiO2 
 PCOD9101411
Probable space group: P -1
;
_chemical_formula_sum "Si O2"
_cell_formula_units_Z 16
_cell_length_a 21.437837
_cell_length_b 8.337327
_cell_length_c 8.381298
_cell_angle_alpha 59.606496
_cell_angle_beta 125.939058
_cell_angle_gamma 138.870637
_cell_volume 792.020331
_symmetry_space_group_name_H-M "P -1"
_symmetry_group_IT_number 2
_symmetry_cell_setting 'triclinic'
loop_
_space_group_symop_operation_xyz
x,y,z
-x,-y,-z
loop_
_atom_site_type_symbol
_atom_site_label
_atom_site_fract_x
_atom_site_fract_y
_atom_site_fract_z
Si Si1 0.501225 0.791544 0.667081
Si Si2 0.131787 0.026073 0.299182
Si Si3 0.049128 0.100782 0.696914
Si Si4 0.325604 0.229505 0.689646
Si Si5 0.241359 0.434533 0.990320
Si Si6 0.094488 0.764980 0.066061
Si Si7 0.308376 0.152828 0.084289
Si Si8 0.421040 0.003569 0.972723
O O1 0.397933 0.518335 0.617656
O O2 0.594395 0.812251 0.733778
O O3 0.500000 0.000000 0.500000
O O4 0.521504 0.836645 0.863681
O O5 0.218633 0.092961 0.514111
O O6 0.179209 0.264445 0.138002
O O7 0.100326 0.811780 0.239396
O O8 0.035327 0.945181 0.292014
O O9 0.158724 0.368686 0.764783
O O10 0.000000 0.000000 0.500000
O O11 0.075365 0.935231 0.874649
O O12 0.312372 0.189050 0.881478
O O13 0.380508 0.126778 0.766097
O O14 0.299118 0.340262 0.059528
O O15 0.322441 0.721651 0.005071
O O16 0.205392 0.880426 0.113014
O O17 0.000000 0.500000 0.000000
O O18 0.500000 0.000000 0.000000
#
# Coordination Sequence:
#
# PCOD9101411 Si02
#       8
#     2   2   2   2   2   2   2   2
#     4  11  23  38  59  85 114 153 192 236 292 347
#     4  10  21  38  59  85 117 153 192 238 289 347
#     4  10  21  38  60  86 116 154 193 236 289 346
#     4  11  22  38  58  85 116 151 192 239 289 347
#     4  10  20  38  59  84 115 153 193 240 288 340
#     4  10  22  38  59  86 116 152 193 240 289 340
#     4   9  20  40  58  82 117 153 192 239 287 342
#     4  11  23  38  59  85 114 151 194 240 289 341
#
# _framework density 20.201502999999999
#
# number of rings (size 3 to 8) (size 9 to 14) (size 15 to 20)
#    0.000    2.000    0.000    6.750    0.000    8.000 
#    0.000    6.250    0.000    0.000    0.000    0.000 
#    0.000    0.000    0.000    0.000    0.000    0.000 
#
# Total GULP energy -89320.946625 kJ/mol
# GULP energy per Si atom -5582.559164 kJ/mol
# Density = 2.015552 g / cm^3
# Si number density = 20.201503 Si / 1000 Ang^3
#
#
#
# Elastic Constant Matrix: (Units=GPa)
#
#
# Indices 1 2 3 4 5 6 
#
# 1 100.3192 10.0751 7.0390 2.1433 8.1012 13.5579
# 2 10.0751 85.1393 -17.4270 10.1410 -0.7221 -6.7691
# 3 7.0390 -17.4270 57.2259 9.7354 8.5166 -1.0729
# 4 2.1433 10.1410 9.7354 25.4486 1.8917 3.0044
# 5 8.1012 -0.7221 8.5166 1.8917 25.8007 1.0854
# 6 13.5579 -6.7691 -1.0729 3.0044 1.0854 20.0497
#
#
#
# Elastic Compliance Matrix: (Units=1/GPa)
#
#
# Indices 1 2 3 4 5 6 
#
# 1 0.011892 -0.003002 -0.002567 0.002493 -0.002757 -0.009417
# 2 -0.003002 0.015372 0.006934 -0.009550 -0.000597 0.009054
# 3 -0.002567 0.006934 0.022935 -0.011745 -0.006020 0.007390
# 4 0.002493 -0.009550 -0.011745 0.048918 -0.000219 -0.012857
# 5 -0.002757 -0.000597 -0.006020 -0.000219 0.041648 -0.000881
# 6 -0.009417 0.009054 0.007390 -0.012857 -0.000881 0.061670
#
#
# Mechanical properties :
#
#
# Convention : Reuss Voigt Hill
#
# Bulk Modulus (GPa) = 18.89362 26.89541 22.89452
# Shear Modulus (GPa) = 23.00459 30.45960 26.73210
#
# Velocity S-wave (km/s) = 3.37821 3.88724 3.64163
# Velocity P-wave (km/s) = 4.95876 5.78705 5.38884
#
# Compressibility (1/GPa) = 0.05292791
#
# Stress axis : x y z
#
# Youngs Moduli (GPa) = 84.09152 65.05245 43.60240
#
# Poissons Ratio (x) = 0.19527 0.11194
# Poissons Ratio (y) = 0.25242 -0.30233
# Poissons Ratio (z) = 0.21588 -0.45106
#
# Static dielectric constant tensor:
#      x y z
#    x 1.739110 0.007350 -0.010070 
#    y 0.007350 1.727490 0.023960 
#    z -0.010070 0.023960 1.734210 
# 
# From -- ./inp_files/343444.got.cif
#   From: 2010.05.17/outbox.cif.g08.bks.cpg/sg2_172_cif.got.tgz:343444.got - 2010.06.03 11:33:40.
