data_PCOD9101672
_publ_section_title
;
Structure prediction by ZEFSAII (Michael W. Deem and Ramdas Pophale) SiO2 
 PCOD9101672
Probable space group: P -1
;
_chemical_formula_sum "Si O2"
_cell_formula_units_Z 16
_cell_length_a 14.430265
_cell_length_b 14.338414
_cell_length_c 14.951527
_cell_angle_alpha 152.427532
_cell_angle_beta 134.071285
_cell_angle_gamma 31.318213
_cell_volume 719.397757
_symmetry_space_group_name_H-M "P -1"
_symmetry_group_IT_number 2
_symmetry_cell_setting 'triclinic'
loop_
_space_group_symop_operation_xyz
x,y,z
-x,-y,-z
loop_
_atom_site_type_symbol
_atom_site_label
_atom_site_fract_x
_atom_site_fract_y
_atom_site_fract_z
Si Si1 0.082415 0.263105 0.689919
Si Si2 0.385367 0.313381 0.728842
Si Si3 0.978729 0.845866 0.925623
Si Si4 0.579471 0.288309 0.004066
Si Si5 0.297701 0.461155 0.287912
Si Si6 0.699209 0.321104 0.704458
Si Si7 0.033930 0.157273 0.889847
Si Si8 0.699847 0.972857 0.179919
O O1 0.900431 0.325507 0.616820
O O2 0.015784 0.558575 0.872786
O O3 0.241998 0.976945 0.497542
O O4 0.163898 0.184436 0.778246
O O5 0.167450 0.512455 0.758381
O O6 0.457393 0.294684 0.859664
O O7 0.500000 0.000000 0.500000
O O8 0.410149 0.494082 0.842399
O O9 0.956044 0.961852 0.109171
O O10 0.782295 0.966999 0.874971
O O11 0.000000 0.000000 0.000000
O O12 0.484222 0.410208 0.139917
O O13 0.305053 0.624924 0.357251
O O14 0.485454 0.258006 0.297808
O O15 0.299845 0.249079 0.053169
O O16 0.863713 0.265800 0.811304
O O17 0.213087 0.976459 0.793501
#
# Coordination Sequence:
#
# PCOD9101672 Si02
#       8
#     2   2   2   2   2   2   2   2
#     4  11  23  39  58  92 125 164 211 250 307 364
#     4  10  22  42  69  89 120 157 202 260 317 368
#     4  10  22  43  67  90 124 163 206 257 319 372
#     4  10  23  41  61  94 122 159 205 253 310 377
#     4  10  20  38  60  87 123 168 205 254 304 359
#     4  12  22  37  64  88 128 164 206 249 308 370
#     4  11  21  41  63  86 127 165 203 263 308 361
#     4  10  20  38  63  86 124 167 208 250 310 363
#
# _framework density 22.240825000000001
#
# number of rings (size 3 to 8) (size 9 to 14) (size 15 to 20)
#    0.000    1.500    3.750    1.875    1.750    1.000 
#    2.250    2.500    0.000    0.000    0.000    0.000 
#    0.000    0.000    0.000    0.000    0.000    0.000 
#
# Total GULP energy -89390.520917 kJ/mol
# GULP energy per Si atom -5586.907557 kJ/mol
# Density = 2.219020 g / cm^3
# Si number density = 22.240825 Si / 1000 Ang^3
#
#
#
# Elastic Constant Matrix: (Units=GPa)
#
#
# Indices 1 2 3 4 5 6 
#
# 1 51.7017 24.2236 9.7371 1.6064 -15.3594 -5.0665
# 2 24.2236 110.2534 16.0163 27.1165 -8.1297 -21.9664
# 3 9.7371 16.0163 86.3409 17.9177 0.5020 -23.5134
# 4 1.6064 27.1165 17.9177 23.1474 -10.7733 -9.9761
# 5 -15.3594 -8.1297 0.5020 -10.7733 26.3157 2.1021
# 6 -5.0665 -21.9664 -23.5134 -9.9761 2.1021 28.9253
#
#
#
# Elastic Compliance Matrix: (Units=1/GPa)
#
#
# Indices 1 2 3 4 5 6 
#
# 1 0.034423 -0.012270 -0.008850 0.031950 0.029679 -0.001620
# 2 -0.012270 0.018473 0.006155 -0.028559 -0.013906 0.008044
# 3 -0.008850 0.006155 0.019616 -0.023100 -0.014064 0.012125
# 4 0.031950 -0.028559 -0.023100 0.121219 0.059684 0.002601
# 5 0.029679 -0.013906 -0.014064 0.059684 0.075866 -0.001723
# 6 -0.001620 0.008044 0.012125 0.002601 -0.001723 0.051275
#
#
# Mechanical properties :
#
#
# Convention : Reuss Voigt Hill
#
# Bulk Modulus (GPa) = 23.48443 38.69447 31.08945
# Shear Modulus (GPa) = 13.69881 28.89894 21.29888
#
# Velocity S-wave (km/s) = 2.48449 3.60858 3.09795
# Velocity P-wave (km/s) = 4.33732 5.89900 5.17738
#
# Compressibility (1/GPa) = 0.04258141
#
# Stress axis : x y z
#
# Youngs Moduli (GPa) = 29.05074 54.13374 50.97920
#
# Poissons Ratio (x) = 0.66421 0.45117
# Poissons Ratio (y) = 0.35644 -0.31378
# Poissons Ratio (z) = 0.25710 -0.33319
#
# Static dielectric constant tensor:
#      x y z
#    x 1.849440 0.007580 0.012330 
#    y 0.007580 1.755160 -0.040220 
#    z 0.012330 -0.040220 1.761650 
# 
# From -- ./inp_files/534072.got.cif
#   From: 2010.05.17/outbox.cif.g08.bks.cpg/sg2_268_cif.got.tgz:534072.got - 2010.06.03 11:33:40.
