data_PCOD9101327
_publ_section_title
;
Structure prediction by ZEFSAII (Michael W. Deem and Ramdas Pophale) SiO2 
 PCOD9101327
Probable space group: P -1
;
_chemical_formula_sum "Si O2"
_cell_formula_units_Z 14
_cell_length_a 11.730174
_cell_length_b 25.434626
_cell_length_c 15.768630
_cell_angle_alpha 161.774451
_cell_angle_beta 39.665420
_cell_angle_gamma 148.376222
_cell_volume 749.374316
_symmetry_space_group_name_H-M "P -1"
_symmetry_group_IT_number 2
_symmetry_cell_setting 'triclinic'
loop_
_space_group_symop_operation_xyz
x,y,z
-x,-y,-z
loop_
_atom_site_type_symbol
_atom_site_label
_atom_site_fract_x
_atom_site_fract_y
_atom_site_fract_z
Si Si1 0.458009 0.551479 0.840082
Si Si2 0.752583 0.210757 0.682253
Si Si3 0.926372 0.781725 0.356858
Si Si4 0.250647 0.255795 0.864480
Si Si5 0.324753 0.305176 0.243801
Si Si6 0.847782 0.156174 0.356307
Si Si7 0.711731 0.435321 0.798639
O O1 0.600880 0.609859 0.763801
O O2 0.287661 0.311465 0.601941
O O3 0.288885 0.613600 0.019209
O O4 0.631466 0.686877 0.023727
O O5 0.881589 0.203774 0.676646
O O6 0.865861 0.222130 0.545776
O O7 0.500000 0.000000 0.500000
O O8 0.036680 0.014759 0.616728
O O9 0.833357 0.609567 0.071565
O O10 0.444419 0.300298 0.757972
O O11 0.214516 0.426700 0.117172
O O12 0.500000 0.500000 0.500000
O O13 0.081366 0.230547 0.296763
O O14 0.317016 0.098209 0.941023
O O15 0.767745 0.273268 0.530378
#
# Coordination Sequence:
#
# PCOD9101327 Si02
#       7
#     2   2   2   2   2   2   2
#     4  11  22  37  58  87 116 153 192 243 289 341
#     4  12  19  35  62  89 116 149 189 244 299 339
#     4  11  20  32  59  88 120 147 191 236 296 345
#     4  10  20  38  58  88 119 149 196 239 287 339
#     4  11  25  38  57  84 121 154 191 236 293 349
#     4  11  22  40  56  86 118 154 190 235 295 342
#     4  10  22  36  59  87 119 154 189 242 287 341
#
# _framework density 18.682252999999999
#
# number of rings (size 3 to 8) (size 9 to 14) (size 15 to 20)
#    0.000    1.143    5.714    1.714    2.000    1.143 
#    0.000    0.714    0.000    1.714    0.000    0.000 
#    0.000    0.000    0.000    0.000    0.000    0.000 
#
# Total GULP energy -78143.294797 kJ/mol
# GULP energy per Si atom -5581.663914 kJ/mol
# Density = 1.863973 g / cm^3
# Si number density = 18.682253 Si / 1000 Ang^3
#
#
#
# Elastic Constant Matrix: (Units=GPa)
#
#
# Indices 1 2 3 4 5 6 
#
# 1 60.3193 12.5001 23.5824 1.4634 -11.0078 -8.1880
# 2 12.5001 115.6660 47.2550 18.2494 -1.7903 -13.8610
# 3 23.5824 47.2550 81.9038 25.5788 -8.5084 -1.7924
# 4 1.4634 18.2494 25.5788 41.5419 0.9440 3.4412
# 5 -11.0078 -1.7903 -8.5084 0.9440 28.5990 5.0331
# 6 -8.1880 -13.8610 -1.7924 3.4412 5.0331 22.8069
#
#
#
# Elastic Compliance Matrix: (Units=1/GPa)
#
#
# Indices 1 2 3 4 5 6 
#
# 1 0.020595 0.000860 -0.006500 0.002292 0.004920 0.005974
# 2 0.000860 0.012681 -0.007035 -0.001901 -0.002361 0.008271
# 3 -0.006500 -0.007035 0.021539 -0.009677 0.004571 -0.004465
# 4 0.002292 -0.001901 -0.009677 0.031276 -0.002211 -0.005324
# 5 0.004920 -0.002361 0.004571 -0.002211 0.039499 -0.007692
# 6 0.005974 0.008271 -0.004465 -0.005324 -0.007692 0.053168
#
#
# Mechanical properties :
#
#
# Convention : Reuss Voigt Hill
#
# Bulk Modulus (GPa) = 33.93773 47.17379 40.55576
# Shear Modulus (GPa) = 23.37224 30.22633 26.79928
#
# Velocity S-wave (km/s) = 3.54084 4.02670 3.79156
# Velocity P-wave (km/s) = 5.90948 6.85014 6.39712
#
# Compressibility (1/GPa) = 0.02946573
#
# Stress axis : x y z
#
# Youngs Moduli (GPa) = 48.55618 78.85688 46.42715
#
# Poissons Ratio (x) = -0.06785 0.30179
# Poissons Ratio (y) = -0.04178 0.32660
# Poissons Ratio (z) = 0.31563 0.55474
#
# Static dielectric constant tensor:
#      x y z
#    x 1.670010 -0.008070 -0.027180 
#    y -0.008070 1.686340 0.010050 
#    z -0.027180 0.010050 1.708920 
# 
# From -- ./inp_files/293496.got.cif
#   From: 2010.05.17/outbox.cif.g08.bks.cpg/sg2_147_cif.got.tgz:293496.got - 2010.06.03 11:33:40.
