data_PCOD9101874
_publ_section_title
;
Structure prediction by ZEFSAII (Michael W. Deem and Ramdas Pophale) SiO2 
 PCOD9101874
Probable space group: P -1
;
_chemical_formula_sum "Si O2"
_cell_formula_units_Z 14
_cell_length_a 8.223020
_cell_length_b 10.289949
_cell_length_c 19.497890
_cell_angle_alpha 136.276188
_cell_angle_beta 141.851578
_cell_angle_gamma 44.463202
_cell_volume 662.283114
_symmetry_space_group_name_H-M "P -1"
_symmetry_group_IT_number 2
_symmetry_cell_setting 'triclinic'
loop_
_space_group_symop_operation_xyz
x,y,z
-x,-y,-z
loop_
_atom_site_type_symbol
_atom_site_label
_atom_site_fract_x
_atom_site_fract_y
_atom_site_fract_z
Si Si1 0.165224 0.237996 0.753360
Si Si2 0.454483 0.060020 0.338487
Si Si3 0.870072 0.080626 0.174077
Si Si4 0.650980 0.147189 0.578912
Si Si5 0.704770 0.673259 0.744206
Si Si6 0.732519 0.444537 0.368486
Si Si7 0.549584 0.059568 0.930476
O O1 0.978608 0.110232 0.673268
O O2 0.957563 0.463611 0.757780
O O3 0.307398 0.122822 0.688128
O O4 0.407211 0.211904 0.880126
O O5 0.568103 0.159473 0.475769
O O6 0.320022 0.228240 0.300678
O O7 0.203768 0.985442 0.251258
O O8 0.801492 0.288502 0.270767
O O9 0.699193 0.960457 0.111174
O O10 0.760223 0.110992 0.071296
O O11 0.508416 0.349547 0.650336
O O12 0.500000 0.000000 0.500000
O O13 0.411417 0.638268 0.649741
O O14 0.705360 0.844291 0.864441
O O15 0.000000 0.500000 0.500000
#
# Coordination Sequence:
#
# PCOD9101874 Si02
#       7
#     2   2   2   2   2   2   2
#     4  10  22  39  58  90 121 158 198 246 300 357
#     4  11  22  38  60  89 125 156 196 248 304 358
#     4  10  20  39  64  91 111 164 200 246 305 347
#     4  11  23  38  60  87 122 159 200 246 298 358
#     4   9  22  39  60  89 118 162 197 244 305 350
#     4  10  20  38  61  85 118 156 204 245 289 354
#     4   9  20  42  66  81 123 154 206 250 290 358
#
# _framework density 21.138995999999999
#
# number of rings (size 3 to 8) (size 9 to 14) (size 15 to 20)
#    0.000    2.000    1.429    1.286    4.000    5.714 
#    0.000   17.143    0.000    0.000    0.000    0.000 
#    0.000    0.000    0.000    0.000    0.000    0.000 
#
# Total GULP energy -78157.504806 kJ/mol
# GULP energy per Si atom -5582.678915 kJ/mol
# Density = 2.109088 g / cm^3
# Si number density = 21.138996 Si / 1000 Ang^3
#
#
#
# Elastic Constant Matrix: (Units=GPa)
#
#
# Indices 1 2 3 4 5 6 
#
# 1 59.8530 36.2671 10.6065 4.7858 -6.8362 -17.6985
# 2 36.2671 108.1396 9.1979 -6.2518 -3.0193 -15.9630
# 3 10.6065 9.1979 98.2175 -9.7431 -11.5417 -5.1786
# 4 4.7858 -6.2518 -9.7431 19.1342 3.3487 2.1679
# 5 -6.8362 -3.0193 -11.5417 3.3487 26.9575 -8.2989
# 6 -17.6985 -15.9630 -5.1786 2.1679 -8.2989 34.8013
#
#
#
# Elastic Compliance Matrix: (Units=1/GPa)
#
#
# Indices 1 2 3 4 5 6 
#
# 1 0.028427 -0.007766 -0.001599 -0.014160 0.011834 0.014361
# 2 -0.007766 0.012330 0.000247 0.006122 -0.000889 0.001149
# 3 -0.001599 0.000247 0.011470 0.005357 0.004398 0.001722
# 4 -0.014160 0.006122 0.005357 0.063758 -0.011722 -0.010363
# 5 0.011834 -0.000889 0.004398 -0.011722 0.049093 0.018702
# 6 0.014361 0.001149 0.001722 -0.010363 0.018702 0.041927
#
#
# Mechanical properties :
#
#
# Convention : Reuss Voigt Hill
#
# Bulk Modulus (GPa) = 29.41973 42.03922 35.72948
# Shear Modulus (GPa) = 21.13532 30.18783 25.66157
#
# Velocity S-wave (km/s) = 3.16543 3.78307 3.48795
# Velocity P-wave (km/s) = 5.22565 6.24599 5.75847
#
# Compressibility (1/GPa) = 0.03399079
#
# Stress axis : x y z
#
# Youngs Moduli (GPa) = 35.17763 81.10607 87.18426
#
# Poissons Ratio (x) = 0.62987 0.13944
# Poissons Ratio (y) = 0.27319 -0.02157
# Poissons Ratio (z) = 0.05626 -0.02007
#
# Static dielectric constant tensor:
#      x y z
#    x 1.832290 0.036510 0.044090 
#    y 0.036510 1.771720 -0.006170 
#    z 0.044090 -0.006170 1.771140 
# 
# From -- ./inp_files/253357.got.cif
#   From: 2010.05.17/outbox.cif.g08.bks.cpg/sg2_127_cif.got.tgz:253357.got - 2010.06.03 11:33:40.
