data_PCOD9101705
_publ_section_title
;
Structure prediction by ZEFSAII (Michael W. Deem and Ramdas Pophale) SiO2 
 PCOD9101705
Probable space group: P -1
;
_chemical_formula_sum "Si O2"
_cell_formula_units_Z 12
_cell_length_a 11.179365
_cell_length_b 9.125236
_cell_length_c 7.901541
_cell_angle_alpha 68.480185
_cell_angle_beta 124.290595
_cell_angle_gamma 81.352706
_cell_volume 548.650423
_symmetry_space_group_name_H-M "P -1"
_symmetry_group_IT_number 2
_symmetry_cell_setting 'triclinic'
loop_
_space_group_symop_operation_xyz
x,y,z
-x,-y,-z
loop_
_atom_site_type_symbol
_atom_site_label
_atom_site_fract_x
_atom_site_fract_y
_atom_site_fract_z
Si Si1 0.310827 0.935915 0.523018
Si Si2 0.726017 0.386462 0.210941
Si Si3 0.030203 0.291730 0.295424
Si Si4 0.236177 0.466219 0.285933
Si Si5 0.526930 0.110984 0.664700
Si Si6 0.472509 0.390248 0.766828
O O1 0.309459 0.757193 0.656124
O O2 0.327214 0.944928 0.328655
O O3 0.151449 0.095623 0.411435
O O4 0.463381 0.965789 0.696064
O O5 0.644834 0.563267 0.183699
O O6 0.915405 0.310213 0.353707
O O7 0.622384 0.417311 0.942036
O O8 0.138361 0.393857 0.360581
O O9 0.900805 0.392203 0.999978
O O10 0.369285 0.282614 0.383137
O O11 0.350929 0.518794 0.469858
O O12 0.542142 0.197001 0.816778
#
# Coordination Sequence:
#
# PCOD9101705 Si02
#       6
#     2   2   2   2   2   2
#     4  10  20  38  60  89 117 149 188 248 292 334
#     4  11  23  34  60  90 124 144 190 246 296 326
#     4  10  20  38  60  89 117 149 188 248 292 334
#     4   8  19  40  63  79 110 160 204 220 274 361
#     4   8  19  40  63  79 110 160 204 220 274 361
#     4   9  22  39  58  89 110 164 194 231 278 354
#
# _framework density 21.871849999999998
#
# number of rings (size 3 to 8) (size 9 to 14) (size 15 to 20)
#    1.000    1.667    0.000    0.500    4.667    4.000 
#    0.000    5.000    0.000    0.000    0.000    0.000 
#    0.000    0.000    0.000    0.000    0.000    0.000 
#
# Total GULP energy -66824.704531 kJ/mol
# GULP energy per Si atom -5568.725378 kJ/mol
# Density = 2.182207 g / cm^3
# Si number density = 21.871850 Si / 1000 Ang^3
#
#
#
# Elastic Constant Matrix: (Units=GPa)
#
#
# Indices 1 2 3 4 5 6 
#
# 1 163.4859 52.1438 -0.3529 -7.4735 5.6569 -17.4481
# 2 52.1438 98.8903 7.3502 14.2438 -11.6120 -16.0673
# 3 -0.3529 7.3502 39.2892 3.9859 5.1662 9.4154
# 4 -7.4735 14.2438 3.9859 33.8566 1.2610 -1.8085
# 5 5.6569 -11.6120 5.1662 1.2610 24.2527 -7.7621
# 6 -17.4481 -16.0673 9.4154 -1.8085 -7.7621 31.9740
#
#
#
# Elastic Compliance Matrix: (Units=1/GPa)
#
#
# Indices 1 2 3 4 5 6 
#
# 1 0.008320 -0.005622 0.001264 0.004259 -0.005005 0.000368
# 2 -0.005622 0.018691 -0.007744 -0.008151 0.016199 0.012076
# 3 0.001264 -0.007744 0.033231 -0.000670 -0.016497 -0.017030
# 4 0.004259 -0.008151 -0.000670 0.034173 -0.006956 -0.001330
# 5 -0.005005 0.016199 -0.016497 -0.006956 0.062009 0.024926
# 6 0.000368 0.012076 -0.017030 -0.001330 0.024926 0.048535
#
#
# Mechanical properties :
#
#
# Convention : Reuss Voigt Hill
#
# Bulk Modulus (GPa) = 27.74930 46.66087 37.20508
# Shear Modulus (GPa) = 20.73185 34.18495 27.45840
#
# Velocity S-wave (km/s) = 3.08210 3.95772 3.54704
# Velocity P-wave (km/s) = 5.03791 6.50114 5.81573
#
# Compressibility (1/GPa) = 0.03603695
#
# Stress axis : x y z
#
# Youngs Moduli (GPa) = 120.19320 53.50281 30.09275
#
# Poissons Ratio (x) = 0.30081 -0.03805
# Poissons Ratio (y) = 0.67577 0.23304
# Poissons Ratio (z) = -0.15197 0.41433
#
# Static dielectric constant tensor:
#      x y z
#    x 1.850610 -0.004280 -0.056330 
#    y -0.004280 1.815150 0.017020 
#    z -0.056330 0.017020 1.815480 
# 
# From -- ./inp_files/237958.got.cif
#   From: 2010.05.17/outbox.cif.g08.bks.cpg/sg2_119_cif.got.tgz:237958.got - 2010.06.03 11:33:40.
