data_PCOD9101174
_publ_section_title
;
Structure prediction by ZEFSAII (Michael W. Deem and Ramdas Pophale) SiO2 
 PCOD9101174
Probable space group: P -1
;
_chemical_formula_sum "Si O2"
_cell_formula_units_Z 16
_cell_length_a 11.966511
_cell_length_b 17.050593
_cell_length_c 5.639235
_cell_angle_alpha 126.120695
_cell_angle_beta 113.245905
_cell_angle_gamma 50.748930
_cell_volume 719.303031
_symmetry_space_group_name_H-M "P -1"
_symmetry_group_IT_number 2
_symmetry_cell_setting 'triclinic'
loop_
_space_group_symop_operation_xyz
x,y,z
-x,-y,-z
loop_
_atom_site_type_symbol
_atom_site_label
_atom_site_fract_x
_atom_site_fract_y
_atom_site_fract_z
Si Si1 0.527237 0.572965 0.895466
Si Si2 0.118799 0.098902 0.157288
Si Si3 0.460933 0.965750 0.157428
Si Si4 0.932726 0.687115 0.729211
Si Si5 0.226529 0.442715 0.596307
Si Si6 0.675015 0.330090 0.693611
Si Si7 0.985061 0.846371 0.327654
Si Si8 0.526193 0.721275 0.785468
O O1 0.663909 0.559795 0.128870
O O2 0.388288 0.604411 0.993860
O O3 0.602298 0.438203 0.640649
O O4 0.475345 0.690013 0.921029
O O5 0.073154 0.233010 0.346470
O O6 0.073485 0.083295 0.352285
O O7 0.289413 0.020898 0.122303
O O8 0.046312 0.087944 0.835528
O O9 0.500000 0.000000 0.500000
O O10 0.539494 0.828874 0.986763
O O11 0.500000 0.000000 0.000000
O O12 0.822023 0.646242 0.540968
O O13 0.087169 0.569353 0.675421
O O14 0.911233 0.771962 0.080861
O O15 0.321082 0.393456 0.350846
O O16 0.593998 0.262681 0.472892
O O17 0.844328 0.246143 0.670918
#
# Coordination Sequence:
#
# PCOD9101174 Si02
#       8
#     2   2   2   2   2   2   2   2
#     4  10  21  38  63  95 138 179 225 276 340 404
#     4  10  23  42  66  96 127 180 227 270 343 390
#     4  12  28  49  75  99 139 179 232 289 338 397
#     4   9  21  35  63  92 140 171 220 271 347 408
#     4  10  20  38  57 102 131 174 220 281 340 414
#     4  10  22  41  62  96 138 180 224 278 338 406
#     4  10  22  40  68  92 133 178 224 272 339 399
#     4  11  26  37  70  96 134 178 236 278 339 406
#
# _framework density 22.243756000000001
#
# number of rings (size 3 to 8) (size 9 to 14) (size 15 to 20)
#    0.750    1.000    1.250    1.875   10.500    0.000 
#    0.000    3.750    0.000    0.000    0.000    0.000 
#    0.000    0.000    0.000    0.000    0.000    0.000 
#
# Total GULP energy -89135.381571 kJ/mol
# GULP energy per Si atom -5570.961348 kJ/mol
# Density = 2.219313 g / cm^3
# Si number density = 22.243756 Si / 1000 Ang^3
#
#
#
# Elastic Constant Matrix: (Units=GPa)
#
#
# Indices 1 2 3 4 5 6 
#
# 1 68.1857 4.3681 18.9025 -6.8662 -11.6245 0.3320
# 2 4.3681 50.9734 14.7703 -10.1678 -21.2426 2.8607
# 3 18.9025 14.7703 74.7158 -3.8845 -14.9938 13.3152
# 4 -6.8662 -10.1678 -3.8845 16.3986 7.1657 -3.5909
# 5 -11.6245 -21.2426 -14.9938 7.1657 34.3262 1.9107
# 6 0.3320 2.8607 13.3152 -3.5909 1.9107 40.1075
#
#
#
# Elastic Compliance Matrix: (Units=1/GPa)
#
#
# Indices 1 2 3 4 5 6 
#
# 1 0.016915 0.002623 -0.003843 0.006201 0.004306 0.001299
# 2 0.002623 0.028842 -0.002534 0.011499 0.015282 -0.000936
# 3 -0.003843 -0.002534 0.016845 -0.002844 0.005410 -0.005892
# 4 0.006201 0.011499 -0.002844 0.075153 -0.008115 0.007188
# 5 0.004306 0.015282 0.005410 -0.008115 0.044426 -0.005765
# 6 0.001299 -0.000936 -0.005892 0.007188 -0.005765 0.027863
#
#
# Mechanical properties :
#
#
# Convention : Reuss Voigt Hill
#
# Bulk Modulus (GPa) = 18.15060 29.99518 24.07289
# Shear Modulus (GPa) = 21.19379 28.55541 24.87460
#
# Velocity S-wave (km/s) = 3.09009 3.58683 3.34769
# Velocity P-wave (km/s) = 4.57265 5.53786 5.07824
#
# Compressibility (1/GPa) = 0.05509461
#
# Stress axis : x y z
#
# Youngs Moduli (GPa) = 59.11786 34.67114 59.36461
#
# Poissons Ratio (x) = -0.09093 0.22813
# Poissons Ratio (y) = -0.15504 0.15042
# Poissons Ratio (z) = 0.22718 0.08785
#
# Static dielectric constant tensor:
#      x y z
#    x 1.830540 0.040250 -0.069050 
#    y 0.040250 1.828460 -0.071880 
#    z -0.069050 -0.071880 1.999740 
# 
# From -- ./inp_files/81721.got.cif
#   From: 2010.05.17/outbox.cif.g08.bks.cpg/sg2_41_cif.got.tgz:81721.got - 2010.06.03 11:33:40.
