data_PCOD9101937
_publ_section_title
;
Structure prediction by ZEFSAII (Michael W. Deem and Ramdas Pophale) SiO2 
 PCOD9101937
Probable space group: P -1
;
_chemical_formula_sum "Si O2"
_cell_formula_units_Z 16
_cell_length_a 9.509779
_cell_length_b 9.644157
_cell_length_c 11.727119
_cell_angle_alpha 113.868308
_cell_angle_beta 68.806943
_cell_angle_gamma 108.697907
_cell_volume 897.670549
_symmetry_space_group_name_H-M "P -1"
_symmetry_group_IT_number 2
_symmetry_cell_setting 'triclinic'
loop_
_space_group_symop_operation_xyz
x,y,z
-x,-y,-z
loop_
_atom_site_type_symbol
_atom_site_label
_atom_site_fract_x
_atom_site_fract_y
_atom_site_fract_z
Si Si1 0.627402 0.278870 0.960597
Si Si2 0.275458 0.620951 0.271676
Si Si3 0.870403 0.358229 0.451354
Si Si4 0.630330 0.599270 0.189379
Si Si5 0.637696 0.455599 0.373577
Si Si6 0.272365 0.803946 0.865490
Si Si7 0.042421 0.294102 0.181588
Si Si8 0.284977 0.150930 0.935546
O O1 0.706341 0.278018 0.814600
O O2 0.659787 0.455079 0.056953
O O3 0.686694 0.180585 0.008650
O O4 0.445351 0.224992 0.975729
O O5 0.220553 0.699300 0.426147
O O6 0.445557 0.589043 0.237530
O O7 0.156645 0.460116 0.223587
O O8 0.763954 0.432620 0.421242
O O9 0.000000 0.500000 0.500000
O O10 0.954759 0.250200 0.313218
O O11 0.680474 0.576114 0.296614
O O12 0.709828 0.754914 0.152876
O O13 0.500000 0.500000 0.500000
O O14 0.610494 0.290755 0.259707
O O15 0.099509 0.704801 0.862952
O O16 0.279396 0.970138 0.863646
O O17 0.144248 0.180832 0.063409
#
# Coordination Sequence:
#
# PCOD9101937 Si02
#       8
#     2   2   2   2   2   2   2   2
#     4  10  19  34  55  81 103 135 182 225 257 299
#     4  10  16  32  55  80 101 137 178 224 255 306
#     4   9  19  31  51  82 102 136 174 213 261 309
#     4  10  18  32  59  81 101 135 183 219 261 302
#     4  10  19  36  56  78 105 135 178 226 252 309
#     4  10  23  33  51  85 107 137 177 213 272 316
#     4  10  19  34  53  75 109 142 172 212 265 317
#     4  11  19  36  54  78 110 143 170 216 270 314
#
# _framework density 17.823910000000001
#
# number of rings (size 3 to 8) (size 9 to 14) (size 15 to 20)
#    0.000    2.000    3.750    1.500    0.000    0.500 
#    4.500    0.625    0.000    0.750    0.000    0.000 
#    0.000    0.000    0.000    0.000    0.000    0.000 
#
# Total GULP energy -89095.762354 kJ/mol
# GULP energy per Si atom -5568.485147 kJ/mol
# Density = 1.778334 g / cm^3
# Si number density = 17.823910 Si / 1000 Ang^3
#
#
#
# Elastic Constant Matrix: (Units=GPa)
#
#
# Indices 1 2 3 4 5 6 
#
# 1 39.6239 12.8169 40.3802 -11.4498 -5.8022 -3.9590
# 2 12.8169 84.4944 43.8639 -7.9505 -9.3344 -10.4745
# 3 40.3802 43.8639 141.6125 -25.7587 -12.2597 -12.3438
# 4 -11.4498 -7.9505 -25.7587 20.7572 -7.3322 0.4021
# 5 -5.8022 -9.3344 -12.2597 -7.3322 31.4051 -0.4240
# 6 -3.9590 -10.4745 -12.3438 0.4021 -0.4240 7.7450
#
#
#
# Elastic Compliance Matrix: (Units=1/GPa)
#
#
# Indices 1 2 3 4 5 6 
#
# 1 0.038862 0.001519 -0.006857 0.016461 0.008941 0.010624
# 2 0.001519 0.016392 -0.002168 0.006171 0.006011 0.019499
# 3 -0.006857 -0.002168 0.014759 0.016151 0.007846 0.016676
# 4 0.016461 0.006171 0.016151 0.090496 0.032843 0.039601
# 5 0.008941 0.006011 0.007846 0.032843 0.046363 0.026037
# 6 0.010624 0.019499 0.016676 0.039601 0.026037 0.186866
#
#
# Mechanical properties :
#
#
# Convention : Reuss Voigt Hill
#
# Bulk Modulus (GPa) = 18.18196 51.09475 34.63835
# Shear Modulus (GPa) = 11.70731 23.22611 17.46671
#
# Velocity S-wave (km/s) = 2.56565 3.61375 3.13383
# Velocity P-wave (km/s) = 4.35888 6.79271 5.70704
#
# Compressibility (1/GPa) = 0.05499958
#
# Stress axis : x y z
#
# Youngs Moduli (GPa) = 25.73236 61.00500 67.75538
#
# Poissons Ratio (x) = -0.09265 0.46462
# Poissons Ratio (y) = -0.03908 0.14689
# Poissons Ratio (z) = 0.17646 0.13225
#
# Static dielectric constant tensor:
#      x y z
#    x 1.610690 -0.002630 -0.025220 
#    y -0.002630 1.592890 -0.009770 
#    z -0.025220 -0.009770 1.619610 
# 
# From -- ./inp_files/376643.got.cif
#   From: 2010.05.17/outbox.cif.g08.bks.cpg/sg2_189_cif.got.tgz:376643.got - 2010.06.03 11:33:40.
