data_PCOD9101815
_publ_section_title
;
Structure prediction by ZEFSAII (Michael W. Deem and Ramdas Pophale) SiO2 
 PCOD9101815
Probable space group: P -1
;
_chemical_formula_sum "Si O2"
_cell_formula_units_Z 16
_cell_length_a 11.826447
_cell_length_b 9.292925
_cell_length_c 12.142020
_cell_angle_alpha 130.915136
_cell_angle_beta 114.109410
_cell_angle_gamma 95.685881
_cell_volume 779.669265
_symmetry_space_group_name_H-M "P -1"
_symmetry_group_IT_number 2
_symmetry_cell_setting 'triclinic'
loop_
_space_group_symop_operation_xyz
x,y,z
-x,-y,-z
loop_
_atom_site_type_symbol
_atom_site_label
_atom_site_fract_x
_atom_site_fract_y
_atom_site_fract_z
Si Si1 0.447649 0.470822 0.336331
Si Si2 0.353468 0.941202 0.652970
Si Si3 0.388833 0.086888 0.515419
Si Si4 0.769753 0.242930 0.261073
Si Si5 0.068676 0.270195 0.339432
Si Si6 0.152834 0.458678 0.230692
Si Si7 0.128103 0.881438 0.160475
Si Si8 0.360398 0.006411 0.123081
O O1 0.500000 0.500000 0.500000
O O2 0.559581 0.684741 0.416409
O O3 0.293410 0.450853 0.248899
O O4 0.417714 0.226024 0.179991
O O5 0.313002 0.931003 0.759242
O O6 0.222919 0.708080 0.431983
O O7 0.376777 0.117252 0.656489
O O8 0.505837 0.951230 0.727038
O O9 0.500000 0.000000 0.500000
O O10 0.235632 0.896821 0.306053
O O11 0.809445 0.488387 0.440351
O O12 0.916477 0.239925 0.299124
O O13 0.691254 0.187854 0.084581
O O14 0.084243 0.298264 0.228783
O O15 0.086012 0.062970 0.267502
O O16 0.020782 0.354516 0.040032
O O17 0.229034 0.959360 0.128677
#
# Coordination Sequence:
#
# PCOD9101815 Si02
#       8
#     2   2   2   2   2   2   2   2
#     4  12  20  37  65  96 124 160 208 270 318 359
#     4  11  24  42  60  90 136 171 205 255 324 381
#     4  12  23  42  61  92 134 169 206 268 327 370
#     4  10  23  39  64  90 135 171 208 252 321 388
#     4  10  20  38  61 100 128 160 206 271 314 369
#     4  11  19  34  62  96 125 151 208 267 315 366
#     4  12  22  35  70  98 122 159 218 271 317 364
#     4  12  21  40  67 100 121 164 219 266 313 377
#
# _framework density 20.521519999999999
#
# number of rings (size 3 to 8) (size 9 to 14) (size 15 to 20)
#    0.000    0.750    7.500    1.500    1.750    0.500 
#    0.000    1.250    0.000    0.000    0.000    0.000 
#    0.000    0.000    0.000    0.000    0.000    0.000 
#
# Total GULP energy -89279.651841 kJ/mol
# GULP energy per Si atom -5579.978240 kJ/mol
# Density = 2.047481 g / cm^3
# Si number density = 20.521520 Si / 1000 Ang^3
#
#
#
# Elastic Constant Matrix: (Units=GPa)
#
#
# Indices 1 2 3 4 5 6 
#
# 1 57.1795 7.2764 33.8071 -3.6644 18.0702 7.5231
# 2 7.2764 72.3349 16.1553 -8.5824 3.2783 16.0196
# 3 33.8071 16.1553 90.7167 -9.9085 10.0428 0.9922
# 4 -3.6644 -8.5824 -9.9085 21.2227 0.5604 0.0146
# 5 18.0702 3.2783 10.0428 0.5604 33.4842 -4.0950
# 6 7.5231 16.0196 0.9922 0.0146 -4.0950 22.4467
#
#
#
# Elastic Compliance Matrix: (Units=1/GPa)
#
#
# Indices 1 2 3 4 5 6 
#
# 1 0.029613 0.003390 -0.009517 0.002455 -0.015299 -0.014716
# 2 0.003390 0.018538 -0.003147 0.006746 -0.004658 -0.015081
# 3 -0.009517 -0.003147 0.015386 0.004228 0.001370 0.005003
# 4 0.002455 0.006746 0.004228 0.052381 -0.004957 -0.006763
# 5 -0.015299 -0.004658 0.001370 -0.004957 0.040172 0.015723
# 6 -0.014716 -0.015081 0.005003 -0.006763 0.015723 0.062897
#
#
# Mechanical properties :
#
#
# Convention : Reuss Voigt Hill
#
# Bulk Modulus (GPa) = 22.22754 37.18985 29.70869
# Shear Modulus (GPa) = 19.79966 26.29688 23.04827
#
# Velocity S-wave (km/s) = 3.10953 3.58359 3.35494
# Velocity P-wave (km/s) = 4.87310 5.94008 5.43285
#
# Compressibility (1/GPa) = 0.04498923
#
# Stress axis : x y z
#
# Youngs Moduli (GPa) = 33.76952 53.94328 64.99550
#
# Poissons Ratio (x) = -0.18289 0.61853
# Poissons Ratio (y) = -0.11450 0.20457
# Poissons Ratio (z) = 0.32137 0.16978
#
# Static dielectric constant tensor:
#      x y z
#    x 1.758970 0.018690 0.021630 
#    y 0.018690 1.741640 0.014610 
#    z 0.021630 0.014610 1.791220 
# 
# From -- ./inp_files/282698.got.cif
#   From: 2010.05.17/outbox.cif.g08.bks.cpg/sg2_142_cif.got.tgz:282698.got - 2010.06.03 11:33:40.
