data_PCOD9101675
_publ_section_title
;
Structure prediction by ZEFSAII (Michael W. Deem and Ramdas Pophale) SiO2 
 PCOD9101675
Probable space group: P -1
;
_chemical_formula_sum "Si O2"
_cell_formula_units_Z 16
_cell_length_a 12.788243
_cell_length_b 8.029013
_cell_length_c 8.239296
_cell_angle_alpha 58.822753
_cell_angle_beta 97.561645
_cell_angle_gamma 103.747455
_cell_volume 703.027776
_symmetry_space_group_name_H-M "P -1"
_symmetry_group_IT_number 2
_symmetry_cell_setting 'triclinic'
loop_
_space_group_symop_operation_xyz
x,y,z
-x,-y,-z
loop_
_atom_site_type_symbol
_atom_site_label
_atom_site_fract_x
_atom_site_fract_y
_atom_site_fract_z
Si Si1 0.747216 0.928505 0.720830
Si Si2 0.895365 0.722538 0.614967
Si Si3 0.420018 0.371813 0.672775
Si Si4 0.626126 0.557844 0.045299
Si Si5 0.820017 0.252220 0.814491
Si Si6 0.099991 0.893049 0.769139
Si Si7 0.608163 0.238780 0.968355
Si Si8 0.667238 0.990601 0.358496
O O1 0.817546 0.812887 0.677895
O O2 0.818172 0.123676 0.716022
O O3 0.656097 0.973119 0.555937
O O4 0.688267 0.781424 0.920227
O O5 0.853539 0.490745 0.682241
O O6 0.006498 0.751444 0.723190
O O7 0.912629 0.880118 0.388500
O O8 0.500000 0.500000 0.500000
O O9 0.367483 0.489709 0.739123
O O10 0.498789 0.262457 0.849163
O O11 0.338000 0.220255 0.624698
O O12 0.500000 0.500000 0.000000
O O13 0.669804 0.436036 0.974593
O O14 0.695663 0.196412 0.880366
O O15 0.890236 0.170996 0.010124
O O16 0.215234 0.881727 0.720100
O O17 0.584829 0.088165 0.190246
#
# Coordination Sequence:
#
# PCOD9101675 Si02
#       8
#     2   2   2   2   2   2   2   2
#     4  11  23  41  63  96 126 171 215 260 315 387
#     4  10  21  43  68  89 135 168 214 267 327 367
#     4  11  23  38  63  87 122 168 207 258 320 377
#     4  10  20  38  60  87 124 160 209 256 311 377
#     4  11  22  41  66  95 132 166 218 262 321 381
#     4   9  21  40  66  96 125 175 211 269 315 385
#     4  10  21  39  60  92 121 167 207 259 322 371
#     4  10  21  40  59  87 132 155 216 264 305 386
#
# _framework density 22.758703000000001
#
# number of rings (size 3 to 8) (size 9 to 14) (size 15 to 20)
#    0.000    1.750    1.250    3.750    1.750    2.500 
#    2.250    9.375    0.000    0.000    0.000    0.000 
#    0.000    0.000    0.000    0.000    0.000    0.000 
#
# Total GULP energy -89247.322039 kJ/mol
# GULP energy per Si atom -5577.957627 kJ/mol
# Density = 2.270690 g / cm^3
# Si number density = 22.758703 Si / 1000 Ang^3
#
#
#
# Elastic Constant Matrix: (Units=GPa)
#
#
# Indices 1 2 3 4 5 6 
#
# 1 47.5391 16.9873 6.9419 -0.0360 6.5358 10.5394
# 2 16.9873 167.8598 40.2942 2.2786 -1.1906 4.4057
# 3 6.9419 40.2942 85.2551 12.2858 -0.0290 -7.2392
# 4 -0.0360 2.2786 12.2858 28.7059 6.2237 0.3309
# 5 6.5358 -1.1906 -0.0290 6.2237 26.8563 -0.5624
# 6 10.5394 4.4057 -7.2392 0.3309 -0.5624 19.2072
#
#
#
# Elastic Compliance Matrix: (Units=1/GPa)
#
#
# Indices 1 2 3 4 5 6 
#
# 1 0.026630 -0.001605 -0.003238 0.003392 -0.007671 -0.015748
# 2 -0.001605 0.006998 -0.003473 0.000853 0.000457 -0.002035
# 3 -0.003238 -0.003473 0.015360 -0.006929 0.002436 0.008553
# 4 0.003392 0.000853 -0.006929 0.040012 -0.010186 -0.005656
# 5 -0.007671 0.000457 0.002436 -0.010186 0.041620 0.006417
# 6 -0.015748 -0.002035 0.008553 -0.005656 0.006417 0.064681
#
#
# Mechanical properties :
#
#
# Convention : Reuss Voigt Hill
#
# Bulk Modulus (GPa) = 30.90501 47.67787 39.29144
# Shear Modulus (GPa) = 22.44988 30.71593 26.58291
#
# Velocity S-wave (km/s) = 3.14416 3.67772 3.42136
# Velocity P-wave (km/s) = 5.17589 6.24732 5.73667
#
# Compressibility (1/GPa) = 0.03235721
#
# Stress axis : x y z
#
# Youngs Moduli (GPa) = 37.55132 142.88999 65.10382
#
# Poissons Ratio (x) = 0.22929 0.21084
# Poissons Ratio (y) = 0.06026 0.22608
# Poissons Ratio (z) = 0.12161 0.49620
#
# Static dielectric constant tensor:
#      x y z
#    x 1.879550 -0.061140 0.057180 
#    y -0.061140 1.964150 -0.026570 
#    z 0.057180 -0.026570 1.913690 
# 
# From -- ./inp_files/294549.got.cif
#   From: 2010.05.17/outbox.cif.g08.bks.cpg/sg2_148_cif.got.tgz:294549.got - 2010.06.03 11:33:40.
