data_PCOD9101908
_publ_section_title
;
Structure prediction by ZEFSAII (Michael W. Deem and Ramdas Pophale) SiO2 
 PCOD9101908
Probable space group: P -1
;
_chemical_formula_sum "Si O2"
_cell_formula_units_Z 16
_cell_length_a 13.240903
_cell_length_b 14.681382
_cell_length_c 13.853419
_cell_angle_alpha 148.629319
_cell_angle_beta 32.512827
_cell_angle_gamma 150.839051
_cell_volume 630.434154
_symmetry_space_group_name_H-M "P -1"
_symmetry_group_IT_number 2
_symmetry_cell_setting 'triclinic'
loop_
_space_group_symop_operation_xyz
x,y,z
-x,-y,-z
loop_
_atom_site_type_symbol
_atom_site_label
_atom_site_fract_x
_atom_site_fract_y
_atom_site_fract_z
Si Si1 0.402323 0.719854 0.656285
Si Si2 0.341005 0.649071 0.043365
Si Si3 0.731439 0.222355 0.492755
Si Si4 0.903728 0.130181 0.608899
Si Si5 0.208186 0.922299 0.887717
Si Si6 0.790369 0.518524 0.207422
Si Si7 0.928318 0.079077 0.342240
Si Si8 0.499832 0.629579 0.293646
O O1 0.342324 0.599026 0.695643
O O2 0.391531 0.591504 0.453406
O O3 0.655391 0.929694 0.649987
O O4 0.226876 0.787344 0.835380
O O5 0.356738 0.584086 0.861860
O O6 0.362672 0.478717 0.930333
O O7 0.148100 0.697514 0.234777
O O8 0.548079 0.864114 0.111613
O O9 0.896849 0.248925 0.468992
O O10 0.668461 0.391168 0.673220
O O11 0.500000 0.000000 0.500000
O O12 0.823873 0.190495 0.289394
O O13 0.026892 0.114181 0.401823
O O14 0.075155 0.233771 0.653521
O O15 0.044998 0.999826 0.107366
O O16 0.000000 0.500000 0.000000
O O17 0.680888 0.876513 0.375821
#
# Coordination Sequence:
#
# PCOD9101908 Si02
#       8
#     2   2   2   2   2   2   2   2
#     4   9  20  40  58  82 124 159 196 245 295 349
#     4  10  21  38  56  86 118 152 199 241 296 345
#     4   9  18  39  63  83 117 157 191 240 301 358
#     4   9  21  40  59  87 121 161 196 243 297 350
#     4  10  21  35  62  87 118 154 195 241 296 352
#     4  10  22  37  63  85 120 159 203 244 296 346
#     4  10  20  38  61  87 116 155 197 241 294 362
#     4   9  20  37  59  84 117 156 192 244 299 347
#
# _framework density 25.379335999999999
#
# number of rings (size 3 to 8) (size 9 to 14) (size 15 to 20)
#    0.000    2.500    0.000    2.625    5.250    5.000 
#    0.000    7.500    0.000    0.000    0.000    0.000 
#    0.000    0.000    0.000    0.000    0.000    0.000 
#
# Total GULP energy -89269.967215 kJ/mol
# GULP energy per Si atom -5579.372951 kJ/mol
# Density = 2.532157 g / cm^3
# Si number density = 25.379336 Si / 1000 Ang^3
#
#
#
# Elastic Constant Matrix: (Units=GPa)
#
#
# Indices 1 2 3 4 5 6 
#
# 1 97.8286 21.9582 5.5232 -28.1619 -9.3462 5.9792
# 2 21.9582 86.6569 -25.7931 -23.4944 -5.9796 14.5029
# 3 5.5232 -25.7931 90.2899 20.4342 -13.4590 -24.4862
# 4 -28.1619 -23.4944 20.4342 63.4629 6.0688 -10.8534
# 5 -9.3462 -5.9796 -13.4590 6.0688 51.6202 10.4104
# 6 5.9792 14.5029 -24.4862 -10.8534 10.4104 32.1259
#
#
#
# Elastic Compliance Matrix: (Units=1/GPa)
#
#
# Indices 1 2 3 4 5 6 
#
# 1 0.012657 -0.002236 -0.003057 0.005290 0.001064 -0.002235
# 2 -0.002236 0.014505 0.003071 0.002501 0.002542 -0.003770
# 3 -0.003057 0.003071 0.015908 -0.004032 0.002587 0.009107
# 4 0.005290 0.002501 -0.004032 0.021092 -0.002862 0.002867
# 5 0.001064 0.002542 0.002587 -0.002862 0.022403 -0.007601
# 6 -0.002235 -0.003770 0.009107 0.002867 -0.007601 0.043618
#
#
# Mechanical properties :
#
#
# Convention : Reuss Voigt Hill
#
# Bulk Modulus (GPa) = 25.88999 30.90578 28.39789
# Shear Modulus (GPa) = 33.89749 47.64762 40.77256
#
# Velocity S-wave (km/s) = 3.65860 4.33762 4.01250
# Velocity P-wave (km/s) = 5.29816 6.10660 5.71669
#
# Compressibility (1/GPa) = 0.03862497
#
# Stress axis : x y z
#
# Youngs Moduli (GPa) = 79.00524 68.94271 62.86293
#
# Poissons Ratio (x) = 0.15414 0.19220
# Poissons Ratio (y) = 0.17664 -0.19304
# Poissons Ratio (z) = 0.24156 -0.21171
#
# Static dielectric constant tensor:
#      x y z
#    x 2.063500 0.030390 -0.060260 
#    y 0.030390 2.054670 0.019950 
#    z -0.060260 0.019950 2.058220 
# 
# From -- ./inp_files/534545.got.cif
#   From: 2010.05.17/outbox.cif.g08.bks.cpg/sg2_268_cif.got.tgz:534545.got - 2010.06.03 11:33:40.
