data_PCOD9101779
_publ_section_title
;
Structure prediction by ZEFSAII (Michael W. Deem and Ramdas Pophale) SiO2 
 PCOD9101779
Probable space group: P -1
;
_chemical_formula_sum "Si O2"
_cell_formula_units_Z 15
_cell_length_a 9.850532
_cell_length_b 11.368099
_cell_length_c 9.289628
_cell_angle_alpha 86.987486
_cell_angle_beta 39.352488
_cell_angle_gamma 88.453490
_cell_volume 658.559363
_symmetry_space_group_name_H-M "P -1"
_symmetry_group_IT_number 2
_symmetry_cell_setting 'triclinic'
loop_
_space_group_symop_operation_xyz
x,y,z
-x,-y,-z
loop_
_atom_site_type_symbol
_atom_site_label
_atom_site_fract_x
_atom_site_fract_y
_atom_site_fract_z
Si Si1 0.086940 0.822568 0.510661
Si Si2 0.216123 0.119154 0.684652
Si Si3 0.167331 0.962401 0.154535
Si Si4 0.865240 0.623089 0.341639
Si Si5 0.656025 0.410172 0.063854
Si Si6 0.482612 0.923270 0.308859
Si Si7 0.246724 0.382759 0.252950
Si Si8 0.500000 0.500000 0.500000
O O1 0.143481 0.861018 0.299371
O O2 0.313551 0.821789 0.407462
O O3 0.930580 0.710821 0.647354
O O4 0.953693 0.927453 0.684052
O O5 0.236301 0.247273 0.588775
O O6 0.324839 0.126691 0.750837
O O7 0.969370 0.077771 0.871213
O O8 0.351425 0.021120 0.496608
O O9 0.403498 0.006061 0.917974
O O10 0.843661 0.569306 0.523622
O O11 0.750189 0.541158 0.323997
O O12 0.114680 0.645493 0.101848
O O13 0.478554 0.337144 0.120522
O O14 0.561502 0.446189 0.292640
O O15 0.702153 0.525517 0.920371
#
# Coordination Sequence:
#
# PCOD9101779 Si02
#       8
#     2   2   2   2   2   2   2   1
#     4  10  21  38  62  97 127 164 221 265 318 391
#     4  10  22  40  61  94 127 171 222 255 321 400
#     4  10  20  38  60  92 132 166 214 265 318 387
#     4  11  22  42  66  95 129 173 217 272 333 388
#     4  10  23  43  69  94 131 170 216 280 329 390
#     4  10  22  39  63  92 134 173 208 272 318 380
#     4  10  22  42  66  99 128 168 225 268 327 396
#     4  10  24  42  64  98 128 162 218 272 328 398
#
# _framework density 22.776990000000001
#
# number of rings (size 3 to 8) (size 9 to 14) (size 15 to 20)
#    0.000    1.867    1.333    1.600    0.000    5.333 
#    0.000    0.000    0.000    0.000    0.000    0.000 
#    0.000    0.000    0.000    0.000    0.000    0.000 
#
# Total GULP energy -83526.779734 kJ/mol
# GULP energy per Si atom -5568.451982 kJ/mol
# Density = 2.272515 g / cm^3
# Si number density = 22.776990 Si / 1000 Ang^3
#
#
#
# Elastic Constant Matrix: (Units=GPa)
#
#
# Indices 1 2 3 4 5 6 
#
# 1 124.1777 58.1820 16.5970 -10.9205 -16.3378 35.4666
# 2 58.1820 70.9547 12.9537 -25.8898 -5.4435 24.2956
# 3 16.5970 12.9537 70.4624 -20.8990 -13.2971 9.2610
# 4 -10.9205 -25.8898 -20.8990 33.1937 7.7078 -10.2804
# 5 -16.3378 -5.4435 -13.2971 7.7078 34.1771 -11.9231
# 6 35.4666 24.2956 9.2610 -10.2804 -11.9231 39.3545
#
#
#
# Elastic Compliance Matrix: (Units=1/GPa)
#
#
# Indices 1 2 3 4 5 6 
#
# 1 0.016881 -0.014498 -0.002679 -0.010700 0.004687 -0.007008
# 2 -0.014498 0.036013 0.003732 0.025671 -0.007488 -0.005608
# 3 -0.002679 0.003732 0.018661 0.012988 0.003729 0.000241
# 4 -0.010700 0.025671 0.012988 0.057680 -0.007778 0.003449
# 5 0.004687 -0.007488 0.003729 -0.007778 0.036494 0.008546
# 6 -0.007008 -0.005608 0.000241 0.003449 0.008546 0.038621
#
#
# Mechanical properties :
#
#
# Convention : Reuss Voigt Hill
#
# Bulk Modulus (GPa) = 22.38890 49.00669 35.69779
# Shear Modulus (GPa) = 20.31468 33.20255 26.75861
#
# Velocity S-wave (km/s) = 2.98970 3.82216 3.43127
# Velocity P-wave (km/s) = 4.66569 6.40633 5.60401
#
# Compressibility (1/GPa) = 0.04466499
#
# Stress axis : x y z
#
# Youngs Moduli (GPa) = 59.23770 27.76782 53.58781
#
# Poissons Ratio (x) = 0.40259 0.14356
# Poissons Ratio (y) = 0.85885 -0.20000
# Poissons Ratio (z) = 0.15870 -0.10364
#
# Static dielectric constant tensor:
#      x y z
#    x 1.914000 -0.008510 -0.031860 
#    y -0.008510 1.838120 -0.010620 
#    z -0.031860 -0.010620 1.857750 
# 
# From -- ./inp_files/188116.got.cif
#   From: 2010.05.17/outbox.cif.g08.bks.cpg/sg2_95_cif.got.tgz:188116.got - 2010.06.03 11:33:40.
