data_PCOD9101848
_publ_section_title
;
Structure prediction by ZEFSAII (Michael W. Deem and Ramdas Pophale) SiO2 
 PCOD9101848
Probable space group: P -1
;
_chemical_formula_sum "Si O2"
_cell_formula_units_Z 16
_cell_length_a 22.497847
_cell_length_b 10.026424
_cell_length_c 13.909619
_cell_angle_alpha 48.860297
_cell_angle_beta 37.687696
_cell_angle_gamma 27.055361
_cell_volume 860.026051
_symmetry_space_group_name_H-M "P -1"
_symmetry_group_IT_number 2
_symmetry_cell_setting 'triclinic'
loop_
_space_group_symop_operation_xyz
x,y,z
-x,-y,-z
loop_
_atom_site_type_symbol
_atom_site_label
_atom_site_fract_x
_atom_site_fract_y
_atom_site_fract_z
Si Si1 0.991490 0.257812 0.688526
Si Si2 0.380174 0.160578 0.666442
Si Si3 0.724391 0.930936 0.663814
Si Si4 0.538655 0.868407 0.212804
Si Si5 0.291381 0.910686 0.984383
Si Si6 0.438826 0.784405 0.055203
Si Si7 0.978604 0.204561 0.153650
Si Si8 0.075863 0.695225 0.038801
O O1 0.160244 0.078066 0.512684
O O2 0.843306 0.585426 0.677252
O O3 0.985849 0.313069 0.783466
O O4 0.976083 0.069459 0.784331
O O5 0.460802 0.126625 0.675090
O O6 0.205065 0.508488 0.708135
O O7 0.500000 0.000000 0.500000
O O8 0.340530 0.016065 0.814651
O O9 0.576203 0.110214 0.696178
O O10 0.650338 0.068580 0.798851
O O11 0.728576 0.573478 0.080012
O O12 0.488160 0.132735 0.108570
O O13 0.314574 0.916977 0.064917
O O14 0.420468 0.568249 0.955595
O O15 0.112478 0.108488 0.090454
O O16 0.971125 0.299649 0.010133
O O17 0.000000 0.000000 0.000000
#
# Coordination Sequence:
#
# PCOD9101848 Si02
#       8
#     2   2   2   2   2   2   2   2
#     4  10  22  38  55  91 119 143 190 239 292 336
#     4  10  23  41  58  86 119 147 192 243 279 341
#     4  11  22  36  61  86 121 148 182 246 292 332
#     4  10  20  38  61  84 112 154 193 229 288 338
#     4  10  22  39  62  85 110 157 198 228 284 339
#     4  10  21  37  62  86 116 145 201 238 270 348
#     4  10  21  40  62  81 114 155 193 232 283 343
#     4   9  19  35  56  82 112 146 190 229 270 345
#
# _framework density 18.604085999999999
#
# number of rings (size 3 to 8) (size 9 to 14) (size 15 to 20)
#    0.000    2.000    1.250    1.500    5.250    1.000 
#    4.500    6.250    0.000    0.000    0.000    0.000 
#    0.000    0.000    0.000    0.000    0.000    0.000 
#
# Total GULP energy -89307.658851 kJ/mol
# GULP energy per Si atom -5581.728678 kJ/mol
# Density = 1.856174 g / cm^3
# Si number density = 18.604086 Si / 1000 Ang^3
#
#
#
# Elastic Constant Matrix: (Units=GPa)
#
#
# Indices 1 2 3 4 5 6 
#
# 1 120.8537 24.7469 64.7104 21.7703 -4.1639 -13.1440
# 2 24.7469 62.9555 13.8247 2.1050 0.4357 3.0767
# 3 64.7104 13.8247 90.6163 20.2154 19.7734 -4.2766
# 4 21.7703 2.1050 20.2154 27.4532 9.9817 2.6476
# 5 -4.1639 0.4357 19.7734 9.9817 18.0203 2.4628
# 6 -13.1440 3.0767 -4.2766 2.6476 2.4628 22.5274
#
#
#
# Elastic Compliance Matrix: (Units=1/GPa)
#
#
# Indices 1 2 3 4 5 6 
#
# 1 0.028962 -0.006258 -0.023850 -0.021843 0.043606 0.011026
# 2 -0.006258 0.018169 0.001505 0.005033 -0.005527 -0.005834
# 3 -0.023850 0.001505 0.036444 0.010835 -0.051145 -0.002885
# 4 -0.021843 0.005033 0.010835 0.065381 -0.051437 -0.013436
# 5 0.043606 -0.005527 -0.051145 -0.051437 0.149468 0.006193
# 6 0.011026 -0.005834 -0.002885 -0.013436 0.006193 0.051975
#
#
# Mechanical properties :
#
#
# Convention : Reuss Voigt Hill
#
# Bulk Modulus (GPa) = 37.92196 53.44325 45.68261
# Shear Modulus (GPa) = 12.00785 25.00975 18.50880
#
# Velocity S-wave (km/s) = 2.54331 3.67047 3.15759
# Velocity P-wave (km/s) = 5.39004 6.83755 6.15648
#
# Compressibility (1/GPa) = 0.02636994
#
# Stress axis : x y z
#
# Youngs Moduli (GPa) = 34.52766 55.03971 27.43915
#
# Poissons Ratio (x) = 0.34442 0.65441
# Poissons Ratio (y) = 0.21606 -0.04128
# Poissons Ratio (z) = 0.82347 -0.08281
#
# Static dielectric constant tensor:
#      x y z
#    x 1.641400 0.005610 0.019740 
#    y 0.005610 1.657440 -0.019980 
#    z 0.019740 -0.019980 1.615260 
# 
# From -- ./inp_files/238727.got.cif
#   From: 2010.05.17/outbox.cif.g08.bks.cpg/sg2_120_cif.got.tgz:238727.got - 2010.06.03 11:33:40.
