data_PCOD9101451
_publ_section_title
;
Structure prediction by ZEFSAII (Michael W. Deem and Ramdas Pophale) SiO2 
 PCOD9101451
Probable space group: P -1
;
_chemical_formula_sum "Si O2"
_cell_formula_units_Z 16
_cell_length_a 10.862903
_cell_length_b 13.840569
_cell_length_c 8.406891
_cell_angle_alpha 101.987524
_cell_angle_beta 100.537084
_cell_angle_gamma 35.614475
_cell_volume 719.773855
_symmetry_space_group_name_H-M "P -1"
_symmetry_group_IT_number 2
_symmetry_cell_setting 'triclinic'
loop_
_space_group_symop_operation_xyz
x,y,z
-x,-y,-z
loop_
_atom_site_type_symbol
_atom_site_label
_atom_site_fract_x
_atom_site_fract_y
_atom_site_fract_z
Si Si1 0.766758 0.762641 0.745276
Si Si2 0.089330 0.334673 0.923155
Si Si3 0.561700 0.526158 0.177051
Si Si4 0.787691 0.120793 0.805297
Si Si5 0.683363 0.592219 0.714463
Si Si6 0.506965 0.883821 0.278640
Si Si7 0.224335 0.442031 0.627297
Si Si8 0.754215 0.213973 0.195045
O O1 0.664675 0.723763 0.760593
O O2 0.976502 0.596068 0.645384
O O3 0.621836 0.932865 0.678667
O O4 0.849300 0.758484 0.930389
O O5 0.309280 0.210673 0.839541
O O6 0.891133 0.421803 0.801416
O O7 0.000000 0.500000 0.000000
O O8 0.347368 0.709233 0.260379
O O9 0.691774 0.545378 0.199193
O O10 0.714006 0.356230 0.248833
O O11 0.500000 0.500000 0.000000
O O12 0.669544 0.090066 0.777046
O O13 0.781992 0.164812 0.999998
O O14 0.022495 0.959703 0.739045
O O15 0.718016 0.545814 0.521773
O O16 0.463403 0.692543 0.762038
O O17 0.651081 0.740294 0.398099
#
# Coordination Sequence:
#
# PCOD9101451 Si02
#       8
#     2   2   2   2   2   2   2   2
#     4  11  23  39  66  92 124 169 213 255 313 375
#     4  10  20  38  62  92 123 163 205 262 308 363
#     4   9  20  37  64  89 114 161 212 258 307 366
#     4   9  19  37  61  91 116 156 208 268 301 361
#     4  11  24  41  60  93 136 167 199 262 321 376
#     4  11  21  39  66  91 124 162 218 256 310 367
#     4  11  23  42  63  91 131 166 206 261 319 378
#     4  10  20  38  59  86 126 156 206 257 314 365
#
# _framework density 22.229205
#
# number of rings (size 3 to 8) (size 9 to 14) (size 15 to 20)
#    0.000    1.750    2.500    3.000    3.500    1.000 
#    2.250    2.500    0.000    0.000    0.000    0.000 
#    0.000    0.000    0.000    0.000    0.000    0.000 
#
# Total GULP energy -89133.763136 kJ/mol
# GULP energy per Si atom -5570.860196 kJ/mol
# Density = 2.217861 g / cm^3
# Si number density = 22.229205 Si / 1000 Ang^3
#
#
#
# Elastic Constant Matrix: (Units=GPa)
#
#
# Indices 1 2 3 4 5 6 
#
# 1 64.7198 46.0617 18.6736 16.4155 8.7150 -6.7001
# 2 46.0617 154.0581 28.7467 16.4035 9.6802 -3.5184
# 3 18.6736 28.7467 60.8875 -2.0224 -3.3478 -5.7359
# 4 16.4155 16.4035 -2.0224 31.4431 -1.2818 2.1038
# 5 8.7150 9.6802 -3.3478 -1.2818 31.8864 11.1035
# 6 -6.7001 -3.5184 -5.7359 2.1038 11.1035 38.5237
#
#
#
# Elastic Compliance Matrix: (Units=1/GPa)
#
#
# Indices 1 2 3 4 5 6 
#
# 1 0.025219 -0.004458 -0.005921 -0.012003 -0.008837 0.006300
# 2 -0.004458 0.008772 -0.002939 -0.002537 -0.001956 0.000291
# 3 -0.005921 -0.002939 0.020094 0.006119 0.004883 -0.000048
# 4 -0.012003 -0.002537 0.006119 0.040535 0.008430 -0.006052
# 5 -0.008837 -0.001956 0.004883 0.008430 0.039712 -0.012895
# 6 0.006300 0.000291 -0.000048 -0.006052 -0.012895 0.031120
#
#
# Mechanical properties :
#
#
# Convention : Reuss Voigt Hill
#
# Bulk Modulus (GPa) = 36.42974 51.84772 44.13873
# Shear Modulus (GPa) = 24.84608 32.78288 28.81448
#
# Velocity S-wave (km/s) = 3.34686 3.84443 3.60425
# Velocity P-wave (km/s) = 5.59992 6.56361 6.10083
#
# Compressibility (1/GPa) = 0.02745010
#
# Stress axis : x y z
#
# Youngs Moduli (GPa) = 39.65247 113.99827 49.76562
#
# Poissons Ratio (x) = 0.50823 0.29465
# Poissons Ratio (y) = 0.17678 0.14625
# Poissons Ratio (z) = 0.23477 0.33500
#
# Static dielectric constant tensor:
#      x y z
#    x 1.841440 -0.028190 0.029900 
#    y -0.028190 1.868980 -0.078510 
#    z 0.029900 -0.078510 1.894830 
# 
# From -- ./inp_files/273771.got.cif
#   From: 2010.05.17/outbox.cif.g08.bks.cpg/sg2_137_cif.got.tgz:273771.got - 2010.06.03 11:33:40.
