data_PCOD9101907
_publ_section_title
;
Structure prediction by ZEFSAII (Michael W. Deem and Ramdas Pophale) SiO2 
 PCOD9101907
Probable space group: P -1
;
_chemical_formula_sum "Si O2"
_cell_formula_units_Z 16
_cell_length_a 9.044634
_cell_length_b 21.248632
_cell_length_c 7.429025
_cell_angle_alpha 40.747323
_cell_angle_beta 108.575467
_cell_angle_gamma 130.255334
_cell_volume 668.005330
_symmetry_space_group_name_H-M "P -1"
_symmetry_group_IT_number 2
_symmetry_cell_setting 'triclinic'
loop_
_space_group_symop_operation_xyz
x,y,z
-x,-y,-z
loop_
_atom_site_type_symbol
_atom_site_label
_atom_site_fract_x
_atom_site_fract_y
_atom_site_fract_z
Si Si1 0.488640 0.885408 0.175063
Si Si2 0.833707 0.515893 0.443020
Si Si3 0.493957 0.385756 0.293997
Si Si4 0.077222 0.771448 0.397742
Si Si5 0.002639 0.801194 0.916802
Si Si6 0.181086 0.133329 0.563239
Si Si7 0.808101 0.489516 0.905458
Si Si8 0.756966 0.022960 0.673431
O O1 0.548648 0.903334 0.947237
O O2 0.253380 0.770412 0.385688
O O3 0.667055 0.895409 0.317691
O O4 0.500000 0.000000 0.000000
O O5 0.635262 0.427422 0.431140
O O6 0.765002 0.474760 0.710556
O O7 0.000000 0.500000 0.500000
O O8 0.933912 0.663677 0.141903
O O9 0.276028 0.244278 0.509346
O O10 0.500000 0.500000 0.000000
O O11 0.614374 0.385100 0.175816
O O12 0.163920 0.863141 0.403031
O O13 0.886413 0.628030 0.686937
O O14 0.021618 0.812727 0.112918
O O15 0.839354 0.810334 0.748271
O O16 0.213801 0.918148 0.639956
O O17 0.939074 0.016804 0.760437
O O18 0.000000 0.500000 0.000000
#
# Coordination Sequence:
#
# PCOD9101907 Si02
#       8
#     2   2   2   2   2   2   2   2
#     4  10  21  38  66  89 113 156 203 253 302 352
#     4  11  22  38  60  90 126 164 203 247 298 366
#     4  12  22  40  61  91 127 163 201 244 299 365
#     4  10  20  38  61  87 116 153 203 246 294 357
#     4   9  21  38  60  86 123 157 197 243 297 360
#     4  10  21  40  61  87 125 157 198 247 298 359
#     4  11  22  36  60  87 125 164 196 244 306 356
#     4   9  20  40  63  79 120 155 197 244 312 341
#
# _framework density 23.951905
#
# number of rings (size 3 to 8) (size 9 to 14) (size 15 to 20)
#    0.750    1.000    2.500    2.625    1.750    1.000 
#    2.250    2.500    5.500    0.000    0.000    0.000 
#    0.000    0.000    0.000    0.000    0.000    0.000 
#
# Total GULP energy -89331.762813 kJ/mol
# GULP energy per Si atom -5583.235176 kJ/mol
# Density = 2.389739 g / cm^3
# Si number density = 23.951905 Si / 1000 Ang^3
#
#
#
# Elastic Constant Matrix: (Units=GPa)
#
#
# Indices 1 2 3 4 5 6 
#
# 1 97.5280 9.3333 30.7641 6.3831 13.0299 17.7659
# 2 9.3333 49.8839 10.9613 8.7718 14.5419 6.1468
# 3 30.7641 10.9613 88.6154 15.0666 12.0122 2.0592
# 4 6.3831 8.7718 15.0666 41.2436 11.5869 3.5792
# 5 13.0299 14.5419 12.0122 11.5869 51.9050 1.2179
# 6 17.7659 6.1468 2.0592 3.5792 1.2179 35.8444
#
#
#
# Elastic Compliance Matrix: (Units=1/GPa)
#
#
# Indices 1 2 3 4 5 6 
#
# 1 0.012954 -0.000229 -0.004144 0.000721 -0.002246 -0.006139
# 2 -0.000229 0.022825 -0.001521 -0.002474 -0.005356 -0.003284
# 3 -0.004144 -0.001521 0.013654 -0.003952 -0.000857 0.001954
# 4 0.000721 -0.002474 -0.003952 0.027621 -0.004685 -0.002305
# 5 -0.002246 -0.005356 -0.000857 -0.004685 0.022533 0.001783
# 6 -0.006139 -0.003284 0.001954 -0.002305 0.001783 0.031562
#
#
# Mechanical properties :
#
#
# Convention : Reuss Voigt Hill
#
# Bulk Modulus (GPa) = 26.56436 37.57161 32.06798
# Shear Modulus (GPa) = 32.15770 38.12984 35.14377
#
# Velocity S-wave (km/s) = 3.66812 3.99423 3.83464
# Velocity P-wave (km/s) = 5.39026 6.08212 5.74661
#
# Compressibility (1/GPa) = 0.03764443
#
# Stress axis : x y z
#
# Youngs Moduli (GPa) = 77.19795 43.81245 73.23686
#
# Poissons Ratio (x) = 0.01002 0.30352
# Poissons Ratio (y) = 0.01766 0.11139
# Poissons Ratio (z) = 0.31994 0.06664
#
# Static dielectric constant tensor:
#      x y z
#    x 1.928750 0.022000 -0.016320 
#    y 0.022000 1.908550 -0.035870 
#    z -0.016320 -0.035870 1.967730 
# 
# From -- ./inp_files/227259.got.cif
#   From: 2010.05.17/outbox.cif.g08.bks.cpg/sg2_114_cif.got.tgz:227259.got - 2010.06.03 11:33:40.
