data_PCOD9101038
_publ_section_title
;
Structure prediction by ZEFSAII (Michael W. Deem and Ramdas Pophale) SiO2 
 PCOD9101038
Probable space group: P -1
;
_chemical_formula_sum "Si O2"
_cell_formula_units_Z 11
_cell_length_a 7.971800
_cell_length_b 8.052884
_cell_length_c 8.082133
_cell_angle_alpha 122.790635
_cell_angle_beta 71.390843
_cell_angle_gamma 102.521032
_cell_volume 412.731801
_symmetry_space_group_name_H-M "P -1"
_symmetry_group_IT_number 2
_symmetry_cell_setting 'triclinic'
loop_
_space_group_symop_operation_xyz
x,y,z
-x,-y,-z
loop_
_atom_site_type_symbol
_atom_site_label
_atom_site_fract_x
_atom_site_fract_y
_atom_site_fract_z
Si Si1 0.370813 0.375418 0.855689
Si Si2 0.444861 0.124119 0.244122
Si Si3 0.935350 0.725060 0.485808
Si Si4 0.500000 0.000000 0.500000
Si Si5 0.939308 0.905288 0.208367
Si Si6 0.803113 0.340977 0.188149
O O1 0.235135 0.200614 0.873967
O O2 0.250477 0.528273 0.882742
O O3 0.471557 0.239689 0.623707
O O4 0.500000 0.500000 0.000000
O O5 0.257890 0.227234 0.354435
O O6 0.616643 0.273963 0.288617
O O7 0.424858 0.972212 0.320828
O O8 0.500000 0.000000 0.000000
O O9 0.954160 0.812481 0.338596
O O10 0.931442 0.490470 0.335780
O O11 0.072035 0.862340 0.626566
O O12 0.098081 0.844684 0.012058
#
# Coordination Sequence:
#
# PCOD9101038 Si02
#       6
#     2   2   2   1   2   2
#     4  11  24  40  69 101 139 179 228 284 348 411
#     4  12  23  43  72 103 138 188 233 282 346 423
#     4  10  20  37  68  98 133 175 232 277 340 404
#     4  12  26  44  64 106 146 176 228 294 350 402
#     4  10  21  40  66 103 132 181 232 283 341 414
#     4  11  22  41  71 100 130 184 238 275 340 420
#
# _framework density 26.651692000000001
#
# number of rings (size 3 to 8) (size 9 to 14) (size 15 to 20)
#    0.000    1.091    5.455    3.818    0.000    1.455 
#    0.000    0.909    0.000    2.182    0.000    0.000 
#    0.000    0.000    0.000    0.000    0.000    0.000 
#
# Total GULP energy -61315.723010 kJ/mol
# GULP energy per Si atom -5574.156637 kJ/mol
# Density = 2.659103 g / cm^3
# Si number density = 26.651692 Si / 1000 Ang^3
#
#
#
# Elastic Constant Matrix: (Units=GPa)
#
#
# Indices 1 2 3 4 5 6 
#
# 1 76.9067 14.2679 20.3693 -0.1374 5.7549 16.6624
# 2 14.2679 73.5951 21.6291 12.3723 3.8520 12.3576
# 3 20.3693 21.6291 145.1917 -0.1768 -4.5712 -1.2857
# 4 -0.1374 12.3723 -0.1768 36.6484 2.6436 -8.5780
# 5 5.7549 3.8520 -4.5712 2.6436 32.0016 -7.1948
# 6 16.6624 12.3576 -1.2857 -8.5780 -7.1948 35.5464
#
#
#
# Elastic Compliance Matrix: (Units=1/GPa)
#
#
# Indices 1 2 3 4 5 6 
#
# 1 0.016009 -0.000383 -0.002428 -0.001530 -0.005043 -0.008848
# 2 -0.000383 0.017376 -0.002736 -0.007614 -0.003706 -0.008547
# 3 -0.002428 -0.002736 0.007744 0.001532 0.002474 0.003240
# 4 -0.001530 -0.007614 0.001532 0.032459 0.001319 0.011519
# 5 -0.005043 -0.003706 0.002474 0.001319 0.035368 0.011219
# 6 -0.008848 -0.008547 0.003240 0.011519 0.011219 0.040419
#
#
# Mechanical properties :
#
#
# Convention : Reuss Voigt Hill
#
# Bulk Modulus (GPa) = 33.29607 45.35846 39.32727
# Shear Modulus (GPa) = 29.32887 36.80109 33.06498
#
# Velocity S-wave (km/s) = 3.32090 3.71996 3.52608
# Velocity P-wave (km/s) = 5.21773 5.95876 5.60051
#
# Compressibility (1/GPa) = 0.03003357
#
# Stress axis : x y z
#
# Youngs Moduli (GPa) = 62.46663 57.55226 129.13040
#
# Poissons Ratio (x) = 0.02206 0.31350
# Poissons Ratio (y) = 0.02394 0.35334
# Poissons Ratio (z) = 0.15165 0.15748
#
# Static dielectric constant tensor:
#      x y z
#    x 2.185890 -0.004500 -0.028750 
#    y -0.004500 2.179860 -0.106010 
#    z -0.028750 -0.106010 2.219810 
# 
# From -- ./inp_files/150551.got.cif
#   From: 2010.05.17/outbox.cif.g08.bks.cpg/sg2_76_cif.got.tgz:150551.got - 2010.06.03 11:33:40.
