data_PCOD9101694
_publ_section_title
;
Structure prediction by ZEFSAII (Michael W. Deem and Ramdas Pophale) SiO2 
 PCOD9101694
Probable space group: P -1
;
_chemical_formula_sum "Si O2"
_cell_formula_units_Z 15
_cell_length_a 14.481567
_cell_length_b 9.586551
_cell_length_c 9.464175
_cell_angle_alpha 83.532033
_cell_angle_beta 50.695450
_cell_angle_gamma 121.592716
_cell_volume 639.436621
_symmetry_space_group_name_H-M "P -1"
_symmetry_group_IT_number 2
_symmetry_cell_setting 'triclinic'
loop_
_space_group_symop_operation_xyz
x,y,z
-x,-y,-z
loop_
_atom_site_type_symbol
_atom_site_label
_atom_site_fract_x
_atom_site_fract_y
_atom_site_fract_z
Si Si1 0.359704 0.062517 0.178039
Si Si2 0.310782 0.241646 0.626411
Si Si3 0.467298 0.101503 0.623911
Si Si4 0.000000 0.000000 0.500000
Si Si5 0.114817 0.832608 0.183114
Si Si6 0.716573 0.325309 0.619026
Si Si7 0.081387 0.111488 0.100320
Si Si8 0.635188 0.660418 0.724739
O O1 0.366892 0.171839 0.289028
O O2 0.191697 0.961207 0.246614
O O3 0.305215 0.857349 0.297209
O O4 0.556511 0.250031 0.881954
O O5 0.403962 0.415850 0.387949
O O6 0.111855 0.015531 0.770200
O O7 0.416508 0.198554 0.580456
O O8 0.252992 0.291978 0.804968
O O9 0.500000 0.000000 0.500000
O O10 0.647379 0.281580 0.531061
O O11 0.290534 0.915197 0.926833
O O12 0.163800 0.202785 0.425952
O O13 0.898782 0.829502 0.762021
O O14 0.078866 0.938539 0.117023
O O15 0.928018 0.571274 0.408778
O O16 0.500000 0.500000 0.000000
#
# Coordination Sequence:
#
# PCOD9101694 Si02
#       8
#     2   2   2   1   2   2   2   2
#     4  10  21  38  59  91 129 157 213 273 314 372
#     4   9  20  38  59  90 130 165 205 264 324 373
#     4  10  21  40  61  88 129 164 211 269 315 381
#     4  10  20  38  60  88 122 164 208 262 308 372
#     4  10  20  38  63  90 123 168 213 261 325 382
#     4  10  22  37  63  92 120 170 212 263 320 380
#     4   9  18  37  63  89 128 170 207 266 318 380
#     4  11  23  38  62  93 122 170 210 261 321 383
#
# _framework density 23.458148000000001
#
# number of rings (size 3 to 8) (size 9 to 14) (size 15 to 20)
#    0.000    2.133    1.333    1.200    3.733    0.533 
#    0.000    9.333    0.000    0.000    0.000    0.000 
#    0.000    0.000    0.000    0.000    0.000    0.000 
#
# Total GULP energy -83561.861375 kJ/mol
# GULP energy per Si atom -5570.790758 kJ/mol
# Density = 2.340476 g / cm^3
# Si number density = 23.458148 Si / 1000 Ang^3
#
#
#
# Elastic Constant Matrix: (Units=GPa)
#
#
# Indices 1 2 3 4 5 6 
#
# 1 95.6268 4.9354 2.4283 -4.1489 12.4361 25.6938
# 2 4.9354 68.6877 33.7066 9.7063 3.9019 13.3823
# 3 2.4283 33.7066 123.6129 5.8395 14.0639 11.5969
# 4 -4.1489 9.7063 5.8395 45.1930 14.5739 4.6937
# 5 12.4361 3.9019 14.0639 14.5739 36.4428 5.9661
# 6 25.6938 13.3823 11.5969 4.6937 5.9661 43.9731
#
#
#
# Elastic Compliance Matrix: (Units=1/GPa)
#
#
# Indices 1 2 3 4 5 6 
#
# 1 0.013313 -0.000117 0.000896 0.003554 -0.005041 -0.007675
# 2 -0.000117 0.017992 -0.004576 -0.003485 0.001943 -0.004092
# 3 0.000896 -0.004576 0.009828 0.001179 -0.003863 -0.001324
# 4 0.003554 -0.003485 0.001179 0.027096 -0.011700 -0.002632
# 5 -0.005041 0.001943 -0.003863 -0.011700 0.035146 -0.000147
# 6 -0.007675 -0.004092 -0.001324 -0.002632 -0.000147 0.029121
#
#
# Mechanical properties :
#
#
# Convention : Reuss Voigt Hill
#
# Bulk Modulus (GPa) = 29.81651 41.11864 35.46757
# Shear Modulus (GPa) = 33.05351 41.57893 37.31622
#
# Velocity S-wave (km/s) = 3.75779 4.21464 3.99276
# Velocity P-wave (km/s) = 5.61837 6.42268 6.03394
#
# Compressibility (1/GPa) = 0.03353847
#
# Stress axis : x y z
#
# Youngs Moduli (GPa) = 75.11725 55.57992 101.74874
#
# Poissons Ratio (x) = 0.00649 -0.09117
# Poissons Ratio (y) = 0.00878 0.46563
# Poissons Ratio (z) = -0.06731 0.25435
#
# Static dielectric constant tensor:
#      x y z
#    x 1.800740 0.069960 0.085090 
#    y 0.069960 1.759900 -0.095440 
#    z 0.085090 -0.095440 2.112540 
# 
# From -- ./inp_files/305108.got.cif
#   From: 2010.05.17/outbox.cif.g08.bks.cpg/sg2_153_cif.got.tgz:305108.got - 2010.06.03 11:33:40.
