data_PCOD9101282
_publ_section_title
;
Structure prediction by ZEFSAII (Michael W. Deem and Ramdas Pophale) SiO2 
 PCOD9101282
Probable space group: P -1
;
_chemical_formula_sum "Si O2"
_cell_formula_units_Z 16
_cell_length_a 31.216041
_cell_length_b 6.059274
_cell_length_c 8.352135
_cell_angle_alpha 84.719774
_cell_angle_beta 31.449213
_cell_angle_gamma 105.928783
_cell_volume 602.257278
_symmetry_space_group_name_H-M "P -1"
_symmetry_group_IT_number 2
_symmetry_cell_setting 'triclinic'
loop_
_space_group_symop_operation_xyz
x,y,z
-x,-y,-z
loop_
_atom_site_type_symbol
_atom_site_label
_atom_site_fract_x
_atom_site_fract_y
_atom_site_fract_z
Si Si1 0.553430 0.799083 0.702155
Si Si2 0.662418 0.517461 0.757012
Si Si3 0.027515 0.115843 0.717381
Si Si4 0.893456 0.237316 0.251160
Si Si5 0.138208 0.458619 0.902935
Si Si6 0.244595 0.293433 0.016468
Si Si7 0.403676 0.439384 0.702072
Si Si8 0.250282 0.936388 0.750030
O O1 0.608028 0.795384 0.366866
O O2 0.657201 0.054529 0.466583
O O3 0.500000 0.500000 0.000000
O O4 0.446904 0.739937 0.982141
O O5 0.765850 0.548246 0.388617
O O6 0.692924 0.826843 0.593386
O O7 0.642651 0.490618 0.009959
O O8 0.160460 0.344720 0.270592
O O9 0.952857 0.196208 0.930610
O O10 0.979069 0.858874 0.757315
O O11 0.000000 0.000000 0.000000
O O12 0.835234 0.336531 0.347779
O O13 0.806627 0.942732 0.654128
O O14 0.000000 0.500000 0.000000
O O15 0.145936 0.618237 0.027299
O O16 0.372179 0.556321 0.647767
O O17 0.228699 0.096936 0.932243
O O18 0.500000 0.500000 0.500000
#
# Coordination Sequence:
#
# PCOD9101282 Si02
#       8
#     2   2   2   2   2   2   2   2
#     4   8  17  36  61  87 122 158 192 243 301 350
#     4  10  20  38  61  88 120 159 202 243 295 353
#     4  10  20  38  58  85 111 151 201 243 298 350
#     4  11  22  41  63  86 115 154 204 253 295 351
#     4  12  22  37  61  87 119 157 200 250 294 355
#     4  10  20  39  61  85 121 156 198 246 299 356
#     4   9  17  32  62  89 111 151 196 240 291 349
#     4  10  22  39  58  89 124 159 197 244 301 354
#
# _framework density 26.566717000000001
#
# number of rings (size 3 to 8) (size 9 to 14) (size 15 to 20)
#    0.000    2.000    2.500    3.000    0.000    1.000 
#    2.250    2.500    0.000   30.750    0.000    0.000 
#    0.000    0.000    0.000    0.000    0.000    0.000 
#
# Total GULP energy -89119.066869 kJ/mol
# GULP energy per Si atom -5569.941679 kJ/mol
# Density = 2.650625 g / cm^3
# Si number density = 26.566717 Si / 1000 Ang^3
#
#
#
# Elastic Constant Matrix: (Units=GPa)
#
#
# Indices 1 2 3 4 5 6 
#
# 1 155.6799 44.0817 33.4507 -0.1704 -30.5467 16.9534
# 2 44.0817 49.3254 18.4538 -13.1176 -4.2364 23.7741
# 3 33.4507 18.4538 94.0696 7.8986 -21.2942 3.2075
# 4 -0.1704 -13.1176 7.8986 41.1295 3.9739 -3.6619
# 5 -30.5467 -4.2364 -21.2942 3.9739 48.6668 3.6783
# 6 16.9534 23.7741 3.2075 -3.6619 3.6783 51.9048
#
#
#
# Elastic Compliance Matrix: (Units=1/GPa)
#
#
# Indices 1 2 3 4 5 6 
#
# 1 0.010336 -0.009882 -0.000132 -0.003603 0.005826 0.000492
# 2 -0.009882 0.041486 -0.006549 0.013734 -0.005520 -0.014009
# 3 -0.000132 -0.006549 0.013613 -0.005117 0.005612 0.001443
# 4 -0.003603 0.013734 -0.005117 0.029997 -0.005582 -0.002286
# 5 0.005826 -0.005520 0.005612 -0.005582 0.026788 -0.002014
# 6 0.000492 -0.014009 0.001443 -0.002286 -0.002014 0.025415
#
#
# Mechanical properties :
#
#
# Convention : Reuss Voigt Hill
#
# Bulk Modulus (GPa) = 30.95234 54.56082 42.75658
# Shear Modulus (GPa) = 26.10537 41.87946 33.99242
#
# Velocity S-wave (km/s) = 3.13810 3.97468 3.58091
# Velocity P-wave (km/s) = 4.98059 6.45337 5.76421
#
# Compressibility (1/GPa) = 0.03230774
#
# Stress axis : x y z
#
# Youngs Moduli (GPa) = 96.75109 24.10447 73.45868
#
# Poissons Ratio (x) = 0.23821 0.00970
# Poissons Ratio (y) = 0.95611 0.48111
# Poissons Ratio (z) = 0.01278 0.15787
#
# Static dielectric constant tensor:
#      x y z
#    x 1.995210 -0.097520 0.119560 
#    y -0.097520 2.125070 0.088730 
#    z 0.119560 0.088730 1.919890 
# 
# From -- ./inp_files/358225.got.cif
#   From: 2010.05.17/outbox.cif.g08.bks.cpg/sg2_180_cif.got.tgz:358225.got - 2010.06.03 11:33:40.
