data_PCOD9101265
_publ_section_title
;
Structure prediction by ZEFSAII (Michael W. Deem and Ramdas Pophale) SiO2 
 PCOD9101265
Probable space group: P -1
;
_chemical_formula_sum "Si O2"
_cell_formula_units_Z 14
_cell_length_a 25.971347
_cell_length_b 7.958418
_cell_length_c 6.341983
_cell_angle_alpha 118.873502
_cell_angle_beta 101.481580
_cell_angle_gamma 39.418077
_cell_volume 692.272760
_symmetry_space_group_name_H-M "P -1"
_symmetry_group_IT_number 2
_symmetry_cell_setting 'triclinic'
loop_
_space_group_symop_operation_xyz
x,y,z
-x,-y,-z
loop_
_atom_site_type_symbol
_atom_site_label
_atom_site_fract_x
_atom_site_fract_y
_atom_site_fract_z
Si Si1 0.532756 0.175561 0.067539
Si Si2 0.052056 0.670874 0.737638
Si Si3 0.446057 0.251935 0.421727
Si Si4 0.901708 0.764674 0.140432
Si Si5 0.078002 0.917416 0.434680
Si Si6 0.182565 0.295455 0.246349
Si Si7 0.374027 0.724660 0.963473
O O1 0.504423 0.229251 0.318656
O O2 0.594176 0.172515 0.059001
O O3 0.446366 0.458440 0.031411
O O4 0.575081 0.856321 0.824392
O O5 0.093077 0.403236 0.768482
O O6 0.130308 0.494156 0.536765
O O7 0.973343 0.815359 0.621334
O O8 0.000000 0.000000 0.000000
O O9 0.372154 0.574738 0.681315
O O10 0.500000 0.000000 0.500000
O O11 0.880093 0.043853 0.357445
O O12 0.849329 0.814914 0.941590
O O13 0.000000 0.500000 0.000000
O O14 0.150702 0.555583 0.218649
O O15 0.000000 0.000000 0.500000
O O16 0.283350 0.005763 0.169280
#
# Coordination Sequence:
#
# PCOD9101265 Si02
#       7
#     2   2   2   2   2   2   2
#     4   9  19  38  64  86 122 162 193 242 305 367
#     4  11  21  39  63  83 117 162 203 248 311 365
#     4   9  18  36  64  90 114 159 200 238 297 371
#     4  12  21  38  64  81 112 161 204 255 307 359
#     4  10  20  38  58  83 114 152 203 246 301 364
#     4  11  24  39  56  92 122 153 206 259 296 360
#     4  10  21  37  60  90 122 157 201 248 302 355
#
# _framework density 20.223244000000001
#
# number of rings (size 3 to 8) (size 9 to 14) (size 15 to 20)
#    0.000    1.714    4.286    1.714    0.000    2.286 
#    0.000    2.857    0.000    0.000    0.000    0.000 
#    0.000    0.000    0.000    0.000    0.000    0.000 
#
# Total GULP energy -77942.810814 kJ/mol
# GULP energy per Si atom -5567.343630 kJ/mol
# Density = 2.017722 g / cm^3
# Si number density = 20.223244 Si / 1000 Ang^3
#
#
#
# Elastic Constant Matrix: (Units=GPa)
#
#
# Indices 1 2 3 4 5 6 
#
# 1 84.9020 38.6586 44.6586 11.2239 2.9937 8.8006
# 2 38.6586 37.7607 25.1789 13.1391 -8.8458 -3.9088
# 3 44.6586 25.1789 104.4558 18.7624 -5.0897 -1.4994
# 4 11.2239 13.1391 18.7624 31.9998 8.1464 -9.6182
# 5 2.9937 -8.8458 -5.0897 8.1464 40.8448 0.2906
# 6 8.8006 -3.9088 -1.4994 -9.6182 0.2906 28.9344
#
#
#
# Elastic Compliance Matrix: (Units=1/GPa)
#
#
# Indices 1 2 3 4 5 6 
#
# 1 0.032165 -0.034314 -0.007389 0.006394 -0.011896 -0.012557
# 2 -0.034314 0.074687 0.001875 -0.021658 0.023150 0.013192
# 3 -0.007389 0.001875 0.013751 -0.007021 0.004056 0.000838
# 4 0.006394 -0.021658 -0.007021 0.049510 -0.015990 0.011384
# 5 -0.011896 0.023150 0.004056 -0.015990 0.034054 0.001298
# 6 -0.012557 0.013192 0.000838 0.011384 0.001298 0.043977
#
#
# Mechanical properties :
#
#
# Convention : Reuss Voigt Hill
#
# Bulk Modulus (GPa) = 24.42142 49.34562 36.88352
# Shear Modulus (GPa) = 14.64352 28.26397 21.45374
#
# Velocity S-wave (km/s) = 2.69382 3.74250 3.26060
# Velocity P-wave (km/s) = 4.66666 6.56723 5.69676
#
# Compressibility (1/GPa) = 0.04094765
#
# Stress axis : x y z
#
# Youngs Moduli (GPa) = 31.08988 13.38916 72.72099
#
# Poissons Ratio (x) = 0.45944 0.53730
# Poissons Ratio (y) = 1.06682 -0.13635
# Poissons Ratio (z) = 0.22971 -0.02510
#
# Static dielectric constant tensor:
#      x y z
#    x 1.283310 -0.388390 -0.231290 
#    y -0.388390 1.345410 -0.271290 
#    z -0.231290 -0.271290 1.768420 
# 
# From -- ./inp_files/126517.got.cif
#   From: 2010.05.17/outbox.cif.g08.bks.cpg/sg2_64_cif.got.tgz:126517.got - 2010.06.03 11:33:40.
