data_PCOD9101203
_publ_section_title
;
Structure prediction by ZEFSAII (Michael W. Deem and Ramdas Pophale) SiO2 
 PCOD9101203
Probable space group: P -1
;
_chemical_formula_sum "Si O2"
_cell_formula_units_Z 14
_cell_length_a 5.619904
_cell_length_b 19.889492
_cell_length_c 7.824914
_cell_angle_alpha 43.504197
_cell_angle_beta 121.707128
_cell_angle_gamma 125.034176
_cell_volume 483.676719
_symmetry_space_group_name_H-M "P -1"
_symmetry_group_IT_number 2
_symmetry_cell_setting 'triclinic'
loop_
_space_group_symop_operation_xyz
x,y,z
-x,-y,-z
loop_
_atom_site_type_symbol
_atom_site_label
_atom_site_fract_x
_atom_site_fract_y
_atom_site_fract_z
Si Si1 0.715865 0.811612 0.019007
Si Si2 0.115903 0.605793 0.455113
Si Si3 0.640418 0.349516 0.060584
Si Si4 0.089328 0.907088 0.287320
Si Si5 0.738611 0.581203 0.713554
Si Si6 0.762431 0.164139 0.015289
Si Si7 0.596282 0.856389 0.434883
O O1 0.528735 0.699054 0.085985
O O2 0.906394 0.814034 0.258490
O O3 0.470459 0.863907 0.869633
O O4 0.956948 0.869748 0.861210
O O5 0.465882 0.621030 0.573546
O O6 0.102604 0.710185 0.168209
O O7 0.000000 0.500000 0.500000
O O8 0.922690 0.594461 0.577500
O O9 0.513776 0.257236 0.317224
O O10 0.993158 0.373435 0.135897
O O11 0.603648 0.456459 0.904180
O O12 0.936961 0.886863 0.451323
O O13 0.432223 0.918616 0.374513
O O14 0.000000 0.000000 0.000000
O O15 0.560358 0.139228 0.814465
#
# Coordination Sequence:
#
# PCOD9101203 Si02
#       7
#     2   2   2   2   2   2   2
#     4  10  22  38  64  87 127 162 200 263 308 374
#     4  12  22  38  58  86 118 168 221 268 291 344
#     4  11  24  43  58  95 127 175 206 250 318 359
#     4  10  22  43  68  95 118 157 205 259 316 379
#     4  11  26  37  60  85 133 169 214 257 295 364
#     4  10  20  38  57  86 115 164 214 246 308 351
#     4  10  22  38  67  87 126 159 201 255 310 380
#
# _framework density 28.944952000000001
#
# number of rings (size 3 to 8) (size 9 to 14) (size 15 to 20)
#    0.000    1.429    1.429    3.429    4.000    5.714 
#    0.000    1.429    0.000    0.000    0.000    0.000 
#    0.000    0.000    0.000    0.000    0.000    0.000 
#
# Total GULP energy -78440.577430 kJ/mol
# GULP energy per Si atom -5602.898388 kJ/mol
# Density = 2.887907 g / cm^3
# Si number density = 28.944952 Si / 1000 Ang^3
#
#
#
# Elastic Constant Matrix: (Units=GPa)
#
#
# Indices 1 2 3 4 5 6 
#
# 1 323.3716 14.3190 67.3776 3.6187 30.4780 -10.6450
# 2 14.3190 88.4430 13.1973 -0.6908 21.0067 -1.8984
# 3 67.3776 13.1973 87.7623 -10.0208 0.9614 -14.7593
# 4 3.6187 -0.6908 -10.0208 41.3975 4.0553 4.8157
# 5 30.4780 21.0067 0.9614 4.0553 53.2840 7.2375
# 6 -10.6450 -1.8984 -14.7593 4.8157 7.2375 37.9641
#
#
#
# Elastic Compliance Matrix: (Units=1/GPa)
#
#
# Indices 1 2 3 4 5 6 
#
# 1 0.003971 0.000385 -0.003103 -0.000918 -0.002365 0.000494
# 2 0.000385 0.012844 -0.001989 0.000112 -0.005391 0.000991
# 3 -0.003103 -0.001989 0.015143 0.003269 0.001463 0.004224
# 4 -0.000918 0.000112 0.003269 0.025380 -0.001243 -0.001963
# 5 -0.002365 -0.005391 0.001463 -0.001243 0.022935 -0.004579
# 6 0.000494 0.000991 0.004224 -0.001963 -0.004579 0.029293
#
#
# Mechanical properties :
#
#
# Convention : Reuss Voigt Hill
#
# Bulk Modulus (GPa) = 44.35407 76.59607 60.47507
# Shear Modulus (GPa) = 39.52794 53.50798 46.51796
#
# Velocity S-wave (km/s) = 3.69945 4.30421 4.01324
# Velocity P-wave (km/s) = 5.79696 7.15694 6.51255
#
# Compressibility (1/GPa) = 0.02254585
#
# Stress axis : x y z
#
# Youngs Moduli (GPa) = 251.81376 77.85930 66.03738
#
# Poissons Ratio (x) = -0.02998 0.20488
# Poissons Ratio (y) = -0.09696 0.13132
# Poissons Ratio (z) = 0.78126 0.15483
#
# Static dielectric constant tensor:
#      x y z
#    x 2.252630 -0.008610 -0.007390 
#    y -0.008610 2.335080 0.041190 
#    z -0.007390 0.041190 2.262010 
# 
# From -- ./inp_files/141074.got.cif
#   From: 2010.05.17/outbox.cif.g08.bks.cpg/sg2_71_cif.got.tgz:141074.got - 2010.06.03 11:33:40.
