data_PCOD9101063
_publ_section_title
;
Structure prediction by ZEFSAII (Michael W. Deem and Ramdas Pophale) SiO2 
 PCOD9101063
Probable space group: P -1
;
_chemical_formula_sum "Si O2"
_cell_formula_units_Z 15
_cell_length_a 17.115612
_cell_length_b 9.614951
_cell_length_c 23.420665
_cell_angle_alpha 138.368987
_cell_angle_beta 159.604817
_cell_angle_gamma 30.315076
_cell_volume 634.889285
_symmetry_space_group_name_H-M "P -1"
_symmetry_group_IT_number 2
_symmetry_cell_setting 'triclinic'
loop_
_space_group_symop_operation_xyz
x,y,z
-x,-y,-z
loop_
_atom_site_type_symbol
_atom_site_label
_atom_site_fract_x
_atom_site_fract_y
_atom_site_fract_z
Si Si1 0.834389 0.856437 0.748775
Si Si2 0.723412 0.264657 0.630245
Si Si3 0.703091 0.582071 0.508256
Si Si4 0.605035 0.360094 0.273976
Si Si5 0.604202 0.273196 0.953434
Si Si6 0.218583 0.239096 0.022708
Si Si7 0.914711 0.319385 0.367873
Si Si8 0.000000 0.000000 0.000000
O O1 0.940204 0.572336 0.703370
O O2 0.479259 0.136511 0.572736
O O3 0.042948 0.903483 0.877610
O O4 0.908100 0.828647 0.857032
O O5 0.500000 0.500000 0.500000
O O6 0.522273 0.356795 0.577715
O O7 0.001593 0.241380 0.832402
O O8 0.860740 0.955490 0.605345
O O9 0.771882 0.351641 0.441282
O O10 0.853140 0.211614 0.346981
O O11 0.311762 0.696012 0.153671
O O12 0.445079 0.248651 0.147808
O O13 0.409750 0.438534 0.814187
O O14 0.500000 0.500000 0.000000
O O15 0.578862 0.057965 0.892977
O O16 0.000000 0.500000 0.000000
O O17 0.000000 0.500000 0.500000
#
# Coordination Sequence:
#
# PCOD9101063 Si02
#       8
#     2   2   2   2   2   2   2   1
#     4  10  20  37  69  98 136 180 245 287 350 433
#     4  12  28  48  70 107 150 194 244 311 380 438
#     4  10  22  42  68 103 143 188 244 292 364 444
#     4  11  25  43  72 109 146 193 248 300 374 437
#     4  12  24  48  73 105 146 197 241 304 373 439
#     4  12  25  48  76 107 149 194 248 300 368 454
#     4  12  30  48  74 111 150 193 253 313 371 439
#     4  10  20  38  68 110 130 190 240 294 358 446
#
# _framework density 23.626166000000001
#
# number of rings (size 3 to 8) (size 9 to 14) (size 15 to 20)
#    0.000    0.800    5.333    0.800   11.200    0.533 
#    2.400    1.333    0.000    0.000    0.000    0.000 
#    0.000    0.000    0.000    0.000    0.000    0.000 
#
# Total GULP energy -83597.306670 kJ/mol
# GULP energy per Si atom -5573.153778 kJ/mol
# Density = 2.357239 g / cm^3
# Si number density = 23.626166 Si / 1000 Ang^3
#
#
#
# Elastic Constant Matrix: (Units=GPa)
#
#
# Indices 1 2 3 4 5 6 
#
# 1 122.7638 31.9549 31.4260 15.2783 -2.8782 -0.1297
# 2 31.9549 92.6804 15.5321 14.9469 -7.4971 1.3871
# 3 31.4260 15.5321 95.0190 37.2579 -32.8441 -1.7807
# 4 15.2783 14.9469 37.2579 33.1350 -5.0549 -3.8544
# 5 -2.8782 -7.4971 -32.8441 -5.0549 43.9793 15.5228
# 6 -0.1297 1.3871 -1.7807 -3.8544 15.5228 35.2744
#
#
#
# Elastic Compliance Matrix: (Units=1/GPa)
#
#
# Indices 1 2 3 4 5 6 
#
# 1 0.009902 -0.003270 -0.004856 0.001982 -0.003973 0.001885
# 2 -0.003270 0.013110 0.004121 -0.008641 0.005388 -0.003635
# 3 -0.004856 0.004121 0.034912 -0.036380 0.027372 -0.014438
# 4 0.001982 -0.008641 -0.036380 0.072116 -0.026613 0.018102
# 5 -0.003973 0.005388 0.027372 -0.026613 0.049011 -0.023320
# 6 0.001885 -0.003635 -0.014438 0.018102 -0.023320 0.040010
#
#
# Mechanical properties :
#
#
# Convention : Reuss Voigt Hill
#
# Bulk Modulus (GPa) = 20.03378 52.03213 36.03296
# Shear Modulus (GPa) = 20.51624 37.91440 29.21532
#
# Velocity S-wave (km/s) = 2.95001 4.01030 3.52030
# Velocity P-wave (km/s) = 4.48345 6.59653 5.63984
#
# Compressibility (1/GPa) = 0.04991569
#
# Stress axis : x y z
#
# Youngs Moduli (GPa) = 100.99050 76.27620 28.64305
#
# Poissons Ratio (x) = 0.24939 0.13908
# Poissons Ratio (y) = 0.33019 -0.11803
# Poissons Ratio (z) = 0.49038 -0.31431
#
# Static dielectric constant tensor:
#      x y z
#    x 13.310860 -5.577730 -1.257190 
#    y -5.577730 4.702300 0.599290 
#    z -1.257190 0.599290 2.090110 
# 
# From -- ./inp_files/613002.got.cif
#   From: 2010.05.17/outbox.cif.g08.bks.cpg/sg2_307_cif.got.tgz:613002.got - 2010.06.03 11:33:40.
