data_PCOD9101416
_publ_section_title
;
Structure prediction by ZEFSAII (Michael W. Deem and Ramdas Pophale) SiO2 
 PCOD9101416
Probable space group: P -1
;
_chemical_formula_sum "Si O2"
_cell_formula_units_Z 16
_cell_length_a 13.970686
_cell_length_b 9.388270
_cell_length_c 6.878753
_cell_angle_alpha 104.310330
_cell_angle_beta 86.428373
_cell_angle_gamma 128.061520
_cell_volume 683.505716
_symmetry_space_group_name_H-M "P -1"
_symmetry_group_IT_number 2
_symmetry_cell_setting 'triclinic'
loop_
_space_group_symop_operation_xyz
x,y,z
-x,-y,-z
loop_
_atom_site_type_symbol
_atom_site_label
_atom_site_fract_x
_atom_site_fract_y
_atom_site_fract_z
Si Si1 0.044144 0.740006 0.079199
Si Si2 0.946207 0.785980 0.756395
Si Si3 0.712542 0.878005 0.822668
Si Si4 0.710892 0.598469 0.473576
Si Si5 0.190370 0.176372 0.854738
Si Si6 0.351910 0.787904 0.615170
Si Si7 0.386656 0.897431 0.205428
Si Si8 0.185137 0.604012 0.898665
O O1 0.920367 0.616464 0.174218
O O2 0.141881 0.958189 0.190572
O O3 0.121339 0.665545 0.060929
O O4 0.004852 0.709495 0.847071
O O5 0.840377 0.671584 0.576299
O O6 0.873028 0.791029 0.950897
O O7 0.067686 0.980344 0.724162
O O8 0.667327 0.697479 0.639219
O O9 0.647634 0.970551 0.817552
O O10 0.719908 0.844687 0.039099
O O11 0.736014 0.674872 0.276031
O O12 0.632012 0.374525 0.428253
O O13 0.346925 0.837099 0.413002
O O14 0.228733 0.702911 0.719822
O O15 0.467234 0.974969 0.766132
O O16 0.313504 0.704274 0.027117
#
# Coordination Sequence:
#
# PCOD9101416 Si02
#       8
#     2   2   2   2   2   2   2   2
#     4   9  18  35  59  86 120 152 187 234 290 354
#     4   9  17  31  49  77 118 154 178 223 283 339
#     4   9  21  39  59  85 120 153 183 237 295 341
#     4  11  21  34  57  88 117 149 190 237 288 345
#     4   9  18  32  52  81 116 151 187 222 280 353
#     4  11  24  39  62  87 112 156 204 240 288 343
#     4  10  23  44  61  81 115 156 203 248 283 334
#     4  10  20  38  59  84 117 153 193 241 289 341
#
# _framework density 23.408729000000001
#
# number of rings (size 3 to 8) (size 9 to 14) (size 15 to 20)
#    0.000    2.250    0.000    3.000    0.000    5.500 
#    0.000   10.625    0.000    0.000    0.000    0.000 
#    0.000    0.000    0.000    0.000    0.000    0.000 
#
# Total GULP energy -89191.921982 kJ/mol
# GULP energy per Si atom -5574.495124 kJ/mol
# Density = 2.335545 g / cm^3
# Si number density = 23.408729 Si / 1000 Ang^3
#
#
#
# Elastic Constant Matrix: (Units=GPa)
#
#
# Indices 1 2 3 4 5 6 
#
# 1 47.4962 6.3123 14.0000 -9.1241 8.7523 -6.0602
# 2 6.3123 74.3956 17.7600 -4.8301 5.8679 6.7734
# 3 14.0000 17.7600 64.9776 -13.0895 12.7395 8.0715
# 4 -9.1241 -4.8301 -13.0895 32.8836 -10.5728 -2.9206
# 5 8.7523 5.8679 12.7395 -10.5728 28.1187 -2.4468
# 6 -6.0602 6.7734 8.0715 -2.9206 -2.4468 22.0731
#
#
#
# Elastic Compliance Matrix: (Units=1/GPa)
#
#
# Indices 1 2 3 4 5 6 
#
# 1 0.025276 -0.001338 -0.004718 0.004874 -0.002799 0.009410
# 2 -0.001338 0.014750 -0.002951 -0.000317 -0.001797 -0.004055
# 3 -0.004718 -0.002951 0.020178 0.003508 -0.006436 -0.008018
# 4 0.004874 -0.000317 0.003508 0.037402 0.011579 0.006385
# 5 -0.002799 -0.001797 -0.006436 0.011579 0.044831 0.008638
# 6 0.009410 -0.004055 -0.008018 0.006385 0.008638 0.053866
#
#
# Mechanical properties :
#
#
# Convention : Reuss Voigt Hill
#
# Bulk Modulus (GPa) = 23.70310 29.22375 26.46342
# Shear Modulus (GPa) = 21.89329 26.53489 24.21409
#
# Velocity S-wave (km/s) = 3.06152 3.37047 3.21970
# Velocity P-wave (km/s) = 4.75867 5.25909 5.01513
#
# Compressibility (1/GPa) = 0.04218858
#
# Stress axis : x y z
#
# Youngs Moduli (GPa) = 39.56365 67.79651 49.56003
#
# Poissons Ratio (x) = 0.09069 0.23385
# Poissons Ratio (y) = 0.05292 0.14626
# Poissons Ratio (z) = 0.18668 0.20008
#
# Static dielectric constant tensor:
#      x y z
#    x 1.974060 -0.033870 0.000430 
#    y -0.033870 1.970630 0.011410 
#    z 0.000430 0.011410 1.899580 
# 
# From -- ./inp_files/109133.got.cif
#   From: 2010.05.17/outbox.cif.g08.bks.cpg/sg2_55_cif.got.tgz:109133.got - 2010.06.03 11:33:40.
