data_PCOD9101123
_publ_section_title
;
Structure prediction by ZEFSAII (Michael W. Deem and Ramdas Pophale) SiO2 
 PCOD9101123
Probable space group: P -1
;
_chemical_formula_sum "Si O2"
_cell_formula_units_Z 16
_cell_length_a 9.572252
_cell_length_b 12.477194
_cell_length_c 7.956960
_cell_angle_alpha 92.137446
_cell_angle_beta 108.917882
_cell_angle_gamma 111.683453
_cell_volume 821.943872
_symmetry_space_group_name_H-M "P -1"
_symmetry_group_IT_number 2
_symmetry_cell_setting 'triclinic'
loop_
_space_group_symop_operation_xyz
x,y,z
-x,-y,-z
loop_
_atom_site_type_symbol
_atom_site_label
_atom_site_fract_x
_atom_site_fract_y
_atom_site_fract_z
Si Si1 0.054042 0.634847 0.080658
Si Si2 0.256331 0.781785 0.691099
Si Si3 0.804175 0.877579 0.731109
Si Si4 0.663247 0.969522 0.382086
Si Si5 0.103254 0.328308 0.281319
Si Si6 0.818519 0.967748 0.088706
Si Si7 0.148785 0.569163 0.443761
Si Si8 0.333266 0.853530 0.071113
O O1 0.074630 0.631896 0.285530
O O2 0.227086 0.723846 0.087278
O O3 0.000000 0.500000 0.000000
O O4 0.933319 0.674775 0.933135
O O5 0.279845 0.675770 0.602265
O O6 0.074166 0.726916 0.699045
O O7 0.271490 0.889457 0.585018
O O8 0.379834 0.836930 0.896630
O O9 0.702111 0.919659 0.565461
O O10 0.807872 0.756754 0.658872
O O11 0.763004 0.872051 0.913059
O O12 0.988926 0.975678 0.805759
O O13 0.742716 0.938664 0.243563
O O14 0.475754 0.916714 0.258244
O O15 0.189744 0.465154 0.375212
O O16 0.770245 0.069353 0.996004
O O17 0.000000 0.500000 0.500000
#
# Coordination Sequence:
#
# PCOD9101123 Si02
#       8
#     2   2   2   2   2   2   2   2
#     4   9  17  33  57  78 108 141 189 239 277 322
#     4   9  17  32  54  80 113 145 186 238 277 326
#     4  11  21  35  57  84 123 151 196 228 282 348
#     4  11  22  36  57  85 121 155 183 234 295 338
#     4   9  17  34  51  81 114 142 188 238 279 325
#     4  10  21  36  56  84 118 156 194 230 280 338
#     4   9  18  30  54  86 105 139 193 242 279 323
#     4  10  20  38  55  84 115 147 189 237 288 339
#
# _framework density 19.466048000000001
#
# number of rings (size 3 to 8) (size 9 to 14) (size 15 to 20)
#    0.000    2.250    3.750    2.625    1.750    0.500 
#    4.500    0.000    0.000    3.750    0.000    0.000 
#    0.000    0.000    0.000    0.000    0.000    0.000 
#
# Total GULP energy -89080.009686 kJ/mol
# GULP energy per Si atom -5567.500605 kJ/mol
# Density = 1.942174 g / cm^3
# Si number density = 19.466048 Si / 1000 Ang^3
#
#
#
# Elastic Constant Matrix: (Units=GPa)
#
#
# Indices 1 2 3 4 5 6 
#
# 1 17.4205 8.8905 8.7576 7.6877 0.0853 -5.8888
# 2 8.8905 100.6322 37.8317 7.1899 2.7924 -16.9100
# 3 8.7576 37.8317 90.0604 2.7994 11.1886 -18.1443
# 4 7.6877 7.1899 2.7994 35.7740 -2.1663 -8.6988
# 5 0.0853 2.7924 11.1886 -2.1663 29.2773 1.0061
# 6 -5.8888 -16.9100 -18.1443 -8.6988 1.0061 17.6645
#
#
#
# Elastic Compliance Matrix: (Units=1/GPa)
#
#
# Indices 1 2 3 4 5 6 
#
# 1 0.069115 -0.002090 -0.002960 -0.011167 -0.000127 0.012508
# 2 -0.002090 0.012791 -0.003558 0.000080 -0.000121 0.007940
# 3 -0.002960 -0.003558 0.016470 0.003201 -0.006206 0.014454
# 4 -0.011167 0.000080 0.003201 0.034121 0.000763 0.016401
# 5 -0.000127 -0.000121 -0.006206 0.000763 0.036880 -0.008258
# 6 0.012508 0.007940 0.014454 0.016401 -0.008258 0.091775
#
#
# Mechanical properties :
#
#
# Convention : Reuss Voigt Hill
#
# Bulk Modulus (GPa) = 12.32135 35.45253 23.88694
# Shear Modulus (GPa) = 16.37086 26.71871 21.54479
#
# Velocity S-wave (km/s) = 2.90314 3.70885 3.33045
# Velocity P-wave (km/s) = 4.19297 6.04920 5.20451
#
# Compressibility (1/GPa) = 0.08115996
#
# Stress axis : x y z
#
# Youngs Moduli (GPa) = 14.46860 78.17883 60.71826
#
# Poissons Ratio (x) = 0.16341 0.17973
# Poissons Ratio (y) = 0.03024 0.21602
# Poissons Ratio (z) = 0.04283 0.27814
#
# Static dielectric constant tensor:
#      x y z
#    x 1.732500 0.016280 -0.032780 
#    y 0.016280 1.711380 0.033990 
#    z -0.032780 0.033990 1.750320 
# 
# From -- ./inp_files/187870.got.cif
#   From: 2010.05.17/outbox.cif.g08.bks.cpg/sg2_94_cif.got.tgz:187870.got - 2010.06.03 11:33:40.
