data_PCOD9101027
_publ_section_title
;
Structure prediction by ZEFSAII (Michael W. Deem and Ramdas Pophale) SiO2 
 PCOD9101027
Probable space group: P -1
;
_chemical_formula_sum "Si O2"
_cell_formula_units_Z 12
_cell_length_a 11.179545
_cell_length_b 5.300478
_cell_length_c 8.122198
_cell_angle_alpha 106.351454
_cell_angle_beta 74.459563
_cell_angle_gamma 87.741442
_cell_volume 441.499625
_symmetry_space_group_name_H-M "P -1"
_symmetry_group_IT_number 2
_symmetry_cell_setting 'triclinic'
loop_
_space_group_symop_operation_xyz
x,y,z
-x,-y,-z
loop_
_atom_site_type_symbol
_atom_site_label
_atom_site_fract_x
_atom_site_fract_y
_atom_site_fract_z
Si Si1 0.271482 0.653714 0.345229
Si Si2 0.159646 0.371748 0.771277
Si Si3 0.590772 0.928156 0.801383
Si Si4 0.649071 0.043404 0.309134
Si Si5 0.126147 0.120341 0.036923
Si Si6 0.051675 0.821092 0.639276
O O1 0.321954 0.759811 0.520690
O O2 0.120312 0.708213 0.427797
O O3 0.328346 0.836496 0.225263
O O4 0.326821 0.350857 0.248853
O O5 0.253216 0.956435 0.885713
O O6 0.111040 0.598338 0.707615
O O7 0.306525 0.256986 0.696069
O O8 0.128494 0.394051 0.982555
O O9 0.491862 0.909363 0.687115
O O10 0.500000 0.000000 0.000000
O O11 0.092116 0.146623 0.245725
O O12 0.100020 0.107696 0.689815
O O13 0.000000 0.000000 0.000000
#
# Coordination Sequence:
#
# PCOD9101027 Si02
#       6
#     2   2   2   2   2   2
#     4  11  22  39  64  85 113 149 200 246 281 336
#     4   8  17  26  49  81 117 137 173 219 287 326
#     4  12  26  43  57  81 120 160 194 237 293 344
#     4   9  20  37  62  92 112 150 195 240 283 339
#     4   8  15  31  54  88 123 137 178 238 297 330
#     4  10  16  32  51  89 113 144 172 236 291 332
#
# _framework density 27.18009
#
# number of rings (size 3 to 8) (size 9 to 14) (size 15 to 20)
#    1.000    1.333    1.667    4.000    0.000    2.667 
#    0.000    0.000    0.000    2.000    0.000    0.000 
#    0.000    0.000    0.000    0.000    0.000    0.000 
#
# Total GULP energy -66967.787065 kJ/mol
# GULP energy per Si atom -5580.648922 kJ/mol
# Density = 2.711823 g / cm^3
# Si number density = 27.180090 Si / 1000 Ang^3
#
#
#
# Elastic Constant Matrix: (Units=GPa)
#
#
# Indices 1 2 3 4 5 6 
#
# 1 117.5068 40.2609 40.5497 -7.0843 -22.9154 -11.7229
# 2 40.2609 181.9898 73.5564 -13.8838 -20.2348 -9.0819
# 3 40.5497 73.5564 170.2408 -6.6079 -56.4497 -3.6956
# 4 -7.0843 -13.8838 -6.6079 51.1069 0.7037 -1.6254
# 5 -22.9154 -20.2348 -56.4497 0.7037 49.6292 1.5830
# 6 -11.7229 -9.0819 -3.6956 -1.6254 1.5830 30.1502
#
#
#
# Elastic Compliance Matrix: (Units=1/GPa)
#
#
# Indices 1 2 3 4 5 6 
#
# 1 0.010252 -0.001402 -0.000616 0.001022 0.003339 0.003368
# 2 -0.001402 0.007076 -0.003081 0.001391 -0.001329 0.001354
# 3 -0.000616 -0.003081 0.010995 0.000336 0.010973 -0.000378
# 4 0.001022 0.001391 0.000336 0.020175 0.001075 0.001889
# 5 0.003339 -0.001329 0.010973 0.001075 0.033598 0.000537
# 6 0.003368 0.001354 -0.000378 0.001889 0.000537 0.034912
#
#
# Mechanical properties :
#
#
# Convention : Reuss Voigt Hill
#
# Bulk Modulus (GPa) = 55.17038 86.49682 70.83360
# Shear Modulus (GPa) = 37.52414 47.20195 42.36304
#
# Velocity S-wave (km/s) = 3.71964 4.17182 3.95220
# Velocity P-wave (km/s) = 6.22814 7.42281 6.85156
#
# Compressibility (1/GPa) = 0.01812567
#
# Stress axis : x y z
#
# Youngs Moduli (GPa) = 97.54331 141.32316 90.94743
#
# Poissons Ratio (x) = 0.19808 0.05605
# Poissons Ratio (y) = 0.13671 0.28020
# Poissons Ratio (z) = 0.06011 0.43541
#
# Static dielectric constant tensor:
#      x y z
#    x 2.184110 -0.005100 0.075710 
#    y -0.005100 2.074050 0.009360 
#    z 0.075710 0.009360 2.385290 
# 
# From -- ./inp_files/321761.got.cif
#   From: 2010.05.17/outbox.cif.g08.bks.cpg/sg2_161_cif.got.tgz:321761.got - 2010.06.03 11:33:40.
