data_PCOD9101052
_publ_section_title
;
Structure prediction by ZEFSAII (Michael W. Deem and Ramdas Pophale) SiO2 
 PCOD9101052
Probable space group: P -1
;
_chemical_formula_sum "Si O2"
_cell_formula_units_Z 14
_cell_length_a 13.968569
_cell_length_b 5.637024
_cell_length_c 8.293926
_cell_angle_alpha 74.287154
_cell_angle_beta 64.758954
_cell_angle_gamma 77.618981
_cell_volume 564.962366
_symmetry_space_group_name_H-M "P -1"
_symmetry_group_IT_number 2
_symmetry_cell_setting 'triclinic'
loop_
_space_group_symop_operation_xyz
x,y,z
-x,-y,-z
loop_
_atom_site_type_symbol
_atom_site_label
_atom_site_fract_x
_atom_site_fract_y
_atom_site_fract_z
Si Si1 0.891616 0.898027 0.458840
Si Si2 0.618320 0.932486 0.006562
Si Si3 0.495855 0.791292 0.410615
Si Si4 0.853589 0.643163 0.204632
Si Si5 0.715331 0.321376 0.526904
Si Si6 0.058085 0.253402 0.212857
Si Si7 0.628709 0.480542 0.880724
O O1 0.843131 0.818673 0.338330
O O2 0.904881 0.710074 0.635215
O O3 0.816337 0.134165 0.539077
O O4 0.002657 0.999281 0.312222
O O5 0.590435 0.830310 0.216878
O O6 0.670577 0.698794 0.911676
O O7 0.500000 0.000000 0.000000
O O8 0.667216 0.191016 0.940728
O O9 0.500000 0.500000 0.500000
O O10 0.379016 0.843152 0.408076
O O11 0.500000 0.000000 0.500000
O O12 0.758839 0.470009 0.320556
O O13 0.963583 0.469070 0.197690
O O14 0.864879 0.753926 0.997574
O O15 0.664270 0.506916 0.666600
O O16 0.500000 0.500000 0.000000
#
# Coordination Sequence:
#
# PCOD9101052 Si02
#       7
#     2   2   2   2   2   2   2
#     4  10  21  39  71  99 140 181 225 287 341 442
#     4  10  20  40  67  87 115 176 229 278 341 415
#     4  12  27  44  67  95 137 186 237 297 360 419
#     4  10  21  39  71  98 147 175 221 295 339 440
#     4  11  25  41  63 100 132 181 242 292 355 411
#     4   9  20  42  65 108 134 184 224 263 376 424
#     4  10  20  37  69  89 122 173 238 280 342 408
#
# _framework density 24.780411000000001
#
# number of rings (size 3 to 8) (size 9 to 14) (size 15 to 20)
#    0.000    1.714    2.857    1.714    6.000    0.000 
#    2.571    2.857    0.000    0.000    0.000    0.000 
#    0.000    0.000    0.000    0.000    0.000    0.000 
#
# Total GULP energy -78190.236934 kJ/mol
# GULP energy per Si atom -5585.016924 kJ/mol
# Density = 2.472401 g / cm^3
# Si number density = 24.780411 Si / 1000 Ang^3
#
#
#
# Elastic Constant Matrix: (Units=GPa)
#
#
# Indices 1 2 3 4 5 6 
#
# 1 50.8340 25.6602 30.4677 7.6173 1.2164 -0.4990
# 2 25.6602 145.8168 65.5283 3.8780 11.8278 26.5070
# 3 30.4677 65.5283 209.7117 5.1140 -6.2205 3.8242
# 4 7.6173 3.8780 5.1140 45.8202 3.3808 8.9008
# 5 1.2164 11.8278 -6.2205 3.3808 40.5368 1.4070
# 6 -0.4990 26.5070 3.8242 8.9008 1.4070 37.6998
#
#
#
# Elastic Compliance Matrix: (Units=1/GPa)
#
#
# Indices 1 2 3 4 5 6 
#
# 1 0.023589 -0.003843 -0.002192 -0.004191 0.000280 0.004216
# 2 -0.003843 0.010262 -0.002651 0.001716 -0.003176 -0.007284
# 3 -0.002192 -0.002651 0.005955 -0.000452 0.001747 0.001273
# 4 -0.004191 0.001716 -0.000452 0.023906 -0.002203 -0.006778
# 5 0.000280 -0.003176 0.001747 -0.002203 0.025983 0.001610
# 6 0.004216 -0.007284 0.001273 -0.006778 0.001610 0.033113
#
#
# Mechanical properties :
#
#
# Convention : Reuss Voigt Hill
#
# Bulk Modulus (GPa) = 44.58094 72.18612 58.38353
# Shear Modulus (GPa) = 33.86181 43.79178 38.82679
#
# Velocity S-wave (km/s) = 3.70060 4.20836 3.96262
# Velocity P-wave (km/s) = 6.02401 7.26686 6.67443
#
# Compressibility (1/GPa) = 0.02243111
#
# Stress axis : x y z
#
# Youngs Moduli (GPa) = 42.39302 97.44923 167.92456
#
# Poissons Ratio (x) = 0.37454 0.36817
# Poissons Ratio (y) = 0.16294 0.44522
# Poissons Ratio (z) = 0.09295 0.25837
#
# Static dielectric constant tensor:
#      x y z
#    x 2.558810 -0.162270 0.528100 
#    y -0.162270 1.990380 -0.142070 
#    z 0.528100 -0.142070 2.453050 
# 
# From -- ./inp_files/288418.got.cif
#   From: 2010.05.17/outbox.cif.g08.bks.cpg/sg2_145_cif.got.tgz:288418.got - 2010.06.03 11:33:40.
