data_PCOD9101194
_publ_section_title
;
Structure prediction by ZEFSAII (Michael W. Deem and Ramdas Pophale) SiO2 
 PCOD9101194
Probable space group: P -1
;
_chemical_formula_sum "Si O2"
_cell_formula_units_Z 16
_cell_length_a 16.637841
_cell_length_b 17.379867
_cell_length_c 15.633132
_cell_angle_alpha 146.100486
_cell_angle_beta 145.471917
_cell_angle_gamma 17.440437
_cell_volume 741.696288
_symmetry_space_group_name_H-M "P -1"
_symmetry_group_IT_number 2
_symmetry_cell_setting 'triclinic'
loop_
_space_group_symop_operation_xyz
x,y,z
-x,-y,-z
loop_
_atom_site_type_symbol
_atom_site_label
_atom_site_fract_x
_atom_site_fract_y
_atom_site_fract_z
Si Si1 0.812075 0.777729 0.558565
Si Si2 0.296566 0.997670 0.942974
Si Si3 0.053876 0.370583 0.649468
Si Si4 0.479416 0.896554 0.716721
Si Si5 0.274984 0.473792 0.984873
Si Si6 0.286051 0.737524 0.126973
Si Si7 0.855516 0.261479 0.176486
Si Si8 0.308726 0.794802 0.599680
O O1 0.888552 0.744199 0.496694
O O2 0.000000 0.500000 0.500000
O O3 0.915448 0.827746 0.742895
O O4 0.500000 0.000000 0.500000
O O5 0.322048 0.875255 0.772017
O O6 0.430662 0.040208 0.092617
O O7 0.978479 0.284600 0.950950
O O8 0.458618 0.791629 0.973412
O O9 0.180688 0.418739 0.798393
O O10 0.738844 0.648017 0.654600
O O11 0.219860 0.156466 0.672275
O O12 0.409065 0.820500 0.639780
O O13 0.310138 0.575887 0.049929
O O14 0.575570 0.571039 0.243530
O O15 0.246870 0.745634 0.998685
O O16 0.005367 0.051254 0.188234
O O17 0.500000 0.500000 0.500000
O O18 0.000000 0.000000 0.500000
#
# Coordination Sequence:
#
# PCOD9101194 Si02
#       8
#     2   2   2   2   2   2   2   2
#     4  12  24  40  61  90 125 165 213 262 314 369
#     4  10  22  41  65  94 121 164 221 243 311 386
#     4  10  22  40  64  94 120 164 214 254 315 361
#     4  10  22  44  67  89 128 171 210 265 303 386
#     4  10  20  38  64  91 119 158 209 261 299 363
#     4  10  20  38  57  83 120 159 203 255 306 362
#     4  10  22  37  56  84 118 161 208 246 312 377
#     4  12  25  44  65  98 131 165 205 261 329 380
#
# _framework density 21.572171999999998
#
# number of rings (size 3 to 8) (size 9 to 14) (size 15 to 20)
#    0.000    1.500    0.000    4.875    0.000    4.000 
#   13.500    5.000    0.000    0.000    0.000    0.000 
#    0.000    0.000    0.000    0.000    0.000    0.000 
#
# Total GULP energy -89342.498672 kJ/mol
# GULP energy per Si atom -5583.906167 kJ/mol
# Density = 2.152307 g / cm^3
# Si number density = 21.572172 Si / 1000 Ang^3
#
#
#
# Elastic Constant Matrix: (Units=GPa)
#
#
# Indices 1 2 3 4 5 6 
#
# 1 68.6494 18.4569 39.0362 0.5210 30.0156 9.2933
# 2 18.4569 146.0081 38.9606 -0.6480 25.6309 -5.2719
# 3 39.0362 38.9606 95.5605 9.6281 14.0345 0.6433
# 4 0.5210 -0.6480 9.6281 27.6837 -3.7895 8.8182
# 5 30.0156 25.6309 14.0345 -3.7895 37.3833 6.8707
# 6 9.2933 -5.2719 0.6433 8.8182 6.8707 30.0553
#
#
#
# Elastic Compliance Matrix: (Units=1/GPa)
#
#
# Indices 1 2 3 4 5 6 
#
# 1 0.029014 0.002415 -0.009983 0.001525 -0.020287 -0.004144
# 2 0.002415 0.008840 -0.003502 -0.000458 -0.007221 0.002664
# 3 -0.009983 -0.003502 0.016094 -0.006071 0.003173 0.003184
# 4 0.001525 -0.000458 -0.006071 0.044290 0.008689 -0.015403
# 5 -0.020287 -0.007221 0.003173 0.008689 0.049312 -0.008884
# 6 -0.004144 0.002664 0.003184 -0.015403 -0.008884 0.041502
#
#
# Mechanical properties :
#
#
# Convention : Reuss Voigt Hill
#
# Bulk Modulus (GPa) = 31.43861 55.90280 43.67071
# Shear Modulus (GPa) = 22.54339 33.27541 27.90940
#
# Velocity S-wave (km/s) = 3.23619 3.93175 3.60080
# Velocity P-wave (km/s) = 5.34502 6.82511 6.12990
#
# Compressibility (1/GPa) = 0.03180802
#
# Stress axis : x y z
#
# Youngs Moduli (GPa) = 34.46662 113.12420 62.13342
#
# Poissons Ratio (x) = -0.27315 0.62026
# Poissons Ratio (y) = -0.08322 0.21758
# Poissons Ratio (z) = 0.34407 0.39613
#
# Static dielectric constant tensor:
#      x y z
#    x 1.768820 -0.049580 0.004380 
#    y -0.049580 1.888720 0.023450 
#    z 0.004380 0.023450 1.871690 
# 
# From -- ./inp_files/534451.got.cif
#   From: 2010.05.17/outbox.cif.g08.bks.cpg/sg2_268_cif.got.tgz:534451.got - 2010.06.03 11:33:40.
