data_PCOD9101929
_publ_section_title
;
Structure prediction by ZEFSAII (Michael W. Deem and Ramdas Pophale) SiO2 
 PCOD9101929
Probable space group: P -1
;
_chemical_formula_sum "Si O2"
_cell_formula_units_Z 16
_cell_length_a 11.600948
_cell_length_b 9.744763
_cell_length_c 9.673488
_cell_angle_alpha 85.543460
_cell_angle_beta 142.541218
_cell_angle_gamma 84.094984
_cell_volume 638.203340
_symmetry_space_group_name_H-M "P -1"
_symmetry_group_IT_number 2
_symmetry_cell_setting 'triclinic'
loop_
_space_group_symop_operation_xyz
x,y,z
-x,-y,-z
loop_
_atom_site_type_symbol
_atom_site_label
_atom_site_fract_x
_atom_site_fract_y
_atom_site_fract_z
Si Si1 0.986636 0.156557 0.410116
Si Si2 0.777026 0.446263 0.150743
Si Si3 0.094720 0.383951 0.218268
Si Si4 0.697220 0.880932 0.736713
Si Si5 0.278017 0.230546 0.839820
Si Si6 0.607288 0.196017 0.354629
Si Si7 0.949830 0.964110 0.185180
Si Si8 0.565782 0.492671 0.400297
O O1 0.838676 0.303881 0.314853
O O2 0.203033 0.183631 0.626078
O O3 0.000000 0.000000 0.500000
O O4 0.891534 0.123506 0.178885
O O5 0.771834 0.597468 0.204277
O O6 0.941755 0.410606 0.193220
O O7 0.585173 0.460135 0.874156
O O8 0.171555 0.229190 0.235829
O O9 0.284919 0.414285 0.462165
O O10 0.000000 0.500000 0.000000
O O11 0.592074 0.790836 0.745569
O O12 0.500000 0.000000 0.500000
O O13 0.842592 0.959002 0.940866
O O14 0.141372 0.151619 0.808474
O O15 0.505705 0.180591 0.110389
O O16 0.812343 0.077177 0.579968
O O17 0.668292 0.332115 0.461760
O O18 0.500000 0.500000 0.500000
#
# Coordination Sequence:
#
# PCOD9101929 Si02
#       8
#     2   2   2   2   2   2   2   2
#     4  10  23  43  66  90 123 169 212 271 323 371
#     4  11  23  38  67  95 124 166 215 257 317 383
#     4  12  22  39  63  94 131 169 209 253 310 383
#     4  11  25  37  55  91 137 166 201 258 309 381
#     4   9  20  43  63  90 119 156 211 275 317 361
#     4  10  20  38  61  87 123 164 206 253 316 378
#     4  10  22  39  63  88 123 169 210 250 315 390
#     4  11  20  36  61  93 127 164 203 258 309 370
#
# _framework density 25.070381000000001
#
# number of rings (size 3 to 8) (size 9 to 14) (size 15 to 20)
#    0.000    1.500    2.500    3.375    3.500    1.000 
#    0.000    2.500    0.000    9.000    0.000    0.000 
#    0.000    0.000    0.000    0.000    0.000    0.000 
#
# Total GULP energy -89191.801682 kJ/mol
# GULP energy per Si atom -5574.487605 kJ/mol
# Density = 2.501332 g / cm^3
# Si number density = 25.070381 Si / 1000 Ang^3
#
#
#
# Elastic Constant Matrix: (Units=GPa)
#
#
# Indices 1 2 3 4 5 6 
#
# 1 61.0724 7.0459 1.3479 6.6452 12.1776 7.0921
# 2 7.0459 183.4009 90.2959 30.8534 -9.6792 -9.9190
# 3 1.3479 90.2959 136.3493 35.8765 3.7829 -5.7783
# 4 6.6452 30.8534 35.8765 63.8879 0.3303 -4.7845
# 5 12.1776 -9.6792 3.7829 0.3303 26.8272 -3.0798
# 6 7.0921 -9.9190 -5.7783 -4.7845 -3.0798 29.6337
#
#
#
# Elastic Compliance Matrix: (Units=1/GPa)
#
#
# Indices 1 2 3 4 5 6 
#
# 1 0.019784 -0.002231 0.001964 -0.002524 -0.010792 -0.006628
# 2 -0.002231 0.008910 -0.005731 -0.000667 0.005370 0.002849
# 3 0.001964 -0.005731 0.012361 -0.004443 -0.004785 -0.001193
# 4 -0.002524 -0.000667 -0.004443 0.018929 0.001613 0.002738
# 5 -0.010792 0.005370 -0.004785 0.001613 0.045738 0.008461
# 6 -0.006628 0.002849 -0.001193 0.002738 0.008461 0.037374
#
#
# Mechanical properties :
#
#
# Convention : Reuss Voigt Hill
#
# Bulk Modulus (GPa) = 34.41111 64.24465 49.32788
# Shear Modulus (GPa) = 30.34403 42.87863 36.61133
#
# Velocity S-wave (km/s) = 3.48279 4.14010 3.82559
# Velocity P-wave (km/s) = 5.47071 6.96673 6.26354
#
# Compressibility (1/GPa) = 0.02906038
#
# Stress axis : x y z
#
# Youngs Moduli (GPa) = 50.54543 112.23931 80.89861
#
# Poissons Ratio (x) = 0.25035 -0.15891
# Poissons Ratio (y) = 0.11274 0.46363
# Poissons Ratio (z) = -0.09929 0.64324
#
# Static dielectric constant tensor:
#      x y z
#    x 2.349490 0.259810 -0.278500 
#    y 0.259810 1.192850 0.046050 
#    z -0.278500 0.046050 2.084000 
# 
# From -- ./inp_files/203400.got.cif
#   From: 2010.05.17/outbox.cif.g08.bks.cpg/sg2_102_cif.got.tgz:203400.got - 2010.06.03 11:33:40.
