data_PCOD9101028
_publ_section_title
;
Structure prediction by ZEFSAII (Michael W. Deem and Ramdas Pophale) SiO2 
 PCOD9101028
Probable space group: P -1
;
_chemical_formula_sum "Si O2"
_cell_formula_units_Z 14
_cell_length_a 17.177255
_cell_length_b 8.486488
_cell_length_c 12.002062
_cell_angle_alpha 123.391608
_cell_angle_beta 38.177003
_cell_angle_gamma 144.053856
_cell_volume 616.705734
_symmetry_space_group_name_H-M "P -1"
_symmetry_group_IT_number 2
_symmetry_cell_setting 'triclinic'
loop_
_space_group_symop_operation_xyz
x,y,z
-x,-y,-z
loop_
_atom_site_type_symbol
_atom_site_label
_atom_site_fract_x
_atom_site_fract_y
_atom_site_fract_z
Si Si1 0.672521 0.908818 0.762462
Si Si2 0.360966 0.411894 0.528253
Si Si3 0.983534 0.160239 0.888553
Si Si4 0.183691 0.722622 0.761677
Si Si5 0.494518 0.027842 0.368773
Si Si6 0.720340 0.710309 0.832133
Si Si7 0.349330 0.757843 0.202821
O O1 0.633032 0.712055 0.634599
O O2 0.777807 0.906407 0.739621
O O3 0.757926 0.192417 0.721081
O O4 0.483631 0.789711 0.980418
O O5 0.500000 0.500000 0.500000
O O6 0.151754 0.199739 0.723631
O O7 0.428514 0.700174 0.552192
O O8 0.056756 0.413154 0.826361
O O9 0.818348 0.884673 0.901489
O O10 0.929359 0.206715 0.081256
O O11 0.345935 0.936984 0.755250
O O12 0.291336 0.788116 0.554779
O O13 0.477065 0.002911 0.246714
O O14 0.752507 0.519691 0.721617
O O15 0.500000 0.500000 0.000000
#
# Coordination Sequence:
#
# PCOD9101028 Si02
#       7
#     2   2   2   2   2   2   2
#     4  10  22  40  64  97 131 174 219 275 330 393
#     4  11  23  42  66  94 134 177 224 277 334 396
#     4  10  22  41  63 101 132 176 226 276 331 402
#     4   9  20  37  65  98 131 168 227 280 331 395
#     4  10  20  37  68  94 131 172 224 274 335 400
#     4  10  22  39  69  93 130 174 225 264 334 399
#     4  10  21  39  64  98 128 176 221 268 333 402
#
# _framework density 22.701264999999999
#
# number of rings (size 3 to 8) (size 9 to 14) (size 15 to 20)
#    0.000    2.000    1.429    1.714   10.000    0.571 
#    0.000    2.857    0.000    0.000    0.000    0.000 
#    0.000    0.000    0.000    0.000    0.000    0.000 
#
# Total GULP energy -77998.344598 kJ/mol
# GULP energy per Si atom -5571.310328 kJ/mol
# Density = 2.264960 g / cm^3
# Si number density = 22.701265 Si / 1000 Ang^3
#
#
#
# Elastic Constant Matrix: (Units=GPa)
#
#
# Indices 1 2 3 4 5 6 
#
# 1 87.8558 18.5191 13.5892 7.7886 -12.2404 -21.5233
# 2 18.5191 75.7652 28.0458 11.2904 -14.4812 -7.9326
# 3 13.5892 28.0458 106.5861 20.2118 -4.3995 8.1542
# 4 7.7886 11.2904 20.2118 33.4670 -1.1476 -8.1506
# 5 -12.2404 -14.4812 -4.3995 -1.1476 15.5591 2.5357
# 6 -21.5233 -7.9326 8.1542 -8.1506 2.5357 37.5470
#
#
#
# Elastic Compliance Matrix: (Units=1/GPa)
#
#
# Indices 1 2 3 4 5 6 
#
# 1 0.015192 -0.000175 -0.002190 0.000262 0.009797 0.008543
# 2 -0.000175 0.018265 -0.003922 -0.002492 0.015072 0.003052
# 3 -0.002190 -0.003922 0.012503 -0.007296 -0.001351 -0.006292
# 4 0.000262 -0.002492 -0.007296 0.037279 -0.002975 0.009502
# 5 0.009797 0.015072 -0.001351 -0.002975 0.084963 0.002710
# 6 0.008543 0.003052 -0.006292 0.009502 0.002710 0.035421
#
#
# Mechanical properties :
#
#
# Convention : Reuss Voigt Hill
#
# Bulk Modulus (GPa) = 29.95314 43.39059 36.67187
# Shear Modulus (GPa) = 21.99487 31.31815 26.65651
#
# Velocity S-wave (km/s) = 3.11607 3.71830 3.43042
# Velocity P-wave (km/s) = 5.11562 6.13103 5.64620
#
# Compressibility (1/GPa) = 0.03338548
#
# Stress axis : x y z
#
# Youngs Moduli (GPa) = 65.82223 54.74952 79.98336
#
# Poissons Ratio (x) = 0.00958 0.17515
# Poissons Ratio (y) = 0.01152 0.31373
# Poissons Ratio (z) = 0.14414 0.21475
#
# Static dielectric constant tensor:
#      x y z
#    x 2.401130 -0.162300 -0.429540 
#    y -0.162300 1.930140 0.019260 
#    z -0.429540 0.019260 2.234040 
# 
# From -- ./inp_files/462439.got.cif
#   From: 2010.05.17/outbox.cif.g08.bks.cpg/sg2_232_cif.got.tgz:462439.got - 2010.06.03 11:33:40.
