data_PCOD9101273
_publ_section_title
;
Structure prediction by ZEFSAII (Michael W. Deem and Ramdas Pophale) SiO2 
 PCOD9101273
Probable space group: P -1
;
_chemical_formula_sum "Si O2"
_cell_formula_units_Z 16
_cell_length_a 10.596956
_cell_length_b 11.112807
_cell_length_c 10.354260
_cell_angle_alpha 39.742509
_cell_angle_beta 80.392409
_cell_angle_gamma 64.777636
_cell_volume 677.455119
_symmetry_space_group_name_H-M "P -1"
_symmetry_group_IT_number 2
_symmetry_cell_setting 'triclinic'
loop_
_space_group_symop_operation_xyz
x,y,z
-x,-y,-z
loop_
_atom_site_type_symbol
_atom_site_label
_atom_site_fract_x
_atom_site_fract_y
_atom_site_fract_z
Si Si1 0.048862 0.639814 0.285538
Si Si2 0.252676 0.052241 0.163754
Si Si3 0.092376 0.845969 0.497137
Si Si4 0.487569 0.113979 0.545711
Si Si5 0.366713 0.836508 0.844110
Si Si6 0.391444 0.604901 0.776401
Si Si7 0.986877 0.501086 0.161135
Si Si8 0.788825 0.125596 0.905058
O O1 0.086668 0.547570 0.207664
O O2 0.000000 0.500000 0.500000
O O3 0.168861 0.690493 0.289628
O O4 0.919286 0.882633 0.090234
O O5 0.123703 0.993658 0.271861
O O6 0.365083 0.001568 0.301223
O O7 0.320920 0.899675 0.155029
O O8 0.172141 0.302449 0.947568
O O9 0.256633 0.673737 0.649347
O O10 0.008016 0.710775 0.605300
O O11 0.000000 0.000000 0.500000
O O12 0.481863 0.341321 0.339608
O O13 0.500000 0.000000 0.500000
O O14 0.367601 0.062225 0.670853
O O15 0.324722 0.770906 0.770214
O O16 0.530869 0.641203 0.994927
O O17 0.270442 0.825191 0.982500
O O18 0.000000 0.500000 0.000000
#
# Coordination Sequence:
#
# PCOD9101273 Si02
#       8
#     2   2   2   2   2   2   2   2
#     4  10  23  43  59  88 132 164 204 255 302 377
#     4  10  21  40  58  88 125 154 202 255 298 373
#     4  11  21  36  60  87 122 158 195 251 314 355
#     4   9  19  38  57  83 117 152 196 252 303 349
#     4  10  20  38  58  84 115 158 202 247 301 356
#     4   9  21  36  57  84 119 152 200 256 295 357
#     4  11  22  36  59  93 118 159 203 249 306 358
#     4  10  23  39  63  86 122 169 205 245 310 366
#
# _framework density 23.617801
#
# number of rings (size 3 to 8) (size 9 to 14) (size 15 to 20)
#    0.000    2.000    1.250    1.500    1.750    3.500 
#    2.250    2.500    0.000    0.000    0.000    0.000 
#    0.000    0.000    0.000    0.000    0.000    0.000 
#
# Total GULP energy -89117.715541 kJ/mol
# GULP energy per Si atom -5569.857221 kJ/mol
# Density = 2.356405 g / cm^3
# Si number density = 23.617801 Si / 1000 Ang^3
#
#
#
# Elastic Constant Matrix: (Units=GPa)
#
#
# Indices 1 2 3 4 5 6 
#
# 1 39.0802 25.7711 12.9052 -5.7298 -10.1077 24.1721
# 2 25.7711 91.9588 19.1190 -9.4703 -12.1098 30.7729
# 3 12.9052 19.1190 86.2225 -11.0926 -20.6460 14.9451
# 4 -5.7298 -9.4703 -11.0926 25.2497 7.7007 -4.2011
# 5 -10.1077 -12.1098 -20.6460 7.7007 43.1413 0.3735
# 6 24.1721 30.7729 14.9451 -4.2011 0.3735 27.6287
#
#
#
# Elastic Compliance Matrix: (Units=1/GPa)
#
#
# Indices 1 2 3 4 5 6 
#
# 1 0.068436 0.005787 0.005726 0.002407 0.020569 -0.069329
# 2 0.005787 0.019176 0.001638 0.002499 0.007311 -0.027027
# 3 0.005726 0.001638 0.015486 0.003605 0.008697 -0.014780
# 4 0.002407 0.002499 0.003605 0.044153 -0.004890 -0.000060
# 5 0.020569 0.007311 0.008697 -0.004890 0.035363 -0.032064
# 6 -0.069329 -0.027027 -0.014780 -0.000060 -0.032064 0.135372
#
#
# Mechanical properties :
#
#
# Convention : Reuss Voigt Hill
#
# Bulk Modulus (GPa) = 7.72793 36.98355 22.35574
# Shear Modulus (GPa) = 14.93352 29.83502 22.38427
#
# Velocity S-wave (km/s) = 2.51728 3.55807 3.08193
# Velocity P-wave (km/s) = 3.42464 5.70727 4.70644
#
# Compressibility (1/GPa) = 0.12940079
#
# Stress axis : x y z
#
# Youngs Moduli (GPa) = 14.61216 52.14802 64.57546
#
# Poissons Ratio (x) = -0.30180 -0.36973
# Poissons Ratio (y) = -0.08457 -0.10579
# Poissons Ratio (z) = -0.08366 -0.08543
#
# Static dielectric constant tensor:
#      x y z
#    x 1.958470 0.044590 -0.052940 
#    y 0.044590 1.967910 0.059270 
#    z -0.052940 0.059270 1.976410 
# 
# From -- ./inp_files/242078.got.cif
#   From: 2010.05.17/outbox.cif.g08.bks.cpg/sg2_122_cif.got.tgz:242078.got - 2010.06.03 11:33:40.
