data_PCOD9101629
_publ_section_title
;
Structure prediction by ZEFSAII (Michael W. Deem and Ramdas Pophale) SiO2 
 PCOD9101629
Probable space group: P -1
;
_chemical_formula_sum "Si O2"
_cell_formula_units_Z 14
_cell_length_a 8.781734
_cell_length_b 11.644854
_cell_length_c 14.186471
_cell_angle_alpha 113.937506
_cell_angle_beta 128.859056
_cell_angle_gamma 110.606521
_cell_volume 540.254232
_symmetry_space_group_name_H-M "P -1"
_symmetry_group_IT_number 2
_symmetry_cell_setting 'triclinic'
loop_
_space_group_symop_operation_xyz
x,y,z
-x,-y,-z
loop_
_atom_site_type_symbol
_atom_site_label
_atom_site_fract_x
_atom_site_fract_y
_atom_site_fract_z
Si Si1 0.529774 0.573799 0.267653
Si Si2 0.129377 0.924720 0.968981
Si Si3 0.580458 0.232342 0.781271
Si Si4 0.302383 0.244918 0.420610
Si Si5 0.749872 0.428315 0.302005
Si Si6 0.742135 0.053414 0.753065
Si Si7 0.528882 0.154895 0.955792
O O1 0.655849 0.777626 0.347875
O O2 0.422500 0.540767 0.325005
O O3 0.804915 0.606829 0.380037
O O4 0.169184 0.328348 0.988097
O O5 0.742043 0.732682 0.696788
O O6 0.227200 0.965080 0.130301
O O7 0.330658 0.910946 0.000608
O O8 0.342582 0.167944 0.097301
O O9 0.504312 0.051179 0.650570
O O10 0.572181 0.216487 0.884967
O O11 0.000000 0.500000 0.000000
O O12 0.371563 0.133567 0.408164
O O13 0.897950 0.056173 0.247313
O O14 0.000000 0.500000 0.500000
O O15 0.777601 0.378813 0.195150
#
# Coordination Sequence:
#
# PCOD9101629 Si02
#       7
#     2   2   2   2   2   2   2
#     4  11  22  38  61  88 120 158 203 240 290 359
#     4  10  20  38  60  85 128 154 192 252 299 350
#     4   9  22  42  61  84 120 159 205 244 292 351
#     4  11  21  36  62  91 117 157 201 240 305 350
#     4  11  21  37  60  96 122 150 202 245 297 363
#     4  10  21  42  59  86 124 159 194 252 293 346
#     4  10  20  39  63  84 121 164 191 251 299 340
#
# _framework density 25.913727000000002
#
# number of rings (size 3 to 8) (size 9 to 14) (size 15 to 20)
#    0.000    1.714    2.857    3.857    0.000    2.286 
#    7.714    0.000    0.000    0.000    0.000    0.000 
#    0.000    0.000    0.000    0.000    0.000    0.000 
#
# Total GULP energy -78307.380178 kJ/mol
# GULP energy per Si atom -5593.384298 kJ/mol
# Density = 2.585475 g / cm^3
# Si number density = 25.913727 Si / 1000 Ang^3
#
#
#
# Elastic Constant Matrix: (Units=GPa)
#
#
# Indices 1 2 3 4 5 6 
#
# 1 125.2474 64.0795 9.6888 0.4036 -25.0313 -55.3248
# 2 64.0795 152.7812 2.2413 -25.1524 2.0361 -44.2565
# 3 9.6888 2.2413 61.7235 -1.2580 -11.9729 -21.4060
# 4 0.4036 -25.1524 -1.2580 35.3723 -3.5249 4.0137
# 5 -25.0313 2.0361 -11.9729 -3.5249 38.2994 8.2799
# 6 -55.3248 -44.2565 -21.4060 4.0137 8.2799 70.6438
#
#
#
# Elastic Compliance Matrix: (Units=1/GPa)
#
#
# Indices 1 2 3 4 5 6 
#
# 1 0.016479 -0.004848 0.002742 -0.003711 0.009424 0.009806
# 2 -0.004848 0.010686 0.000947 0.006977 -0.003490 0.003197
# 3 0.002742 0.000947 0.019726 0.001072 0.006295 0.007919
# 4 -0.003711 0.006977 0.001072 0.033398 0.000652 -0.000185
# 5 0.009424 -0.003490 0.006295 0.000652 0.033812 0.003102
# 6 0.009806 0.003197 0.007919 -0.000185 0.003102 0.025885
#
#
# Mechanical properties :
#
#
# Convention : Reuss Voigt Hill
#
# Bulk Modulus (GPa) = 22.43449 54.64125 38.53787
# Shear Modulus (GPa) = 31.81428 46.44594 39.13011
#
# Velocity S-wave (km/s) = 3.50766 4.23818 3.89011
# Velocity P-wave (km/s) = 5.00810 6.71425 5.92293
#
# Compressibility (1/GPa) = 0.04457422
#
# Stress axis : x y z
#
# Youngs Moduli (GPa) = 60.68204 93.57900 50.69472
#
# Poissons Ratio (x) = 0.45368 -0.13902
# Poissons Ratio (y) = 0.29419 -0.04801
# Poissons Ratio (z) = -0.16641 -0.08863
#
# Static dielectric constant tensor:
#      x y z
#    x 2.100030 0.036640 0.055930 
#    y 0.036640 2.060100 0.036940 
#    z 0.055930 0.036940 2.217440 
# 
# From -- ./inp_files/172678.got.cif
#   From: 2010.05.17/outbox.cif.g08.bks.cpg/sg2_87_cif.got.tgz:172678.got - 2010.06.03 11:33:40.
