data_PCOD9101665
_publ_section_title
;
Structure prediction by ZEFSAII (Michael W. Deem and Ramdas Pophale) SiO2 
 PCOD9101665
Probable space group: P -1
;
_chemical_formula_sum "Si O2"
_cell_formula_units_Z 15
_cell_length_a 12.198219
_cell_length_b 11.038197
_cell_length_c 12.122836
_cell_angle_alpha 83.765111
_cell_angle_beta 55.696908
_cell_angle_gamma 128.821812
_cell_volume 731.531279
_symmetry_space_group_name_H-M "P -1"
_symmetry_group_IT_number 2
_symmetry_cell_setting 'triclinic'
loop_
_space_group_symop_operation_xyz
x,y,z
-x,-y,-z
loop_
_atom_site_type_symbol
_atom_site_label
_atom_site_fract_x
_atom_site_fract_y
_atom_site_fract_z
Si Si1 0.728576 0.828405 0.036445
Si Si2 0.724250 0.738490 0.289576
Si Si3 0.500000 0.500000 0.000000
Si Si4 0.670540 0.962576 0.397324
Si Si5 0.652196 0.284113 0.812603
Si Si6 0.612961 0.979032 0.791678
Si Si7 0.985233 0.754895 0.613195
Si Si8 0.726665 0.252603 0.205186
O O1 0.705574 0.727536 0.168769
O O2 0.672281 0.703417 0.974292
O O3 0.530236 0.784247 0.157825
O O4 0.002157 0.093402 0.852150
O O5 0.500000 0.500000 0.500000
O O6 0.712674 0.868985 0.322862
O O7 0.256485 0.353923 0.223220
O O8 0.707214 0.101682 0.278811
O O9 0.858371 0.122024 0.376174
O O10 0.405051 0.767669 0.624011
O O11 0.684229 0.168603 0.774347
O O12 0.897124 0.548827 0.660291
O O13 0.519431 0.188503 0.016240
O O14 0.840077 0.079337 0.604418
O O15 0.428010 0.852962 0.807978
O O16 0.000000 0.500000 0.000000
#
# Coordination Sequence:
#
# PCOD9101665 Si02
#       8
#     2   2   1   2   2   2   2   2
#     4  10  23  42  63  92 125 168 214 267 323 377
#     4  11  24  43  63  93 128 175 219 267 323 383
#     4  10  20  42  64  88 124 170 210 268 320 378
#     4  10  21  39  61  91 128 158 220 265 314 394
#     4  10  21  38  62  89 126 161 208 264 324 385
#     4  10  21  37  59  94 123 161 210 261 319 394
#     4  10  20  38  60  87 121 165 208 264 321 369
#     4  10  21  37  63  93 122 168 204 266 329 379
#
# _framework density 20.504935
#
# number of rings (size 3 to 8) (size 9 to 14) (size 15 to 20)
#    0.000    1.867    1.333    2.000    0.000    5.333 
#    9.600    8.667    0.000    0.000    0.000    0.000 
#    0.000    0.000    0.000    0.000    0.000    0.000 
#
# Total GULP energy -83523.233778 kJ/mol
# GULP energy per Si atom -5568.215585 kJ/mol
# Density = 2.045826 g / cm^3
# Si number density = 20.504935 Si / 1000 Ang^3
#
#
#
# Elastic Constant Matrix: (Units=GPa)
#
#
# Indices 1 2 3 4 5 6 
#
# 1 30.4039 -0.7874 19.4928 7.2702 -0.3905 10.1337
# 2 -0.7874 54.4371 14.7216 6.5130 7.6317 12.6187
# 3 19.4928 14.7216 146.2613 -4.5140 -3.7699 13.7545
# 4 7.2702 6.5130 -4.5140 19.0932 -2.6887 -0.8170
# 5 -0.3905 7.6317 -3.7699 -2.6887 25.5051 6.8553
# 6 10.1337 12.6187 13.7545 -0.8170 6.8553 14.7757
#
#
#
# Elastic Compliance Matrix: (Units=1/GPa)
#
#
# Indices 1 2 3 4 5 6 
#
# 1 0.066832 0.020425 -0.005940 -0.035498 0.007244 -0.063073
# 2 0.020425 0.031020 -0.002917 -0.020871 -0.001296 -0.038337
# 3 -0.005940 -0.002917 0.008413 0.005602 0.003282 -0.002480
# 4 -0.035498 -0.020871 0.005602 0.076586 0.004035 0.039318
# 5 0.007244 -0.001296 0.003282 0.004035 0.048459 -0.029177
# 6 -0.063073 -0.038337 -0.002480 0.039318 -0.029177 0.161697
#
#
# Mechanical properties :
#
#
# Convention : Reuss Voigt Hill
#
# Bulk Modulus (GPa) = 7.72789 33.10625 20.41707
# Shear Modulus (GPa) = 12.10642 25.05316 18.57979
#
# Velocity S-wave (km/s) = 2.43248 3.49923 3.01344
# Velocity P-wave (km/s) = 3.41559 5.70147 4.69963
#
# Compressibility (1/GPa) = 0.12940145
#
# Stress axis : x y z
#
# Youngs Moduli (GPa) = 14.96291 32.23778 118.86336
#
# Poissons Ratio (x) = -0.65847 0.70607
# Poissons Ratio (y) = -0.30562 0.34668
# Poissons Ratio (z) = 0.08888 0.09402
#
# Static dielectric constant tensor:
#      x y z
#    x 1.731580 -0.005750 -0.018960 
#    y -0.005750 1.708920 0.006250 
#    z -0.018960 0.006250 1.732650 
# 
# From -- ./inp_files/67467.got.cif
#   From: 2010.05.17/outbox.cif.g08.bks.cpg/sg2_34_cif.got.tgz:67467.got - 2010.06.03 11:33:40.
