data_PCOD9101566
_publ_section_title
;
Structure prediction by ZEFSAII (Michael W. Deem and Ramdas Pophale) SiO2 
 PCOD9101566
Probable space group: P -1
;
_chemical_formula_sum "Si O2"
_cell_formula_units_Z 16
_cell_length_a 18.423060
_cell_length_b 17.682787
_cell_length_c 7.030651
_cell_angle_alpha 94.628027
_cell_angle_beta 93.843110
_cell_angle_gamma 159.127553
_cell_volume 745.106356
_symmetry_space_group_name_H-M "P -1"
_symmetry_group_IT_number 2
_symmetry_cell_setting 'triclinic'
loop_
_space_group_symop_operation_xyz
x,y,z
-x,-y,-z
loop_
_atom_site_type_symbol
_atom_site_label
_atom_site_fract_x
_atom_site_fract_y
_atom_site_fract_z
Si Si1 0.531187 0.117110 0.723778
Si Si2 0.266426 0.051758 0.975017
Si Si3 0.919973 0.742959 0.334959
Si Si4 0.590040 0.504475 0.005692
Si Si5 0.778379 0.602261 0.718074
Si Si6 0.648204 0.914008 0.435788
Si Si7 0.633139 0.312401 0.158066
Si Si8 0.776296 0.324403 0.454917
O O1 0.740533 0.308235 0.665579
O O2 0.364028 0.006633 0.547627
O O3 0.416093 0.923153 0.696470
O O4 0.596460 0.225390 0.947419
O O5 0.289961 0.041340 0.764436
O O6 0.006607 0.808116 0.910986
O O7 0.407626 0.268911 0.025970
O O8 0.396564 0.117237 0.135925
O O9 0.855261 0.694626 0.535045
O O10 0.782370 0.533723 0.197227
O O11 0.174375 0.966307 0.406753
O O12 0.822041 0.717598 0.199006
O O13 0.643396 0.531103 0.803945
O O14 0.500000 0.500000 0.000000
O O15 0.602906 0.360892 0.628558
O O16 0.751145 0.376655 0.345261
O O17 0.000000 0.500000 0.500000
#
# Coordination Sequence:
#
# PCOD9101566 Si02
#       8
#     2   2   2   2   2   2   2   2
#     4  10  22  38  55  82 116 146 187 236 279 334
#     4   8  19  38  59  85 111 144 193 232 275 339
#     4  10  21  37  60  87 110 145 194 232 279 342
#     4  10  22  38  57  86 119 150 188 230 277 337
#     4  10  20  38  60  82 116 151 184 237 283 323
#     4   9  18  37  60  83 111 145 190 236 279 330
#     4  10  20  38  61  84 112 147 190 237 281 335
#     4  11  23  38  56  81 116 154 186 227 286 338
#
# _framework density 21.473444000000001
#
# number of rings (size 3 to 8) (size 9 to 14) (size 15 to 20)
#    0.000    2.250    0.000    2.625    0.000    6.500 
#    0.000   14.375    0.000    0.000    0.000    0.000 
#    0.000    0.000    0.000    0.000    0.000    0.000 
#
# Total GULP energy -89270.963707 kJ/mol
# GULP energy per Si atom -5579.435232 kJ/mol
# Density = 2.142457 g / cm^3
# Si number density = 21.473444 Si / 1000 Ang^3
#
#
#
# Elastic Constant Matrix: (Units=GPa)
#
#
# Indices 1 2 3 4 5 6 
#
# 1 120.4724 35.5650 3.8239 -3.0197 6.6890 12.0532
# 2 35.5650 81.2561 15.3807 1.7985 5.5694 26.8401
# 3 3.8239 15.3807 37.8518 -4.0646 -0.5313 8.7159
# 4 -3.0197 1.7985 -4.0646 30.3556 8.8547 0.5302
# 5 6.6890 5.5694 -0.5313 8.8547 31.5707 -2.7061
# 6 12.0532 26.8401 8.7159 0.5302 -2.7061 26.0421
#
#
#
# Elastic Compliance Matrix: (Units=1/GPa)
#
#
# Indices 1 2 3 4 5 6 
#
# 1 0.009713 -0.004063 0.001058 0.001931 -0.001942 -0.000904
# 2 -0.004063 0.021611 -0.004001 -0.000556 -0.004536 -0.019514
# 3 0.001058 -0.004001 0.029948 0.004731 -0.000905 -0.006579
# 4 0.001931 -0.000556 0.004731 0.037062 -0.010952 -0.003796
# 5 -0.001942 -0.004536 -0.000905 -0.010952 0.036794 0.009923
# 6 -0.000904 -0.019514 -0.006579 -0.003796 0.009923 0.062240
#
#
# Mechanical properties :
#
#
# Convention : Reuss Voigt Hill
#
# Bulk Modulus (GPa) = 21.15936 38.79106 29.97521
# Shear Modulus (GPa) = 22.01341 29.91439 25.96390
#
# Velocity S-wave (km/s) = 3.20526 3.73646 3.48101
# Velocity P-wave (km/s) = 4.85525 6.05960 5.49054
#
# Compressibility (1/GPa) = 0.04726040
#
# Stress axis : x y z
#
# Youngs Moduli (GPa) = 102.95384 46.27201 33.39106
#
# Poissons Ratio (x) = 0.18799 -0.03532
# Poissons Ratio (y) = 0.41827 0.13360
# Poissons Ratio (z) = -0.10890 0.18514
#
# Static dielectric constant tensor:
#      x y z
#    x 1.747850 0.009510 0.032590 
#    y 0.009510 1.806820 -0.015050 
#    z 0.032590 -0.015050 1.876230 
# 
# From -- ./inp_files/336751.got.cif
#   From: 2010.05.17/outbox.cif.g08.bks.cpg/sg2_169_cif.got.tgz:336751.got - 2010.06.03 11:33:40.
