data_PCOD9101394
_publ_section_title
;
Structure prediction by ZEFSAII (Michael W. Deem and Ramdas Pophale) SiO2 
 PCOD9101394
Probable space group: P -1
;
_chemical_formula_sum "Si O2"
_cell_formula_units_Z 16
_cell_length_a 11.024566
_cell_length_b 9.043092
_cell_length_c 14.172404
_cell_angle_alpha 86.756710
_cell_angle_beta 146.497886
_cell_angle_gamma 104.603286
_cell_volume 722.794896
_symmetry_space_group_name_H-M "P -1"
_symmetry_group_IT_number 2
_symmetry_cell_setting 'triclinic'
loop_
_space_group_symop_operation_xyz
x,y,z
-x,-y,-z
loop_
_atom_site_type_symbol
_atom_site_label
_atom_site_fract_x
_atom_site_fract_y
_atom_site_fract_z
Si Si1 0.619751 0.357615 0.271951
Si Si2 0.306544 0.844270 0.334429
Si Si3 0.614230 0.145484 0.839624
Si Si4 0.141475 0.151554 0.714857
Si Si5 0.131449 0.071307 0.987334
Si Si6 0.097982 0.630032 0.362166
Si Si7 0.397084 0.597527 0.035064
Si Si8 0.837567 0.126994 0.350697
O O1 0.782489 0.418200 0.468257
O O2 0.534440 0.484538 0.161522
O O3 0.753181 0.274557 0.292749
O O4 0.379544 0.216300 0.155198
O O5 0.361564 0.835958 0.259028
O O6 0.273910 0.692165 0.384855
O O7 0.053890 0.863780 0.179835
O O8 0.500000 0.000000 0.500000
O O9 0.647539 0.308747 0.907274
O O10 0.366244 0.008902 0.715361
O O11 0.803462 0.073287 0.005345
O O12 0.408446 0.266114 0.906164
O O13 0.961911 0.217841 0.645965
O O14 0.078323 0.176192 0.564342
O O15 0.129181 0.969796 0.715599
O O16 0.000000 0.000000 0.000000
O O17 0.849791 0.501121 0.171007
#
# Coordination Sequence:
#
# PCOD9101394 Si02
#       8
#     2   2   2   2   2   2   2   2
#     4  10  20  38  59  83 116 153 192 233 286 339
#     4  11  20  36  62  89 111 147 193 239 287 336
#     4   9  20  37  60  84 115 153 190 236 286 338
#     4   9  18  35  60  82 115 152 192 243 281 327
#     4   9  17  36  60  80 108 149 189 234 279 330
#     4  11  22  36  57  87 119 150 194 233 284 349
#     4  11  22  39  58  83 121 157 188 231 292 339
#     4   8  16  34  61  84 108 150 197 238 278 331
#
# _framework density 22.136292999999998
#
# number of rings (size 3 to 8) (size 9 to 14) (size 15 to 20)
#    0.000    2.250    1.250    3.375    0.000    2.500 
#    2.250    1.250    2.750    0.000    0.000    0.000 
#    0.000    0.000    0.000    0.000    0.000    0.000 
#
# Total GULP energy -89239.190637 kJ/mol
# GULP energy per Si atom -5577.449415 kJ/mol
# Density = 2.208591 g / cm^3
# Si number density = 22.136293 Si / 1000 Ang^3
#
#
#
# Elastic Constant Matrix: (Units=GPa)
#
#
# Indices 1 2 3 4 5 6 
#
# 1 59.2764 21.1256 20.7758 -3.0532 -9.4791 -12.7189
# 2 21.1256 82.6922 44.6867 6.4035 -13.4792 -21.1952
# 3 20.7758 44.6867 139.6507 6.4748 -5.3675 -10.9014
# 4 -3.0532 6.4035 6.4748 28.1484 1.0667 2.9586
# 5 -9.4791 -13.4792 -5.3675 1.0667 36.6193 -0.7008
# 6 -12.7189 -21.1952 -10.9014 2.9586 -0.7008 41.4263
#
#
#
# Elastic Compliance Matrix: (Units=1/GPa)
#
#
# Indices 1 2 3 4 5 6 
#
# 1 0.020116 -0.002642 -0.001784 0.002597 0.003979 0.004237
# 2 -0.002642 0.018499 -0.004480 -0.004512 0.005751 0.007895
# 3 -0.001784 -0.004480 0.008847 -0.001133 -0.000790 -0.000444
# 4 0.002597 -0.004512 -0.001133 0.037660 -0.002339 -0.004538
# 5 0.003979 0.005751 -0.000790 -0.002339 0.030496 0.004639
# 6 0.004237 0.007895 -0.000444 -0.004538 0.004639 0.029765
#
#
# Mechanical properties :
#
#
# Convention : Reuss Voigt Hill
#
# Bulk Modulus (GPa) = 33.72565 50.53284 42.12924
# Shear Modulus (GPa) = 28.88852 34.24088 31.56470
#
# Velocity S-wave (km/s) = 3.61644 3.93723 3.78024
# Velocity P-wave (km/s) = 5.71898 6.59899 6.17468
#
# Compressibility (1/GPa) = 0.02965102
#
# Stress axis : x y z
#
# Youngs Moduli (GPa) = 49.71168 54.05607 113.02995
#
# Poissons Ratio (x) = 0.14279 0.20166
# Poissons Ratio (y) = 0.13132 0.50638
# Poissons Ratio (z) = 0.08869 0.24218
#
# Static dielectric constant tensor:
#      x y z
#    x 1.813650 -0.035950 -0.017750 
#    y -0.035950 1.850950 -0.019540 
#    z -0.017750 -0.019540 1.838760 
# 
# From -- ./inp_files/200941.got.cif
#   From: 2010.05.17/outbox.cif.g08.bks.cpg/sg2_101_cif.got.tgz:200941.got - 2010.06.03 11:33:40.
