data_PCOD9101061
_publ_section_title
;
Structure prediction by ZEFSAII (Michael W. Deem and Ramdas Pophale) SiO2 
 PCOD9101061
Probable space group: P -1
;
_chemical_formula_sum "Si O2"
_cell_formula_units_Z 12
_cell_length_a 11.156399
_cell_length_b 14.638034
_cell_length_c 12.445355
_cell_angle_alpha 27.488429
_cell_angle_beta 132.424728
_cell_angle_gamma 147.264506
_cell_volume 485.976915
_symmetry_space_group_name_H-M "P -1"
_symmetry_group_IT_number 2
_symmetry_cell_setting 'triclinic'
loop_
_space_group_symop_operation_xyz
x,y,z
-x,-y,-z
loop_
_atom_site_type_symbol
_atom_site_label
_atom_site_fract_x
_atom_site_fract_y
_atom_site_fract_z
Si Si1 0.646812 0.265807 0.542598
Si Si2 0.122196 0.646075 0.038406
Si Si3 0.535154 0.762457 0.118424
Si Si4 0.737968 0.843445 0.501389
Si Si5 0.227258 0.769342 0.560295
Si Si6 0.075880 0.166131 0.760325
O O1 0.399186 0.159668 0.483764
O O2 0.802197 0.377279 0.415571
O O3 0.768472 0.510015 0.448733
O O4 0.600518 0.007207 0.829747
O O5 0.327022 0.666653 0.165473
O O6 0.922092 0.459026 0.199054
O O7 0.000000 0.500000 0.000000
O O8 0.247773 0.966942 0.774664
O O9 0.406105 0.477795 0.272306
O O10 0.771983 0.855136 0.195033
O O11 0.000000 0.000000 0.500000
O O12 0.139990 0.918636 0.338231
O O13 0.500000 0.000000 0.500000
O O14 0.000000 0.000000 0.000000
#
# Coordination Sequence:
#
# PCOD9101061 Si02
#       6
#     2   2   2   2   2   2
#     4  10  23  44  71 101 141 181 228 292 347 409
#     4  11  23  43  67  97 150 180 224 296 344 405
#     4  10  21  42  70  94 135 183 232 273 348 405
#     4  10  20  37  69  96 130 186 228 274 344 405
#     4  12  26  43  71 109 140 180 232 290 356 407
#     4  11  24  45  76 102 139 184 232 285 352 421
#
# _framework density 24.692530999999999
#
# number of rings (size 3 to 8) (size 9 to 14) (size 15 to 20)
#    0.000    1.333    3.333    2.500    0.000    0.667 
#    3.000    9.167    0.000    0.000    0.000    0.000 
#    0.000    0.000    0.000    0.000    0.000    0.000 
#
# Total GULP energy -67090.233041 kJ/mol
# GULP energy per Si atom -5590.852753 kJ/mol
# Density = 2.463633 g / cm^3
# Si number density = 24.692531 Si / 1000 Ang^3
#
#
#
# Elastic Constant Matrix: (Units=GPa)
#
#
# Indices 1 2 3 4 5 6 
#
# 1 177.9541 58.8574 65.2420 8.6027 -5.8585 45.5375
# 2 58.8574 115.9063 36.0540 13.4215 11.8665 42.6593
# 3 65.2420 36.0540 158.2203 -19.6226 8.9576 3.1128
# 4 8.6027 13.4215 -19.6226 36.9313 12.8369 13.2644
# 5 -5.8585 11.8665 8.9576 12.8369 56.0878 8.1343
# 6 45.5375 42.6593 3.1128 13.2644 8.1343 59.9311
#
#
#
# Elastic Compliance Matrix: (Units=1/GPa)
#
#
# Indices 1 2 3 4 5 6 
#
# 1 0.009201 -0.001403 -0.003908 -0.002859 0.003350 -0.005611
# 2 -0.001403 0.013361 -0.002639 -0.002948 -0.000783 -0.007548
# 3 -0.003908 -0.002639 0.009524 0.006946 -0.003437 0.003282
# 4 -0.002859 -0.002948 0.006946 0.036620 -0.008729 -0.003011
# 5 0.003350 -0.000783 -0.003437 -0.008729 0.021293 -0.002768
# 6 -0.005611 -0.007548 0.003282 -0.003011 -0.002768 0.027194
#
#
# Mechanical properties :
#
#
# Convention : Reuss Voigt Hill
#
# Bulk Modulus (GPa) = 61.78188 85.82082 73.80135
# Shear Modulus (GPa) = 36.10442 50.05186 43.07814
#
# Velocity S-wave (km/s) = 3.82797 4.50711 4.18135
# Velocity P-wave (km/s) = 6.67926 7.86871 7.29826
#
# Compressibility (1/GPa) = 0.01618598
#
# Stress axis : x y z
#
# Youngs Moduli (GPa) = 108.68853 74.84690 104.99382
#
# Poissons Ratio (x) = 0.10503 0.41031
# Poissons Ratio (y) = 0.15252 0.27704
# Poissons Ratio (z) = 0.42474 0.19749
#
# Static dielectric constant tensor:
#      x y z
#    x 1.992140 0.006490 -0.006250 
#    y 0.006490 2.089000 0.015930 
#    z -0.006250 0.015930 1.900510 
# 
# From -- ./inp_files/209005.got.cif
#   From: 2010.05.17/outbox.cif.g08.bks.cpg/sg2_105_cif.got.tgz:209005.got - 2010.06.03 11:33:40.
