data_PCOD9101744
_publ_section_title
;
Structure prediction by ZEFSAII (Michael W. Deem and Ramdas Pophale) SiO2 
 PCOD9101744
Probable space group: P -1
;
_chemical_formula_sum "Si O2"
_cell_formula_units_Z 13
_cell_length_a 7.219987
_cell_length_b 17.973560
_cell_length_c 6.679017
_cell_angle_alpha 57.313385
_cell_angle_beta 58.071918
_cell_angle_gamma 47.036534
_cell_volume 515.304344
_symmetry_space_group_name_H-M "P -1"
_symmetry_group_IT_number 2
_symmetry_cell_setting 'triclinic'
loop_
_space_group_symop_operation_xyz
x,y,z
-x,-y,-z
loop_
_atom_site_type_symbol
_atom_site_label
_atom_site_fract_x
_atom_site_fract_y
_atom_site_fract_z
Si Si1 0.241859 0.068573 0.693081
Si Si2 0.391569 0.401079 0.007794
Si Si3 0.919043 0.289700 0.387450
Si Si4 0.472168 0.266053 0.502188
Si Si5 0.943726 0.610330 0.139163
Si Si6 0.172348 0.961916 0.253494
Si Si7 0.500000 0.500000 0.500000
O O1 0.128356 0.192946 0.544810
O O2 0.010721 0.060174 0.743867
O O3 0.500000 0.000000 0.500000
O O4 0.248100 0.029268 0.974185
O O5 0.500689 0.292451 0.220701
O O6 0.255226 0.396573 0.888659
O O7 0.582906 0.430511 0.764343
O O8 0.204381 0.494565 0.133122
O O9 0.673501 0.282487 0.488828
O O10 0.784567 0.407923 0.376366
O O11 0.036411 0.296484 0.101478
O O12 0.564397 0.147318 0.670859
O O13 0.189550 0.351454 0.627653
O O14 0.000000 0.000000 0.500000
#
# Coordination Sequence:
#
# PCOD9101744 Si02
#       7
#     2   2   2   2   2   2   1
#     4  10  22  43  66  89 125 167 205 263 310 369
#     4  10  22  38  63  86 125 163 199 249 302 362
#     4  10  22  39  63  90 124 162 202 247 308 362
#     4  11  22  40  63  88 123 161 203 255 303 364
#     4  10  21  41  57  93 122 159 207 243 301 369
#     4  10  24  40  64  94 121 161 213 258 315 363
#     4  10  20  38  60  90 120 158 198 238 304 372
#
# _framework density 25.227810000000002
#
# number of rings (size 3 to 8) (size 9 to 14) (size 15 to 20)
#    0.000    1.846    1.538    1.385    2.154    5.538 
#    8.308    0.000    0.000    0.000    0.000    0.000 
#    0.000    0.000    0.000    0.000    0.000    0.000 
#
# Total GULP energy -72367.320607 kJ/mol
# GULP energy per Si atom -5566.716970 kJ/mol
# Density = 2.517039 g / cm^3
# Si number density = 25.227810 Si / 1000 Ang^3
#
#
#
# Elastic Constant Matrix: (Units=GPa)
#
#
# Indices 1 2 3 4 5 6 
#
# 1 52.1392 -12.3957 -11.2679 -6.0926 -2.4855 -1.1190
# 2 -12.3957 94.0563 60.6093 -21.3714 8.2165 11.1103
# 3 -11.2679 60.6093 232.9819 -31.1434 -28.4793 -8.9322
# 4 -6.0926 -21.3714 -31.1434 50.0858 -5.3810 -1.9366
# 5 -2.4855 8.2165 -28.4793 -5.3810 65.5203 19.8428
# 6 -1.1190 11.1103 -8.9322 -1.9366 19.8428 24.8513
#
#
#
# Elastic Compliance Matrix: (Units=1/GPa)
#
#
# Indices 1 2 3 4 5 6 
#
# 1 0.020713 0.003149 0.000935 0.004565 0.001459 -0.000949
# 2 0.003149 0.015247 -0.003621 0.004271 -0.000924 -0.006905
# 3 0.000935 -0.003621 0.006051 0.002702 0.002791 0.001818
# 4 0.004565 0.004271 0.002702 0.024316 0.003241 -0.001426
# 5 0.001459 -0.000924 0.002791 0.003241 0.021614 -0.015524
# 6 -0.000949 -0.006905 0.001818 -0.001426 -0.015524 0.056221
#
#
# Mechanical properties :
#
#
# Convention : Reuss Voigt Hill
#
# Bulk Modulus (GPa) = 23.28991 50.34097 36.81544
# Shear Modulus (GPa) = 31.73600 50.90692 41.32146
#
# Velocity S-wave (km/s) = 3.55064 4.49697 4.05153
# Velocity P-wave (km/s) = 5.10503 6.85284 6.04247
#
# Compressibility (1/GPa) = 0.04293704
#
# Stress axis : x y z
#
# Youngs Moduli (GPa) = 48.27953 65.58558 165.25149
#
# Poissons Ratio (x) = -0.20654 -0.15446
# Poissons Ratio (y) = -0.15204 0.59838
# Poissons Ratio (z) = -0.04513 0.23749
#
# Static dielectric constant tensor:
#      x y z
#    x 2.143040 0.088920 -0.109100 
#    y 0.088920 1.995050 -0.066280 
#    z -0.109100 -0.066280 2.089790 
# 
# From -- ./inp_files/31526.got.cif
#   From: 2010.05.17/outbox.cif.g08.bks.cpg/sg2_16_cif.got.tgz:31526.got - 2010.06.03 11:33:40.
