data_PCOD9101852
_publ_section_title
;
Structure prediction by ZEFSAII (Michael W. Deem and Ramdas Pophale) SiO2 
 PCOD9101852
Probable space group: P -1
;
_chemical_formula_sum "Si O2"
_cell_formula_units_Z 14
_cell_length_a 16.790524
_cell_length_b 6.129240
_cell_length_c 6.121940
_cell_angle_alpha 93.826000
_cell_angle_beta 89.778612
_cell_angle_gamma 98.549287
_cell_volume 621.627230
_symmetry_space_group_name_H-M "P -1"
_symmetry_group_IT_number 2
_symmetry_cell_setting 'triclinic'
loop_
_space_group_symop_operation_xyz
x,y,z
-x,-y,-z
loop_
_atom_site_type_symbol
_atom_site_label
_atom_site_fract_x
_atom_site_fract_y
_atom_site_fract_z
Si Si1 0.695149 0.902489 0.871886
Si Si2 0.447218 0.283912 0.391566
Si Si3 0.836370 0.961585 0.178644
Si Si4 0.741130 0.254324 0.514044
Si Si5 0.406521 0.912500 0.737796
Si Si6 0.977369 0.324794 0.180108
Si Si7 0.117836 0.380574 0.491328
O O1 0.772746 0.845342 0.995811
O O2 0.655881 0.271327 0.402926
O O3 0.638589 0.010058 0.048963
O O4 0.635135 0.709518 0.739265
O O5 0.500000 0.500000 0.500000
O O6 0.510099 0.176667 0.231323
O O7 0.423740 0.116448 0.581940
O O8 0.786635 0.123684 0.324879
O O9 0.915718 0.111523 0.092892
O O10 0.864033 0.795455 0.342563
O O11 0.726570 0.092627 0.709791
O O12 0.798660 0.480214 0.580223
O O13 0.929198 0.445546 0.369855
O O14 0.058707 0.277023 0.293718
O O15 0.000000 0.500000 0.000000
#
# Coordination Sequence:
#
# PCOD9101852 Si02
#       7
#     2   2   2   2   2   2   2
#     4  10  20  38  61  84 116 154 194 240 289 346
#     4  10  21  38  58  84 117 151 191 241 292 341
#     4  10  21  37  56  85 117 149 192 237 286 342
#     4   9  20  37  56  81 115 151 190 235 285 341
#     4   9  20  38  58  83 115 151 192 238 287 342
#     4  10  21  37  58  84 113 150 193 233 281 341
#     4  10  21  37  57  82 116 151 186 236 287 335
#
# _framework density 22.521533000000002
#
# number of rings (size 3 to 8) (size 9 to 14) (size 15 to 20)
#    0.000    2.286    0.000    1.714    0.000    5.714 
#    0.000   14.286    0.000    0.000    0.000    0.000 
#    0.000    0.000    0.000    0.000    0.000    0.000 
#
# Total GULP energy -78245.151875 kJ/mol
# GULP energy per Si atom -5588.939420 kJ/mol
# Density = 2.247027 g / cm^3
# Si number density = 22.521533 Si / 1000 Ang^3
#
#
#
# Elastic Constant Matrix: (Units=GPa)
#
#
# Indices 1 2 3 4 5 6 
#
# 1 150.8554 62.8678 65.2738 0.6642 42.0031 42.6443
# 2 62.8678 77.1280 37.0202 8.9348 24.8008 35.6725
# 3 65.2738 37.0202 87.3416 6.6795 31.0507 26.0627
# 4 0.6642 8.9348 6.6795 30.4744 -1.8431 -0.4952
# 5 42.0031 24.8008 31.0507 -1.8431 60.6719 1.7875
# 6 42.6443 35.6725 26.0627 -0.4952 1.7875 37.1255
#
#
#
# Elastic Compliance Matrix: (Units=1/GPa)
#
#
# Indices 1 2 3 4 5 6 
#
# 1 0.014358 -0.003020 -0.004247 0.000961 -0.006199 -0.010298
# 2 -0.003020 0.033290 0.002145 -0.011377 -0.012089 -0.029594
# 3 -0.004247 0.002145 0.020414 -0.005690 -0.008228 -0.011194
# 4 0.000961 -0.011377 -0.005690 0.038065 0.007642 0.013962
# 5 -0.006199 -0.012089 -0.008228 0.007642 0.029475 0.023195
# 6 -0.010298 -0.029594 -0.011194 0.013962 0.023195 0.074128
#
#
# Mechanical properties :
#
#
# Convention : Reuss Voigt Hill
#
# Bulk Modulus (GPa) = 17.29525 71.73872 44.51699
# Shear Modulus (GPa) = 20.89898 35.66525 28.28212
#
# Velocity S-wave (km/s) = 3.04954 3.98377 3.54754
# Velocity P-wave (km/s) = 4.48282 7.28582 6.04892
#
# Compressibility (1/GPa) = 0.05781933
#
# Stress axis : x y z
#
# Youngs Moduli (GPa) = 69.64824 30.03917 48.98531
#
# Poissons Ratio (x) = 0.09071 0.20803
# Poissons Ratio (y) = 0.21032 -0.10509
# Poissons Ratio (z) = 0.29579 -0.06444
#
# Static dielectric constant tensor:
#      x y z
#    x 1.861960 0.005750 0.015480 
#    y 0.005750 1.799880 0.048460 
#    z 0.015480 0.048460 1.816740 
# 
# From -- ./inp_files/102883.got.cif
#   From: 2010.05.17/outbox.cif.g08.bks.cpg/sg2_52_cif.got.tgz:102883.got - 2010.06.03 11:33:40.
