data_PCOD9101300
_publ_section_title
;
Structure prediction by ZEFSAII (Michael W. Deem and Ramdas Pophale) SiO2 
 PCOD9101300
Probable space group: P -1
;
_chemical_formula_sum "Si O2"
_cell_formula_units_Z 16
_cell_length_a 14.876202
_cell_length_b 7.902155
_cell_length_c 8.494280
_cell_angle_alpha 60.604798
_cell_angle_beta 61.173566
_cell_angle_gamma 63.154167
_cell_volume 731.335155
_symmetry_space_group_name_H-M "P -1"
_symmetry_group_IT_number 2
_symmetry_cell_setting 'triclinic'
loop_
_space_group_symop_operation_xyz
x,y,z
-x,-y,-z
loop_
_atom_site_type_symbol
_atom_site_label
_atom_site_fract_x
_atom_site_fract_y
_atom_site_fract_z
Si Si1 0.126751 0.450116 0.957579
Si Si2 0.529966 0.277358 0.656932
Si Si3 0.129112 0.820541 0.602533
Si Si4 0.718777 0.071055 0.362787
Si Si5 0.121470 0.016207 0.196915
Si Si6 0.405082 0.546814 0.184480
Si Si7 0.784556 0.330149 0.950341
Si Si8 0.401536 0.174461 0.576585
O O1 0.153310 0.538169 0.063631
O O2 0.167870 0.206920 0.041812
O O3 0.170147 0.585310 0.731053
O O4 0.000000 0.500000 0.000000
O O5 0.500000 0.500000 0.500000
O O6 0.630396 0.136471 0.542483
O O7 0.566790 0.287736 0.799349
O O8 0.429032 0.199466 0.724416
O O9 0.170065 0.957084 0.630883
O O10 0.164513 0.874358 0.376980
O O11 0.001977 0.884522 0.698325
O O12 0.701893 0.892726 0.352176
O O13 0.708698 0.260953 0.170858
O O14 0.136013 0.872961 0.097924
O O15 0.295686 0.579906 0.164230
O O16 0.403989 0.368253 0.386236
O O17 0.500000 0.500000 0.000000
O O18 0.500000 0.000000 0.500000
#
# Coordination Sequence:
#
# PCOD9101300 Si02
#       8
#     2   2   2   2   2   2   2   2
#     4   9  21  41  63  90 128 168 212 261 319 380
#     4   9  18  36  58  78 118 159 193 251 315 371
#     4   9  20  39  65  87 129 170 206 268 321 378
#     4  10  20  38  58  86 121 157 210 252 317 380
#     4  10  21  42  63  92 129 166 215 267 321 373
#     4  11  22  39  62  88 125 159 205 268 310 376
#     4  11  23  40  63  94 126 160 219 267 313 382
#     4   9  19  37  59  84 117 161 204 246 315 384
#
# _framework density 21.877794999999999
#
# number of rings (size 3 to 8) (size 9 to 14) (size 15 to 20)
#    0.000    2.250    0.000    3.000    1.750    4.500 
#   13.500    8.750    0.000    0.000    0.000    0.000 
#    0.000    0.000    0.000    0.000    0.000    0.000 
#
# Total GULP energy -89144.997400 kJ/mol
# GULP energy per Si atom -5571.562338 kJ/mol
# Density = 2.182800 g / cm^3
# Si number density = 21.877795 Si / 1000 Ang^3
#
#
#
# Elastic Constant Matrix: (Units=GPa)
#
#
# Indices 1 2 3 4 5 6 
#
# 1 141.8928 37.2515 55.3957 -6.1458 23.5712 45.4119
# 2 37.2515 69.9250 37.0790 1.9416 8.4278 27.8466
# 3 55.3957 37.0790 81.6086 -0.6733 13.9239 12.2736
# 4 -6.1458 1.9416 -0.6733 25.9274 6.5762 3.8871
# 5 23.5712 8.4278 13.9239 6.5762 33.1927 1.4604
# 6 45.4119 27.8466 12.2736 3.8871 1.4604 39.2488
#
#
#
# Elastic Compliance Matrix: (Units=1/GPa)
#
#
# Indices 1 2 3 4 5 6 
#
# 1 0.019921 0.005807 -0.010263 0.010846 -0.012384 -0.024573
# 2 0.005807 0.026945 -0.011808 0.003867 -0.005796 -0.022310
# 3 -0.010263 -0.011808 0.022358 -0.003240 0.000953 0.013545
# 4 0.010846 0.003867 -0.003240 0.047567 -0.015939 -0.018397
# 5 -0.012384 -0.005796 0.000953 -0.015939 0.042353 0.018145
# 6 -0.024573 -0.022310 0.013545 -0.018397 0.018145 0.066650
#
#
# Mechanical properties :
#
#
# Convention : Reuss Voigt Hill
#
# Bulk Modulus (GPa) = 27.25034 61.43096 44.34065
# Shear Modulus (GPa) = 18.48057 30.58712 24.53384
#
# Velocity S-wave (km/s) = 2.90956 3.74316 3.35237
# Velocity P-wave (km/s) = 4.87546 6.84264 5.94104
#
# Compressibility (1/GPa) = 0.03669678
#
# Stress axis : x y z
#
# Youngs Moduli (GPa) = 50.19793 37.11267 44.72626
#
# Poissons Ratio (x) = -0.21550 0.45901
# Poissons Ratio (y) = -0.29148 0.52812
# Poissons Ratio (z) = 0.51516 0.43822
#
# Static dielectric constant tensor:
#      x y z
#    x 1.843930 -0.005860 0.006820 
#    y -0.005860 1.834200 -0.020790 
#    z 0.006820 -0.020790 1.815780 
# 
# From -- ./inp_files/294446.got.cif
#   From: 2010.05.17/outbox.cif.g08.bks.cpg/sg2_148_cif.got.tgz:294446.got - 2010.06.03 11:33:40.
