data_PCOD9101340
_publ_section_title
;
Structure prediction by ZEFSAII (Michael W. Deem and Ramdas Pophale) SiO2 
 PCOD9101340
Probable space group: P -1
;
_chemical_formula_sum "Si O2"
_cell_formula_units_Z 14
_cell_length_a 14.074400
_cell_length_b 9.173239
_cell_length_c 9.263939
_cell_angle_alpha 84.412883
_cell_angle_beta 28.713541
_cell_angle_gamma 94.451725
_cell_volume 537.629321
_symmetry_space_group_name_H-M "P -1"
_symmetry_group_IT_number 2
_symmetry_cell_setting 'triclinic'
loop_
_space_group_symop_operation_xyz
x,y,z
-x,-y,-z
loop_
_atom_site_type_symbol
_atom_site_label
_atom_site_fract_x
_atom_site_fract_y
_atom_site_fract_z
Si Si1 0.321813 0.391808 0.891847
Si Si2 0.897674 0.913019 0.412700
Si Si3 0.866884 0.358864 0.531036
Si Si4 0.530963 0.622774 0.820011
Si Si5 0.765039 0.141271 0.407598
Si Si6 0.886407 0.412649 0.017781
Si Si7 0.692720 0.945723 0.991722
O O1 0.502152 0.513931 0.731702
O O2 0.356161 0.226784 0.854378
O O3 0.085603 0.337313 0.287548
O O4 0.278229 0.500647 0.814365
O O5 0.774012 0.937749 0.720398
O O6 0.921643 0.054307 0.256033
O O7 0.741537 0.764388 0.553656
O O8 0.125571 0.932578 0.169661
O O9 0.680034 0.330397 0.894046
O O10 0.776454 0.253844 0.519903
O O11 0.954831 0.535114 0.333629
O O12 0.500000 0.500000 0.000000
O O13 0.813425 0.236902 0.185521
O O14 0.526812 0.026298 0.726244
O O15 0.000000 0.500000 0.000000
#
# Coordination Sequence:
#
# PCOD9101340 Si02
#       7
#     2   2   2   2   2   2   2
#     4  10  20  38  58  90 115 153 196 235 293 346
#     4  11  23  36  56  89 123 146 195 242 294 348
#     4   9  19  36  60  86 115 150 190 246 283 346
#     4  12  22  37  56  87 121 152 192 243 295 346
#     4  11  19  38  62  87 115 158 189 241 296 337
#     4   8  18  35  60  86 116 149 199 238 285 342
#     4  11  21  36  60  89 120 148 197 241 288 345
#
# _framework density 26.040248999999999
#
# number of rings (size 3 to 8) (size 9 to 14) (size 15 to 20)
#    0.857    0.857    4.286    0.857    0.000    0.571 
#    2.571    2.143    0.000    1.714    0.000    0.000 
#    0.000    0.000    0.000    0.000    0.000    0.000 
#
# Total GULP energy -78236.177963 kJ/mol
# GULP energy per Si atom -5588.298426 kJ/mol
# Density = 2.598098 g / cm^3
# Si number density = 26.040249 Si / 1000 Ang^3
#
#
#
# Elastic Constant Matrix: (Units=GPa)
#
#
# Indices 1 2 3 4 5 6 
#
# 1 123.1315 38.4455 31.2505 -18.7073 -24.6948 -7.3369
# 2 38.4455 69.2673 25.3190 -23.3727 2.6019 -10.7939
# 3 31.2505 25.3190 92.5343 -13.9607 -18.6923 23.9879
# 4 -18.7073 -23.3727 -13.9607 39.9579 -1.5679 -2.8916
# 5 -24.6948 2.6019 -18.6923 -1.5679 50.0354 -14.3117
# 6 -7.3369 -10.7939 23.9879 -2.8916 -14.3117 46.6007
#
#
#
# Elastic Compliance Matrix: (Units=1/GPa)
#
#
# Indices 1 2 3 4 5 6 
#
# 1 0.012120 -0.004600 -0.002140 0.002801 0.006704 0.004177
# 2 -0.004600 0.023947 -0.006101 0.010140 -0.003311 0.007576
# 3 -0.002140 -0.006101 0.016219 0.000533 0.002694 -0.009238
# 4 0.002801 0.010140 0.000533 0.033014 0.003721 0.005707
# 5 0.006704 -0.003311 0.002694 0.003721 0.026686 0.007328
# 6 0.004177 0.007576 -0.009238 0.005707 0.007328 0.031232
#
#
# Mechanical properties :
#
#
# Convention : Reuss Voigt Hill
#
# Bulk Modulus (GPa) = 37.59265 52.77368 45.18317
# Shear Modulus (GPa) = 28.12649 39.97999 34.05324
#
# Velocity S-wave (km/s) = 3.29008 3.92256 3.62016
# Velocity P-wave (km/s) = 5.37592 6.38948 5.90449
#
# Compressibility (1/GPa) = 0.02660094
#
# Stress axis : x y z
#
# Youngs Moduli (GPa) = 82.50852 41.75917 61.65760
#
# Poissons Ratio (x) = 0.19211 0.13197
# Poissons Ratio (y) = 0.37957 0.37620
# Poissons Ratio (z) = 0.17660 0.25479
#
# Static dielectric constant tensor:
#      x y z
#    x 2.000180 -0.000890 0.046280 
#    y -0.000890 2.148950 0.077980 
#    z 0.046280 0.077980 2.148730 
# 
# From -- ./inp_files/292995.got.cif
#   From: 2010.05.17/outbox.cif.g08.bks.cpg/sg2_147_cif.got.tgz:292995.got - 2010.06.03 11:33:40.
