data_PCOD9101585
_publ_section_title
;
Structure prediction by ZEFSAII (Michael W. Deem and Ramdas Pophale) SiO2 
 PCOD9101585
Probable space group: P -1
;
_chemical_formula_sum "Si O2"
_cell_formula_units_Z 16
_cell_length_a 14.503292
_cell_length_b 12.024752
_cell_length_c 10.552347
_cell_angle_alpha 39.212142
_cell_angle_beta 44.936314
_cell_angle_gamma 41.765449
_cell_volume 737.102689
_symmetry_space_group_name_H-M "P -1"
_symmetry_group_IT_number 2
_symmetry_cell_setting 'triclinic'
loop_
_space_group_symop_operation_xyz
x,y,z
-x,-y,-z
loop_
_atom_site_type_symbol
_atom_site_label
_atom_site_fract_x
_atom_site_fract_y
_atom_site_fract_z
Si Si1 0.571832 0.859523 0.430928
Si Si2 0.621044 0.083801 0.969914
Si Si3 0.184991 0.233446 0.543758
Si Si4 0.099106 0.910944 0.358080
Si Si5 0.359280 0.702974 0.448420
Si Si6 0.852372 0.358278 0.820923
Si Si7 0.817689 0.096822 0.308116
Si Si8 0.589305 0.453528 0.824712
O O1 0.739378 0.784907 0.378760
O O2 0.548345 0.664998 0.618096
O O3 0.500000 0.000000 0.500000
O O4 0.558314 0.963955 0.218388
O O5 0.799038 0.990014 0.879822
O O6 0.592071 0.140328 0.800828
O O7 0.562716 0.295143 0.910658
O O8 0.199697 0.411601 0.302031
O O9 0.019276 0.280757 0.689506
O O10 0.249680 0.035823 0.573998
O O11 0.232599 0.713012 0.461777
O O12 0.000000 0.000000 0.500000
O O13 0.975788 0.947694 0.342154
O O14 0.500000 0.500000 0.500000
O O15 0.279053 0.777301 0.593176
O O16 0.756024 0.353930 0.798936
O O17 0.833347 0.235127 0.062945
O O18 0.500000 0.500000 0.000000
#
# Coordination Sequence:
#
# PCOD9101585 Si02
#       8
#     2   2   2   2   2   2   2   2
#     4  11  22  36  58  89 123 157 197 246 300 367
#     4  10  20  38  60  83 124 154 202 247 299 357
#     4  10  22  37  57  94 125 153 200 252 304 364
#     4   8  18  36  61  87 114 161 202 243 299 356
#     4   9  22  36  61  88 116 161 206 249 298 359
#     4  10  22  36  60  93 124 154 200 253 303 362
#     4  11  19  37  65  85 120 162 201 242 307 362
#     4  11  22  36  60  91 121 162 197 239 315 364
#
# _framework density 21.706609
#
# number of rings (size 3 to 8) (size 9 to 14) (size 15 to 20)
#    0.750    1.250    1.250    2.625    1.750    0.000 
#    0.000    1.250    0.000    5.250    0.000    0.000 
#    0.000    0.000    0.000    0.000    0.000    0.000 
#
# Total GULP energy -89174.271490 kJ/mol
# GULP energy per Si atom -5573.391968 kJ/mol
# Density = 2.165720 g / cm^3
# Si number density = 21.706609 Si / 1000 Ang^3
#
#
#
# Elastic Constant Matrix: (Units=GPa)
#
#
# Indices 1 2 3 4 5 6 
#
# 1 82.3378 17.1240 31.3913 -18.9547 15.4026 -11.9094
# 2 17.1240 89.8548 34.8533 -3.4313 4.3370 -8.9746
# 3 31.3913 34.8533 146.7863 -14.9989 11.1239 14.9678
# 4 -18.9547 -3.4313 -14.9989 29.4184 -4.7871 -1.8954
# 5 15.4026 4.3370 11.1239 -4.7871 24.1845 0.3778
# 6 -11.9094 -8.9746 14.9678 -1.8954 0.3778 35.2890
#
#
#
# Elastic Compliance Matrix: (Units=1/GPa)
#
#
# Indices 1 2 3 4 5 6 
#
# 1 0.018276 -0.000810 -0.002919 0.009323 -0.008428 0.007791
# 2 -0.000810 0.013050 -0.003401 -0.000516 -0.000432 0.004465
# 3 -0.002919 -0.003401 0.009095 0.001792 -0.001272 -0.005598
# 4 0.009323 -0.000516 0.001792 0.041376 0.001451 0.004462
# 5 -0.008428 -0.000432 -0.001272 0.001451 0.047711 -0.002848
# 6 0.007791 0.004465 -0.005598 0.004462 -0.002848 0.034747
#
#
# Mechanical properties :
#
#
# Convention : Reuss Voigt Hill
#
# Bulk Modulus (GPa) = 38.22438 53.96845 46.09642
# Shear Modulus (GPa) = 26.70455 33.48572 30.09513
#
# Velocity S-wave (km/s) = 3.51130 3.93192 3.72755
# Velocity P-wave (km/s) = 5.83838 6.74759 6.30939
#
# Compressibility (1/GPa) = 0.02616131
#
# Stress axis : x y z
#
# Youngs Moduli (GPa) = 54.71558 76.63128 109.95453
#
# Poissons Ratio (x) = 0.06204 0.32100
# Poissons Ratio (y) = 0.04430 0.37391
# Poissons Ratio (z) = 0.15974 0.26059
#
# Static dielectric constant tensor:
#      x y z
#    x 1.844610 -0.049040 -0.004950 
#    y -0.049040 1.870480 0.007410 
#    z -0.004950 0.007410 1.794210 
# 
# From -- ./inp_files/465450.got.cif
#   From: 2010.05.17/outbox.cif.g08.bks.cpg/sg2_233_cif.got.tgz:465450.got - 2010.06.03 11:33:40.
