data_PCOD9101351
_publ_section_title
;
Structure prediction by ZEFSAII (Michael W. Deem and Ramdas Pophale) SiO2 
 PCOD9101351
Probable space group: P -1
;
_chemical_formula_sum "Si O2"
_cell_formula_units_Z 12
_cell_length_a 11.757208
_cell_length_b 14.138768
_cell_length_c 9.344570
_cell_angle_alpha 65.077912
_cell_angle_beta 51.683630
_cell_angle_gamma 29.712254
_cell_volume 576.039296
_symmetry_space_group_name_H-M "P -1"
_symmetry_group_IT_number 2
_symmetry_cell_setting 'triclinic'
loop_
_space_group_symop_operation_xyz
x,y,z
-x,-y,-z
loop_
_atom_site_type_symbol
_atom_site_label
_atom_site_fract_x
_atom_site_fract_y
_atom_site_fract_z
Si Si1 0.613961 0.722068 0.700979
Si Si2 0.718755 0.978747 0.013584
Si Si3 0.476907 0.925472 0.392533
Si Si4 0.333032 0.310857 0.867699
Si Si5 0.958018 0.378056 0.467948
Si Si6 0.741791 0.425584 0.305125
O O1 0.568535 0.829653 0.536156
O O2 0.861019 0.625306 0.662386
O O3 0.713011 0.554356 0.658582
O O4 0.345685 0.891134 0.903830
O O5 0.016961 0.783851 0.832965
O O6 0.493528 0.137125 0.962840
O O7 0.651082 0.913469 0.193451
O O8 0.526380 0.801884 0.321930
O O9 0.163843 0.159783 0.493821
O O10 0.371492 0.409307 0.807504
O O11 0.000000 0.500000 0.000000
O O12 0.867422 0.403457 0.363516
O O13 0.500000 0.500000 0.500000
#
# Coordination Sequence:
#
# PCOD9101351 Si02
#       6
#     2   2   2   2   2   2
#     4  10  22  35  66  96 129 158 200 267 325 365
#     4  11  23  38  61  98 128 160 213 262 309 370
#     4  11  20  36  65  99 127 158 200 266 324 370
#     4  12  22  37  68  96 125 160 213 266 314 366
#     4  10  20  38  58  91 125 161 203 252 311 371
#     4  12  26  43  63  90 130 175 215 254 307 376
#
# _framework density 20.831911999999999
#
# number of rings (size 3 to 8) (size 9 to 14) (size 15 to 20)
#    0.000    1.000    5.000    4.500    2.333    2.000 
#    0.000    0.833    0.000    7.000    0.000    0.000 
#    0.000    0.000    0.000    0.000    0.000    0.000 
#
# Total GULP energy -66980.610794 kJ/mol
# GULP energy per Si atom -5581.717566 kJ/mol
# Density = 2.078450 g / cm^3
# Si number density = 20.831912 Si / 1000 Ang^3
#
#
#
# Elastic Constant Matrix: (Units=GPa)
#
#
# Indices 1 2 3 4 5 6 
#
# 1 36.8888 31.2393 45.3494 14.4320 23.8770 5.6049
# 2 31.2393 145.2657 64.9983 34.1863 8.2702 25.6591
# 3 45.3494 64.9983 111.2906 28.4367 16.3504 7.5928
# 4 14.4320 34.1863 28.4367 40.4609 16.4760 24.2828
# 5 23.8770 8.2702 16.3504 16.4760 39.7962 4.1900
# 6 5.6049 25.6591 7.5928 24.2828 4.1900 30.0216
#
#
#
# Elastic Compliance Matrix: (Units=1/GPa)
#
#
# Indices 1 2 3 4 5 6 
#
# 1 0.108857 -0.006194 -0.038371 0.030070 -0.058447 -0.021489
# 2 -0.006194 0.011309 -0.003495 -0.003681 0.004887 -0.005331
# 3 -0.038371 -0.003495 0.028172 -0.021809 0.019310 0.017970
# 4 0.030070 -0.003681 -0.021809 0.082223 -0.036208 -0.058404
# 5 -0.058447 0.004887 0.019310 -0.036208 0.063897 0.022220
# 6 -0.021489 -0.005331 0.017970 -0.058404 0.022220 0.081471
#
#
# Mechanical properties :
#
#
# Convention : Reuss Voigt Hill
#
# Bulk Modulus (GPa) = 19.15027 64.06878 41.60952
# Shear Modulus (GPa) = 10.21545 32.17960 21.19753
#
# Velocity S-wave (km/s) = 2.21684 3.93456 3.19337
# Velocity P-wave (km/s) = 3.97055 7.17377 5.79777
#
# Compressibility (1/GPa) = 0.05221859
#
# Stress axis : x y z
#
# Youngs Moduli (GPa) = 9.18636 88.42276 35.49684
#
# Poissons Ratio (x) = 0.54771 1.36203
# Poissons Ratio (y) = 0.05690 0.12406
# Poissons Ratio (z) = 0.35249 0.30903
#
# Static dielectric constant tensor:
#      x y z
#    x 1.781240 0.025750 0.042660 
#    y 0.025750 1.808670 0.003750 
#    z 0.042660 0.003750 1.778140 
# 
# From -- ./inp_files/272072.got.cif
#   From: 2010.05.17/outbox.cif.g08.bks.cpg/sg2_137_cif.got.tgz:272072.got - 2010.06.03 11:33:40.
