data_PCOD9101246
_publ_section_title
;
Structure prediction by ZEFSAII (Michael W. Deem and Ramdas Pophale) SiO2 
 PCOD9101246
Probable space group: P -1
;
_chemical_formula_sum "Si O2"
_cell_formula_units_Z 16
_cell_length_a 12.228196
_cell_length_b 5.001346
_cell_length_c 12.360353
_cell_angle_alpha 95.999117
_cell_angle_beta 77.381939
_cell_angle_gamma 98.667894
_cell_volume 727.234205
_symmetry_space_group_name_H-M "P -1"
_symmetry_group_IT_number 2
_symmetry_cell_setting 'triclinic'
loop_
_space_group_symop_operation_xyz
x,y,z
-x,-y,-z
loop_
_atom_site_type_symbol
_atom_site_label
_atom_site_fract_x
_atom_site_fract_y
_atom_site_fract_z
Si Si1 0.140677 0.019983 0.262075
Si Si2 0.469683 0.891982 0.759663
Si Si3 0.419429 0.729676 0.539072
Si Si4 0.828030 0.303232 0.068084
Si Si5 0.318103 0.274460 0.921626
Si Si6 0.957372 0.520546 0.830429
Si Si7 0.298400 0.787564 0.359179
Si Si8 0.644035 0.666820 0.840996
O O1 0.050319 0.768426 0.237543
O O2 0.188804 0.938085 0.365239
O O3 0.088388 0.278439 0.237879
O O4 0.263823 0.061412 0.176978
O O5 0.393589 0.759825 0.672362
O O6 0.519348 0.710813 0.832212
O O7 0.414293 0.132910 0.835993
O O8 0.589018 0.007910 0.682758
O O9 0.500000 0.500000 0.500000
O O10 0.316772 0.691642 0.473875
O O11 0.500000 0.000000 0.500000
O O12 0.730203 0.486778 0.121881
O O13 0.924835 0.349111 0.139234
O O14 0.780288 0.986767 0.055439
O O15 0.879503 0.437339 0.950084
O O16 0.354865 0.395977 0.035947
O O17 0.308594 0.541820 0.261817
#
# Coordination Sequence:
#
# PCOD9101246 Si02
#       8
#     2   2   2   2   2   2   2   2
#     4  11  19  33  56  85 111 141 183 237 282 329
#     4  10  24  36  56  81 118 158 186 223 276 332
#     4  10  20  38  58  80 109 148 196 237 269 313
#     4  11  23  37  56  79 110 156 191 232 276 335
#     4  12  24  37  53  84 120 154 186 222 275 347
#     4  11  20  37  57  79 111 147 189 236 287 323
#     4  10  21  36  60  85 114 149 190 236 274 326
#     4  11  20  35  53  84 116 153 181 219 271 338
#
# _framework density 22.001162999999998
#
# number of rings (size 3 to 8) (size 9 to 14) (size 15 to 20)
#    0.000    1.250    5.000    1.125    3.500    2.500 
#    0.000    0.000    0.000    0.000    0.000    5.250 
#    0.000    0.000    0.000    0.000    0.000    0.000 
#
# Total GULP energy -89205.570934 kJ/mol
# GULP energy per Si atom -5575.348183 kJ/mol
# Density = 2.195109 g / cm^3
# Si number density = 22.001163 Si / 1000 Ang^3
#
#
#
# Elastic Constant Matrix: (Units=GPa)
#
#
# Indices 1 2 3 4 5 6 
#
# 1 74.1222 20.5884 36.8912 -5.9920 33.8041 -12.1988
# 2 20.5884 77.6088 32.9380 6.6130 25.0521 0.1332
# 3 36.8912 32.9380 94.1738 3.9851 38.5962 -7.9883
# 4 -5.9920 6.6130 3.9851 22.7184 -1.5934 3.2044
# 5 33.8041 25.0521 38.5962 -1.5934 29.6892 -5.5731
# 6 -12.1988 0.1332 -7.9883 3.2044 -5.5731 32.7411
#
#
#
# Elastic Compliance Matrix: (Units=1/GPa)
#
#
# Indices 1 2 3 4 5 6 
#
# 1 0.030899 0.003517 0.004655 0.002574 -0.043117 0.005043
# 2 0.003517 0.019216 0.001230 -0.006220 -0.022468 -0.001683
# 3 0.004655 0.001230 0.024366 -0.006328 -0.038012 0.001823
# 4 0.002574 -0.006220 -0.006328 0.048951 0.012568 -0.003211
# 5 -0.043117 -0.022468 -0.038012 0.012568 0.151702 -0.000655
# 6 0.005043 -0.001683 0.001823 -0.003211 -0.000655 0.033076
#
#
# Mechanical properties :
#
#
# Convention : Reuss Voigt Hill
#
# Bulk Modulus (GPa) = 10.71967 47.41554 29.06761
# Shear Modulus (GPa) = 15.60068 27.39555 21.49811
#
# Velocity S-wave (km/s) = 2.66575 3.53255 3.12931
# Velocity P-wave (km/s) = 3.78918 6.18358 5.12809
#
# Compressibility (1/GPa) = 0.09328641
#
# Stress axis : x y z
#
# Youngs Moduli (GPa) = 32.36338 52.04116 41.04078
#
# Poissons Ratio (x) = -0.18305 -0.19106
# Poissons Ratio (y) = -0.11383 -0.05048
# Poissons Ratio (z) = -0.15067 -0.06402
#
# Static dielectric constant tensor:
#      x y z
#    x 1.855000 0.003740 0.035570 
#    y 0.003740 1.882300 -0.057100 
#    z 0.035570 -0.057100 1.878870 
# 
# From -- ./inp_files/409466.got.cif
#   From: 2010.05.17/outbox.cif.g08.bks.cpg/sg2_205_cif.got.tgz:409466.got - 2010.06.03 11:33:40.
