data_PCOD9101135
_publ_section_title
;
Structure prediction by ZEFSAII (Michael W. Deem and Ramdas Pophale) SiO2 
 PCOD9101135
Probable space group: P -1
;
_chemical_formula_sum "Si O2"
_cell_formula_units_Z 16
_cell_length_a 17.097276
_cell_length_b 17.990144
_cell_length_c 8.244823
_cell_angle_alpha 50.215003
_cell_angle_beta 53.235907
_cell_angle_gamma 24.146078
_cell_volume 796.309377
_symmetry_space_group_name_H-M "P -1"
_symmetry_group_IT_number 2
_symmetry_cell_setting 'triclinic'
loop_
_space_group_symop_operation_xyz
x,y,z
-x,-y,-z
loop_
_atom_site_type_symbol
_atom_site_label
_atom_site_fract_x
_atom_site_fract_y
_atom_site_fract_z
Si Si1 0.097650 0.665051 0.043571
Si Si2 0.127510 0.307318 0.274444
Si Si3 0.511131 0.056723 0.246501
Si Si4 0.474911 0.363331 0.177863
Si Si5 0.818110 0.224858 0.435839
Si Si6 0.567062 0.475279 0.696374
Si Si7 0.765546 0.968682 0.257750
Si Si8 0.864720 0.697145 0.108294
O O1 0.292896 0.472537 0.161273
O O2 0.954913 0.837184 0.109842
O O3 0.992566 0.660964 0.107554
O O4 0.138856 0.708834 0.793537
O O5 0.300385 0.237204 0.182464
O O6 0.175804 0.173387 0.508654
O O7 0.941035 0.522593 0.266920
O O8 0.117751 0.291245 0.119238
O O9 0.500000 0.000000 0.500000
O O10 0.612772 0.066531 0.171762
O O11 0.652500 0.888830 0.174264
O O12 0.414002 0.451986 0.306042
O O13 0.657051 0.138560 0.263771
O O14 0.532894 0.408197 0.938693
O O15 0.748026 0.303715 0.595683
O O16 0.627357 0.345207 0.417199
O O17 0.000000 0.000000 0.500000
#
# Coordination Sequence:
#
# PCOD9101135 Si02
#       8
#     2   2   2   2   2   2   2   2
#     4  10  22  36  55  82 110 144 179 223 275 315
#     4  10  21  36  56  79 107 146 182 223 274 317
#     4   9  19  35  55  77 104 143 181 218 269 318
#     4  10  20  38  56  79 113 141 181 226 261 319
#     4  10  20  38  60  83 112 142 177 220 269 322
#     4   9  21  37  58  83 108 146 180 214 271 323
#     4  10  21  35  56  82 107 142 186 223 266 321
#     4  10  21  37  54  79 112 139 181 229 268 325
#
# _framework density 20.092693000000001
#
# number of rings (size 3 to 8) (size 9 to 14) (size 15 to 20)
#    0.000    2.250    0.000    1.875    0.000    9.500 
#    0.000   10.000    0.000    0.000    0.000    0.000 
#    0.000    0.000    0.000    0.000    0.000    0.000 
#
# Total GULP energy -89308.577904 kJ/mol
# GULP energy per Si atom -5581.786119 kJ/mol
# Density = 2.004696 g / cm^3
# Si number density = 20.092693 Si / 1000 Ang^3
#
#
#
# Elastic Constant Matrix: (Units=GPa)
#
#
# Indices 1 2 3 4 5 6 
#
# 1 34.9316 11.4431 14.5058 1.8200 18.0276 13.7732
# 2 11.4431 112.9007 18.1531 14.8283 13.0298 23.1697
# 3 14.5058 18.1531 37.6369 11.3916 15.1540 6.7327
# 4 1.8200 14.8283 11.3916 28.4266 -0.2659 4.6260
# 5 18.0276 13.0298 15.1540 -0.2659 16.7410 9.7339
# 6 13.7732 23.1697 6.7327 4.6260 9.7339 28.5802
#
#
#
# Elastic Compliance Matrix: (Units=1/GPa)
#
#
# Indices 1 2 3 4 5 6 
#
# 1 0.069349 0.004108 0.007475 -0.008644 -0.078807 -0.010272
# 2 0.004108 0.011774 -0.001177 -0.004753 -0.008111 -0.007716
# 3 0.007475 -0.001177 0.055314 -0.024217 -0.063283 0.009794
# 4 -0.008644 -0.004753 -0.024217 0.049607 0.040407 -0.008068
# 5 -0.078807 -0.008111 -0.063283 0.040407 0.222034 -0.022700
# 6 -0.010272 -0.007716 0.009794 -0.008068 -0.022700 0.052924
#
#
# Mechanical properties :
#
#
# Convention : Reuss Voigt Hill
#
# Bulk Modulus (GPa) = 6.35941 30.40813 18.38377
# Shear Modulus (GPa) = 10.15007 24.17405 17.16206
#
# Velocity S-wave (km/s) = 2.25002 3.47237 2.92575
# Velocity P-wave (km/s) = 3.14993 5.58957 4.53681
#
# Compressibility (1/GPa) = 0.15724729
#
# Stress axis : x y z
#
# Youngs Moduli (GPa) = 14.41982 84.93230 18.07853
#
# Poissons Ratio (x) = -0.34887 -0.13513
# Poissons Ratio (y) = -0.05923 0.02129
# Poissons Ratio (z) = -0.10779 0.10000
#
# Static dielectric constant tensor:
#      x y z
#    x 1.729670 -0.006980 0.002790 
#    y -0.006980 1.705300 0.000220 
#    z 0.002790 0.000220 1.693270 
# 
# From -- ./inp_files/45046.got.cif
#   From: 2010.05.17/outbox.cif.g08.bks.cpg/sg2_23_cif.got.tgz:45046.got - 2010.06.03 11:33:40.
