data_PCOD9101855
_publ_section_title
;
Structure prediction by ZEFSAII (Michael W. Deem and Ramdas Pophale) SiO2 
 PCOD9101855
Probable space group: P -1
;
_chemical_formula_sum "Si O2"
_cell_formula_units_Z 16
_cell_length_a 17.159229
_cell_length_b 8.086974
_cell_length_c 12.962805
_cell_angle_alpha 82.486752
_cell_angle_beta 141.209736
_cell_angle_gamma 124.604487
_cell_volume 738.621866
_symmetry_space_group_name_H-M "P -1"
_symmetry_group_IT_number 2
_symmetry_cell_setting 'triclinic'
loop_
_space_group_symop_operation_xyz
x,y,z
-x,-y,-z
loop_
_atom_site_type_symbol
_atom_site_label
_atom_site_fract_x
_atom_site_fract_y
_atom_site_fract_z
Si Si1 0.382041 0.034627 0.068860
Si Si2 0.001513 0.143689 0.901122
Si Si3 0.666216 0.689081 0.864177
Si Si4 0.286070 0.719637 0.187490
Si Si5 0.642493 0.892882 0.630051
Si Si6 0.894516 0.224854 0.389802
Si Si7 0.576278 0.729936 0.201171
Si Si8 0.706714 0.513199 0.251485
O O1 0.242688 0.890307 0.840008
O O2 0.345546 0.850450 0.126460
O O3 0.334579 0.157923 0.070214
O O4 0.596456 0.270072 0.230757
O O5 0.785821 0.978280 0.682979
O O6 0.129631 0.191866 0.940805
O O7 0.108975 0.420298 0.021915
O O8 0.000000 0.000000 0.000000
O O9 0.616294 0.717244 0.699514
O O10 0.511702 0.406404 0.769802
O O11 0.450160 0.770336 0.398903
O O12 0.267836 0.863122 0.230788
O O13 0.000000 0.500000 0.500000
O O14 0.070183 0.280074 0.543651
O O15 0.753814 0.029233 0.351792
O O16 0.653384 0.639474 0.232559
O O17 0.400481 0.611958 0.958444
#
# Coordination Sequence:
#
# PCOD9101855 Si02
#       8
#     2   2   2   2   2   2   2   2
#     4   9  21  40  58  82 116 153 194 238 283 339
#     4  10  21  36  57  86 117 149 193 242 284 333
#     4   9  19  38  60  84 116 151 192 242 285 334
#     4  10  20  38  61  84 118 155 192 235 283 342
#     4   9  20  39  61  85 115 156 192 231 291 342
#     4  11  23  37  59  87 117 152 190 235 291 347
#     4   9  19  38  60  82 113 149 188 236 286 339
#     4   9  19  38  60  82 111 148 190 236 286 341
#
# _framework density 21.661964000000001
#
# number of rings (size 3 to 8) (size 9 to 14) (size 15 to 20)
#    0.000    2.500    0.000    1.500    0.000    7.000 
#    0.000   17.500    0.000    0.000    0.000    0.000 
#    0.000    0.000    0.000    0.000    0.000    0.000 
#
# Total GULP energy -89358.901426 kJ/mol
# GULP energy per Si atom -5584.931339 kJ/mol
# Density = 2.161266 g / cm^3
# Si number density = 21.661964 Si / 1000 Ang^3
#
#
#
# Elastic Constant Matrix: (Units=GPa)
#
#
# Indices 1 2 3 4 5 6 
#
# 1 79.7487 43.7116 17.5395 -2.4147 17.6442 16.8555
# 2 43.7116 138.7132 36.2966 16.7756 3.1813 30.2243
# 3 17.5395 36.2966 34.9258 4.1995 -2.3363 13.4261
# 4 -2.4147 16.7756 4.1995 28.0857 -5.7918 6.4416
# 5 17.6442 3.1813 -2.3363 -5.7918 22.4251 5.6330
# 6 16.8555 30.2243 13.4261 6.4416 5.6330 24.0313
#
#
#
# Elastic Compliance Matrix: (Units=1/GPa)
#
#
# Indices 1 2 3 4 5 6 
#
# 1 0.019956 -0.004114 -0.005915 0.002781 -0.014284 -0.002915
# 2 -0.004114 0.012738 -0.007399 -0.004696 0.001479 -0.008089
# 3 -0.005915 -0.007399 0.046566 0.004262 0.016043 -0.017465
# 4 0.002781 -0.004696 0.004262 0.043890 0.013619 -0.013383
# 5 -0.014284 0.001479 0.016043 0.013619 0.065804 -0.019879
# 6 -0.002915 -0.008089 -0.017465 -0.013383 -0.019879 0.071835
#
#
# Mechanical properties :
#
#
# Convention : Reuss Voigt Hill
#
# Bulk Modulus (GPa) = 22.52058 49.83148 36.17603
# Shear Modulus (GPa) = 16.10575 25.29775 20.70175
#
# Velocity S-wave (km/s) = 2.72968 3.42108 3.09475
# Velocity P-wave (km/s) = 4.51152 6.21764 5.43199
#
# Compressibility (1/GPa) = 0.04440383
#
# Stress axis : x y z
#
# Youngs Moduli (GPa) = 50.11023 78.50372 21.47474
#
# Poissons Ratio (x) = 0.32299 0.12703
# Poissons Ratio (y) = 0.20617 0.15889
# Poissons Ratio (z) = 0.29641 0.58083
#
# Static dielectric constant tensor:
#      x y z
#    x 1.825600 -0.021840 0.005830 
#    y -0.021840 1.813440 -0.005420 
#    z 0.005830 -0.005420 1.767590 
# 
# From -- ./inp_files/462170.got.cif
#   From: 2010.05.17/outbox.cif.g08.bks.cpg/sg2_232_cif.got.tgz:462170.got - 2010.06.03 11:33:40.
