data_PCOD9101910
_publ_section_title
;
Structure prediction by ZEFSAII (Michael W. Deem and Ramdas Pophale) SiO2 
 PCOD9101910
Probable space group: P -1
;
_chemical_formula_sum "Si O2"
_cell_formula_units_Z 14
_cell_length_a 28.419467
_cell_length_b 27.516154
_cell_length_c 19.084350
_cell_angle_alpha 18.149673
_cell_angle_beta 162.381465
_cell_angle_gamma 170.085469
_cell_volume 758.961296
_symmetry_space_group_name_H-M "P -1"
_symmetry_group_IT_number 2
_symmetry_cell_setting 'triclinic'
loop_
_space_group_symop_operation_xyz
x,y,z
-x,-y,-z
loop_
_atom_site_type_symbol
_atom_site_label
_atom_site_fract_x
_atom_site_fract_y
_atom_site_fract_z
Si Si1 0.563810 0.975693 0.697484
Si Si2 0.381525 0.867767 0.733510
Si Si3 0.326559 0.463674 0.357607
Si Si4 0.175209 0.763871 0.838705
Si Si5 0.886445 0.992931 0.496755
Si Si6 0.226216 0.454557 0.004298
Si Si7 0.034353 0.546776 0.179013
O O1 0.423885 0.951613 0.597803
O O2 0.904153 0.250219 0.818275
O O3 0.500000 0.000000 0.500000
O O4 0.416060 0.678352 0.901994
O O5 0.628832 0.142790 0.757095
O O6 0.392868 0.688876 0.981681
O O7 0.085469 0.638865 0.667294
O O8 0.500000 0.500000 0.500000
O O9 0.585853 0.784432 0.318575
O O10 0.099192 0.391680 0.100791
O O11 0.145550 0.223568 0.491749
O O12 0.082239 0.643564 0.792884
O O13 0.079961 0.856784 0.598802
O O14 0.000000 0.500000 0.000000
O O15 0.500000 0.000000 0.000000
O O16 0.821951 0.765334 0.745332
#
# Coordination Sequence:
#
# PCOD9101910 Si02
#       7
#     2   2   2   2   2   2   2
#     4  10  20  38  61  87 117 142 171 226 311 378
#     4  10  21  35  56  85 116 137 185 237 287 346
#     4  12  25  33  56  79 118 159 197 233 300 323
#     4  12  23  42  56  75 110 168 216 243 262 317
#     4  12  23  41  53  82 116 158 203 243 274 333
#     4  10  21  35  58  85 120 137 186 230 296 348
#     4  12  21  37  55  80 114 157 201 235 271 324
#
# _framework density 18.446263999999999
#
# number of rings (size 3 to 8) (size 9 to 14) (size 15 to 20)
#    0.857    0.000    4.286    4.286    2.000    0.000 
#    0.000    0.000    0.000    0.000    0.000    6.000 
#    0.000    0.000    0.000    0.000    0.000    0.000 
#
# Total GULP energy -77961.101204 kJ/mol
# GULP energy per Si atom -5568.650086 kJ/mol
# Density = 1.840428 g / cm^3
# Si number density = 18.446264 Si / 1000 Ang^3
#
#
#
# Elastic Constant Matrix: (Units=GPa)
#
#
# Indices 1 2 3 4 5 6 
#
# 1 102.8653 30.3030 30.3845 -22.1634 -5.3119 -6.5783
# 2 30.3030 129.7828 18.3397 -12.4493 -1.4747 6.2348
# 3 30.3845 18.3397 26.6057 -11.7562 -5.7256 0.3085
# 4 -22.1634 -12.4493 -11.7562 20.7906 -1.4767 -0.4903
# 5 -5.3119 -1.4747 -5.7256 -1.4767 25.5365 -6.7259
# 6 -6.5783 6.2348 0.3085 -0.4903 -6.7259 27.3362
#
#
#
# Elastic Compliance Matrix: (Units=1/GPa)
#
#
# Indices 1 2 3 4 5 6 
#
# 1 0.016564 -0.001280 -0.013344 0.009631 0.002297 0.005167
# 2 -0.001280 0.008850 -0.004295 0.001351 -0.001319 -0.002578
# 3 -0.013344 -0.004295 0.069087 0.023286 0.014040 0.000861
# 4 0.009631 0.001351 0.023286 0.073429 0.013212 0.006314
# 5 0.002297 -0.001319 0.014040 0.013212 0.046748 0.012434
# 6 0.005167 -0.002578 0.000861 0.006314 0.012434 0.041576
#
#
# Mechanical properties :
#
#
# Convention : Reuss Voigt Hill
#
# Bulk Modulus (GPa) = 17.64872 46.36757 32.00815
# Shear Modulus (GPa) = 15.97544 26.74777 21.36161
#
# Velocity S-wave (km/s) = 2.94607 3.81207 3.40670
# Velocity P-wave (km/s) = 4.60009 6.67585 5.73270
#
# Compressibility (1/GPa) = 0.05666133
#
# Stress axis : x y z
#
# Youngs Moduli (GPa) = 60.37038 113.00059 14.47453
#
# Poissons Ratio (x) = 0.14466 0.19315
# Poissons Ratio (y) = 0.07728 0.06217
# Poissons Ratio (z) = 0.80561 0.48535
#
# Static dielectric constant tensor:
#      x y z
#    x 1.699440 0.016160 -0.003020 
#    y 0.016160 1.660810 -0.013420 
#    z -0.003020 -0.013420 1.656650 
# 
# From -- ./inp_files/579947.got.cif
#   From: 2010.05.17/outbox.cif.g08.bks.cpg/sg2_290_cif.got.tgz:579947.got - 2010.06.03 11:33:40.
