data_PCOD9101567
_publ_section_title
;
Structure prediction by ZEFSAII (Michael W. Deem and Ramdas Pophale) SiO2 
 PCOD9101567
Probable space group: P -1
;
_chemical_formula_sum "Si O2"
_cell_formula_units_Z 10
_cell_length_a 8.147816
_cell_length_b 10.764349
_cell_length_c 9.499565
_cell_angle_alpha 141.990230
_cell_angle_beta 90.940846
_cell_angle_gamma 70.401170
_cell_volume 436.996030
_symmetry_space_group_name_H-M "P -1"
_symmetry_group_IT_number 2
_symmetry_cell_setting 'triclinic'
loop_
_space_group_symop_operation_xyz
x,y,z
-x,-y,-z
loop_
_atom_site_type_symbol
_atom_site_label
_atom_site_fract_x
_atom_site_fract_y
_atom_site_fract_z
Si Si1 0.295523 0.195443 0.019046
Si Si2 0.679111 0.528271 0.493147
Si Si3 0.881459 0.394107 0.094821
Si Si4 0.339174 0.485220 0.072006
Si Si5 0.151236 0.867225 0.656523
O O1 0.331229 0.257441 0.229625
O O2 0.415378 0.251381 0.959882
O O3 0.071812 0.387192 0.144395
O O4 0.295760 0.957361 0.782927
O O5 0.500000 0.500000 0.500000
O O6 0.720746 0.522980 0.326029
O O7 0.854640 0.287674 0.354047
O O8 0.805481 0.501139 0.037425
O O9 0.954367 0.113559 0.843148
O O10 0.235075 0.701927 0.373943
O O11 0.500000 0.500000 0.000000
#
# Coordination Sequence:
#
# PCOD9101567 Si02
#       5
#     2   2   2   2   2
#     4   9  22  37  59  82 114 149 195 219 281 340
#     4  11  21  39  59  85 116 146 186 239 281 323
#     4  10  20  38  60  82 116 152 186 228 276 340
#     4  11  21  39  59  85 116 146 186 239 281 323
#     4   9  22  37  59  82 114 149 195 219 281 340
#
# _framework density 22.883503000000001
#
# number of rings (size 3 to 8) (size 9 to 14) (size 15 to 20)
#    1.200    0.800    0.000    4.800    0.000    1.600 
#    0.000    0.000    0.000    0.000    0.000    0.000 
#    0.000    0.000    0.000    0.000    0.000    0.000 
#
# Total GULP energy -55835.747616 kJ/mol
# GULP energy per Si atom -5583.574762 kJ/mol
# Density = 2.283142 g / cm^3
# Si number density = 22.883503 Si / 1000 Ang^3
#
#
#
# Elastic Constant Matrix: (Units=GPa)
#
#
# Indices 1 2 3 4 5 6 
#
# 1 73.5703 -14.2494 29.8814 -12.0053 10.1759 3.0619
# 2 -14.2494 66.4209 52.1737 -12.6279 6.3968 11.3887
# 3 29.8814 52.1737 137.3630 -28.6051 26.9472 13.1954
# 4 -12.0053 -12.6279 -28.6051 41.0033 -4.2026 7.0474
# 5 10.1759 6.3968 26.9472 -4.2026 31.5685 -0.3079
# 6 3.0619 11.3887 13.1954 7.0474 -0.3079 35.2422
#
#
#
# Elastic Compliance Matrix: (Units=1/GPa)
#
#
# Indices 1 2 3 4 5 6 
#
# 1 0.019875 0.011454 -0.006799 0.005040 -0.002291 -0.003910
# 2 0.011454 0.028999 -0.012013 0.005225 0.001314 -0.006902
# 3 -0.006799 -0.012013 0.016414 0.005354 -0.008700 -0.002820
# 4 0.005040 0.005225 0.005354 0.032740 -0.002999 -0.010704
# 5 -0.002291 0.001314 -0.008700 -0.002999 0.039215 0.003974
# 6 -0.003910 -0.006902 -0.002820 -0.010704 0.003974 0.034176
#
#
# Mechanical properties :
#
#
# Convention : Reuss Voigt Hill
#
# Bulk Modulus (GPa) = 19.77408 45.88507 32.82957
# Shear Modulus (GPa) = 24.63129 35.53269 30.08199
#
# Velocity S-wave (km/s) = 3.28438 3.94479 3.62963
# Velocity P-wave (km/s) = 4.80029 6.39090 5.65183
#
# Compressibility (1/GPa) = 0.05057127
#
# Stress axis : x y z
#
# Youngs Moduli (GPa) = 50.31567 34.48386 60.92196
#
# Poissons Ratio (x) = -0.39497 0.41423
# Poissons Ratio (y) = -0.57631 0.73186
# Poissons Ratio (z) = 0.34211 0.41425
#
# Static dielectric constant tensor:
#      x y z
#    x 1.913700 -0.039540 -0.010700 
#    y -0.039540 1.890420 0.067990 
#    z -0.010700 0.067990 1.813180 
# 
# From -- ./inp_files/24417.got.cif
#   From: 2010.05.17/outbox.cif.g08.bks.cpg/sg2_13_cif.got.tgz:24417.got - 2010.06.03 11:33:40.
