data_PCOD9101195
_publ_section_title
;
Structure prediction by ZEFSAII (Michael W. Deem and Ramdas Pophale) SiO2 
 PCOD9101195
Probable space group: P -1
;
_chemical_formula_sum "Si O2"
_cell_formula_units_Z 16
_cell_length_a 8.896606
_cell_length_b 19.465596
_cell_length_c 22.213376
_cell_angle_alpha 18.434615
_cell_angle_beta 142.210784
_cell_angle_gamma 143.058327
_cell_volume 720.634896
_symmetry_space_group_name_H-M "P -1"
_symmetry_group_IT_number 2
_symmetry_cell_setting 'triclinic'
loop_
_space_group_symop_operation_xyz
x,y,z
-x,-y,-z
loop_
_atom_site_type_symbol
_atom_site_label
_atom_site_fract_x
_atom_site_fract_y
_atom_site_fract_z
Si Si1 0.840507 0.662543 0.842094
Si Si2 0.170545 0.026356 0.732150
Si Si3 0.553765 0.330507 0.518789
Si Si4 0.378477 0.185366 0.918888
Si Si5 0.214553 0.223393 0.393524
Si Si6 0.833094 0.967471 0.898125
Si Si7 0.777652 0.413515 0.144479
Si Si8 0.735617 0.847032 0.829644
O O1 0.683271 0.703706 0.700964
O O2 0.025974 0.881263 0.749850
O O3 0.695370 0.529005 0.962728
O O4 0.000000 0.500000 0.000000
O O5 0.949529 0.025157 0.711129
O O6 0.351517 0.252978 0.573267
O O7 0.364607 0.896416 0.931082
O O8 0.607803 0.589800 0.301928
O O9 0.421194 0.204761 0.521538
O O10 0.780519 0.209065 0.699797
O O11 0.315269 0.202128 0.956417
O O12 0.133912 0.000494 0.970947
O O13 0.050006 0.376213 0.246188
O O14 0.000000 0.000000 0.500000
O O15 0.745899 0.902464 0.856950
O O16 0.544208 0.192920 0.256782
O O17 0.805063 0.607349 0.040771
#
# Coordination Sequence:
#
# PCOD9101195 Si02
#       8
#     2   2   2   2   2   2   2   2
#     4   9  17  30  53  82 111 148 193 232 276 336
#     4  10  21  38  57  85 117 157 190 242 287 348
#     4  11  21  37  61  86 118 147 198 251 288 342
#     4  10  22  41  64  87 110 149 206 249 292 340
#     4  11  19  31  56  89 115 152 198 235 288 342
#     4  10  23  40  63  88 114 150 195 254 296 340
#     4   9  20  34  57  81 120 161 187 231 290 353
#     4  10  20  38  57  83 124 155 190 235 295 352
#
# _framework density 22.202642999999998
#
# number of rings (size 3 to 8) (size 9 to 14) (size 15 to 20)
#    0.000    2.000    1.250    3.375    7.000    0.500 
#    0.000    3.750    2.750    0.000    0.000    0.000 
#    0.000    0.000    0.000    0.000    0.000    0.000 
#
# Total GULP energy -89191.142401 kJ/mol
# GULP energy per Si atom -5574.446400 kJ/mol
# Density = 2.215211 g / cm^3
# Si number density = 22.202643 Si / 1000 Ang^3
#
#
#
# Elastic Constant Matrix: (Units=GPa)
#
#
# Indices 1 2 3 4 5 6 
#
# 1 87.8447 9.4937 35.9338 -2.6339 -12.4376 9.6745
# 2 9.4937 43.3413 2.1143 14.3059 0.5799 11.7493
# 3 35.9338 2.1143 78.9115 -1.3454 -17.7299 5.8735
# 4 -2.6339 14.3059 -1.3454 26.7115 6.7387 -0.9615
# 5 -12.4376 0.5799 -17.7299 6.7387 27.6714 -6.8816
# 6 9.6745 11.7493 5.8735 -0.9615 -6.8816 32.3957
#
#
#
# Elastic Compliance Matrix: (Units=1/GPa)
#
#
# Indices 1 2 3 4 5 6 
#
# 1 0.014724 -0.003299 -0.006043 0.002395 0.001822 -0.001647
# 2 -0.003299 0.032977 0.001215 -0.018390 0.000172 -0.011704
# 3 -0.006043 0.001215 0.017376 -0.002653 0.009052 0.000058
# 4 0.002395 -0.018390 -0.002653 0.050396 -0.011126 0.005568
# 5 0.001822 0.000172 0.009052 -0.011126 0.047322 0.007474
# 6 -0.001647 -0.011704 0.000058 0.005568 0.007474 0.037348
#
#
# Mechanical properties :
#
#
# Convention : Reuss Voigt Hill
#
# Bulk Modulus (GPa) = 20.48268 33.90899 27.19584
# Shear Modulus (GPa) = 21.48961 28.19277 24.84119
#
# Velocity S-wave (km/s) = 3.11446 3.56728 3.34853
# Velocity P-wave (km/s) = 4.70941 5.68093 5.21783
#
# Compressibility (1/GPa) = 0.04882174
#
# Stress axis : x y z
#
# Youngs Moduli (GPa) = 67.91849 30.32431 57.55012
#
# Poissons Ratio (x) = 0.10004 0.34780
# Poissons Ratio (y) = 0.22406 -0.06993
# Poissons Ratio (z) = 0.41046 -0.03684
#
# Static dielectric constant tensor:
#      x y z
#    x 1.906970 0.002730 0.023740 
#    y 0.002730 1.833210 -0.047660 
#    z 0.023740 -0.047660 1.943280 
# 
# From -- ./inp_files/608606.got.cif
#   From: 2010.05.17/outbox.cif.g08.bks.cpg/sg2_305_cif.got.tgz:608606.got - 2010.06.03 11:33:40.
