data_PCOD9101869
_publ_section_title
;
Structure prediction by ZEFSAII (Michael W. Deem and Ramdas Pophale) SiO2 
 PCOD9101869
Probable space group: P -1
;
_chemical_formula_sum "Si O2"
_cell_formula_units_Z 12
_cell_length_a 8.422877
_cell_length_b 14.928271
_cell_length_c 9.408961
_cell_angle_alpha 109.520971
_cell_angle_beta 118.624281
_cell_angle_gamma 27.429002
_cell_volume 466.086500
_symmetry_space_group_name_H-M "P -1"
_symmetry_group_IT_number 2
_symmetry_cell_setting 'triclinic'
loop_
_space_group_symop_operation_xyz
x,y,z
-x,-y,-z
loop_
_atom_site_type_symbol
_atom_site_label
_atom_site_fract_x
_atom_site_fract_y
_atom_site_fract_z
Si Si1 0.554873 0.435396 0.830746
Si Si2 0.044263 0.020663 0.872514
Si Si3 0.099871 0.351238 0.030914
Si Si4 0.960808 0.502447 0.652180
Si Si5 0.080756 0.673056 0.476710
Si Si6 0.104051 0.862186 0.563564
O O1 0.203147 0.606426 0.660877
O O2 0.500000 0.500000 0.000000
O O3 0.741982 0.242899 0.817721
O O4 0.862048 0.373632 0.879263
O O5 0.458840 0.870027 0.929107
O O6 0.029795 0.932337 0.725992
O O7 0.000000 0.000000 0.000000
O O8 0.998988 0.424276 0.191656
O O9 0.000000 0.500000 0.000000
O O10 0.162347 0.307128 0.661763
O O11 0.545875 0.657530 0.602974
O O12 0.000000 0.500000 0.500000
O O13 0.500000 0.500000 0.500000
O O14 0.891416 0.861052 0.454930
O O15 0.000000 0.000000 0.500000
#
# Coordination Sequence:
#
# PCOD9101869 Si02
#       6
#     2   2   2   2   2   2
#     4  12  23  40  64  89 120 163 207 253 305 362
#     4  11  23  39  60  90 125 161 203 253 305 360
#     4  11  23  39  60  92 126 159 202 252 304 362
#     4  10  21  38  60  87 119 156 198 245 300 361
#     4  10  20  38  61  85 115 158 199 240 298 359
#     4  10  21  38  60  87 118 155 200 247 299 362
#
# _framework density 25.746293999999999
#
# number of rings (size 3 to 8) (size 9 to 14) (size 15 to 20)
#    0.000    1.333    0.000    8.500    0.000    1.333 
#    0.000    0.833    0.000    0.000    0.000    3.500 
#    0.000    0.000    0.000    0.000    0.000    0.000 
#
# Total GULP energy -66937.718437 kJ/mol
# GULP energy per Si atom -5578.143203 kJ/mol
# Density = 2.568769 g / cm^3
# Si number density = 25.746294 Si / 1000 Ang^3
#
#
#
# Elastic Constant Matrix: (Units=GPa)
#
#
# Indices 1 2 3 4 5 6 
#
# 1 108.1561 25.8210 37.6553 16.1743 4.7175 30.1633
# 2 25.8210 67.8140 1.5480 1.3181 -10.3720 -4.7377
# 3 37.6553 1.5480 122.8732 25.2665 -30.9432 -4.3320
# 4 16.1743 1.3181 25.2665 33.5177 -1.7497 -4.1914
# 5 4.7175 -10.3720 -30.9432 -1.7497 61.8134 4.4963
# 6 30.1633 -4.7377 -4.3320 -4.1914 4.4963 48.2879
#
#
#
# Elastic Compliance Matrix: (Units=1/GPa)
#
#
# Indices 1 2 3 4 5 6 
#
# 1 0.017756 -0.008137 -0.005851 -0.005651 -0.004904 -0.012449
# 2 -0.008137 0.018992 0.003417 0.001735 0.005063 0.006932
# 3 -0.005851 0.003417 0.013125 -0.006339 0.007123 0.003954
# 4 -0.005651 0.001735 -0.006339 0.038001 -0.001855 0.006603
# 5 -0.004904 0.005063 0.007123 -0.001855 0.020762 0.002105
# 6 -0.012449 0.006932 0.003954 0.006603 0.002105 0.029897
#
#
# Mechanical properties :
#
#
# Convention : Reuss Voigt Hill
#
# Bulk Modulus (GPa) = 34.80579 47.65466 41.23022
# Shear Modulus (GPa) = 29.54181 44.31174 36.92678
#
# Velocity S-wave (km/s) = 3.39103 4.15311 3.79127
# Velocity P-wave (km/s) = 5.37403 6.44571 5.93412
#
# Compressibility (1/GPa) = 0.02873085
#
# Stress axis : x y z
#
# Youngs Moduli (GPa) = 56.31799 52.65502 76.18973
#
# Poissons Ratio (x) = 0.42847 0.44578
# Poissons Ratio (y) = 0.45828 -0.26035
# Poissons Ratio (z) = 0.32951 -0.17993
#
# Static dielectric constant tensor:
#      x y z
#    x 2.703990 1.105460 0.182390 
#    y 1.105460 3.730770 0.368470 
#    z 0.182390 0.368470 2.138370 
# 
# From -- ./inp_files/154132.got.cif
#   From: 2010.05.17/outbox.cif.g08.bks.cpg/sg2_78_cif.got.tgz:154132.got - 2010.06.03 11:33:40.
