data_PCOD9101559
_publ_section_title
;
Structure prediction by ZEFSAII (Michael W. Deem and Ramdas Pophale) SiO2 
 PCOD9101559
Probable space group: P -1
;
_chemical_formula_sum "Si O2"
_cell_formula_units_Z 12
_cell_length_a 9.252702
_cell_length_b 15.870448
_cell_length_c 16.266531
_cell_angle_alpha 17.722774
_cell_angle_beta 105.788907
_cell_angle_gamma 114.291758
_cell_volume 597.832351
_symmetry_space_group_name_H-M "P -1"
_symmetry_group_IT_number 2
_symmetry_cell_setting 'triclinic'
loop_
_space_group_symop_operation_xyz
x,y,z
-x,-y,-z
loop_
_atom_site_type_symbol
_atom_site_label
_atom_site_fract_x
_atom_site_fract_y
_atom_site_fract_z
Si Si1 0.494541 0.287819 0.774449
Si Si2 0.109168 0.830118 0.161008
Si Si3 0.868439 0.523727 0.668302
Si Si4 0.005464 0.808138 0.881927
Si Si5 0.313388 0.434157 0.062017
Si Si6 0.817765 0.151167 0.287583
O O1 0.500000 0.500000 0.500000
O O2 0.669053 0.451514 0.704442
O O3 0.500000 0.000000 0.000000
O O4 0.307792 0.107614 0.958266
O O5 0.121469 0.695134 0.199038
O O6 0.000000 0.500000 0.500000
O O7 0.000000 0.000000 0.000000
O O8 0.980507 0.912030 0.316942
O O9 0.941922 0.426206 0.848053
O O10 0.149387 0.973104 0.677522
O O11 0.814803 0.627534 0.977788
O O12 0.220774 0.112429 0.403686
O O13 0.500000 0.500000 0.000000
O O14 0.324040 0.737228 0.830746
O O15 0.000000 0.500000 0.000000
#
# Coordination Sequence:
#
# PCOD9101559 Si02
#       6
#     2   2   2   2   2   2
#     4  10  20  38  60  82 109 152 196 228 278 358
#     4  11  22  39  60  85 117 154 189 234 297 362
#     4  11  22  38  60  87 115 152 198 249 290 333
#     4  11  21  38  60  86 116 153 199 249 286 333
#     4  11  22  39  61  88 121 159 193 235 296 359
#     4  10  20  38  61  84 112 158 201 229 279 359
#
# _framework density 20.072517999999999
#
# number of rings (size 3 to 8) (size 9 to 14) (size 15 to 20)
#    0.000    1.333    0.000   10.500    0.000    0.000 
#    0.000   10.000    0.000    0.000    0.000    0.000 
#    0.000    0.000    0.000    0.000    0.000    0.000 
#
# Total GULP energy -66844.047090 kJ/mol
# GULP energy per Si atom -5570.337258 kJ/mol
# Density = 2.002683 g / cm^3
# Si number density = 20.072518 Si / 1000 Ang^3
#
#
#
# Elastic Constant Matrix: (Units=GPa)
#
#
# Indices 1 2 3 4 5 6 
#
# 1 167.4515 39.9490 40.1921 6.4181 5.7218 19.3927
# 2 39.9490 58.0744 19.2936 -2.0017 -0.3286 13.8438
# 3 40.1921 19.2936 124.9226 20.7219 20.4594 22.4477
# 4 6.4181 -2.0017 20.7219 35.9018 -4.0906 12.5076
# 5 5.7218 -0.3286 20.4594 -4.0906 43.2530 -3.5802
# 6 19.3927 13.8438 22.4477 12.5076 -3.5802 33.8483
#
#
#
# Elastic Compliance Matrix: (Units=1/GPa)
#
#
# Indices 1 2 3 4 5 6 
#
# 1 0.007553 -0.004395 -0.001313 -0.000349 -0.000576 -0.001591
# 2 -0.004395 0.022950 -0.002051 0.006080 0.001674 -0.007577
# 3 -0.001313 -0.002051 0.011527 -0.005627 -0.006210 -0.004631
# 4 -0.000349 0.006080 -0.005627 0.036042 0.005226 -0.011321
# 5 -0.000576 0.001674 -0.006210 0.005226 0.027028 0.004691
# 6 -0.001591 -0.007577 -0.004631 -0.011321 0.004691 0.041304
#
#
# Mechanical properties :
#
#
# Convention : Reuss Voigt Hill
#
# Bulk Modulus (GPa) = 37.72247 61.03533 49.37890
# Shear Modulus (GPa) = 29.28070 39.33487 34.30778
#
# Velocity S-wave (km/s) = 3.82350 4.43158 4.13872
# Velocity P-wave (km/s) = 6.19080 7.52719 6.89147
#
# Compressibility (1/GPa) = 0.02650940
#
# Stress axis : x y z
#
# Youngs Moduli (GPa) = 132.39818 43.57361 86.75489
#
# Poissons Ratio (x) = 0.19153 0.11392
# Poissons Ratio (y) = 0.58195 0.17797
# Poissons Ratio (z) = 0.17386 0.08939
#
# Static dielectric constant tensor:
#      x y z
#    x 1.653730 -0.006850 0.055350 
#    y -0.006850 1.813580 -0.019240 
#    z 0.055350 -0.019240 1.672130 
# 
# From -- ./inp_files/47206.got.cif
#   From: 2010.05.17/outbox.cif.g08.bks.cpg/sg2_24_cif.got.tgz:47206.got - 2010.06.03 11:33:40.
