data_PCOD9101139
_publ_section_title
;
Structure prediction by ZEFSAII (Michael W. Deem and Ramdas Pophale) SiO2 
 PCOD9101139
Probable space group: P -1
;
_chemical_formula_sum "Si O2"
_cell_formula_units_Z 16
_cell_length_a 24.257076
_cell_length_b 10.276942
_cell_length_c 16.761043
_cell_angle_alpha 137.932789
_cell_angle_beta 20.073673
_cell_angle_gamma 145.949293
_cell_volume 788.907495
_symmetry_space_group_name_H-M "P -1"
_symmetry_group_IT_number 2
_symmetry_cell_setting 'triclinic'
loop_
_space_group_symop_operation_xyz
x,y,z
-x,-y,-z
loop_
_atom_site_type_symbol
_atom_site_label
_atom_site_fract_x
_atom_site_fract_y
_atom_site_fract_z
Si Si1 0.674061 0.275795 0.712499
Si Si2 0.329981 0.952029 0.546377
Si Si3 0.409223 0.523333 0.523284
Si Si4 0.075941 0.453667 0.047735
Si Si5 0.485896 0.182579 0.182317
Si Si6 0.662204 0.761264 0.760867
Si Si7 0.110474 0.712170 0.276170
Si Si8 0.261489 0.579821 0.580412
O O1 0.611814 0.122520 0.646234
O O2 0.894080 0.508015 0.508386
O O3 0.646313 0.087587 0.730667
O O4 0.517363 0.330624 0.976041
O O5 0.380404 0.843888 0.502730
O O6 0.094876 0.794133 0.794184
O O7 0.418926 0.221349 0.562753
O O8 0.467856 0.344463 0.344046
O O9 0.333054 0.556883 0.557565
O O10 0.240053 0.437264 0.778327
O O11 0.135557 0.646080 0.122555
O O12 0.961312 0.497586 0.155534
O O13 0.412219 0.211130 0.211248
O O14 0.710922 0.269650 0.911944
O O15 0.721469 0.581843 0.581303
O O16 0.837613 0.024391 0.668922
#
# Coordination Sequence:
#
# PCOD9101139 Si02
#       8
#     2   2   2   2   2   2   2   2
#     4  10  20  38  56  81 112 141 178 225 271 318
#     4   9  21  36  54  83 108 142 181 220 265 321
#     4  11  19  38  60  76 111 150 172 223 279 306
#     4   9  21  36  54  83 108 142 181 220 265 321
#     4  10  23  35  57  84 107 141 186 222 263 328
#     4  10  21  38  56  82 110 141 181 223 269 321
#     4  10  20  38  56  81 112 141 178 225 271 318
#     4   9  21  39  53  84 112 136 187 224 257 329
#
# _framework density 20.281210999999999
#
# number of rings (size 3 to 8) (size 9 to 14) (size 15 to 20)
#    0.750    1.500    0.000    3.750    0.000    6.000 
#    2.250    5.000    0.000    0.000    0.000    0.000 
#    0.000    0.000    0.000    0.000    0.000    0.000 
#
# Total GULP energy -89235.938533 kJ/mol
# GULP energy per Si atom -5577.246158 kJ/mol
# Density = 2.023505 g / cm^3
# Si number density = 20.281211 Si / 1000 Ang^3
#
#
#
# Elastic Constant Matrix: (Units=GPa)
#
#
# Indices 1 2 3 4 5 6 
#
# 1 55.1871 -1.4113 0.7308 -2.4623 5.2316 7.2586
# 2 -1.4113 91.2159 85.4021 13.2662 2.0156 24.2896
# 3 0.7308 85.4021 83.3053 -5.2959 22.1581 4.0759
# 4 -2.4623 13.2662 -5.2959 30.1239 5.6834 0.7376
# 5 5.2316 2.0156 22.1581 5.6834 27.9633 6.8474
# 6 7.2586 24.2896 4.0759 0.7376 6.8474 31.2151
#
#
#
# Elastic Compliance Matrix: (Units=1/GPa)
#
#
# Indices 1 2 3 4 5 6 
#
# 1 0.019111 0.000343 0.000824 0.002361 -0.003740 -0.004054
# 2 0.000343 -0.015974 0.022938 0.015211 -0.023654 0.014185
# 3 0.000824 0.022938 -0.016808 -0.016212 0.019648 -0.019773
# 4 0.002361 0.015211 -0.016212 0.022280 0.009958 -0.012979
# 5 -0.003740 -0.023654 0.019648 0.009958 0.017478 0.012641
# 6 -0.004054 0.014185 -0.019773 -0.012979 0.012641 0.022057
#
#
# Mechanical properties :
#
#
# Convention : Reuss Voigt Hill
#
# Bulk Modulus (GPa) = 28.95279 44.35017 36.65148
# Shear Modulus (GPa) = 436.81208 27.52623 232.16915
#
# Velocity S-wave (km/s) = 14.69167 3.68805 10.71091
# Velocity P-wave (km/s) = 17.38103 6.32857 13.07959
#
# Compressibility (1/GPa) = 0.03453899
#
# Stress axis : x y z
#
# Youngs Moduli (GPa) = 52.32555 -62.60057 -59.49695
#
# Poissons Ratio (x) = 0.02148 0.04902
# Poissons Ratio (y) = -0.01795 1.36473
# Poissons Ratio (z) = -0.04311 1.43592
#
# Static dielectric constant tensor:
#      x y z
#    x 1.749880 0.000530 -0.000400 
#    y 0.000530 1.711550 -0.010430 
#    z -0.000400 -0.010430 1.717970 
# 
# From -- ./inp_files/579772.got.cif
#   From: 2010.05.17/outbox.cif.g08.bks.cpg/sg2_290_cif.got.tgz:579772.got - 2010.06.03 11:33:40.
