data_PCOD9101834
_publ_section_title
;
Structure prediction by ZEFSAII (Michael W. Deem and Ramdas Pophale) SiO2 
 PCOD9101834
Probable space group: P -1
;
_chemical_formula_sum "Si O2"
_cell_formula_units_Z 14
_cell_length_a 11.803970
_cell_length_b 9.754085
_cell_length_c 9.516738
_cell_angle_alpha 136.645929
_cell_angle_beta 120.614077
_cell_angle_gamma 60.331179
_cell_volume 632.792762
_symmetry_space_group_name_H-M "P -1"
_symmetry_group_IT_number 2
_symmetry_cell_setting 'triclinic'
loop_
_space_group_symop_operation_xyz
x,y,z
-x,-y,-z
loop_
_atom_site_type_symbol
_atom_site_label
_atom_site_fract_x
_atom_site_fract_y
_atom_site_fract_z
Si Si1 0.688013 0.129075 0.533594
Si Si2 0.347313 0.324912 0.830908
Si Si3 0.546466 0.532927 0.286033
Si Si4 0.090302 0.686835 0.349328
Si Si5 0.159027 0.744962 0.022358
Si Si6 0.799528 0.200831 0.238500
Si Si7 0.889207 0.771965 0.038608
O O1 0.548228 0.293781 0.554050
O O2 0.800193 0.199272 0.562509
O O3 0.741818 0.150979 0.743464
O O4 0.671828 0.901473 0.327710
O O5 0.399918 0.355021 0.729224
O O6 0.454221 0.388535 0.052296
O O7 0.213517 0.501599 0.895031
O O8 0.672514 0.383655 0.324505
O O9 0.079914 0.752426 0.553501
O O10 0.043267 0.248324 0.779934
O O11 0.142848 0.444740 0.181010
O O12 0.010277 0.799594 0.031230
O O13 0.170097 0.793500 0.902777
O O14 0.778569 0.976963 0.100588
#
# Coordination Sequence:
#
# PCOD9101834 Si02
#       7
#     2   2   2   2   2   2   2
#     4  10  20  38  61  83 115 154 185 225 281 336
#     4   9  18  36  61  85 115 148 183 233 280 329
#     4   9  20  35  56  90 115 141 190 231 277 339
#     4  10  24  39  57  82 111 153 196 225 279 344
#     4   9  21  37  59  90 111 142 196 233 274 336
#     4  11  22  37  58  86 116 145 186 238 284 327
#     4  10  22  42  59  78 116 152 187 237 279 331
#
# _framework density 22.124144999999999
#
# number of rings (size 3 to 8) (size 9 to 14) (size 15 to 20)
#    0.000    2.286    0.000    2.143    0.000   11.429 
#    0.000    1.429    0.000    0.000    0.000    0.000 
#    0.000    0.000    0.000    0.000    0.000    0.000 
#
# Total GULP energy -78304.827749 kJ/mol
# GULP energy per Si atom -5593.201982 kJ/mol
# Density = 2.207379 g / cm^3
# Si number density = 22.124145 Si / 1000 Ang^3
#
#
#
# Elastic Constant Matrix: (Units=GPa)
#
#
# Indices 1 2 3 4 5 6 
#
# 1 47.9712 24.0070 23.3395 8.9235 2.5785 -1.9940
# 2 24.0070 105.2930 59.4440 16.9948 7.4168 13.8708
# 3 23.3395 59.4440 99.8632 27.8116 14.0746 11.0284
# 4 8.9235 16.9948 27.8116 47.3993 17.0220 -9.7188
# 5 2.5785 7.4168 14.0746 17.0220 28.0146 4.8801
# 6 -1.9940 13.8708 11.0284 -9.7188 4.8801 19.6993
#
#
#
# Elastic Compliance Matrix: (Units=1/GPa)
#
#
# Indices 1 2 3 4 5 6 
#
# 1 0.025605 -0.004830 -0.004660 0.002510 -0.002065 0.010352
# 2 -0.004830 0.016387 -0.006430 -0.005428 0.004775 -0.012289
# 3 -0.004660 -0.006430 0.019243 -0.011231 0.001487 -0.012626
# 4 0.002510 -0.005428 -0.011231 0.048403 -0.029814 0.041630
# 5 -0.002065 0.004775 0.001487 -0.029814 0.057814 -0.033435
# 6 0.010352 -0.012289 -0.012626 0.041630 -0.033435 0.096354
#
#
# Mechanical properties :
#
#
# Convention : Reuss Voigt Hill
#
# Bulk Modulus (GPa) = 34.02010 51.85650 42.93830
# Shear Modulus (GPa) = 16.36958 28.77843 22.57400
#
# Velocity S-wave (km/s) = 2.72305 3.61053 3.19773
# Velocity P-wave (km/s) = 5.02961 6.39304 5.75187
#
# Compressibility (1/GPa) = 0.02939439
#
# Stress axis : x y z
#
# Youngs Moduli (GPa) = 39.05510 61.02279 51.96739
#
# Poissons Ratio (x) = 0.29476 0.24217
# Poissons Ratio (y) = 0.18865 0.33414
# Poissons Ratio (z) = 0.18200 0.39237
#
# Static dielectric constant tensor:
#      x y z
#    x 1.828140 -0.016610 -0.035870 
#    y -0.016610 1.821860 -0.005480 
#    z -0.035870 -0.005480 1.800300 
# 
# From -- ./inp_files/425565.got.cif
#   From: 2010.05.17/outbox.cif.g08.bks.cpg/sg2_213_cif.got.tgz:425565.got - 2010.06.03 11:33:40.
