data_PCOD9101727
_publ_section_title
;
Structure prediction by ZEFSAII (Michael W. Deem and Ramdas Pophale) SiO2 
 PCOD9101727
Probable space group: P -1
;
_chemical_formula_sum "Si O2"
_cell_formula_units_Z 16
_cell_length_a 11.368943
_cell_length_b 9.663393
_cell_length_c 19.219864
_cell_angle_alpha 46.832382
_cell_angle_beta 25.614104
_cell_angle_gamma 49.566704
_cell_volume 662.417523
_symmetry_space_group_name_H-M "P -1"
_symmetry_group_IT_number 2
_symmetry_cell_setting 'triclinic'
loop_
_space_group_symop_operation_xyz
x,y,z
-x,-y,-z
loop_
_atom_site_type_symbol
_atom_site_label
_atom_site_fract_x
_atom_site_fract_y
_atom_site_fract_z
Si Si1 0.616258 0.234802 0.814063
Si Si2 0.489884 0.875070 0.633144
Si Si3 0.412297 0.012496 0.308206
Si Si4 0.005337 0.312825 0.343494
Si Si5 0.237975 0.243944 0.884230
Si Si6 0.944146 0.078253 0.251580
Si Si7 0.161624 0.448292 0.063101
Si Si8 0.707850 0.497215 0.562191
O O1 0.376246 0.179179 0.907638
O O2 0.803013 0.345060 0.624426
O O3 0.802968 0.064501 0.807697
O O4 0.471554 0.377645 0.899223
O O5 0.681474 0.033996 0.451712
O O6 0.612159 0.690808 0.586897
O O7 0.528988 0.871121 0.695181
O O8 0.176559 0.936293 0.756340
O O9 0.680264 0.919469 0.158312
O O10 0.233593 0.834293 0.483791
O O11 0.249730 0.160509 0.291569
O O12 0.089545 0.419540 0.192163
O O13 0.916780 0.469559 0.396609
O O14 0.945781 0.355835 0.984994
O O15 0.437063 0.412695 0.706275
O O16 0.002427 0.288621 0.165717
#
# Coordination Sequence:
#
# PCOD9101727 Si02
#       8
#     2   2   2   2   2   2   2   2
#     4  10  22  40  63  89 125 163 208 252 298 368
#     4  11  22  38  64  89 130 158 201 254 308 376
#     4  10  20  38  60  89 126 156 197 258 306 353
#     4  10  21  37  64  94 120 154 216 254 298 351
#     4   9  21  38  61  90 119 161 209 246 303 350
#     4  11  22  35  57  96 122 158 204 253 309 355
#     4  12  21  38  66  92 123 159 212 254 299 362
#     4   9  21  40  60  93 116 166 196 255 305 357
#
# _framework density 24.153952
#
# number of rings (size 3 to 8) (size 9 to 14) (size 15 to 20)
#    0.750    1.000    2.500    2.250    0.000    6.000 
#    0.000    0.000    0.000   13.500    0.000    0.000 
#    0.000    0.000    0.000    0.000    0.000    0.000 
#
# Total GULP energy -89290.221741 kJ/mol
# GULP energy per Si atom -5580.638859 kJ/mol
# Density = 2.409898 g / cm^3
# Si number density = 24.153952 Si / 1000 Ang^3
#
#
#
# Elastic Constant Matrix: (Units=GPa)
#
#
# Indices 1 2 3 4 5 6 
#
# 1 134.8699 61.8489 69.8297 22.4221 15.0342 -24.1620
# 2 61.8489 86.1863 36.9557 36.8770 -6.5168 -3.5610
# 3 69.8297 36.9557 64.7348 20.4258 11.2122 -8.3662
# 4 22.4221 36.8770 20.4258 45.6694 -0.3373 -1.2636
# 5 15.0342 -6.5168 11.2122 -0.3373 43.1486 5.8281
# 6 -24.1620 -3.5610 -8.3662 -1.2636 5.8281 50.1342
#
#
#
# Elastic Compliance Matrix: (Units=1/GPa)
#
#
# Indices 1 2 3 4 5 6 
#
# 1 0.023554 -0.011865 -0.018523 0.006484 -0.006257 0.008309
# 2 -0.011865 0.027663 0.000037 -0.016607 0.008874 -0.005197
# 3 -0.018523 0.000037 0.038218 -0.008119 -0.003214 -0.002378
# 4 0.006484 -0.016607 -0.008119 0.035784 -0.002621 0.001797
# 5 -0.006257 0.008874 -0.003214 -0.002621 0.028360 -0.006284
# 6 0.008309 -0.005197 -0.002378 0.001797 -0.006284 0.023961
#
#
# Mechanical properties :
#
#
# Convention : Reuss Voigt Hill
#
# Bulk Modulus (GPa) = 34.80076 69.22888 52.01482
# Shear Modulus (GPa) = 20.17619 35.60091 27.88855
#
# Velocity S-wave (km/s) = 2.89332 3.84333 3.40165
# Velocity P-wave (km/s) = 5.05973 6.95835 6.08356
#
# Compressibility (1/GPa) = 0.02873501
#
# Stress axis : x y z
#
# Youngs Moduli (GPa) = 42.45641 36.14931 26.16585
#
# Poissons Ratio (x) = 0.42890 0.48466
# Poissons Ratio (y) = 0.50373 -0.00098
# Poissons Ratio (z) = 0.78640 -0.00135
#
# Static dielectric constant tensor:
#      x y z
#    x 1.940300 -0.011760 -0.006450 
#    y -0.011760 1.911360 -0.054000 
#    z -0.006450 -0.054000 2.030400 
# 
# From -- ./inp_files/594073.got.cif
#   From: 2010.05.17/outbox.cif.g08.bks.cpg/sg2_298_cif.got.tgz:594073.got - 2010.06.03 11:33:40.
