data_PCOD9101421
_publ_section_title
;
Structure prediction by ZEFSAII (Michael W. Deem and Ramdas Pophale) SiO2 
 PCOD9101421
Probable space group: P -1
;
_chemical_formula_sum "Si O2"
_cell_formula_units_Z 16
_cell_length_a 14.843127
_cell_length_b 9.684509
_cell_length_c 12.563550
_cell_angle_alpha 69.366074
_cell_angle_beta 150.905684
_cell_angle_gamma 99.254692
_cell_volume 777.699963
_symmetry_space_group_name_H-M "P -1"
_symmetry_group_IT_number 2
_symmetry_cell_setting 'triclinic'
loop_
_space_group_symop_operation_xyz
x,y,z
-x,-y,-z
loop_
_atom_site_type_symbol
_atom_site_label
_atom_site_fract_x
_atom_site_fract_y
_atom_site_fract_z
Si Si1 0.302161 0.717495 0.980419
Si Si2 0.510022 0.387738 0.394863
Si Si3 0.891875 0.876003 0.460893
Si Si4 0.362297 0.677038 0.807053
Si Si5 0.558518 0.825095 0.795042
Si Si6 0.778299 0.547142 0.719818
Si Si7 0.408481 0.131410 0.672083
Si Si8 0.060976 0.318156 0.648027
O O1 0.410433 0.544303 0.180622
O O2 0.392728 0.839200 0.093362
O O3 0.340801 0.726005 0.893396
O O4 0.071037 0.757971 0.744348
O O5 0.507398 0.241793 0.360950
O O6 0.715872 0.407764 0.638109
O O7 0.373163 0.400632 0.352467
O O8 0.705104 0.922225 0.333716
O O9 0.855155 0.787153 0.341732
O O10 0.000000 0.000000 0.500000
O O11 0.463070 0.765148 0.811605
O O12 0.146541 0.700906 0.534557
O O13 0.500000 0.500000 0.000000
O O14 0.473694 0.009978 0.675230
O O15 0.788337 0.741918 0.083086
O O16 0.728309 0.697802 0.551576
O O17 0.000000 0.500000 0.000000
O O18 0.000000 0.500000 0.500000
#
# Coordination Sequence:
#
# PCOD9101421 Si02
#       8
#     2   2   2   2   2   2   2   2
#     4  10  20  38  59  84 120 162 199 241 289 349
#     4  10  22  41  64  87 114 151 194 257 302 351
#     4  11  22  37  54  85 126 163 197 232 289 350
#     4  11  20  35  56  87 125 161 198 238 282 343
#     4  12  23  38  57  91 125 153 199 241 299 350
#     4  10  23  45  67  87 109 151 205 249 308 364
#     4  11  24  38  62  87 119 162 196 249 301 355
#     4  11  22  34  57  86 119 162 200 238 277 343
#
# _framework density 20.573487
#
# number of rings (size 3 to 8) (size 9 to 14) (size 15 to 20)
#    0.000    1.250    2.500    4.500    0.000    3.000 
#    0.000    0.625    0.000    0.000    0.000    0.000 
#    0.000    0.000    0.000    0.000    0.000    0.000 
#
# Total GULP energy -89320.473032 kJ/mol
# GULP energy per Si atom -5582.529564 kJ/mol
# Density = 2.052666 g / cm^3
# Si number density = 20.573487 Si / 1000 Ang^3
#
#
#
# Elastic Constant Matrix: (Units=GPa)
#
#
# Indices 1 2 3 4 5 6 
#
# 1 63.2461 23.2627 6.1568 10.3906 0.3865 -1.4764
# 2 23.2627 115.0206 22.0546 23.3229 -2.9037 -31.3130
# 3 6.1568 22.0546 93.4958 26.9785 12.4904 -5.9002
# 4 10.3906 23.3229 26.9785 30.8954 0.1370 -4.0081
# 5 0.3865 -2.9037 12.4904 0.1370 16.3577 -2.5720
# 6 -1.4764 -31.3130 -5.9002 -4.0081 -2.5720 38.3477
#
#
#
# Elastic Compliance Matrix: (Units=1/GPa)
#
#
# Indices 1 2 3 4 5 6 
#
# 1 0.017759 -0.003719 0.001152 -0.004525 -0.002363 -0.002807
# 2 -0.003719 0.014192 -0.001039 -0.007167 0.005172 0.010883
# 3 0.001152 -0.001039 0.016630 -0.014144 -0.012884 -0.000588
# 4 -0.004525 -0.007167 -0.014144 0.051320 0.008852 -0.002245
# 5 -0.002363 0.005172 -0.012884 0.008852 0.073126 0.007979
# 6 -0.002807 0.010883 -0.000588 -0.002245 0.007979 0.035066
#
#
# Mechanical properties :
#
#
# Convention : Reuss Voigt Hill
#
# Bulk Modulus (GPa) = 24.17228 41.63451 32.90340
# Shear Modulus (GPa) = 21.82495 31.80606 26.81550
#
# Velocity S-wave (km/s) = 3.26057 3.93615 3.61418
# Velocity P-wave (km/s) = 5.09410 6.39833 5.78310
#
# Compressibility (1/GPa) = 0.04136970
#
# Stress axis : x y z
#
# Youngs Moduli (GPa) = 56.30849 70.46168 60.13083
#
# Poissons Ratio (x) = 0.26205 -0.06927
# Poissons Ratio (y) = 0.20941 0.06248
# Poissons Ratio (z) = -0.06487 0.07321
#
# Static dielectric constant tensor:
#      x y z
#    x 1.699620 -0.003700 -0.023110 
#    y -0.003700 1.822260 -0.017030 
#    z -0.023110 -0.017030 1.737160 
# 
# From -- ./inp_files/307371.got.cif
#   From: 2010.05.17/outbox.cif.g08.bks.cpg/sg2_154_cif.got.tgz:307371.got - 2010.06.03 11:33:40.
