data_PCOD9101225
_publ_section_title
;
Structure prediction by ZEFSAII (Michael W. Deem and Ramdas Pophale) SiO2 
 PCOD9101225
Probable space group: P -1
;
_chemical_formula_sum "Si O2"
_cell_formula_units_Z 16
_cell_length_a 19.629084
_cell_length_b 15.398552
_cell_length_c 8.361062
_cell_angle_alpha 112.642608
_cell_angle_beta 97.917396
_cell_angle_gamma 21.710290
_cell_volume 659.921522
_symmetry_space_group_name_H-M "P -1"
_symmetry_group_IT_number 2
_symmetry_cell_setting 'triclinic'
loop_
_space_group_symop_operation_xyz
x,y,z
-x,-y,-z
loop_
_atom_site_type_symbol
_atom_site_label
_atom_site_fract_x
_atom_site_fract_y
_atom_site_fract_z
Si Si1 0.299253 0.328651 0.087109
Si Si2 0.364850 0.815633 0.124654
Si Si3 0.081036 0.351580 0.223507
Si Si4 0.326060 0.174415 0.387975
Si Si5 0.668614 0.256875 0.232206
Si Si6 0.134901 0.620963 0.551384
Si Si7 0.657630 0.473009 0.285174
Si Si8 0.824351 0.879347 0.200804
O O1 0.230990 0.499664 0.312901
O O2 0.059940 0.582892 0.169306
O O3 0.500000 0.000000 0.000000
O O4 0.416786 0.196094 0.857717
O O5 0.562071 0.590125 0.155876
O O6 0.240134 0.068178 0.176700
O O7 0.459205 0.623051 0.877738
O O8 0.142260 0.050075 0.299159
O O9 0.144228 0.366444 0.335603
O O10 0.797390 0.700383 0.400685
O O11 0.165019 0.225307 0.981847
O O12 0.288608 0.334890 0.479953
O O13 0.500000 0.500000 0.500000
O O14 0.770154 0.224387 0.191171
O O15 0.836836 0.953728 0.138441
O O16 0.180045 0.654813 0.691356
O O17 0.412385 0.805963 0.546580
#
# Coordination Sequence:
#
# PCOD9101225 Si02
#       8
#     2   2   2   2   2   2   2   2
#     4  10  20  38  57  89 125 158 203 259 295 359
#     4  10  20  40  64  90 126 155 202 254 298 364
#     4   9  19  38  59  85 121 165 204 248 306 362
#     4   9  19  38  55  82 127 155 204 249 292 362
#     4   9  21  40  67  91 118 159 205 248 306 368
#     4  10  21  38  59  92 127 153 208 254 292 369
#     4  11  21  39  67  89 120 168 198 248 318 351
#     4  10  20  39  64  86 123 163 201 258 306 355
#
# _framework density 24.245308000000001
#
# number of rings (size 3 to 8) (size 9 to 14) (size 15 to 20)
#    0.000    2.250    1.250    1.125    0.000    1.000 
#   20.250    4.375    2.750    0.000    0.000    0.000 
#    0.000    0.000    0.000    0.000    0.000    0.000 
#
# Total GULP energy -89397.016393 kJ/mol
# GULP energy per Si atom -5587.313525 kJ/mol
# Density = 2.419012 g / cm^3
# Si number density = 24.245308 Si / 1000 Ang^3
#
#
#
# Elastic Constant Matrix: (Units=GPa)
#
#
# Indices 1 2 3 4 5 6 
#
# 1 85.1835 17.4463 13.5189 -12.1939 30.2256 0.6882
# 2 17.4463 57.8129 8.5152 -8.4657 13.4263 4.7069
# 3 13.5189 8.5152 148.9359 -19.7188 9.5636 -3.4857
# 4 -12.1939 -8.4657 -19.7188 34.1322 -21.5754 -0.8407
# 5 30.2256 13.4263 9.5636 -21.5754 41.7991 -2.6324
# 6 0.6882 4.7069 -3.4857 -0.8407 -2.6324 23.4034
#
#
#
# Elastic Compliance Matrix: (Units=1/GPa)
#
#
# Indices 1 2 3 4 5 6 
#
# 1 0.016422 -0.002185 -0.001036 -0.003414 -0.012809 -0.001761
# 2 -0.002185 0.019555 -0.000634 0.000798 -0.004423 -0.004432
# 3 -0.001036 -0.000634 0.007425 0.005044 0.001963 0.001666
# 4 -0.003414 0.000798 0.005044 0.047799 0.026067 0.005340
# 5 -0.012809 -0.004423 0.001963 0.026067 0.048111 0.007907
# 6 -0.001761 -0.004432 0.001666 0.005340 0.007907 0.045001
#
#
# Mechanical properties :
#
#
# Convention : Reuss Voigt Hill
#
# Bulk Modulus (GPa) = 28.01728 41.21035 34.61381
# Shear Modulus (GPa) = 24.51932 36.69706 30.60819
#
# Velocity S-wave (km/s) = 3.18355 3.89469 3.55693
# Velocity P-wave (km/s) = 5.00940 6.10401 5.58360
#
# Compressibility (1/GPa) = 0.03569226
#
# Stress axis : x y z
#
# Youngs Moduli (GPa) = 60.89433 51.13826 134.67335
#
# Poissons Ratio (x) = 0.11173 0.13958
# Poissons Ratio (y) = 0.13304 0.08534
# Poissons Ratio (z) = 0.06311 0.03241
#
# Static dielectric constant tensor:
#      x y z
#    x 2.015790 0.026680 -0.072850 
#    y 0.026680 1.895900 -0.017450 
#    z -0.072850 -0.017450 1.999890 
# 
# From -- ./inp_files/329637.got.cif
#   From: 2010.05.17/outbox.cif.g08.bks.cpg/sg2_165_cif.got.tgz:329637.got - 2010.06.03 11:33:40.
