data_PCOD9101660
_publ_section_title
;
Structure prediction by ZEFSAII (Michael W. Deem and Ramdas Pophale) SiO2 
 PCOD9101660
Probable space group: P -1
;
_chemical_formula_sum "Si O2"
_cell_formula_units_Z 15
_cell_length_a 9.148250
_cell_length_b 18.491617
_cell_length_c 7.121344
_cell_angle_alpha 45.998700
_cell_angle_beta 108.813971
_cell_angle_gamma 127.393436
_cell_volume 677.982399
_symmetry_space_group_name_H-M "P -1"
_symmetry_group_IT_number 2
_symmetry_cell_setting 'triclinic'
loop_
_space_group_symop_operation_xyz
x,y,z
-x,-y,-z
loop_
_atom_site_type_symbol
_atom_site_label
_atom_site_fract_x
_atom_site_fract_y
_atom_site_fract_z
Si Si1 0.396700 0.513241 0.663129
Si Si2 0.403520 0.211075 0.831155
Si Si3 0.000000 0.000000 0.000000
Si Si4 0.375601 0.586836 0.928638
Si Si5 0.063837 0.890184 0.856547
Si Si6 0.194186 0.710098 0.232165
Si Si7 0.688993 0.844387 0.670962
Si Si8 0.902678 0.503163 0.698123
O O1 0.546296 0.653755 0.416759
O O2 0.493211 0.441303 0.844489
O O3 0.226112 0.468158 0.533091
O O4 0.335094 0.517493 0.841590
O O5 0.211956 0.112401 0.831754
O O6 0.583637 0.216833 0.822232
O O7 0.376528 0.174225 0.105782
O O8 0.014048 0.914158 0.999019
O O9 0.192843 0.535876 0.069729
O O10 0.512176 0.731933 0.695986
O O11 0.873954 0.841238 0.747236
O O12 0.229394 0.018975 0.605826
O O13 0.123567 0.797207 0.042091
O O14 0.120481 0.612741 0.205604
O O15 0.107825 0.623221 0.535932
#
# Coordination Sequence:
#
# PCOD9101660 Si02
#       8
#     2   2   1   2   2   2   2   2
#     4  10  21  34  62  93 123 156 211 249 311 359
#     4  10  21  40  60  87 122 160 201 261 303 370
#     4  10  22  38  60  86 118 154 208 256 298 354
#     4  11  20  35  62  93 120 164 203 258 303 363
#     4  10  22  37  63  86 121 164 206 256 304 369
#     4  10  21  39  63  86 123 167 201 243 326 360
#     4  10  20  38  60  87 119 161 213 249 302 361
#     4  10  21  39  61  89 128 162 199 256 302 375
#
# _framework density 22.124466000000002
#
# number of rings (size 3 to 8) (size 9 to 14) (size 15 to 20)
#    0.000    1.867    2.667    2.000    3.733    1.067 
#    0.000    6.000   11.733    0.000    0.000    0.000 
#    0.000    0.000    0.000    0.000    0.000    0.000 
#
# Total GULP energy -83612.198592 kJ/mol
# GULP energy per Si atom -5574.146573 kJ/mol
# Density = 2.207411 g / cm^3
# Si number density = 22.124466 Si / 1000 Ang^3
#
#
#
# Elastic Constant Matrix: (Units=GPa)
#
#
# Indices 1 2 3 4 5 6 
#
# 1 135.6318 44.2627 87.1791 -18.7623 -25.7132 -7.9806
# 2 44.2627 41.5033 37.7228 7.3515 -12.7200 -17.4030
# 3 87.1791 37.7228 123.6197 -9.9813 -15.1248 -15.7382
# 4 -18.7623 7.3515 -9.9813 34.0317 2.9970 -15.2082
# 5 -25.7132 -12.7200 -15.1248 2.9970 51.3253 -4.2421
# 6 -7.9806 -17.4030 -15.7382 -15.2082 -4.2421 39.8710
#
#
#
# Elastic Compliance Matrix: (Units=1/GPa)
#
#
# Indices 1 2 3 4 5 6 
#
# 1 0.019365 -0.014923 -0.008080 0.010620 0.002881 -0.001470
# 2 -0.014923 0.055333 -0.005082 -0.016136 0.006816 0.013729
# 3 -0.008080 -0.005082 0.015969 0.002952 -0.000481 0.003543
# 4 0.010620 -0.016136 0.002952 0.045672 0.000660 0.013739
# 5 0.002881 0.006816 -0.000481 0.000660 0.022936 0.006054
# 6 -0.001470 0.013729 0.003543 0.013739 0.006054 0.038062
#
#
# Mechanical properties :
#
#
# Convention : Reuss Voigt Hill
#
# Bulk Modulus (GPa) = 28.98819 71.00933 49.99876
# Shear Modulus (GPa) = 18.86738 33.81829 26.34283
#
# Velocity S-wave (km/s) = 2.92341 3.91391 3.45435
# Velocity P-wave (km/s) = 4.95236 7.25189 6.20950
#
# Compressibility (1/GPa) = 0.03449680
#
# Stress axis : x y z
#
# Youngs Moduli (GPa) = 51.63849 18.07239 62.62182
#
# Poissons Ratio (x) = 0.26970 0.50600
# Poissons Ratio (y) = 0.77061 0.31823
# Poissons Ratio (z) = 0.41725 0.09184
#
# Static dielectric constant tensor:
#      x y z
#    x 1.738720 0.017750 0.037380 
#    y 0.017750 1.840210 0.062370 
#    z 0.037380 0.062370 1.813300 
# 
# From -- ./inp_files/211698.got.cif
#   From: 2010.05.17/outbox.cif.g08.bks.cpg/sg2_106_cif.got.tgz:211698.got - 2010.06.03 11:33:40.
