data_PCOD9101865
_publ_section_title
;
Structure prediction by ZEFSAII (Michael W. Deem and Ramdas Pophale) SiO2 
 PCOD9101865
Probable space group: P -1
;
_chemical_formula_sum "Si O2"
_cell_formula_units_Z 16
_cell_length_a 12.261603
_cell_length_b 17.008301
_cell_length_c 9.783792
_cell_angle_alpha 132.193524
_cell_angle_beta 144.366219
_cell_angle_gamma 34.977822
_cell_volume 681.358642
_symmetry_space_group_name_H-M "P -1"
_symmetry_group_IT_number 2
_symmetry_cell_setting 'triclinic'
loop_
_space_group_symop_operation_xyz
x,y,z
-x,-y,-z
loop_
_atom_site_type_symbol
_atom_site_label
_atom_site_fract_x
_atom_site_fract_y
_atom_site_fract_z
Si Si1 0.770258 0.434076 0.032456
Si Si2 0.393659 0.252846 0.253670
Si Si3 0.610436 0.600590 0.315476
Si Si4 0.399107 0.006485 0.675049
Si Si5 0.782047 0.100009 0.795260
Si Si6 0.249706 0.470302 0.175716
Si Si7 0.003752 0.754591 0.302917
Si Si8 0.067386 0.123324 0.894746
O O1 0.796904 0.490312 0.264943
O O2 0.976294 0.269892 0.034471
O O3 0.526190 0.451469 0.819662
O O4 0.746469 0.513025 0.963485
O O5 0.323907 0.345418 0.427830
O O6 0.575051 0.095968 0.303990
O O7 0.445070 0.322558 0.271765
O O8 0.185722 0.253302 0.980095
O O9 0.407785 0.737993 0.182419
O O10 0.374881 0.949198 0.445135
O O11 0.643608 0.986096 0.917791
O O12 0.147174 0.156495 0.616562
O O13 0.923351 0.087228 0.788259
O O14 0.000000 0.000000 0.000000
O O15 0.229407 0.595734 0.366731
O O16 0.000000 0.500000 0.000000
O O17 0.024376 0.839685 0.311656
#
# Coordination Sequence:
#
# PCOD9101865 Si02
#       8
#     2   2   2   2   2   2   2   2
#     4   9  18  36  58  81 119 156 191 235 296 353
#     4   9  17  33  58  82 115 143 191 245 279 336
#     4   9  19  37  58  83 113 159 197 231 297 357
#     4  10  20  38  61  85 113 157 194 229 294 357
#     4  10  22  40  56  81 121 149 194 248 279 338
#     4   9  18  34  53  83 117 145 185 250 288 329
#     4   9  18  36  56  84 118 148 188 234 290 354
#     4   9  18  36  62  80 116 154 184 239 292 338
#
# _framework density 23.482491
#
# number of rings (size 3 to 8) (size 9 to 14) (size 15 to 20)
#    0.000    2.750    0.000    2.250    0.000    1.500 
#   13.500   18.125    0.000    0.000    0.000    0.000 
#    0.000    0.000    0.000    0.000    0.000    0.000 
#
# Total GULP energy -89167.459467 kJ/mol
# GULP energy per Si atom -5572.966217 kJ/mol
# Density = 2.342904 g / cm^3
# Si number density = 23.482491 Si / 1000 Ang^3
#
#
#
# Elastic Constant Matrix: (Units=GPa)
#
#
# Indices 1 2 3 4 5 6 
#
# 1 58.7861 0.0108 -1.4854 12.9589 0.1130 -6.0549
# 2 0.0108 42.3801 0.6703 -2.6771 -3.8464 -13.9696
# 3 -1.4854 0.6703 51.5238 1.3589 9.3458 2.4198
# 4 12.9589 -2.6771 1.3589 33.5296 -5.8522 -7.2738
# 5 0.1130 -3.8464 9.3458 -5.8522 26.8786 1.8695
# 6 -6.0549 -13.9696 2.4198 -7.2738 1.8695 24.5332
#
#
#
# Elastic Compliance Matrix: (Units=1/GPa)
#
#
# Indices 1 2 3 4 5 6 
#
# 1 0.018888 0.000252 0.000983 -0.007089 -0.002121 0.002768
# 2 0.000252 0.031236 -0.002574 0.007829 0.005678 0.019991
# 3 0.000983 -0.002574 0.021253 -0.003719 -0.008309 -0.003789
# 4 -0.007089 0.007829 -0.003719 0.037995 0.009770 0.013595
# 5 -0.002121 0.005678 -0.008309 0.009770 0.042822 0.003163
# 6 0.002768 0.019991 -0.003789 0.013595 0.003163 0.056991
#
#
# Mechanical properties :
#
#
# Convention : Reuss Voigt Hill
#
# Bulk Modulus (GPa) = 14.55663 16.78684 15.67174
# Shear Modulus (GPa) = 21.29805 27.22125 24.25965
#
# Velocity S-wave (km/s) = 3.01487 3.40842 3.21767
# Velocity P-wave (km/s) = 4.28155 4.75961 4.52690
#
# Compressibility (1/GPa) = 0.06869721
#
# Stress axis : x y z
#
# Youngs Moduli (GPa) = 52.94494 32.01437 47.05119
#
# Poissons Ratio (x) = -0.00805 -0.04625
# Poissons Ratio (y) = -0.01332 0.12113
# Poissons Ratio (z) = -0.05205 0.08242
#
# Static dielectric constant tensor:
#      x y z
#    x 1.985040 0.010840 0.009530 
#    y 0.010840 2.033010 -0.077340 
#    z 0.009530 -0.077340 1.960920 
# 
# From -- ./inp_files/276886.got.cif
#   From: 2010.05.17/outbox.cif.g08.bks.cpg/sg2_139_cif.got.tgz:276886.got - 2010.06.03 11:33:40.
