data_PCOD9101169
_publ_section_title
;
Structure prediction by ZEFSAII (Michael W. Deem and Ramdas Pophale) SiO2 
 PCOD9101169
Probable space group: P -1
;
_chemical_formula_sum "Si O2"
_cell_formula_units_Z 13
_cell_length_a 7.697407
_cell_length_b 12.356290
_cell_length_c 8.483288
_cell_angle_alpha 115.435416
_cell_angle_beta 99.699138
_cell_angle_gamma 125.050662
_cell_volume 493.582632
_symmetry_space_group_name_H-M "P -1"
_symmetry_group_IT_number 2
_symmetry_cell_setting 'triclinic'
loop_
_space_group_symop_operation_xyz
x,y,z
-x,-y,-z
loop_
_atom_site_type_symbol
_atom_site_label
_atom_site_fract_x
_atom_site_fract_y
_atom_site_fract_z
Si Si1 0.671965 0.439802 0.913963
Si Si2 0.890745 0.799905 0.261077
Si Si3 0.092511 0.934606 0.693904
Si Si4 0.274826 0.672325 0.444512
Si Si5 0.662514 0.215945 0.970217
Si Si6 0.915691 0.624999 0.604234
Si Si7 0.500000 0.000000 0.500000
O O1 0.367389 0.295463 0.738344
O O2 0.806718 0.434223 0.794346
O O3 0.669925 0.362042 0.024154
O O4 0.796287 0.631272 0.064557
O O5 0.115232 0.898951 0.488664
O O6 0.950124 0.944656 0.254833
O O7 0.888512 0.750438 0.634028
O O8 0.371219 0.051782 0.883659
O O9 0.056928 0.636664 0.482708
O O10 0.315223 0.576496 0.505706
O O11 0.472899 0.868357 0.537414
O O12 0.663601 0.152402 0.760457
O O13 0.871252 0.277268 0.164129
#
# Coordination Sequence:
#
# PCOD9101169 Si02
#       7
#     2   2   2   2   2   2   1
#     4   9  20  40  62  90 115 169 216 257 295 382
#     4   9  20  39  66  85 119 171 220 247 301 369
#     4  10  20  38  62  88 122 165 208 254 306 375
#     4  10  23  38  61  93 129 160 205 254 326 364
#     4  10  21  35  64  90 125 160 203 257 322 362
#     4  11  23  39  60 100 127 162 194 268 331 366
#     4  10  20  38  56  92 124 160 204 242 304 394
#
# _framework density 26.338038999999998
#
# number of rings (size 3 to 8) (size 9 to 14) (size 15 to 20)
#    0.000    2.154    1.538    0.462    4.308    3.692 
#    0.000    1.538    0.000    0.000    0.000    0.000 
#    0.000    0.000    0.000    0.000    0.000    0.000 
#
# Total GULP energy -72436.365388 kJ/mol
# GULP energy per Si atom -5572.028107 kJ/mol
# Density = 2.627809 g / cm^3
# Si number density = 26.338039 Si / 1000 Ang^3
#
#
#
# Elastic Constant Matrix: (Units=GPa)
#
#
# Indices 1 2 3 4 5 6 
#
# 1 52.5565 47.2213 36.8828 11.1963 5.8891 -4.4053
# 2 47.2213 294.8633 28.7209 35.8652 -15.1037 -52.5217
# 3 36.8828 28.7209 111.2974 -0.0283 -16.5223 -17.5231
# 4 11.1963 35.8652 -0.0283 40.0539 -12.0756 -13.9182
# 5 5.8891 -15.1037 -16.5223 -12.0756 43.1918 11.4276
# 6 -4.4053 -52.5217 -17.5231 -13.9182 11.4276 49.3918
#
#
#
# Elastic Compliance Matrix: (Units=1/GPa)
#
#
# Indices 1 2 3 4 5 6 
#
# 1 0.037221 -0.005078 -0.014266 -0.012652 -0.013861 -0.007500
# 2 -0.005078 0.005143 0.001331 -0.001070 0.001415 0.004859
# 3 -0.014266 0.001331 0.015601 0.007496 0.008962 0.005716
# 4 -0.012652 -0.001070 0.007496 0.035807 0.012203 0.007660
# 5 -0.013861 0.001415 0.008962 0.012203 0.032547 -0.000644
# 6 -0.007500 0.004859 0.005716 0.007660 -0.000644 0.029080
#
#
# Mechanical properties :
#
#
# Convention : Reuss Voigt Hill
#
# Bulk Modulus (GPa) = 45.58182 76.04081 60.81131
# Shear Modulus (GPa) = 25.15838 49.58699 37.37269
#
# Velocity S-wave (km/s) = 3.09400 4.34373 3.77100
# Velocity P-wave (km/s) = 5.48706 7.35467 6.48841
#
# Compressibility (1/GPa) = 0.02193857
#
# Stress axis : x y z
#
# Youngs Moduli (GPa) = 26.86631 194.43036 64.09644
#
# Poissons Ratio (x) = 0.98736 0.91440
# Poissons Ratio (y) = 0.13643 -0.08528
# Poissons Ratio (z) = 0.38328 -0.25870
#
# Static dielectric constant tensor:
#      x y z
#    x 1.632510 -0.253650 0.018790 
#    y -0.253650 1.973990 0.023850 
#    z 0.018790 0.023850 2.064230 
# 
# From -- ./inp_files/189482.got.cif
#   From: 2010.05.17/outbox.cif.g08.bks.cpg/sg2_95_cif.got.tgz:189482.got - 2010.06.03 11:33:40.
