data_PCOD9101326
_publ_section_title
;
Structure prediction by ZEFSAII (Michael W. Deem and Ramdas Pophale) SiO2 
 PCOD9101326
Probable space group: P -1
;
_chemical_formula_sum "Si O2"
_cell_formula_units_Z 14
_cell_length_a 9.675747
_cell_length_b 15.756270
_cell_length_c 8.457043
_cell_angle_alpha 125.760698
_cell_angle_beta 88.364741
_cell_angle_gamma 51.844226
_cell_volume 651.548121
_symmetry_space_group_name_H-M "P -1"
_symmetry_group_IT_number 2
_symmetry_cell_setting 'triclinic'
loop_
_space_group_symop_operation_xyz
x,y,z
-x,-y,-z
loop_
_atom_site_type_symbol
_atom_site_label
_atom_site_fract_x
_atom_site_fract_y
_atom_site_fract_z
Si Si1 0.507139 0.381574 0.673312
Si Si2 0.710554 0.064576 0.021859
Si Si3 0.972248 0.717792 0.492842
Si Si4 0.039253 0.902093 0.108112
Si Si5 0.740533 0.640855 0.480847
Si Si6 0.255939 0.565554 0.594406
Si Si7 0.855775 0.256160 0.753588
O O1 0.389553 0.338138 0.637255
O O2 0.488258 0.417030 0.522172
O O3 0.735881 0.258405 0.623706
O O4 0.338626 0.564588 0.956298
O O5 0.449837 0.214065 0.228393
O O6 0.796533 0.097518 0.925930
O O7 0.823680 0.039847 0.154032
O O8 0.810260 0.893850 0.782614
O O9 0.881925 0.654828 0.439140
O O10 0.211062 0.583636 0.429518
O O11 0.997379 0.747389 0.349056
O O12 0.017751 0.885828 0.274318
O O13 0.145437 0.734706 0.846908
O O14 0.864929 0.467924 0.367708
#
# Coordination Sequence:
#
# PCOD9101326 Si02
#       7
#     2   2   2   2   2   2   2
#     4   8  20  36  58  85 113 149 189 242 278 323
#     4  10  22  37  61  84 115 153 191 240 277 343
#     4  11  22  36  60  87 120 152 186 231 294 343
#     4   9  20  39  59  86 109 152 196 237 287 325
#     4  10  21  38  60  86 116 151 194 234 281 341
#     4   8  19  36  59  83 108 150 196 234 273 328
#     4  10  20  38  58  88 117 145 192 241 285 341
#
# _framework density 21.487285
#
# number of rings (size 3 to 8) (size 9 to 14) (size 15 to 20)
#    0.857    1.714    0.000    0.857    6.000    5.714 
#    0.000    0.714    3.143    0.000    0.000    0.000 
#    0.000    0.000    0.000    0.000    0.000    0.000 
#
# Total GULP energy -78017.879474 kJ/mol
# GULP energy per Si atom -5572.705677 kJ/mol
# Density = 2.143838 g / cm^3
# Si number density = 21.487285 Si / 1000 Ang^3
#
#
#
# Elastic Constant Matrix: (Units=GPa)
#
#
# Indices 1 2 3 4 5 6 
#
# 1 102.3970 44.4807 6.5097 -4.9305 3.1292 19.9673
# 2 44.4807 108.0486 12.9043 -20.7612 -4.7066 9.9832
# 3 6.5097 12.9043 42.0221 -3.6565 3.1854 2.7696
# 4 -4.9305 -20.7612 -3.6565 34.6122 6.8680 1.6689
# 5 3.1292 -4.7066 3.1854 6.8680 24.6198 6.4779
# 6 19.9673 9.9832 2.7696 1.6689 6.4779 25.3285
#
#
#
# Elastic Compliance Matrix: (Units=1/GPa)
#
#
# Indices 1 2 3 4 5 6 
#
# 1 0.013565 -0.004891 -0.000059 -0.000546 -0.000218 -0.008668
# 2 -0.004891 0.013137 -0.002739 0.006557 0.002188 -0.002015
# 3 -0.000059 -0.002739 0.025166 0.001856 -0.004106 -0.000698
# 4 -0.000546 0.006557 0.001856 0.034634 -0.007889 -0.002621
# 5 -0.000218 0.002188 -0.004106 -0.007889 0.046877 -0.011711
# 6 -0.008668 -0.002015 -0.000698 -0.002621 -0.011711 0.050352
#
#
# Mechanical properties :
#
#
# Convention : Reuss Voigt Hill
#
# Bulk Modulus (GPa) = 27.40509 42.25079 34.82794
# Shear Modulus (GPa) = 23.66606 29.48362 26.57484
#
# Velocity S-wave (km/s) = 3.32233 3.70826 3.52059
# Velocity P-wave (km/s) = 5.24395 6.16772 5.72450
#
# Compressibility (1/GPa) = 0.03648957
#
# Stress axis : x y z
#
# Youngs Moduli (GPa) = 73.72047 76.12114 39.73611
#
# Poissons Ratio (x) = 0.37230 0.00235
# Poissons Ratio (y) = 0.36055 0.10884
# Poissons Ratio (z) = 0.00436 0.20850
#
# Static dielectric constant tensor:
#      x y z
#    x 1.829850 -0.008600 0.005040 
#    y -0.008600 1.857390 0.013390 
#    z 0.005040 0.013390 1.816930 
# 
# From -- ./inp_files/208659.got.cif
#   From: 2010.05.17/outbox.cif.g08.bks.cpg/sg2_105_cif.got.tgz:208659.got - 2010.06.03 11:33:40.
