data_PCOD9101676
_publ_section_title
;
Structure prediction by ZEFSAII (Michael W. Deem and Ramdas Pophale) SiO2 
 PCOD9101676
Probable space group: P -1
;
_chemical_formula_sum "Si O2"
_cell_formula_units_Z 14
_cell_length_a 12.584941
_cell_length_b 9.282567
_cell_length_c 16.277867
_cell_angle_alpha 137.258856
_cell_angle_beta 151.413543
_cell_angle_gamma 49.479196
_cell_volume 617.456252
_symmetry_space_group_name_H-M "P -1"
_symmetry_group_IT_number 2
_symmetry_cell_setting 'triclinic'
loop_
_space_group_symop_operation_xyz
x,y,z
-x,-y,-z
loop_
_atom_site_type_symbol
_atom_site_label
_atom_site_fract_x
_atom_site_fract_y
_atom_site_fract_z
Si Si1 0.712672 0.647910 0.695601
Si Si2 0.460730 0.872003 0.242764
Si Si3 0.887086 0.597745 0.621514
Si Si4 0.318455 0.749308 0.916484
Si Si5 0.735643 0.000249 0.615090
Si Si6 0.135171 0.227851 0.971126
Si Si7 0.445635 0.478424 0.167351
O O1 0.500000 0.500000 0.500000
O O2 0.859451 0.554130 0.680811
O O3 0.635244 0.888657 0.719964
O O4 0.820665 0.679703 0.870383
O O5 0.353014 0.698493 0.157241
O O6 0.700784 0.891192 0.457043
O O7 0.441513 0.789036 0.103016
O O8 0.668164 0.515263 0.390505
O O9 0.126561 0.573003 0.730837
O O10 0.873683 0.853026 0.708831
O O11 0.472821 0.658663 0.912022
O O12 0.231088 0.984520 0.928179
O O13 0.869521 0.209339 0.775270
O O14 0.500000 0.000000 0.500000
O O15 0.263172 0.361251 0.046932
#
# Coordination Sequence:
#
# PCOD9101676 Si02
#       7
#     2   2   2   2   2   2   2
#     4  11  21  41  62  94 123 155 204 252 307 365
#     4  10  23  39  64  87 124 162 197 257 305 352
#     4  10  21  37  65  89 121 163 200 244 307 366
#     4  10  22  40  65  87 123 165 206 243 295 368
#     4  10  20  38  60  87 125 157 196 245 309 362
#     4  10  23  38  64  93 120 164 198 254 304 358
#     4  11  21  42  61  94 122 159 207 249 301 357
#
# _framework density 22.673669
#
# number of rings (size 3 to 8) (size 9 to 14) (size 15 to 20)
#    0.000    1.714    2.857    1.286    2.000    1.714 
#    2.571    4.286    0.000    0.000    0.000    0.000 
#    0.000    0.000    0.000    0.000    0.000    0.000 
#
# Total GULP energy -78116.482708 kJ/mol
# GULP energy per Si atom -5579.748765 kJ/mol
# Density = 2.262206 g / cm^3
# Si number density = 22.673669 Si / 1000 Ang^3
#
#
#
# Elastic Constant Matrix: (Units=GPa)
#
#
# Indices 1 2 3 4 5 6 
#
# 1 175.4831 52.9882 80.7944 17.8548 5.3669 32.3844
# 2 52.9882 88.3235 26.6730 20.3897 12.9750 17.4865
# 3 80.7944 26.6730 128.1362 28.1216 18.1841 22.0873
# 4 17.8548 20.3897 28.1216 22.3284 3.8924 3.5825
# 5 5.3669 12.9750 18.1841 3.8924 30.1527 7.6165
# 6 32.3844 17.4865 22.0873 3.5825 7.6165 34.1866
#
#
#
# Elastic Compliance Matrix: (Units=1/GPa)
#
#
# Indices 1 2 3 4 5 6 
#
# 1 0.010436 -0.005088 -0.006300 0.004158 0.004786 -0.004715
# 2 -0.005088 0.018803 0.004833 -0.017280 -0.006703 -0.004616
# 3 -0.006300 0.004833 0.016459 -0.018207 -0.007643 -0.003527
# 4 0.004158 -0.017280 -0.018207 0.078008 0.005787 0.007199
# 5 0.004786 -0.006703 -0.007643 0.005787 0.040525 -0.005801
# 6 -0.004715 -0.004616 -0.003527 0.007199 -0.005801 0.038896
#
#
# Mechanical properties :
#
#
# Convention : Reuss Voigt Hill
#
# Bulk Modulus (GPa) = 30.68540 79.20601 54.94571
# Shear Modulus (GPa) = 22.01684 32.76600 27.39142
#
# Velocity S-wave (km/s) = 3.11952 3.80559 3.47950
# Velocity P-wave (km/s) = 5.15151 7.37013 6.35834
#
# Compressibility (1/GPa) = 0.03258879
#
# Stress axis : x y z
#
# Youngs Moduli (GPa) = 95.81944 53.18435 60.75669
#
# Poissons Ratio (x) = 0.27059 0.38278
# Poissons Ratio (y) = 0.48751 -0.29367
# Poissons Ratio (z) = 0.60369 -0.25707
#
# Static dielectric constant tensor:
#      x y z
#    x 1.850190 -0.041340 0.026980 
#    y -0.041340 1.921670 -0.041080 
#    z 0.026980 -0.041080 1.923280 
# 
# From -- ./inp_files/241160.got.cif
#   From: 2010.05.17/outbox.cif.g08.bks.cpg/sg2_121_cif.got.tgz:241160.got - 2010.06.03 11:33:40.
