data_PCOD9101950
_publ_section_title
;
Structure prediction by ZEFSAII (Michael W. Deem and Ramdas Pophale) SiO2 
 PCOD9101950
Probable space group: P -1
;
_chemical_formula_sum "Si O2"
_cell_formula_units_Z 14
_cell_length_a 5.267290
_cell_length_b 14.908535
_cell_length_c 14.945561
_cell_angle_alpha 30.761921
_cell_angle_beta 86.712593
_cell_angle_gamma 74.905948
_cell_volume 545.670272
_symmetry_space_group_name_H-M "P -1"
_symmetry_group_IT_number 2
_symmetry_cell_setting 'triclinic'
loop_
_space_group_symop_operation_xyz
x,y,z
-x,-y,-z
loop_
_atom_site_type_symbol
_atom_site_label
_atom_site_fract_x
_atom_site_fract_y
_atom_site_fract_z
Si Si1 0.434841 0.111218 0.500876
Si Si2 0.504532 0.320102 0.948237
Si Si3 0.336855 0.626429 0.812780
Si Si4 0.348048 0.804522 0.244328
Si Si5 0.037059 0.925027 0.710052
Si Si6 0.302454 0.508105 0.367577
Si Si7 0.235520 0.204476 0.912206
O O1 0.457309 0.308498 0.305031
O O2 0.500000 0.000000 0.500000
O O3 0.161205 0.088657 0.561095
O O4 0.704201 0.008779 0.647208
O O5 0.270986 0.477987 0.880097
O O6 0.549179 0.431295 0.766666
O O7 0.409153 0.172978 0.026433
O O8 0.778601 0.213302 0.095778
O O9 0.111164 0.806617 0.715347
O O10 0.500000 0.500000 0.000000
O O11 0.241297 0.657500 0.325107
O O12 0.510323 0.699944 0.419825
O O13 0.579525 0.808724 0.166858
O O14 0.137637 0.028366 0.065103
O O15 0.996472 0.577070 0.273632
#
# Coordination Sequence:
#
# PCOD9101950 Si02
#       7
#     2   2   2   2   2   2   2
#     4  10  20  40  65  89 116 163 227 264 313 383
#     4  10  23  39  52  91 126 158 209 266 317 379
#     4   9  19  40  59  84 122 163 206 258 317 370
#     4   9  20  38  63  88 118 161 209 258 317 399
#     4  10  22  41  64  89 124 171 217 263 315 382
#     4  10  20  38  61  89 123 158 211 261 321 385
#     4  10  20  38  61  88 123 161 208 257 328 380
#
# _framework density 25.65652
#
# number of rings (size 3 to 8) (size 9 to 14) (size 15 to 20)
#    0.000    2.286    0.000    2.571    2.000    1.143 
#   10.286   10.000    0.000    0.000    0.000    0.000 
#    0.000    0.000    0.000    0.000    0.000    0.000 
#
# Total GULP energy -78136.752832 kJ/mol
# GULP energy per Si atom -5581.196631 kJ/mol
# Density = 2.559812 g / cm^3
# Si number density = 25.656520 Si / 1000 Ang^3
#
#
#
# Elastic Constant Matrix: (Units=GPa)
#
#
# Indices 1 2 3 4 5 6 
#
# 1 74.4313 6.5511 15.7071 20.4656 14.9848 13.8038
# 2 6.5511 85.3099 38.2317 19.3926 1.9292 9.8767
# 3 15.7071 38.2317 153.1700 28.4720 17.6516 12.3010
# 4 20.4656 19.3926 28.4720 31.6003 8.5886 0.4680
# 5 14.9848 1.9292 17.6516 8.5886 33.2988 7.9989
# 6 13.8038 9.8767 12.3010 0.4680 7.9989 24.4191
#
#
#
# Elastic Compliance Matrix: (Units=1/GPa)
#
#
# Indices 1 2 3 4 5 6 
#
# 1 0.019697 0.002597 0.001322 -0.014499 -0.003208 -0.011522
# 2 0.002597 0.015574 -0.002035 -0.010243 0.003497 -0.007692
# 3 0.001322 -0.002035 0.008712 -0.006712 -0.002561 -0.003346
# 4 -0.014499 -0.010243 -0.006712 0.055204 -0.007690 0.017181
# 5 -0.003208 0.003497 -0.002561 -0.007690 0.037090 -0.010313
# 6 -0.011522 -0.007692 -0.003346 0.017181 -0.010313 0.055311
#
#
# Mechanical properties :
#
#
# Convention : Reuss Voigt Hill
#
# Bulk Modulus (GPa) = 20.94121 48.21010 34.57565
# Shear Modulus (GPa) = 24.54137 34.69173 29.61655
#
# Velocity S-wave (km/s) = 3.09615 3.68116 3.40126
# Velocity P-wave (km/s) = 4.57836 6.07448 5.37869
#
# Compressibility (1/GPa) = 0.04775274
#
# Stress axis : x y z
#
# Youngs Moduli (GPa) = 50.76918 64.20799 114.77783
#
# Poissons Ratio (x) = -0.16678 -0.15174
# Poissons Ratio (y) = -0.13187 0.23358
# Poissons Ratio (z) = -0.06712 0.13067
#
# Static dielectric constant tensor:
#      x y z
#    x 2.170240 0.030740 -0.001530 
#    y 0.030740 2.107610 -0.068030 
#    z -0.001530 -0.068030 2.026500 
# 
# From -- ./inp_files/98426.got.cif
#   From: 2010.05.17/outbox.cif.g08.bks.cpg/sg2_50_cif.got.tgz:98426.got - 2010.06.03 11:33:40.
