data_PCOD9101828
_publ_section_title
;
Structure prediction by ZEFSAII (Michael W. Deem and Ramdas Pophale) SiO2 
 PCOD9101828
Probable space group: P -1
;
_chemical_formula_sum "Si O2"
_cell_formula_units_Z 12
_cell_length_a 6.492860
_cell_length_b 15.845951
_cell_length_c 16.568540
_cell_angle_alpha 25.336148
_cell_angle_beta 40.880167
_cell_angle_gamma 53.531077
_cell_volume 452.696132
_symmetry_space_group_name_H-M "P -1"
_symmetry_group_IT_number 2
_symmetry_cell_setting 'triclinic'
loop_
_space_group_symop_operation_xyz
x,y,z
-x,-y,-z
loop_
_atom_site_type_symbol
_atom_site_label
_atom_site_fract_x
_atom_site_fract_y
_atom_site_fract_z
Si Si1 0.729988 0.624457 0.726996
Si Si2 0.822324 0.170594 0.085036
Si Si3 0.836494 0.226159 0.380206
Si Si4 0.830782 0.204801 0.225800
Si Si5 0.298527 0.386593 0.428175
Si Si6 0.819535 0.655952 0.317881
O O1 0.360871 0.622580 0.860728
O O2 0.851524 0.725002 0.515920
O O3 0.952939 0.754488 0.619382
O O4 0.752692 0.392866 0.914409
O O5 0.993958 0.182917 0.111361
O O6 0.488657 0.978221 0.343851
O O7 0.041640 0.170080 0.941772
O O8 0.992277 0.210518 0.260523
O O9 0.681516 0.418237 0.264887
O O10 0.500000 0.000000 0.500000
O O11 0.275437 0.301307 0.600119
O O12 0.123685 0.564326 0.325919
O O13 0.500000 0.500000 0.500000
#
# Coordination Sequence:
#
# PCOD9101828 Si02
#       6
#     2   2   2   2   2   2
#     4  10  20  38  61  82 116 155 185 230 288 337
#     4  10  21  37  59  86 114 150 194 232 279 342
#     4  10  21  39  60  84 118 150 184 237 288 333
#     4   9  20  38  57  87 121 145 188 239 276 339
#     4   9  19  37  56  82 115 145 188 240 276 329
#     4  10  20  38  61  82 114 154 190 235 287 333
#
# _framework density 26.507846000000001
#
# number of rings (size 3 to 8) (size 9 to 14) (size 15 to 20)
#    0.000    2.333    0.000    2.500    0.000    4.000 
#    0.000   36.667    0.000    0.000    0.000    0.000 
#    0.000    0.000    0.000    0.000    0.000    0.000 
#
# Total GULP energy -66947.375711 kJ/mol
# GULP energy per Si atom -5578.947976 kJ/mol
# Density = 2.644751 g / cm^3
# Si number density = 26.507846 Si / 1000 Ang^3
#
#
#
# Elastic Constant Matrix: (Units=GPa)
#
#
# Indices 1 2 3 4 5 6 
#
# 1 166.7890 67.2266 39.0298 23.3435 -0.5026 64.6957
# 2 67.2266 145.6422 36.4067 38.3866 20.9940 57.1089
# 3 39.0298 36.4067 87.2616 18.5057 -1.5211 48.5749
# 4 23.3435 38.3866 18.5057 72.9689 23.0416 28.6784
# 5 -0.5026 20.9940 -1.5211 23.0416 32.8818 11.5076
# 6 64.6957 57.1089 48.5749 28.6784 11.5076 90.1254
#
#
#
# Elastic Compliance Matrix: (Units=1/GPa)
#
#
# Indices 1 2 3 4 5 6 
#
# 1 0.009200 -0.002588 0.000199 -0.000891 0.004294 -0.005336
# 2 -0.002588 0.010737 -0.001303 -0.001830 -0.004596 -0.003074
# 3 0.000199 -0.001303 0.017399 -0.002356 0.006355 -0.008757
# 4 -0.000891 -0.001830 -0.002356 0.020182 -0.012481 -0.001759
# 5 0.004294 -0.004596 0.006355 -0.012481 0.044300 -0.005280
# 6 -0.005336 -0.003074 -0.008757 -0.001759 -0.005280 0.022828
#
#
# Mechanical properties :
#
#
# Convention : Reuss Voigt Hill
#
# Bulk Modulus (GPa) = 33.38592 76.11322 54.74957
# Shear Modulus (GPa) = 35.20801 56.33054 45.76927
#
# Velocity S-wave (km/s) = 3.64842 4.61483 4.15978
# Velocity P-wave (km/s) = 5.51090 7.56117 6.61594
#
# Compressibility (1/GPa) = 0.02995274
#
# Stress axis : x y z
#
# Youngs Moduli (GPa) = 108.70135 93.13737 57.47359
#
# Poissons Ratio (x) = 0.24104 -0.01144
# Poissons Ratio (y) = 0.28132 0.07487
# Poissons Ratio (z) = -0.02165 0.12132
#
# Static dielectric constant tensor:
#      x y z
#    x 2.090020 -0.016540 0.066090 
#    y -0.016540 2.081240 -0.053900 
#    z 0.066090 -0.053900 2.321920 
# 
# From -- ./inp_files/30932.got.cif
#   From: 2010.05.17/outbox.cif.g08.bks.cpg/sg2_16_cif.got.tgz:30932.got - 2010.06.03 11:33:40.
