data_PCOD9101861
_publ_section_title
;
Structure prediction by ZEFSAII (Michael W. Deem and Ramdas Pophale) SiO2 
 PCOD9101861
Probable space group: P -1
;
_chemical_formula_sum "Si O2"
_cell_formula_units_Z 16
_cell_length_a 14.287320
_cell_length_b 7.509371
_cell_length_c 9.553669
_cell_angle_alpha 65.449279
_cell_angle_beta 100.951126
_cell_angle_gamma 65.520114
_cell_volume 763.024400
_symmetry_space_group_name_H-M "P -1"
_symmetry_group_IT_number 2
_symmetry_cell_setting 'triclinic'
loop_
_space_group_symop_operation_xyz
x,y,z
-x,-y,-z
loop_
_atom_site_type_symbol
_atom_site_label
_atom_site_fract_x
_atom_site_fract_y
_atom_site_fract_z
Si Si1 0.751353 0.016140 0.536097
Si Si2 0.602165 0.035984 0.985873
Si Si3 0.816055 0.771990 0.340142
Si Si4 0.537434 0.499126 0.351205
Si Si5 0.824138 0.315245 0.871061
Si Si6 0.066215 0.226394 0.887838
Si Si7 0.242023 0.580168 0.484454
Si Si8 0.226197 0.293162 0.093352
O O1 0.805678 0.888361 0.448348
O O2 0.763325 0.838933 0.716064
O O3 0.616778 0.228380 0.411678
O O4 0.806237 0.155083 0.566676
O O5 0.556992 0.303797 0.841465
O O6 0.669271 0.878316 0.920940
O O7 0.500000 0.000000 0.000000
O O8 0.697006 0.940310 0.166201
O O9 0.916325 0.729084 0.281121
O O10 0.824961 0.530603 0.447477
O O11 0.500000 0.500000 0.500000
O O12 0.631760 0.564893 0.368065
O O13 0.745900 0.430820 0.675480
O O14 0.778418 0.474429 0.943052
O O15 0.941246 0.296827 0.870935
O O16 0.853420 0.055394 0.979060
O O17 0.114602 0.342264 0.963041
#
# Coordination Sequence:
#
# PCOD9101861 Si02
#       8
#     2   2   2   2   2   2   2   2
#     4  10  21  39  61  88 123 163 204 242 293 370
#     4  11  21  39  59  92 125 156 200 255 293 350
#     4  11  23  40  62  91 124 160 200 254 310 351
#     4  10  20  38  61  84 125 164 198 248 295 349
#     4  11  22  42  67  90 116 163 205 249 311 363
#     4  10  24  41  64  93 123 149 205 263 303 357
#     4  10  21  39  62  85 128 157 200 256 292 362
#     4  11  21  40  67  87 122 164 202 245 303 368
#
# _framework density 20.969186000000001
#
# number of rings (size 3 to 8) (size 9 to 14) (size 15 to 20)
#    0.750    0.750    5.000    0.375    1.750    4.000 
#    2.250    2.500    0.000    0.000    0.000    0.000 
#    0.000    0.000    0.000    0.000    0.000    0.000 
#
# Total GULP energy -89302.260053 kJ/mol
# GULP energy per Si atom -5581.391253 kJ/mol
# Density = 2.092146 g / cm^3
# Si number density = 20.969186 Si / 1000 Ang^3
#
#
#
# Elastic Constant Matrix: (Units=GPa)
#
#
# Indices 1 2 3 4 5 6 
#
# 1 44.6350 -2.5920 1.1532 8.3237 -5.1985 -1.6796
# 2 -2.5920 76.2280 14.1980 24.7244 2.0682 8.4460
# 3 1.1532 14.1980 64.7625 15.1624 -3.2506 6.0418
# 4 8.3237 24.7244 15.1624 35.0650 -2.9122 -1.2690
# 5 -5.1985 2.0682 -3.2506 -2.9122 33.3959 5.0255
# 6 -1.6796 8.4460 6.0418 -1.2690 5.0255 25.1459
#
#
#
# Elastic Compliance Matrix: (Units=1/GPa)
#
#
# Indices 1 2 3 4 5 6 
#
# 1 0.024469 0.003368 0.001019 -0.008396 0.003085 -0.000782
# 2 0.003368 0.018604 -0.000276 -0.014108 -0.000909 -0.006488
# 3 0.001019 -0.000276 0.017864 -0.007786 0.001976 -0.004919
# 4 -0.008396 -0.014108 -0.007786 0.044237 0.001464 0.007989
# 5 0.003085 -0.000909 0.001976 0.001464 0.031738 -0.006233
# 6 -0.000782 -0.006488 -0.004919 0.007989 -0.006233 0.044726
#
#
# Mechanical properties :
#
#
# Convention : Reuss Voigt Hill
#
# Bulk Modulus (GPa) = 14.45892 23.46043 18.95968
# Shear Modulus (GPa) = 25.44949 30.24577 27.84763
#
# Velocity S-wave (km/s) = 3.48754 3.80200 3.64816
# Velocity P-wave (km/s) = 4.80911 5.52141 5.17753
#
# Compressibility (1/GPa) = 0.06916146
#
# Stress axis : x y z
#
# Youngs Moduli (GPa) = 40.86824 53.75200 55.97728
#
# Poissons Ratio (x) = -0.18106 -0.05707
# Poissons Ratio (y) = -0.13766 0.01544
# Poissons Ratio (z) = -0.04166 0.01483
#
# Static dielectric constant tensor:
#      x y z
#    x 1.767870 0.002500 0.009720 
#    y 0.002500 1.734020 -0.027120 
#    z 0.009720 -0.027120 1.772420 
# 
# From -- ./inp_files/208186.got.cif
#   From: 2010.05.17/outbox.cif.g08.bks.cpg/sg2_105_cif.got.tgz:208186.got - 2010.06.03 11:33:40.
