data_PCOD9101444
_publ_section_title
;
Structure prediction by ZEFSAII (Michael W. Deem and Ramdas Pophale) SiO2 
 PCOD9101444
Probable space group: P -1
;
_chemical_formula_sum "Si O2"
_cell_formula_units_Z 12
_cell_length_a 7.395155
_cell_length_b 8.868845
_cell_length_c 17.793915
_cell_angle_alpha 52.945428
_cell_angle_beta 139.757271
_cell_angle_gamma 127.550604
_cell_volume 575.836684
_symmetry_space_group_name_H-M "P -1"
_symmetry_group_IT_number 2
_symmetry_cell_setting 'triclinic'
loop_
_space_group_symop_operation_xyz
x,y,z
-x,-y,-z
loop_
_atom_site_type_symbol
_atom_site_label
_atom_site_fract_x
_atom_site_fract_y
_atom_site_fract_z
Si Si1 0.586495 0.730601 0.459334
Si Si2 0.560671 0.838219 0.936993
Si Si3 0.225284 0.894714 0.667935
Si Si4 0.048646 0.716536 0.053358
Si Si5 0.030434 0.306847 0.136566
Si Si6 0.611498 0.973066 0.625723
O O1 0.500000 0.500000 0.500000
O O2 0.878557 0.805550 0.580495
O O3 0.685707 0.864592 0.375950
O O4 0.322130 0.808356 0.383289
O O5 0.716746 0.069137 0.932634
O O6 0.319959 0.746880 0.950088
O O7 0.378847 0.822925 0.806636
O O8 0.807177 0.728237 0.034896
O O9 0.362332 0.857892 0.641671
O O10 0.906283 0.694227 0.931518
O O11 0.155164 0.521191 0.150298
O O12 0.142815 0.136970 0.260867
O O13 0.500000 0.000000 0.500000
#
# Coordination Sequence:
#
# PCOD9101444 Si02
#       6
#     2   2   2   2   2   2
#     4   9  19  38  58  82 116 160 196 235 295 360
#     4  11  21  40  63  88 119 163 195 249 302 350
#     4   9  20  37  59  86 121 152 196 247 292 354
#     4  10  23  41  61  89 122 156 208 240 299 358
#     4  11  22  40  61  91 121 157 199 252 296 350
#     4  10  20  38  59  86 122 153 193 250 296 348
#
# _framework density 20.839244000000001
#
# number of rings (size 3 to 8) (size 9 to 14) (size 15 to 20)
#    1.000    1.000    1.667    2.000    0.000    2.667 
#    3.000    2.500    0.000    0.000    0.000    0.000 
#    0.000    0.000    0.000    0.000    0.000    0.000 
#
# Total GULP energy -66817.466023 kJ/mol
# GULP energy per Si atom -5568.122169 kJ/mol
# Density = 2.079181 g / cm^3
# Si number density = 20.839244 Si / 1000 Ang^3
#
#
#
# Elastic Constant Matrix: (Units=GPa)
#
#
# Indices 1 2 3 4 5 6 
#
# 1 83.6431 33.2791 4.7162 -6.8388 14.2066 -9.8292
# 2 33.2791 107.3640 14.2637 -26.6128 13.8558 -10.0880
# 3 4.7162 14.2637 54.2338 -15.7021 -2.5159 -11.0196
# 4 -6.8388 -26.6128 -15.7021 22.4216 -3.3915 6.0486
# 5 14.2066 13.8558 -2.5159 -3.3915 19.0832 -4.7610
# 6 -9.8292 -10.0880 -11.0196 6.0486 -4.7610 24.0340
#
#
#
# Elastic Compliance Matrix: (Units=1/GPa)
#
#
# Indices 1 2 3 4 5 6 
#
# 1 0.015095 -0.003870 -0.000786 -0.002652 -0.008196 0.003232
# 2 -0.003870 0.015192 0.000963 0.016758 -0.005039 0.000020
# 3 -0.000786 0.000963 0.025634 0.017714 0.008683 0.009098
# 4 -0.002652 0.016758 0.017714 0.078067 0.004866 -0.004612
# 5 -0.008196 -0.005039 0.008683 0.004866 0.066797 0.010522
# 6 0.003232 0.000020 0.009098 -0.004612 0.010522 0.050354
#
#
# Mechanical properties :
#
#
# Convention : Reuss Voigt Hill
#
# Bulk Modulus (GPa) = 20.60392 38.86208 29.73300
# Shear Modulus (GPa) = 18.20144 25.97322 22.08733
#
# Velocity S-wave (km/s) = 2.95858 3.53421 3.25913
# Velocity P-wave (km/s) = 4.64537 5.94502 5.33492
#
# Compressibility (1/GPa) = 0.04853444
#
# Stress axis : x y z
#
# Youngs Moduli (GPa) = 66.24776 65.82461 39.01084
#
# Poissons Ratio (x) = 0.25477 0.03066
# Poissons Ratio (y) = 0.25640 -0.03758
# Poissons Ratio (z) = 0.05207 -0.06340
#
# Static dielectric constant tensor:
#      x y z
#    x 1.811360 -0.021070 0.006680 
#    y -0.021070 1.764140 -0.027270 
#    z 0.006680 -0.027270 1.771910 
# 
# From -- ./inp_files/586633.got.cif
#   From: 2010.05.17/outbox.cif.g08.bks.cpg/sg2_294_cif.got.tgz:586633.got - 2010.06.03 11:33:40.
