data_PCOD9101094
_publ_section_title
;
Structure prediction by ZEFSAII (Michael W. Deem and Ramdas Pophale) SiO2 
 PCOD9101094
Probable space group: P -1
;
_chemical_formula_sum "Si O2"
_cell_formula_units_Z 10
_cell_length_a 6.990563
_cell_length_b 13.136184
_cell_length_c 7.701888
_cell_angle_alpha 136.301861
_cell_angle_beta 100.110763
_cell_angle_gamma 57.430426
_cell_volume 383.048469
_symmetry_space_group_name_H-M "P -1"
_symmetry_group_IT_number 2
_symmetry_cell_setting 'triclinic'
loop_
_space_group_symop_operation_xyz
x,y,z
-x,-y,-z
loop_
_atom_site_type_symbol
_atom_site_label
_atom_site_fract_x
_atom_site_fract_y
_atom_site_fract_z
Si Si1 0.338880 0.428071 0.381484
Si Si2 0.081762 0.501825 0.790452
Si Si3 0.243700 0.699572 0.229866
Si Si4 0.443148 0.896460 0.493134
Si Si5 0.233814 0.905341 0.801175
O O1 0.500000 0.500000 0.500000
O O2 0.168341 0.516243 0.632561
O O3 0.531937 0.210522 0.180881
O O4 0.169301 0.469165 0.242396
O O5 0.303324 0.297749 0.643095
O O6 0.944199 0.337337 0.904473
O O7 0.220201 0.767244 0.504669
O O8 0.500000 0.500000 0.000000
O O9 0.279735 0.839643 0.308941
O O10 0.293846 0.997198 0.773360
O O11 0.500000 0.000000 0.500000
O O12 0.000000 0.000000 0.000000
#
# Coordination Sequence:
#
# PCOD9101094 Si02
#       5
#     2   2   2   2   2
#     4  10  20  37  73 105 146 196 256 318 380 450
#     4   9  18  38  72 110 140 197 273 307 363 469
#     4   8  15  34  69 109 142 198 259 308 359 472
#     4   8  16  33  72 111 148 199 258 310 380 457
#     4   9  19  37  72 109 154 196 246 325 393 443
#
# _framework density 26.106358
#
# number of rings (size 3 to 8) (size 9 to 14) (size 15 to 20)
#    1.200    2.000    2.000    0.000    0.000    0.000 
#    0.000    2.000   13.200   30.000    0.000    0.000 
#    0.000    0.000    0.000    0.000    0.000    0.000 
#
# Total GULP energy -55890.262814 kJ/mol
# GULP energy per Si atom -5589.026281 kJ/mol
# Density = 2.604694 g / cm^3
# Si number density = 26.106358 Si / 1000 Ang^3
#
#
#
# Elastic Constant Matrix: (Units=GPa)
#
#
# Indices 1 2 3 4 5 6 
#
# 1 215.4374 85.6045 75.4002 -14.3062 12.2975 8.8043
# 2 85.6045 129.1663 40.0892 -9.9098 7.7962 6.3877
# 3 75.4002 40.0892 134.6253 -18.5514 -17.6977 0.7267
# 4 -14.3062 -9.9098 -18.5514 22.8786 -0.3035 -3.1719
# 5 12.2975 7.7962 -17.6977 -0.3035 50.4410 -7.0616
# 6 8.8043 6.3877 0.7267 -3.1719 -7.0616 60.0629
#
#
#
# Elastic Compliance Matrix: (Units=1/GPa)
#
#
# Indices 1 2 3 4 5 6 
#
# 1 0.007504 -0.003697 -0.003416 0.000153 -0.002590 -0.000962
# 2 -0.003697 0.010744 -0.001102 0.001340 -0.001231 -0.000661
# 3 -0.003416 -0.001102 0.011284 0.006807 0.005207 0.001453
# 4 0.000153 0.001340 0.006807 0.050322 0.002831 0.002743
# 5 -0.002590 -0.001231 0.005207 0.002831 0.022952 0.003296
# 6 -0.000962 -0.000661 0.001453 0.002743 0.003296 0.017375
#
#
# Mechanical properties :
#
#
# Convention : Reuss Voigt Hill
#
# Bulk Modulus (GPa) = 76.32874 97.93520 87.13197
# Shear Modulus (GPa) = 35.46626 45.21885 40.34255
#
# Velocity S-wave (km/s) = 3.68982 4.16637 3.93531
# Velocity P-wave (km/s) = 6.88870 7.79360 7.35508
#
# Compressibility (1/GPa) = 0.01310122
#
# Stress axis : x y z
#
# Youngs Moduli (GPa) = 133.26895 93.07402 88.62119
#
# Poissons Ratio (x) = 0.34411 0.30271
# Poissons Ratio (y) = 0.49272 0.09768
# Poissons Ratio (z) = 0.45522 0.10259
#
# Static dielectric constant tensor:
#      x y z
#    x 2.085310 0.018730 0.010960 
#    y 0.018730 2.143520 0.028210 
#    z 0.010960 0.028210 2.048440 
# 
# From -- ./inp_files/129970.got.cif
#   From: 2010.05.17/outbox.cif.g08.bks.cpg/sg2_65_cif.got.tgz:129970.got - 2010.06.03 11:33:40.
