data_PCOD9101328
_publ_section_title
;
Structure prediction by ZEFSAII (Michael W. Deem and Ramdas Pophale) SiO2 
 PCOD9101328
Probable space group: P -1
;
_chemical_formula_sum "Si O2"
_cell_formula_units_Z 13
_cell_length_a 9.858002
_cell_length_b 10.499633
_cell_length_c 13.212551
_cell_angle_alpha 73.740099
_cell_angle_beta 106.135885
_cell_angle_gamma 152.056455
_cell_volume 613.790712
_symmetry_space_group_name_H-M "P -1"
_symmetry_group_IT_number 2
_symmetry_cell_setting 'triclinic'
loop_
_space_group_symop_operation_xyz
x,y,z
-x,-y,-z
loop_
_atom_site_type_symbol
_atom_site_label
_atom_site_fract_x
_atom_site_fract_y
_atom_site_fract_z
Si Si1 0.954803 0.870969 0.920646
Si Si2 0.000000 0.000000 0.500000
Si Si3 0.185704 0.764888 0.033524
Si Si4 0.645039 0.600838 0.207767
Si Si5 0.942466 0.314026 0.743858
Si Si6 0.402324 0.812381 0.602843
Si Si7 0.375022 0.513294 0.554912
O O1 0.622080 0.598146 0.878365
O O2 0.139647 0.098344 0.822636
O O3 0.069184 0.817119 0.973919
O O4 0.000000 0.000000 0.000000
O O5 0.649019 0.738209 0.487674
O O6 0.924024 0.791221 0.480869
O O7 0.167739 0.736155 0.157331
O O8 0.000000 0.500000 0.000000
O O9 0.500000 0.000000 0.000000
O O10 0.535643 0.494853 0.323164
O O11 0.822617 0.613134 0.213888
O O12 0.111102 0.573233 0.665185
O O13 0.675265 0.034377 0.687020
O O14 0.340659 0.631421 0.564644
O O15 0.500000 0.000000 0.500000
#
# Coordination Sequence:
#
# PCOD9101328 Si02
#       7
#     2   1   2   2   2   2   2
#     4  12  24  40  70  99 129 169 234 273 316 399
#     4  10  20  38  58  88 120 172 202 262 342 390
#     4  12  27  45  65  98 147 183 215 276 359 408
#     4  11  22  40  68  99 123 166 232 289 316 378
#     4  11  23  42  70  94 135 180 227 289 344 396
#     4  11  23  42  68 100 129 173 239 283 333 405
#     4  10  21  38  63  91 130 166 217 272 337 389
#
# _framework density 21.179856999999998
#
# number of rings (size 3 to 8) (size 9 to 14) (size 15 to 20)
#    0.000    0.923    1.538    7.385    2.154    0.000 
#    0.000   15.385    0.000    0.000    0.000    0.000 
#    0.000    0.000    0.000    0.000    0.000    0.000 
#
# Total GULP energy -72384.591541 kJ/mol
# GULP energy per Si atom -5568.045503 kJ/mol
# Density = 2.113165 g / cm^3
# Si number density = 21.179857 Si / 1000 Ang^3
#
#
#
# Elastic Constant Matrix: (Units=GPa)
#
#
# Indices 1 2 3 4 5 6 
#
# 1 89.6865 54.6706 51.4003 10.1891 -13.4322 -11.3508
# 2 54.6706 197.4759 45.4694 18.1325 -0.6671 -7.8986
# 3 51.4003 45.4694 83.0022 -8.7257 -8.4617 -9.3296
# 4 10.1891 18.1325 -8.7257 40.1163 -3.0732 4.9024
# 5 -13.4322 -0.6671 -8.4617 -3.0732 25.7243 -3.5723
# 6 -11.3508 -7.8986 -9.3296 4.9024 -3.5723 43.7190
#
#
#
# Elastic Compliance Matrix: (Units=1/GPa)
#
#
# Indices 1 2 3 4 5 6 
#
# 1 0.021694 -0.002526 -0.011578 -0.006831 0.007201 0.004060
# 2 -0.002526 0.006657 -0.002638 -0.003140 -0.002369 0.000142
# 3 -0.011578 -0.002638 0.021876 0.009017 0.002208 0.000355
# 4 -0.006831 -0.003140 0.009017 0.030679 0.002475 -0.003655
# 5 0.007201 -0.002369 0.002208 0.002475 0.044325 0.005257
# 6 0.004060 0.000142 0.000355 -0.003655 0.005257 0.024868
#
#
# Mechanical properties :
#
#
# Convention : Reuss Voigt Hill
#
# Bulk Modulus (GPa) = 59.72950 74.80501 67.26726
# Shear Modulus (GPa) = 26.43234 36.48688 31.45961
#
# Velocity S-wave (km/s) = 3.53653 4.15506 3.85821
# Velocity P-wave (km/s) = 6.70361 7.64297 7.18865
#
# Compressibility (1/GPa) = 0.01674215
#
# Stress axis : x y z
#
# Youngs Moduli (GPa) = 46.09669 150.22649 45.71294
#
# Poissons Ratio (x) = 0.37948 0.52926
# Poissons Ratio (y) = 0.11644 0.12059
# Poissons Ratio (z) = 0.53370 0.39628
#
# Static dielectric constant tensor:
#      x y z
#    x 1.819910 0.010580 -0.043240 
#    y 0.010580 1.720670 -0.065970 
#    z -0.043240 -0.065970 1.879560 
# 
# From -- ./inp_files/492792.got.cif
#   From: 2010.05.17/outbox.cif.g08.bks.cpg/sg2_247_cif.got.tgz:492792.got - 2010.06.03 11:33:40.
