data_PCOD9101127
_publ_section_title
;
Structure prediction by ZEFSAII (Michael W. Deem and Ramdas Pophale) SiO2 
 PCOD9101127
Probable space group: P -1
;
_chemical_formula_sum "Si O2"
_cell_formula_units_Z 14
_cell_length_a 12.649411
_cell_length_b 12.515674
_cell_length_c 8.549161
_cell_angle_alpha 70.073918
_cell_angle_beta 66.858638
_cell_angle_gamma 125.216926
_cell_volume 666.328662
_symmetry_space_group_name_H-M "P -1"
_symmetry_group_IT_number 2
_symmetry_cell_setting 'triclinic'
loop_
_space_group_symop_operation_xyz
x,y,z
-x,-y,-z
loop_
_atom_site_type_symbol
_atom_site_label
_atom_site_fract_x
_atom_site_fract_y
_atom_site_fract_z
Si Si1 0.914103 0.591525 0.396453
Si Si2 0.780111 0.651709 0.674451
Si Si3 0.881957 0.183623 0.429580
Si Si4 0.330250 0.803958 0.086485
Si Si5 0.638236 0.771447 0.781320
Si Si6 0.822177 0.372611 0.291566
Si Si7 0.525216 0.871096 0.615033
O O1 0.884221 0.690703 0.437598
O O2 0.769255 0.390475 0.684456
O O3 0.847363 0.509807 0.300945
O O4 0.145198 0.739756 0.200835
O O5 0.784741 0.788730 0.639942
O O6 0.894107 0.674593 0.735378
O O7 0.544272 0.427128 0.914390
O O8 0.856344 0.295052 0.431146
O O9 0.753450 0.974815 0.684436
O O10 0.765284 0.093520 0.374682
O O11 0.423240 0.842456 0.844994
O O12 0.500000 0.000000 0.000000
O O13 0.532998 0.742525 0.704541
O O14 0.606614 0.198837 0.418633
O O15 0.000000 0.500000 0.000000
#
# Coordination Sequence:
#
# PCOD9101127 Si02
#       7
#     2   2   2   2   2   2   2
#     4  11  22  33  57  84 114 149 184 236 285 331
#     4  11  19  39  59  89 112 147 193 240 284 328
#     4  10  21  36  61  83 116 147 192 236 282 342
#     4  11  20  35  55  86 116 139 188 243 286 331
#     4   9  22  36  61  86 113 147 193 239 280 338
#     4  12  22  37  56  84 123 155 184 229 287 349
#     4  10  20  38  55  86 114 152 185 227 291 338
#
# _framework density 21.010650999999999
#
# number of rings (size 3 to 8) (size 9 to 14) (size 15 to 20)
#    0.857    0.571    2.857    5.143    0.000    0.000 
#    0.000    0.714    0.000    0.857    0.000    0.000 
#    0.000    0.000    0.000    0.000    0.000    0.000 
#
# Total GULP energy -77949.758834 kJ/mol
# GULP energy per Si atom -5567.839917 kJ/mol
# Density = 2.096283 g / cm^3
# Si number density = 21.010651 Si / 1000 Ang^3
#
#
#
# Elastic Constant Matrix: (Units=GPa)
#
#
# Indices 1 2 3 4 5 6 
#
# 1 99.9973 50.7893 18.2401 12.5252 -27.6411 -6.3673
# 2 50.7893 109.3375 35.7009 6.1091 -25.4366 5.7452
# 3 18.2401 35.7009 73.1683 -3.4564 -16.4233 0.8693
# 4 12.5252 6.1091 -3.4564 36.9125 -4.6731 -11.3195
# 5 -27.6411 -25.4366 -16.4233 -4.6731 29.9271 -3.1040
# 6 -6.3673 5.7452 0.8693 -11.3195 -3.1040 40.1567
#
#
#
# Elastic Compliance Matrix: (Units=1/GPa)
#
#
# Indices 1 2 3 4 5 6 
#
# 1 0.015984 -0.005267 0.000877 -0.002015 0.010819 0.003537
# 2 -0.005267 0.014359 -0.004780 -0.001378 0.004205 -0.002849
# 3 0.000877 -0.004780 0.017535 0.003663 0.007152 0.002029
# 4 -0.002015 -0.001378 0.003663 0.031764 0.004884 0.009130
# 5 0.010819 0.004205 0.007152 0.004884 0.052331 0.006381
# 6 0.003537 -0.002849 0.002029 0.009130 0.006381 0.028894
#
#
# Mechanical properties :
#
#
# Convention : Reuss Voigt Hill
#
# Bulk Modulus (GPa) = 33.85676 54.66266 44.25971
# Shear Modulus (GPa) = 26.44745 33.25078 29.84911
#
# Velocity S-wave (km/s) = 3.55176 3.98247 3.77326
# Velocity P-wave (km/s) = 5.74187 6.87167 6.33202
#
# Compressibility (1/GPa) = 0.02953619
#
# Stress axis : x y z
#
# Youngs Moduli (GPa) = 62.56241 69.64451 57.02784
#
# Poissons Ratio (x) = 0.36684 -0.05000
# Poissons Ratio (y) = 0.32954 0.27261
# Poissons Ratio (z) = -0.05485 0.33292
#
# Static dielectric constant tensor:
#      x y z
#    x 1.795760 -0.010510 0.030170 
#    y -0.010510 1.844580 -0.029430 
#    z 0.030170 -0.029430 1.838720 
# 
# From -- ./inp_files/450077.got.cif
#   From: 2010.05.17/outbox.cif.g08.bks.cpg/sg2_226_cif.got.tgz:450077.got - 2010.06.03 11:33:40.
