data_PCOD9101508
_publ_section_title
;
Structure prediction by ZEFSAII (Michael W. Deem and Ramdas Pophale) SiO2 
 PCOD9101508
Probable space group: P -1
;
_chemical_formula_sum "Si O2"
_cell_formula_units_Z 16
_cell_length_a 19.963756
_cell_length_b 7.872422
_cell_length_c 13.965874
_cell_angle_alpha 134.983732
_cell_angle_beta 38.391640
_cell_angle_gamma 150.466839
_cell_volume 669.681429
_symmetry_space_group_name_H-M "P -1"
_symmetry_group_IT_number 2
_symmetry_cell_setting 'triclinic'
loop_
_space_group_symop_operation_xyz
x,y,z
-x,-y,-z
loop_
_atom_site_type_symbol
_atom_site_label
_atom_site_fract_x
_atom_site_fract_y
_atom_site_fract_z
Si Si1 0.840581 0.930186 0.758174
Si Si2 0.214064 0.277057 0.953422
Si Si3 0.865967 0.822752 0.211910
Si Si4 0.169342 0.884846 0.469796
Si Si5 0.401988 0.106461 0.931358
Si Si6 0.655581 0.302393 0.849740
Si Si7 0.270152 0.820313 0.766391
Si Si8 0.194726 0.397757 0.520291
O O1 0.790994 0.700469 0.815453
O O2 0.772860 0.641322 0.637817
O O3 0.765163 0.073047 0.911952
O O4 0.023027 0.242489 0.656763
O O5 0.223943 0.332479 0.850064
O O6 0.210124 0.986961 0.869608
O O7 0.345612 0.608354 0.004457
O O8 0.048153 0.128308 0.107254
O O9 0.840571 0.547717 0.198873
O O10 0.809537 0.966272 0.389973
O O11 0.287089 0.873704 0.298855
O O12 0.000000 0.500000 0.500000
O O13 0.178566 0.122817 0.484137
O O14 0.503747 0.088006 0.870150
O O15 0.394435 0.054810 0.805469
O O16 0.500000 0.500000 0.000000
O O17 0.307090 0.746106 0.595377
#
# Coordination Sequence:
#
# PCOD9101508 Si02
#       8
#     2   2   2   2   2   2   2   2
#     4  10  20  38  59  92 122 152 209 248 305 376
#     4  11  21  38  61  90 129 158 204 258 322 365
#     4  10  24  36  59  99 121 158 207 259 320 369
#     4  11  20  39  60  85 126 159 193 258 313 365
#     4  10  22  40  64  85 124 171 213 249 303 382
#     4  11  21  41  62  86 122 170 203 248 309 377
#     4  11  22  40  62  91 126 163 206 265 309 365
#     4  10  23  36  62  98 119 154 206 262 320 359
#
# _framework density 23.891957000000001
#
# number of rings (size 3 to 8) (size 9 to 14) (size 15 to 20)
#    0.000    1.500    5.000    1.125    3.500    1.000 
#    0.000    8.750    0.000    0.000    0.000    0.000 
#    0.000    0.000    0.000    0.000    0.000    0.000 
#
# Total GULP energy -89392.090276 kJ/mol
# GULP energy per Si atom -5587.005642 kJ/mol
# Density = 2.383758 g / cm^3
# Si number density = 23.891957 Si / 1000 Ang^3
#
#
#
# Elastic Constant Matrix: (Units=GPa)
#
#
# Indices 1 2 3 4 5 6 
#
# 1 126.3581 16.4671 76.8265 8.6945 12.1138 21.1742
# 2 16.4671 39.3593 19.8938 18.4469 2.8170 8.6304
# 3 76.8265 19.8938 144.8321 33.1484 5.5454 10.7978
# 4 8.6945 18.4469 33.1484 29.5655 6.4505 9.8696
# 5 12.1138 2.8170 5.5454 6.4505 60.9183 4.7564
# 6 21.1742 8.6304 10.7978 9.8696 4.7564 37.8560
#
#
#
# Elastic Compliance Matrix: (Units=1/GPa)
#
#
# Indices 1 2 3 4 5 6 
#
# 1 0.015021 -0.005680 -0.009460 0.012782 -0.002638 -0.007409
# 2 -0.005680 0.038335 0.003849 -0.027019 0.001856 0.000151
# 3 -0.009460 0.003849 0.015252 -0.018709 0.001929 0.004699
# 4 0.012782 -0.027019 -0.018709 0.074002 -0.006320 -0.014152
# 5 -0.002638 0.001856 0.001929 -0.006320 0.017350 -0.000030
# 6 -0.007409 0.000151 0.004699 -0.014152 -0.000030 0.032879
#
#
# Mechanical properties :
#
#
# Convention : Reuss Voigt Hill
#
# Bulk Modulus (GPa) = 21.72670 59.65824 40.69247
# Shear Modulus (GPa) = 21.66727 38.82542 30.24634
#
# Velocity S-wave (km/s) = 3.01472 4.03555 3.56190
# Velocity P-wave (km/s) = 4.60777 6.83655 5.82967
#
# Compressibility (1/GPa) = 0.04602631
#
# Stress axis : x y z
#
# Youngs Moduli (GPa) = 66.57420 26.08557 65.56697
#
# Poissons Ratio (x) = 0.14817 0.62024
# Poissons Ratio (y) = 0.37815 -0.25237
# Poissons Ratio (z) = 0.62977 -0.10041
#
# Static dielectric constant tensor:
#      x y z
#    x 1.947520 0.036170 0.037490 
#    y 0.036170 1.976110 -0.002840 
#    z 0.037490 -0.002840 1.914550 
# 
# From -- ./inp_files/540584.got.cif
#   From: 2010.05.17/outbox.cif.g08.bks.cpg/sg2_271_cif.got.tgz:540584.got - 2010.06.03 11:33:40.
