data_PCOD9101204
_publ_section_title
;
Structure prediction by ZEFSAII (Michael W. Deem and Ramdas Pophale) SiO2 
 PCOD9101204
Probable space group: P -1
;
_chemical_formula_sum "Si O2"
_cell_formula_units_Z 16
_cell_length_a 13.871375
_cell_length_b 12.978309
_cell_length_c 12.900983
_cell_angle_alpha 119.579949
_cell_angle_beta 157.168536
_cell_angle_gamma 46.188242
_cell_volume 557.149162
_symmetry_space_group_name_H-M "P -1"
_symmetry_group_IT_number 2
_symmetry_cell_setting 'triclinic'
loop_
_space_group_symop_operation_xyz
x,y,z
-x,-y,-z
loop_
_atom_site_type_symbol
_atom_site_label
_atom_site_fract_x
_atom_site_fract_y
_atom_site_fract_z
Si Si1 0.797201 0.194629 0.993145
Si Si2 0.379146 0.902121 0.949150
Si Si3 0.594005 0.434321 0.724711
Si Si4 0.509045 0.386585 0.107395
Si Si5 0.498739 0.866952 0.468036
Si Si6 0.798004 0.780873 0.091093
Si Si7 0.634919 0.681163 0.699241
Si Si8 0.023330 0.656194 0.602519
O O1 0.773494 0.289233 0.916407
O O2 0.475309 0.219106 0.652986
O O3 0.868834 0.257351 0.189096
O O4 0.115815 0.994074 0.206999
O O5 0.614097 0.840535 0.049256
O O6 0.627211 0.802774 0.245863
O O7 0.251177 0.810876 0.758064
O O8 0.161399 0.094584 0.838741
O O9 0.638749 0.543190 0.888871
O O10 0.621434 0.340280 0.601628
O O11 0.170723 0.592241 0.377933
O O12 0.747310 0.413031 0.310756
O O13 0.186847 0.499993 0.761908
O O14 0.727745 0.735549 0.720314
O O15 0.500000 0.000000 0.500000
O O16 0.560221 0.793703 0.776252
O O17 0.000000 0.500000 0.000000
#
# Coordination Sequence:
#
# PCOD9101204 Si02
#       8
#     2   2   2   2   2   2   2   2
#     4   9  20  36  60  85 123 158 190 255 307 343
#     4  11  22  37  59  88 119 162 203 248 302 363
#     4   9  18  40  58  83 120 156 203 248 295 356
#     4  10  21  37  61  87 117 155 201 252 307 352
#     4  10  20  38  64  92 119 153 208 250 299 359
#     4  10  21  38  60  83 124 163 201 247 302 360
#     4   9  19  38  64  83 121 165 189 249 307 354
#     4  10  20  38  57  86 122 151 198 255 301 358
#
# _framework density 28.717621999999999
#
# number of rings (size 3 to 8) (size 9 to 14) (size 15 to 20)
#    0.000    2.250    1.250    1.125    0.000    2.500 
#   13.500    0.625   13.750    0.000    0.000    0.000 
#    0.000    0.000    0.000    0.000    0.000    0.000 
#
# Total GULP energy -89259.376545 kJ/mol
# GULP energy per Si atom -5578.711034 kJ/mol
# Density = 2.865226 g / cm^3
# Si number density = 28.717622 Si / 1000 Ang^3
#
#
#
# Elastic Constant Matrix: (Units=GPa)
#
#
# Indices 1 2 3 4 5 6 
#
# 1 102.0962 41.3916 29.4927 0.7227 -35.0182 3.3757
# 2 41.3916 168.0190 24.6623 6.6880 -21.0167 7.7172
# 3 29.4927 24.6623 83.8329 16.9286 -49.7259 -3.0393
# 4 0.7227 6.6880 16.9286 51.5184 -10.8484 -3.4415
# 5 -35.0182 -21.0167 -49.7259 -10.8484 44.3401 7.9044
# 6 3.3757 7.7172 -3.0393 -3.4415 7.9044 56.8521
#
#
#
# Elastic Compliance Matrix: (Units=1/GPa)
#
#
# Indices 1 2 3 4 5 6 
#
# 1 0.015511 -0.002291 0.005743 0.001918 0.018567 -0.002768
# 2 -0.002291 0.006765 -0.000777 -0.000535 0.000562 -0.000934
# 3 0.005743 -0.000777 0.039220 -0.003031 0.048308 -0.005039
# 4 0.001918 -0.000535 -0.003031 0.021106 0.002905 0.000670
# 5 0.018567 0.000562 0.048308 0.002905 0.094429 -0.011549
# 6 -0.002768 -0.000934 -0.005039 0.000670 -0.011549 0.019258
#
#
# Mechanical properties :
#
#
# Convention : Reuss Voigt Hill
#
# Bulk Modulus (GPa) = 14.95977 60.56014 37.75995
# Shear Modulus (GPa) = 23.45001 47.76888 35.60944
#
# Velocity S-wave (km/s) = 2.86067 4.08290 3.52516
# Velocity P-wave (km/s) = 4.01645 6.58489 5.45402
#
# Compressibility (1/GPa) = 0.06684596
#
# Stress axis : x y z
#
# Youngs Moduli (GPa) = 64.47116 147.83037 25.49690
#
# Poissons Ratio (x) = 0.33864 -0.14642
# Poissons Ratio (y) = 0.14769 0.01981
# Poissons Ratio (z) = -0.37024 0.11484
#
# Static dielectric constant tensor:
#      x y z
#    x 2.389470 -0.029710 0.171930 
#    y -0.029710 2.290780 0.109570 
#    z 0.171930 0.109570 2.450360 
# 
# From -- ./inp_files/538841.got.cif
#   From: 2010.05.17/outbox.cif.g08.bks.cpg/sg2_270_cif.got.tgz:538841.got - 2010.06.03 11:33:40.
