data_PCOD9101753
_publ_section_title
;
Structure prediction by ZEFSAII (Michael W. Deem and Ramdas Pophale) SiO2 
 PCOD9101753
Probable space group: P -1
;
_chemical_formula_sum "Si O2"
_cell_formula_units_Z 16
_cell_length_a 15.967128
_cell_length_b 23.091565
_cell_length_c 16.721313
_cell_angle_alpha 159.840916
_cell_angle_beta 28.638586
_cell_angle_gamma 159.731585
_cell_volume 735.816202
_symmetry_space_group_name_H-M "P -1"
_symmetry_group_IT_number 2
_symmetry_cell_setting 'triclinic'
loop_
_space_group_symop_operation_xyz
x,y,z
-x,-y,-z
loop_
_atom_site_type_symbol
_atom_site_label
_atom_site_fract_x
_atom_site_fract_y
_atom_site_fract_z
Si Si1 0.588771 0.834683 0.935935
Si Si2 0.114978 0.433455 0.758710
Si Si3 0.601529 0.908478 0.341872
Si Si4 0.883056 0.824720 0.797670
Si Si5 0.385550 0.055237 0.441374
Si Si6 0.660297 0.342616 0.317291
Si Si7 0.598741 0.571001 0.104088
Si Si8 0.830788 0.094927 0.910007
O O1 0.481243 0.949040 0.185472
O O2 0.749818 0.960444 0.886774
O O3 0.369125 0.558983 0.749286
O O4 0.741420 0.871443 0.928569
O O5 0.205731 0.553842 0.749727
O O6 0.905503 0.155505 0.577608
O O7 0.000000 0.500000 0.000000
O O8 0.514842 0.871234 0.456870
O O9 0.500000 0.000000 0.500000
O O10 0.521629 0.672551 0.072370
O O11 0.888573 0.095189 0.338663
O O12 0.715868 0.549412 0.587238
O O13 0.000000 0.000000 0.000000
O O14 0.459287 0.276959 0.625250
O O15 0.773152 0.254739 0.152520
O O16 0.370853 0.121018 0.260965
O O17 0.500000 0.500000 0.000000
O O18 0.880525 0.736659 0.107731
#
# Coordination Sequence:
#
# PCOD9101753 Si02
#       8
#     2   2   2   2   2   2   2   2
#     4  10  22  38  63  94 128 170 214 264 321 389
#     4   9  19  37  67  94 124 162 218 265 326 386
#     4  11  22  40  62  86 127 171 213 263 320 384
#     4  12  25  41  63  98 132 171 224 267 323 395
#     4  10  20  38  60  90 126 163 215 261 316 376
#     4  10  22  41  68  97 130 169 217 278 334 384
#     4  10  22  37  59  92 123 172 218 254 321 393
#     4  10  22  41  67  95 130 168 217 275 337 390
#
# _framework density 21.744558999999999
#
# number of rings (size 3 to 8) (size 9 to 14) (size 15 to 20)
#    0.000    1.750    1.250    3.000    1.750    3.000 
#    0.000    3.750    0.000    3.750    0.000    0.000 
#    0.000    0.000    0.000    0.000    0.000    0.000 
#
# Total GULP energy -89121.867284 kJ/mol
# GULP energy per Si atom -5570.116705 kJ/mol
# Density = 2.169507 g / cm^3
# Si number density = 21.744559 Si / 1000 Ang^3
#
#
#
# Elastic Constant Matrix: (Units=GPa)
#
#
# Indices 1 2 3 4 5 6 
#
# 1 89.6422 24.6864 41.5429 11.6899 -11.2388 28.6373
# 2 24.6864 83.2295 24.5475 15.9518 -10.0537 25.5050
# 3 41.5429 24.5475 136.4740 25.9556 -17.1072 21.0379
# 4 11.6899 15.9518 25.9556 29.1104 -4.2915 0.0745
# 5 -11.2388 -10.0537 -17.1072 -4.2915 34.0408 -3.1952
# 6 28.6373 25.5050 21.0379 0.0745 -3.1952 31.6377
#
#
#
# Elastic Compliance Matrix: (Units=1/GPa)
#
#
# Indices 1 2 3 4 5 6 
#
# 1 0.017774 0.001665 -0.001698 -0.006016 0.003250 -0.015959
# 2 0.001665 0.019212 0.001492 -0.011919 0.003822 -0.017574
# 3 -0.001698 0.001492 0.010759 -0.009193 0.003523 -0.006443
# 4 -0.006016 -0.011919 -0.009193 0.051190 -0.001714 0.020873
# 5 0.003250 0.003822 0.003523 -0.001714 0.032658 -0.005064
# 6 -0.015959 -0.017574 -0.006443 0.020873 -0.005064 0.063944
#
#
# Mechanical properties :
#
#
# Convention : Reuss Voigt Hill
#
# Bulk Modulus (GPa) = 19.73784 54.54437 37.14111
# Shear Modulus (GPa) = 23.86551 33.52904 28.69728
#
# Velocity S-wave (km/s) = 3.31651 3.93103 3.63677
# Velocity P-wave (km/s) = 4.87468 6.76333 5.89513
#
# Compressibility (1/GPa) = 0.05066410
#
# Stress axis : x y z
#
# Youngs Moduli (GPa) = 56.26085 52.05014 92.94403
#
# Poissons Ratio (x) = -0.08667 0.15785
# Poissons Ratio (y) = -0.09368 -0.13870
# Poissons Ratio (z) = 0.09555 -0.07768
#
# Static dielectric constant tensor:
#      x y z
#    x 1.793010 -0.003800 0.038660 
#    y -0.003800 1.826870 0.026510 
#    z 0.038660 0.026510 1.817540 
# 
# From -- ./inp_files/383140.got.cif
#   From: 2010.05.17/outbox.cif.g08.bks.cpg/sg2_192_cif.got.tgz:383140.got - 2010.06.03 11:33:40.
