data_PCOD9101047
_publ_section_title
;
Structure prediction by ZEFSAII (Michael W. Deem and Ramdas Pophale) SiO2 
 PCOD9101047
Probable space group: P -1
;
_chemical_formula_sum "Si O2"
_cell_formula_units_Z 16
_cell_length_a 11.452756
_cell_length_b 13.110748
_cell_length_c 12.851510
_cell_angle_alpha 136.786637
_cell_angle_beta 148.427676
_cell_angle_gamma 63.427445
_cell_volume 605.281496
_symmetry_space_group_name_H-M "P -1"
_symmetry_group_IT_number 2
_symmetry_cell_setting 'triclinic'
loop_
_space_group_symop_operation_xyz
x,y,z
-x,-y,-z
loop_
_atom_site_type_symbol
_atom_site_label
_atom_site_fract_x
_atom_site_fract_y
_atom_site_fract_z
Si Si1 0.946597 0.413333 0.228960
Si Si2 0.791889 0.199948 0.591443
Si Si3 0.616800 0.360685 0.123067
Si Si4 0.571659 0.835070 0.545338
Si Si5 0.211870 0.438632 0.953654
Si Si6 0.587550 0.696754 0.741249
Si Si7 0.964187 0.097703 0.906171
Si Si8 0.568047 0.899710 0.062966
O O1 0.698902 0.379625 0.081173
O O2 0.981370 0.544211 0.261005
O O3 0.171349 0.480606 0.533530
O O4 0.921790 0.245779 0.034358
O O5 0.651806 0.138454 0.550804
O O6 0.597238 0.253571 0.427276
O O7 0.064639 0.360859 0.891718
O O8 0.790457 0.048656 0.409546
O O9 0.341221 0.341970 0.920995
O O10 0.628190 0.202546 0.069422
O O11 0.703944 0.925316 0.604583
O O12 0.433497 0.631324 0.281761
O O13 0.810465 0.907282 0.858397
O O14 0.500000 0.500000 0.500000
O O15 0.575200 0.750638 0.890346
O O16 0.879039 0.825597 0.024044
O O17 0.500000 0.000000 0.000000
#
# Coordination Sequence:
#
# PCOD9101047 Si02
#       8
#     2   2   2   2   2   2   2   2
#     4  11  23  43  67  99 136 183 228 282 354 423
#     4  10  22  40  64  96 139 179 224 293 346 409
#     4  11  24  43  69  97 138 181 226 289 354 412
#     4  10  22  40  67  99 134 182 235 289 354 408
#     4  12  24  43  67 104 137 181 240 289 344 425
#     4  10  20  37  69 103 135 178 231 279 343 418
#     4  10  20  41  66  96 136 180 229 287 348 420
#     4  10  21  41  65 101 133 179 230 280 347 413
#
# _framework density 26.433982
#
# number of rings (size 3 to 8) (size 9 to 14) (size 15 to 20)
#    0.000    1.500    1.250    4.500    1.750    2.000 
#    6.750    0.000    0.000    0.000    0.000    0.000 
#    0.000    0.000    0.000    0.000    0.000    0.000 
#
# Total GULP energy -89455.578349 kJ/mol
# GULP energy per Si atom -5590.973647 kJ/mol
# Density = 2.637382 g / cm^3
# Si number density = 26.433982 Si / 1000 Ang^3
#
#
#
# Elastic Constant Matrix: (Units=GPa)
#
#
# Indices 1 2 3 4 5 6 
#
# 1 154.7404 33.7595 50.9355 24.1974 35.6706 11.8431
# 2 33.7595 67.2950 15.7758 7.4892 15.7761 -8.3360
# 3 50.9355 15.7758 117.8744 17.3836 25.3931 -4.8827
# 4 24.1974 7.4892 17.3836 41.8652 -1.3631 13.3438
# 5 35.6706 15.7761 25.3931 -1.3631 61.8656 9.0394
# 6 11.8431 -8.3360 -4.8827 13.3438 9.0394 51.5246
#
#
#
# Elastic Compliance Matrix: (Units=1/GPa)
#
#
# Indices 1 2 3 4 5 6 
#
# 1 0.009408 -0.003098 -0.002423 -0.003560 -0.003520 -0.001353
# 2 -0.003098 0.018267 0.000472 -0.003492 -0.003918 0.005304
# 3 -0.002423 0.000472 0.011131 -0.004567 -0.003913 0.003558
# 4 -0.003560 -0.003492 -0.004567 0.031756 0.006923 -0.009618
# 5 -0.003520 -0.003918 -0.003913 0.006923 0.021801 -0.005813
# 6 -0.001353 0.005304 0.003558 -0.009618 -0.005813 0.024425
#
#
# Mechanical properties :
#
#
# Convention : Reuss Voigt Hill
#
# Bulk Modulus (GPa) = 34.83183 60.09460 47.46321
# Shear Modulus (GPa) = 36.64205 47.01369 41.82787
#
# Velocity S-wave (km/s) = 3.72717 4.22184 3.98219
# Velocity P-wave (km/s) = 5.63276 6.82264 6.25605
#
# Compressibility (1/GPa) = 0.02870938
#
# Stress axis : x y z
#
# Youngs Moduli (GPa) = 106.29497 54.74284 89.83674
#
# Poissons Ratio (x) = 0.16957 0.21770
# Poissons Ratio (y) = 0.32926 -0.04244
# Poissons Ratio (z) = 0.25758 -0.02586
#
# Static dielectric constant tensor:
#      x y z
#    x 2.074200 0.044390 0.027180 
#    y 0.044390 2.173600 -0.066840 
#    z 0.027180 -0.066840 2.145410 
# 
# From -- ./inp_files/522550.got.cif
#   From: 2010.05.17/outbox.cif.g08.bks.cpg/sg2_262_cif.got.tgz:522550.got - 2010.06.03 11:33:40.
