data_PCOD9101741
_publ_section_title
;
Structure prediction by ZEFSAII (Michael W. Deem and Ramdas Pophale) SiO2 
 PCOD9101741
Probable space group: P -1
;
_chemical_formula_sum "Si O2"
_cell_formula_units_Z 16
_cell_length_a 9.379115
_cell_length_b 11.493472
_cell_length_c 10.644962
_cell_angle_alpha 55.279239
_cell_angle_beta 85.362947
_cell_angle_gamma 64.485066
_cell_volume 830.002909
_symmetry_space_group_name_H-M "P -1"
_symmetry_group_IT_number 2
_symmetry_cell_setting 'triclinic'
loop_
_space_group_symop_operation_xyz
x,y,z
-x,-y,-z
loop_
_atom_site_type_symbol
_atom_site_label
_atom_site_fract_x
_atom_site_fract_y
_atom_site_fract_z
Si Si1 0.993246 0.663314 0.949357
Si Si2 0.340208 0.528028 0.663757
Si Si3 0.064092 0.423620 0.730633
Si Si4 0.688012 0.952668 0.686346
Si Si5 0.375010 0.937173 0.657323
Si Si6 0.553826 0.269961 0.636851
Si Si7 0.226270 0.298230 0.537768
Si Si8 0.332587 0.640118 0.876031
O O1 0.866637 0.810486 0.783608
O O2 0.172507 0.642982 0.941365
O O3 0.929391 0.680428 0.086128
O O4 0.000000 0.500000 0.000000
O O5 0.182130 0.503304 0.688948
O O6 0.491363 0.353979 0.724811
O O7 0.348561 0.647330 0.485043
O O8 0.342240 0.602242 0.750842
O O9 0.123534 0.328093 0.654657
O O10 0.884339 0.567555 0.635361
O O11 0.559679 0.884132 0.719776
O O12 0.654332 0.052404 0.497413
O O13 0.644928 0.079425 0.725750
O O14 0.322984 0.812244 0.792227
O O15 0.279508 0.120462 0.596008
O O16 0.384420 0.318011 0.546026
O O17 0.500000 0.500000 0.000000
#
# Coordination Sequence:
#
# PCOD9101741 Si02
#       8
#     2   2   2   2   2   2   2   2
#     4  12  24  39  60  88 120 156 198 249 299 347
#     4  10  20  38  60  90 116 153 199 242 292 345
#     4  10  21  39  60  90 119 157 201 242 293 352
#     4  10  21  39  63  89 117 155 198 245 296 354
#     4  10  21  39  61  87 119 158 197 241 296 357
#     4   9  19  38  65  89 113 153 200 244 291 349
#     4   9  20  39  64  86 120 159 197 240 294 354
#     4  12  26  40  59  88 122 158 198 244 301 354
#
# _framework density 19.277041000000001
#
# number of rings (size 3 to 8) (size 9 to 14) (size 15 to 20)
#    0.000    1.750    2.500    1.500    1.750    1.500 
#    2.250    2.500    0.000    0.000    0.000    0.000 
#    0.000    0.000    0.000    0.000    0.000    0.000 
#
# Total GULP energy -89262.502841 kJ/mol
# GULP energy per Si atom -5578.906428 kJ/mol
# Density = 1.923317 g / cm^3
# Si number density = 19.277041 Si / 1000 Ang^3
#
#
#
# Elastic Constant Matrix: (Units=GPa)
#
#
# Indices 1 2 3 4 5 6 
#
# 1 102.8815 18.0523 37.2096 -16.6475 -18.5474 -14.3642
# 2 18.0523 64.5232 6.2603 -7.4704 0.7385 4.8219
# 3 37.2096 6.2603 38.3972 -0.3837 -9.3424 -4.1966
# 4 -16.6475 -7.4704 -0.3837 27.0161 -2.6201 -0.0341
# 5 -18.5474 0.7385 -9.3424 -2.6201 30.9650 -6.6558
# 6 -14.3642 4.8219 -4.1966 -0.0341 -6.6558 26.6384
#
#
#
# Elastic Compliance Matrix: (Units=1/GPa)
#
#
# Indices 1 2 3 4 5 6 
#
# 1 0.023202 -0.004406 -0.016918 0.014126 0.013088 0.013932
# 2 -0.004406 0.017518 -0.000395 0.001681 -0.004479 -0.006726
# 3 -0.016918 -0.000395 0.042540 -0.009792 0.001452 -0.001999
# 4 0.014126 0.001681 -0.009792 0.047154 0.011318 0.008658
# 5 0.013088 -0.004479 0.001452 0.011318 0.045842 0.019566
# 6 0.013932 -0.006726 -0.001999 0.008658 0.019566 0.050854
#
#
# Mechanical properties :
#
#
# Convention : Reuss Voigt Hill
#
# Bulk Modulus (GPa) = 25.11130 36.53846 30.82488
# Shear Modulus (GPa) = 17.61678 26.54254 22.07966
#
# Velocity S-wave (km/s) = 3.02631 3.71468 3.38803
# Velocity P-wave (km/s) = 5.02655 6.11507 5.59733
#
# Compressibility (1/GPa) = 0.03982271
#
# Stress axis : x y z
#
# Youngs Moduli (GPa) = 43.09966 57.08514 23.50750
#
# Poissons Ratio (x) = 0.25149 0.39770
# Poissons Ratio (y) = 0.18988 0.00928
# Poissons Ratio (z) = 0.72915 0.02255
#
# Static dielectric constant tensor:
#      x y z
#    x 1.647070 -0.004580 -0.028430 
#    y -0.004580 1.706060 0.032280 
#    z -0.028430 0.032280 1.577230 
# 
# From -- ./inp_files/274418.got.cif
#   From: 2010.05.17/outbox.cif.g08.bks.cpg/sg2_138_cif.got.tgz:274418.got - 2010.06.03 11:33:40.
