data_PCOD9101343
_publ_section_title
;
Structure prediction by ZEFSAII (Michael W. Deem and Ramdas Pophale) SiO2 
 PCOD9101343
Probable space group: P -1
;
_chemical_formula_sum "Si O2"
_cell_formula_units_Z 14
_cell_length_a 19.295309
_cell_length_b 5.195395
_cell_length_c 8.314179
_cell_angle_alpha 57.401440
_cell_angle_beta 116.962591
_cell_angle_gamma 103.871831
_cell_volume 625.834353
_symmetry_space_group_name_H-M "P -1"
_symmetry_group_IT_number 2
_symmetry_cell_setting 'triclinic'
loop_
_space_group_symop_operation_xyz
x,y,z
-x,-y,-z
loop_
_atom_site_type_symbol
_atom_site_label
_atom_site_fract_x
_atom_site_fract_y
_atom_site_fract_z
Si Si1 0.232410 0.646363 0.124025
Si Si2 0.224589 0.374277 0.859303
Si Si3 0.616371 0.671493 0.052533
Si Si4 0.077723 0.322558 0.199955
Si Si5 0.399953 0.756307 0.357138
Si Si6 0.499440 0.390019 0.804855
Si Si7 0.924869 0.396781 0.552369
O O1 0.157392 0.459374 0.165660
O O2 0.315687 0.593851 0.318313
O O3 0.246890 0.541563 0.991602
O O4 0.212540 0.009275 0.990601
O O5 0.148717 0.537464 0.658423
O O6 0.295487 0.415070 0.794973
O O7 0.562070 0.419569 0.002075
O O8 0.620638 0.898733 0.827144
O O9 0.570148 0.793570 0.118263
O O10 0.082162 0.390824 0.370690
O O11 0.071287 0.962070 0.278997
O O12 0.000000 0.500000 0.000000
O O13 0.448221 0.687487 0.591729
O O14 0.454891 0.682194 0.286082
O O15 0.000000 0.500000 0.500000
#
# Coordination Sequence:
#
# PCOD9101343 Si02
#       7
#     2   2   2   2   2   2   2
#     4  11  23  43  65  94 133 173 215 272 329 386
#     4  11  23  43  65  94 133 173 215 272 329 386
#     4  10  21  37  60  86 127 168 221 271 333 380
#     4  12  25  44  70 101 132 172 215 265 324 394
#     4  10  21  37  60  86 127 168 221 271 333 380
#     4  10  20  38  58  90 118 170 224 270 330 390
#     4  12  25  44  70 101 132 172 215 265 324 394
#
# _framework density 22.370137
#
# number of rings (size 3 to 8) (size 9 to 14) (size 15 to 20)
#    0.000    1.143    1.429    5.143    2.000    0.000 
#    0.000    1.429    0.000    0.000    0.000    0.000 
#    0.000    0.000    0.000    0.000    0.000    0.000 
#
# Total GULP energy -78094.812777 kJ/mol
# GULP energy per Si atom -5578.200913 kJ/mol
# Density = 2.231922 g / cm^3
# Si number density = 22.370137 Si / 1000 Ang^3
#
#
#
# Elastic Constant Matrix: (Units=GPa)
#
#
# Indices 1 2 3 4 5 6 
#
# 1 163.0176 0.9654 22.3165 1.5873 21.5283 28.2555
# 2 0.9654 56.3040 3.3752 -6.9377 7.0191 -0.1028
# 3 22.3165 3.3752 69.9237 -4.0459 23.4857 10.1525
# 4 1.5873 -6.9377 -4.0459 29.6729 -3.2543 -6.7809
# 5 21.5283 7.0191 23.4857 -3.2543 36.0812 3.0249
# 6 28.2555 -0.1028 10.1525 -6.7809 3.0249 31.0433
#
#
#
# Elastic Compliance Matrix: (Units=1/GPa)
#
#
# Indices 1 2 3 4 5 6 
#
# 1 0.008036 0.000075 -0.000203 -0.002601 -0.004291 -0.007398
# 2 0.000075 0.018722 0.000375 0.004291 -0.003641 0.001163
# 3 -0.000203 0.000375 0.019075 0.000287 -0.011937 -0.004826
# 4 -0.002601 0.004291 0.000287 0.037547 0.003062 0.010191
# 5 -0.004291 -0.003641 -0.011937 0.003062 0.038636 0.004702
# 6 -0.007398 0.001163 -0.004826 0.010191 0.004702 0.042296
#
#
# Mechanical properties :
#
#
# Convention : Reuss Voigt Hill
#
# Bulk Modulus (GPa) = 21.58613 38.06215 29.82414
# Shear Modulus (GPa) = 27.89236 36.86537 32.37887
#
# Velocity S-wave (km/s) = 3.53492 4.06393 3.80862
# Velocity P-wave (km/s) = 5.13141 6.25079 5.71855
#
# Compressibility (1/GPa) = 0.04632604
#
# Stress axis : x y z
#
# Youngs Moduli (GPa) = 124.44057 53.41378 52.42515
#
# Poissons Ratio (x) = -0.00403 0.01066
# Poissons Ratio (y) = -0.00938 -0.01965
# Poissons Ratio (z) = 0.02531 -0.02002
#
# Static dielectric constant tensor:
#      x y z
#    x 1.910220 0.024640 0.044690 
#    y 0.024640 2.010040 0.068090 
#    z 0.044690 0.068090 1.979530 
# 
# From -- ./inp_files/322235.got.cif
#   From: 2010.05.17/outbox.cif.g08.bks.cpg/sg2_162_cif.got.tgz:322235.got - 2010.06.03 11:33:40.
