data_PCOD9101935
_publ_section_title
;
Structure prediction by ZEFSAII (Michael W. Deem and Ramdas Pophale) SiO2 
 PCOD9101935
Probable space group: P -1
;
_chemical_formula_sum "Si O2"
_cell_formula_units_Z 14
_cell_length_a 7.376404
_cell_length_b 7.219688
_cell_length_c 15.911907
_cell_angle_alpha 61.394350
_cell_angle_beta 91.498262
_cell_angle_gamma 56.777555
_cell_volume 572.342670
_symmetry_space_group_name_H-M "P -1"
_symmetry_group_IT_number 2
_symmetry_cell_setting 'triclinic'
loop_
_space_group_symop_operation_xyz
x,y,z
-x,-y,-z
loop_
_atom_site_type_symbol
_atom_site_label
_atom_site_fract_x
_atom_site_fract_y
_atom_site_fract_z
Si Si1 0.165983 0.015170 0.091901
Si Si2 0.890899 0.261002 0.707463
Si Si3 0.350895 0.574051 0.066133
Si Si4 0.219112 0.247980 0.610027
Si Si5 0.333436 0.143366 0.226404
Si Si6 0.647581 0.221984 0.413072
Si Si7 0.958716 0.853738 0.655083
O O1 0.095231 0.858613 0.177172
O O2 0.347468 0.790103 0.074499
O O3 0.261632 0.103685 0.143757
O O4 0.922912 0.271544 0.992477
O O5 0.627049 0.537136 0.629947
O O6 0.088029 0.284869 0.686438
O O7 0.947730 0.042069 0.685581
O O8 0.429377 0.308027 0.176013
O O9 0.500000 0.500000 0.000000
O O10 0.000000 0.500000 0.500000
O O11 0.466359 0.156705 0.664642
O O12 0.313498 0.997624 0.603085
O O13 0.123987 0.286807 0.261523
O O14 0.790196 0.310397 0.352778
O O15 0.775890 0.057694 0.535937
#
# Coordination Sequence:
#
# PCOD9101935 Si02
#       7
#     2   2   2   2   2   2   2
#     4  10  24  43  67  96 125 165 214 269 325 383
#     4  10  20  39  61  88 128 166 212 264 319 380
#     4  11  24  46  70  95 128 164 211 270 333 392
#     4  11  24  38  58  94 134 174 219 261 308 378
#     4  11  23  43  68  96 132 172 215 266 323 384
#     4  10  20  38  61  87 128 178 212 261 319 364
#     4   9  21  37  60  92 123 166 222 263 309 379
#
# _framework density 24.460871999999998
#
# number of rings (size 3 to 8) (size 9 to 14) (size 15 to 20)
#    0.000    1.714    0.000    3.429    0.000   12.000 
#    0.000    8.571    0.000    0.000    0.000    0.000 
#    0.000    0.000    0.000    0.000    0.000    0.000 
#
# Total GULP energy -78265.815862 kJ/mol
# GULP energy per Si atom -5590.415419 kJ/mol
# Density = 2.440520 g / cm^3
# Si number density = 24.460872 Si / 1000 Ang^3
#
#
#
# Elastic Constant Matrix: (Units=GPa)
#
#
# Indices 1 2 3 4 5 6 
#
# 1 57.5967 22.8779 4.1631 5.3266 -3.0932 -8.3227
# 2 22.8779 119.9526 25.9960 25.3345 -14.5140 -11.9750
# 3 4.1631 25.9960 76.4526 18.2244 14.8535 9.5630
# 4 5.3266 25.3345 18.2244 40.6655 -12.1327 -4.1401
# 5 -3.0932 -14.5140 14.8535 -12.1327 41.2259 4.2069
# 6 -8.3227 -11.9750 9.5630 -4.1401 4.2069 26.8842
#
#
#
# Elastic Compliance Matrix: (Units=1/GPa)
#
#
# Indices 1 2 3 4 5 6 
#
# 1 0.019327 -0.003074 -0.000721 0.000265 0.000208 0.004879
# 2 -0.003074 0.011463 -0.004324 -0.003150 0.003968 0.004587
# 3 -0.000721 -0.004324 0.020457 -0.010649 -0.011129 -0.009324
# 4 0.000265 -0.003150 -0.010649 0.035670 0.012635 0.005983
# 5 0.000208 0.003968 -0.011129 0.012635 0.033137 0.002551
# 6 0.004879 0.004587 -0.009324 0.005983 0.002551 0.044589
#
#
# Mechanical properties :
#
#
# Convention : Reuss Voigt Hill
#
# Bulk Modulus (GPa) = 28.56423 40.00840 34.28632
# Shear Modulus (GPa) = 25.96728 35.15279 30.56003
#
# Velocity S-wave (km/s) = 3.26173 3.79503 3.53844
# Velocity P-wave (km/s) = 5.08803 5.96612 5.54448
#
# Compressibility (1/GPa) = 0.03500882
#
# Stress axis : x y z
#
# Youngs Moduli (GPa) = 51.74186 87.23466 48.88381
#
# Poissons Ratio (x) = 0.26812 0.03526
# Poissons Ratio (y) = 0.15903 0.21138
# Poissons Ratio (z) = 0.03732 0.37722
#
# Static dielectric constant tensor:
#      x y z
#    x 2.077000 0.059250 -0.029520 
#    y 0.059250 1.951920 -0.058460 
#    z -0.029520 -0.058460 1.992690 
# 
# From -- ./inp_files/494481.got.cif
#   From: 2010.05.17/outbox.cif.g08.bks.cpg/sg2_248_cif.got.tgz:494481.got - 2010.06.03 11:33:40.
