data_PCOD9101612
_publ_section_title
;
Structure prediction by ZEFSAII (Michael W. Deem and Ramdas Pophale) SiO2 
 PCOD9101612
Probable space group: P -1
;
_chemical_formula_sum "Si O2"
_cell_formula_units_Z 13
_cell_length_a 17.259880
_cell_length_b 7.363803
_cell_length_c 6.367122
_cell_angle_alpha 120.024645
_cell_angle_beta 123.624057
_cell_angle_gamma 50.295664
_cell_volume 504.668364
_symmetry_space_group_name_H-M "P -1"
_symmetry_group_IT_number 2
_symmetry_cell_setting 'triclinic'
loop_
_space_group_symop_operation_xyz
x,y,z
-x,-y,-z
loop_
_atom_site_type_symbol
_atom_site_label
_atom_site_fract_x
_atom_site_fract_y
_atom_site_fract_z
Si Si1 0.258363 0.108400 0.659203
Si Si2 0.332621 0.229907 0.236876
Si Si3 0.924196 0.023973 0.205568
Si Si4 0.500000 0.500000 0.000000
Si Si5 0.966589 0.739504 0.727400
Si Si6 0.726937 0.470020 0.320548
Si Si7 0.546219 0.199984 0.489286
O O1 0.155723 0.088463 0.434910
O O2 0.250260 0.346628 0.674428
O O3 0.367643 0.877415 0.610942
O O4 0.270637 0.147217 0.942664
O O5 0.254803 0.479817 0.381582
O O6 0.432775 0.226298 0.267299
O O7 0.391239 0.028066 0.387785
O O8 0.802660 0.198606 0.197901
O O9 0.949018 0.180780 0.168201
O O10 0.000000 0.000000 0.500000
O O11 0.953049 0.777873 0.982199
O O12 0.396567 0.458688 0.821951
O O13 0.523780 0.416482 0.735272
O O14 0.000000 0.500000 0.500000
#
# Coordination Sequence:
#
# PCOD9101612 Si02
#       7
#     2   2   2   1   2   2   2
#     4  11  21  39  66  87 126 171 213 266 330 381
#     4   9  20  36  62  88 120 164 214 258 316 398
#     4  11  26  45  69  97 134 175 223 276 335 393
#     4  10  20  38  60  84 132 158 200 272 318 378
#     4  11  25  44  65  98 131 169 225 276 321 398
#     4  10  22  40  61  92 126 168 214 269 324 390
#     4   9  19  37  56  90 124 160 209 260 319 386
#
# _framework density 25.759491000000001
#
# number of rings (size 3 to 8) (size 9 to 14) (size 15 to 20)
#    0.000    1.846    1.538    2.308    2.154    4.308 
#    0.000    8.462    0.000    0.000    0.000    0.000 
#    0.000    0.000    0.000    0.000    0.000    0.000 
#
# Total GULP energy -72459.642907 kJ/mol
# GULP energy per Si atom -5573.818685 kJ/mol
# Density = 2.570086 g / cm^3
# Si number density = 25.759491 Si / 1000 Ang^3
#
#
#
# Elastic Constant Matrix: (Units=GPa)
#
#
# Indices 1 2 3 4 5 6 
#
# 1 97.8457 36.6396 18.0748 15.6091 5.8333 -12.7333
# 2 36.6396 91.7662 30.4471 30.1293 -18.8643 -14.6696
# 3 18.0748 30.4471 167.7939 37.5699 -4.4801 -22.2458
# 4 15.6091 30.1293 37.5699 28.7606 -17.3221 -10.6145
# 5 5.8333 -18.8643 -4.4801 -17.3221 36.2469 12.0247
# 6 -12.7333 -14.6696 -22.2458 -10.6145 12.0247 22.6081
#
#
#
# Elastic Compliance Matrix: (Units=1/GPa)
#
#
# Indices 1 2 3 4 5 6 
#
# 1 0.015283 -0.004312 0.002712 -0.011574 -0.013247 0.010090
# 2 -0.004312 0.018362 0.001140 -0.016592 0.001854 0.001831
# 3 0.002712 0.001140 0.010977 -0.020321 -0.011375 0.009577
# 4 -0.011574 -0.016592 -0.020321 0.108906 0.046343 -0.010798
# 5 -0.013247 0.001854 -0.011375 0.046343 0.060710 -0.027982
# 6 0.010090 0.001831 0.009577 -0.010798 -0.027982 0.070340
#
#
# Mechanical properties :
#
#
# Convention : Reuss Voigt Hill
#
# Bulk Modulus (GPa) = 22.88235 58.63653 40.75944
# Shear Modulus (GPa) = 16.66305 35.67273 26.16789
#
# Velocity S-wave (km/s) = 2.54612 3.72538 3.19070
# Velocity P-wave (km/s) = 4.18880 6.42784 5.42509
#
# Compressibility (1/GPa) = 0.04370180
#
# Stress axis : x y z
#
# Youngs Moduli (GPa) = 65.43159 54.45925 91.10158
#
# Poissons Ratio (x) = 0.23482 -0.24704
# Poissons Ratio (y) = 0.28213 -0.10385
# Poissons Ratio (z) = -0.17743 -0.06208
#
# Static dielectric constant tensor:
#      x y z
#    x 1.990810 0.075380 -0.090060 
#    y 0.075380 2.058160 0.069440 
#    z -0.090060 0.069440 2.014780 
# 
# From -- ./inp_files/107689.got.cif
#   From: 2010.05.17/outbox.cif.g08.bks.cpg/sg2_54_cif.got.tgz:107689.got - 2010.06.03 11:33:40.
