data_PCOD9101519
_publ_section_title
;
Structure prediction by ZEFSAII (Michael W. Deem and Ramdas Pophale) SiO2 
 PCOD9101519
Probable space group: P -1
;
_chemical_formula_sum "Si O2"
_cell_formula_units_Z 16
_cell_length_a 14.479000
_cell_length_b 9.436109
_cell_length_c 16.550816
_cell_angle_alpha 48.021425
_cell_angle_beta 149.691439
_cell_angle_gamma 135.526022
_cell_volume 790.510132
_symmetry_space_group_name_H-M "P -1"
_symmetry_group_IT_number 2
_symmetry_cell_setting 'triclinic'
loop_
_space_group_symop_operation_xyz
x,y,z
-x,-y,-z
loop_
_atom_site_type_symbol
_atom_site_label
_atom_site_fract_x
_atom_site_fract_y
_atom_site_fract_z
Si Si1 0.959765 0.000157 0.716527
Si Si2 0.561986 0.624822 0.916105
Si Si3 0.388708 0.880804 0.589857
Si Si4 0.605703 0.796693 0.097423
Si Si5 0.162838 0.249221 0.438145
Si Si6 0.266766 0.942730 0.743747
Si Si7 0.992506 0.117986 0.868850
Si Si8 0.354709 0.713102 0.451842
O O1 0.884611 0.812979 0.667987
O O2 0.836522 0.148227 0.551925
O O3 0.190296 0.115449 0.830187
O O4 0.933859 0.964082 0.806650
O O5 0.482528 0.802391 0.764510
O O6 0.463653 0.442984 0.848119
O O7 0.500000 0.500000 0.000000
O O8 0.794233 0.716956 0.049909
O O9 0.416400 0.768129 0.571216
O O10 0.492389 0.120900 0.554537
O O11 0.655345 0.909640 0.176933
O O12 0.428237 0.837634 0.901696
O O13 0.246981 0.083327 0.601762
O O14 0.303282 0.480292 0.474813
O O15 0.953868 0.206854 0.342255
O O16 0.840056 0.230637 0.721228
O O17 0.000000 0.000000 0.000000
#
# Coordination Sequence:
#
# PCOD9101519 Si02
#       8
#     2   2   2   2   2   2   2   2
#     4  10  23  39  61  91 126 160 211 264 306 369
#     4  12  23  37  65  96 121 163 209 261 318 367
#     4  10  23  40  62  90 127 164 211 261 307 377
#     4  10  20  38  59  93 128 157 210 257 318 369
#     4  10  20  38  64  91 123 166 210 252 323 375
#     4   9  20  37  61  89 131 164 195 264 317 384
#     4  11  22  43  64  88 129 168 207 260 316 374
#     4  10  21  42  66  88 122 172 211 250 314 385
#
# _framework density 20.240093999999999
#
# number of rings (size 3 to 8) (size 9 to 14) (size 15 to 20)
#    0.000    1.750    2.500    1.500    1.750    1.000 
#    2.250    0.625    0.000    0.000    0.000    0.000 
#    0.000    0.000    0.000    0.000    0.000    0.000 
#
# Total GULP energy -89268.191585 kJ/mol
# GULP energy per Si atom -5579.261974 kJ/mol
# Density = 2.019403 g / cm^3
# Si number density = 20.240094 Si / 1000 Ang^3
#
#
#
# Elastic Constant Matrix: (Units=GPa)
#
#
# Indices 1 2 3 4 5 6 
#
# 1 77.8555 25.6872 32.3320 -6.9986 -7.3573 3.5896
# 2 25.6872 107.7613 5.5426 -4.1770 -9.9933 -0.6906
# 3 32.3320 5.5426 93.3812 -0.5999 0.0765 22.9944
# 4 -6.9986 -4.1770 -0.5999 21.8849 3.7665 0.2103
# 5 -7.3573 -9.9933 0.0765 3.7665 36.4347 2.9824
# 6 3.5896 -0.6906 22.9944 0.2103 2.9824 27.5236
#
#
#
# Elastic Compliance Matrix: (Units=1/GPa)
#
#
# Indices 1 2 3 4 5 6 
#
# 1 0.017028 -0.003377 -0.006351 0.004281 0.001857 0.002766
# 2 -0.003377 0.010269 0.000561 0.000538 0.002078 0.000000
# 3 -0.006351 0.000561 0.015933 -0.001367 -0.000001 -0.012459
# 4 0.004281 0.000538 -0.001367 0.047807 -0.003981 0.000663
# 5 0.001857 0.002078 -0.000001 -0.003981 0.029074 -0.003309
# 6 0.002766 0.000000 -0.012459 0.000663 -0.003309 0.046734
#
#
# Mechanical properties :
#
#
# Convention : Reuss Voigt Hill
#
# Bulk Modulus (GPa) = 40.16153 45.12462 42.64307
# Shear Modulus (GPa) = 25.84294 31.53107 28.68701
#
# Velocity S-wave (km/s) = 3.57714 3.95125 3.76884
# Velocity P-wave (km/s) = 6.07839 6.56959 6.32876
#
# Compressibility (1/GPa) = 0.02489945
#
# Stress axis : x y z
#
# Youngs Moduli (GPa) = 58.72538 97.37721 62.76156
#
# Poissons Ratio (x) = 0.32880 0.39857
# Poissons Ratio (y) = 0.19829 -0.03523
# Poissons Ratio (z) = 0.37294 -0.05467
#
# Static dielectric constant tensor:
#      x y z
#    x 1.771040 -0.041590 -0.002550 
#    y -0.041590 1.739610 0.026660 
#    z -0.002550 0.026660 1.731660 
# 
# From -- ./inp_files/244386.got.cif
#   From: 2010.05.17/outbox.cif.g08.bks.cpg/sg2_123_cif.got.tgz:244386.got - 2010.06.03 11:33:40.
