data_PCOD9101499
_publ_section_title
;
Structure prediction by ZEFSAII (Michael W. Deem and Ramdas Pophale) SiO2 
 PCOD9101499
Probable space group: P -1
;
_chemical_formula_sum "Si O2"
_cell_formula_units_Z 10
_cell_length_a 7.149836
_cell_length_b 13.267586
_cell_length_c 10.351277
_cell_angle_alpha 148.610087
_cell_angle_beta 49.496257
_cell_angle_gamma 120.102083
_cell_volume 385.402911
_symmetry_space_group_name_H-M "P -1"
_symmetry_group_IT_number 2
_symmetry_cell_setting 'triclinic'
loop_
_space_group_symop_operation_xyz
x,y,z
-x,-y,-z
loop_
_atom_site_type_symbol
_atom_site_label
_atom_site_fract_x
_atom_site_fract_y
_atom_site_fract_z
Si Si1 0.697550 0.644654 0.539055
Si Si2 0.969276 0.094703 0.283140
Si Si3 0.810122 0.334094 0.875706
Si Si4 0.964746 0.738392 0.054769
Si Si5 0.514391 0.710762 0.408764
O O1 0.500000 0.500000 0.500000
O O2 0.773807 0.826537 0.781678
O O3 0.610234 0.733892 0.536324
O O4 0.949711 0.487622 0.264598
O O5 0.885806 0.194600 0.570324
O O6 0.753801 0.177698 0.374397
O O7 0.984526 0.870079 0.066397
O O8 0.838803 0.221747 0.875865
O O9 0.552164 0.472245 0.119201
O O10 0.000000 0.500000 0.000000
O O11 0.699429 0.774474 0.284978
#
# Coordination Sequence:
#
# PCOD9101499 Si02
#       5
#     2   2   2   2   2
#     4  11  24  42  56  79 121 155 188 229 274 345
#     4  12  20  35  65  83 117 146 183 245 282 319
#     4   9  16  33  57  86 113 143 178 228 287 330
#     4  10  20  38  59  91 109 143 195 231 285 337
#     4  10  20  38  59  91 109 143 195 231 285 337
#
# _framework density 25.946873
#
# number of rings (size 3 to 8) (size 9 to 14) (size 15 to 20)
#    0.000    1.600    8.000    2.400    0.000    1.600 
#    0.000    1.000    0.000    0.000    0.000    0.000 
#    0.000    0.000    0.000    0.000    0.000    0.000 
#
# Total GULP energy -55786.522638 kJ/mol
# GULP energy per Si atom -5578.652264 kJ/mol
# Density = 2.588782 g / cm^3
# Si number density = 25.946873 Si / 1000 Ang^3
#
#
#
# Elastic Constant Matrix: (Units=GPa)
#
#
# Indices 1 2 3 4 5 6 
#
# 1 117.3195 48.5626 34.0319 9.2254 -26.7102 -13.3577
# 2 48.5626 130.1342 23.9335 10.4447 -33.3293 10.8036
# 3 34.0319 23.9335 50.9763 19.2447 -4.8391 -14.0101
# 4 9.2254 10.4447 19.2447 27.8110 -11.6171 -7.3479
# 5 -26.7102 -33.3293 -4.8391 -11.6171 41.2031 1.4623
# 6 -13.3577 10.8036 -14.0101 -7.3479 1.4623 26.0763
#
#
#
# Elastic Compliance Matrix: (Units=1/GPa)
#
#
# Indices 1 2 3 4 5 6 
#
# 1 0.013834 -0.002650 -0.008404 0.006736 0.007554 0.005144
# 2 -0.002650 0.012950 -0.007034 0.001791 0.008809 -0.010492
# 3 -0.008404 -0.007034 0.040375 -0.024539 -0.013818 0.014162
# 4 0.006736 0.001791 -0.024539 0.059573 0.019544 0.005215
# 5 0.007554 0.008809 -0.013818 0.019544 0.040321 -0.003957
# 6 0.005144 -0.010492 0.014162 0.005215 -0.003957 0.054631
#
#
# Mechanical properties :
#
#
# Convention : Reuss Voigt Hill
#
# Bulk Modulus (GPa) = 32.27585 56.83179 44.55382
# Shear Modulus (GPa) = 18.64365 31.81153 25.22759
#
# Velocity S-wave (km/s) = 2.68345 3.50526 3.12152
# Velocity P-wave (km/s) = 4.69760 6.19138 5.49548
#
# Compressibility (1/GPa) = 0.03098291
#
# Stress axis : x y z
#
# Youngs Moduli (GPa) = 72.28430 77.21804 24.76800
#
# Poissons Ratio (x) = 0.20462 0.20815
# Poissons Ratio (y) = 0.19155 0.17423
# Poissons Ratio (z) = 0.60746 0.54319
#
# Static dielectric constant tensor:
#      x y z
#    x 2.057310 0.010600 -0.015570 
#    y 0.010600 2.191440 -0.112630 
#    z -0.015570 -0.112630 2.138360 
# 
# From -- ./inp_files/231849.got.cif
#   From: 2010.05.17/outbox.cif.g08.bks.cpg/sg2_116_cif.got.tgz:231849.got - 2010.06.03 11:33:40.
