data_PCOD9101124
_publ_section_title
;
Structure prediction by ZEFSAII (Michael W. Deem and Ramdas Pophale) SiO2 
 PCOD9101124
Probable space group: P -1
;
_chemical_formula_sum "Si O2"
_cell_formula_units_Z 14
_cell_length_a 14.144813
_cell_length_b 15.154655
_cell_length_c 15.592982
_cell_angle_alpha 161.506060
_cell_angle_beta 45.370107
_cell_angle_gamma 137.421261
_cell_volume 717.235952
_symmetry_space_group_name_H-M "P -1"
_symmetry_group_IT_number 2
_symmetry_cell_setting 'triclinic'
loop_
_space_group_symop_operation_xyz
x,y,z
-x,-y,-z
loop_
_atom_site_type_symbol
_atom_site_label
_atom_site_fract_x
_atom_site_fract_y
_atom_site_fract_z
Si Si1 0.740569 0.773381 0.282573
Si Si2 0.251949 0.887121 0.911725
Si Si3 0.443710 0.670101 0.899347
Si Si4 0.987834 0.291977 0.235989
Si Si5 0.849317 0.736420 0.539581
Si Si6 0.726277 0.873564 0.573757
Si Si7 0.860684 0.391434 0.730259
O O1 0.797406 0.864140 0.427118
O O2 0.742634 0.074898 0.514526
O O3 0.592606 0.533210 0.179636
O O4 0.825813 0.607474 0.019954
O O5 0.158156 0.782096 0.790402
O O6 0.257134 0.590540 0.680581
O O7 0.402396 0.111104 0.002370
O O8 0.172925 0.053505 0.177557
O O9 0.335659 0.857361 0.137258
O O10 0.403011 0.429479 0.627893
O O11 0.000000 0.500000 0.500000
O O12 0.104694 0.445397 0.232165
O O13 0.000000 0.000000 0.000000
O O14 0.820637 0.865286 0.586638
O O15 0.999833 0.689378 0.407937
#
# Coordination Sequence:
#
# PCOD9101124 Si02
#       7
#     2   2   2   2   2   2   2
#     4  10  20  38  55  85 115 167 192 223 280 331
#     4  11  23  39  61  84 120 151 187 248 293 341
#     4  10  21  38  55  84 116 168 195 227 275 332
#     4  11  23  42  65  91 108 137 187 243 309 354
#     4  11  23  35  55  91 118 157 201 236 287 316
#     4  10  21  36  53  89 118 163 204 227 263 329
#     4  11  21  38  61  82 119 149 188 245 289 343
#
# _framework density 19.519378
#
# number of rings (size 3 to 8) (size 9 to 14) (size 15 to 20)
#    0.857    0.571    1.429    6.000    0.000    4.571 
#    0.000    0.000    0.000    5.143    0.000    0.000 
#    0.000    0.000    0.000    0.000    0.000    0.000 
#
# Total GULP energy -78078.672562 kJ/mol
# GULP energy per Si atom -5577.048040 kJ/mol
# Density = 1.947495 g / cm^3
# Si number density = 19.519378 Si / 1000 Ang^3
#
#
#
# Elastic Constant Matrix: (Units=GPa)
#
#
# Indices 1 2 3 4 5 6 
#
# 1 26.5417 14.6312 6.1599 -2.0945 1.1696 -21.4853
# 2 14.6312 80.8090 18.1897 12.3977 2.7539 -18.3787
# 3 6.1599 18.1897 109.1858 10.0968 -2.6156 -13.8749
# 4 -2.0945 12.3977 10.0968 40.8507 -5.9003 0.1843
# 5 1.1696 2.7539 -2.6156 -5.9003 20.7750 4.8080
# 6 -21.4853 -18.3787 -13.8749 0.1843 4.8080 24.2044
#
#
#
# Elastic Compliance Matrix: (Units=1/GPa)
#
#
# Indices 1 2 3 4 5 6 
#
# 1 0.183990 0.009593 0.011047 -0.005023 -0.055161 0.187933
# 2 0.009593 0.017367 -0.000078 -0.006331 -0.010140 0.023721
# 3 0.011047 -0.000078 0.010836 -0.002727 -0.003899 0.016754
# 4 -0.005023 -0.006331 -0.002727 0.028613 0.012014 -0.013434
# 5 -0.055161 -0.010140 -0.003899 0.012014 0.072491 -0.073390
# 6 0.187933 0.023721 0.016754 -0.013434 -0.073390 0.250433
#
#
# Mechanical properties :
#
#
# Convention : Reuss Voigt Hill
#
# Bulk Modulus (GPa) = 3.94760 32.72200 18.33480
# Shear Modulus (GPa) = 8.23663 29.00305 18.61984
#
# Velocity S-wave (km/s) = 2.05642 3.85887 3.09190
# Velocity P-wave (km/s) = 2.76863 6.05431 4.70744
#
# Compressibility (1/GPa) = 0.25331822
#
# Stress axis : x y z
#
# Youngs Moduli (GPa) = 5.43508 57.58001 92.28301
#
# Poissons Ratio (x) = -0.55238 -1.01943
# Poissons Ratio (y) = -0.05214 0.00716
# Poissons Ratio (z) = -0.06004 0.00447
#
# Static dielectric constant tensor:
#      x y z
#    x 1.664350 0.012430 0.008390 
#    y 0.012430 1.757700 0.029420 
#    z 0.008390 0.029420 1.675710 
# 
# From -- ./inp_files/531913.got.cif
#   From: 2010.05.17/outbox.cif.g08.bks.cpg/sg2_266_cif.got.tgz:531913.got - 2010.06.03 11:33:40.
