data_PCOD9101606
_publ_section_title
;
Structure prediction by ZEFSAII (Michael W. Deem and Ramdas Pophale) SiO2 
 PCOD9101606
Probable space group: P -1
;
_chemical_formula_sum "Si O2"
_cell_formula_units_Z 16
_cell_length_a 17.046691
_cell_length_b 8.313546
_cell_length_c 8.117896
_cell_angle_alpha 127.192837
_cell_angle_beta 65.103458
_cell_angle_gamma 119.426647
_cell_volume 785.374714
_symmetry_space_group_name_H-M "P -1"
_symmetry_group_IT_number 2
_symmetry_cell_setting 'triclinic'
loop_
_space_group_symop_operation_xyz
x,y,z
-x,-y,-z
loop_
_atom_site_type_symbol
_atom_site_label
_atom_site_fract_x
_atom_site_fract_y
_atom_site_fract_z
Si Si1 0.803872 0.554769 0.332368
Si Si2 0.395978 0.881887 0.459821
Si Si3 0.215229 0.900723 0.786180
Si Si4 0.456078 0.131550 0.242135
Si Si5 0.967610 0.263552 0.308871
Si Si6 0.609626 0.488712 0.539083
Si Si7 0.880029 0.884676 0.751348
Si Si8 0.986203 0.718615 0.104560
O O1 0.805419 0.317318 0.222918
O O2 0.700413 0.536144 0.377129
O O3 0.829941 0.690350 0.560585
O O4 0.881538 0.684943 0.218771
O O5 0.319048 0.954832 0.667701
O O6 0.376893 0.634998 0.382268
O O7 0.500000 0.000000 0.500000
O O8 0.394900 0.955390 0.316749
O O9 0.142227 0.841173 0.663175
O O10 0.188732 0.071594 0.027630
O O11 0.530674 0.309299 0.397723
O O12 0.409335 0.286648 0.285729
O O13 0.500000 0.000000 0.000000
O O14 0.000000 0.500000 0.500000
O O15 0.029913 0.150727 0.275276
O O16 0.993724 0.255307 0.089951
O O17 0.934311 0.108496 0.754308
O O18 0.000000 0.500000 0.000000
#
# Coordination Sequence:
#
# PCOD9101606 Si02
#       8
#     2   2   2   2   2   2   2   2
#     4  11  21  38  59  89 120 158 203 250 301 365
#     4   9  20  40  65  89 123 163 198 256 315 364
#     4  10  20  38  60  84 123 154 206 249 301 368
#     4  10  21  42  64  91 125 158 205 256 313 371
#     4  11  21  38  57  85 122 162 204 250 295 366
#     4   9  22  40  62  90 126 159 200 260 306 368
#     4  11  22  37  62  83 120 167 199 247 311 356
#     4  11  20  37  57  84 120 157 199 249 296 352
#
# _framework density 20.372441999999999
#
# number of rings (size 3 to 8) (size 9 to 14) (size 15 to 20)
#    0.000    1.750    3.750    1.875    0.000    5.500 
#    2.250    6.250    0.000    0.000    0.000    0.000 
#    0.000    0.000    0.000    0.000    0.000    0.000 
#
# Total GULP energy -89109.484689 kJ/mol
# GULP energy per Si atom -5569.342793 kJ/mol
# Density = 2.032607 g / cm^3
# Si number density = 20.372442 Si / 1000 Ang^3
#
#
#
# Elastic Constant Matrix: (Units=GPa)
#
#
# Indices 1 2 3 4 5 6 
#
# 1 55.3095 14.0504 16.2859 -2.6998 -28.3451 2.6665
# 2 14.0504 67.7916 30.0329 -10.3337 -17.6310 -4.8344
# 3 16.2859 30.0329 95.2774 -0.0567 -27.6886 -2.5713
# 4 -2.6998 -10.3337 -0.0567 36.1237 4.7317 -16.1475
# 5 -28.3451 -17.6310 -27.6886 4.7317 36.8068 -0.5581
# 6 2.6665 -4.8344 -2.5713 -16.1475 -0.5581 32.4193
#
#
#
# Elastic Compliance Matrix: (Units=1/GPa)
#
#
# Indices 1 2 3 4 5 6 
#
# 1 0.030593 -0.001674 0.002445 -0.003104 0.024941 -0.003689
# 2 -0.001674 0.019883 -0.004699 0.008120 0.003760 0.006839
# 3 0.002445 -0.004699 0.014758 -0.003072 0.011112 -0.001070
# 4 -0.003104 0.008120 -0.003072 0.039889 -0.005622 0.020994
# 5 0.024941 0.003760 0.011112 -0.005622 0.057222 -0.002424
# 6 -0.003689 0.006839 -0.001070 0.020994 -0.002424 0.042499
#
#
# Mechanical properties :
#
#
# Convention : Reuss Voigt Hill
#
# Bulk Modulus (GPa) = 17.42823 37.67966 27.55394
# Shear Modulus (GPa) = 21.56780 31.60392 26.58586
#
# Velocity S-wave (km/s) = 3.25726 3.94294 3.61639
# Velocity P-wave (km/s) = 4.76652 6.26614 5.56706
#
# Compressibility (1/GPa) = 0.05737817
#
# Stress axis : x y z
#
# Youngs Moduli (GPa) = 32.68689 50.29359 67.76138
#
# Poissons Ratio (x) = 0.08417 -0.16566
# Poissons Ratio (y) = 0.05470 0.31843
# Poissons Ratio (z) = -0.07991 0.23634
#
# Static dielectric constant tensor:
#      x y z
#    x 1.777270 0.047700 -0.010460 
#    y 0.047700 1.534910 -0.099410 
#    z -0.010460 -0.099410 1.688010 
# 
# From -- ./inp_files/212695.got.cif
#   From: 2010.05.17/outbox.cif.g08.bks.cpg/sg2_107_cif.got.tgz:212695.got - 2010.06.03 11:33:40.
