data_PCOD9101531
_publ_section_title
;
Structure prediction by ZEFSAII (Michael W. Deem and Ramdas Pophale) SiO2 
 PCOD9101531
Probable space group: P -1
;
_chemical_formula_sum "Si O2"
_cell_formula_units_Z 16
_cell_length_a 8.895875
_cell_length_b 14.935328
_cell_length_c 11.627223
_cell_angle_alpha 44.585917
_cell_angle_beta 117.622047
_cell_angle_gamma 141.088496
_cell_volume 666.639674
_symmetry_space_group_name_H-M "P -1"
_symmetry_group_IT_number 2
_symmetry_cell_setting 'triclinic'
loop_
_space_group_symop_operation_xyz
x,y,z
-x,-y,-z
loop_
_atom_site_type_symbol
_atom_site_label
_atom_site_fract_x
_atom_site_fract_y
_atom_site_fract_z
Si Si1 0.529407 0.158024 0.822954
Si Si2 0.751607 0.610844 0.920663
Si Si3 0.216064 0.991939 0.220545
Si Si4 0.047796 0.529641 0.772534
Si Si5 0.243966 0.384935 0.348342
Si Si6 0.986402 0.997726 0.640162
Si Si7 0.695792 0.788061 0.148037
Si Si8 0.756923 0.297176 0.544257
O O1 0.307920 0.107530 0.851719
O O2 0.550145 0.196600 0.659804
O O3 0.788139 0.344211 0.797195
O O4 0.500000 0.000000 0.000000
O O5 0.699232 0.596988 0.781380
O O6 0.500000 0.500000 0.000000
O O7 0.862627 0.531460 0.055285
O O8 0.949356 0.829888 0.814268
O O9 0.252609 0.860314 0.341871
O O10 0.213445 0.043627 0.303110
O O11 0.956545 0.865066 0.177096
O O12 0.371443 0.173524 0.029105
O O13 0.247403 0.643409 0.637082
O O14 0.979325 0.634560 0.696800
O O15 0.185845 0.216421 0.531774
O O16 0.489786 0.578654 0.305071
O O17 0.000000 0.000000 0.500000
O O18 0.000000 0.500000 0.500000
#
# Coordination Sequence:
#
# PCOD9101531 Si02
#       8
#     2   2   2   2   2   2   2   2
#     4  10  20  38  59  97 134 165 216 261 329 395
#     4  11  24  43  66  92 127 171 225 272 324 388
#     4  11  21  40  65  97 137 173 216 270 332 391
#     4  10  22  41  64  89 127 180 211 265 327 387
#     4  10  21  44  65  93 128 167 223 269 328 388
#     4  10  23  42  65  94 130 171 217 277 323 385
#     4  10  23  37  68  98 129 173 213 272 335 394
#     4  10  21  38  59  91 134 171 212 267 324 393
#
# _framework density 24.000969999999999
#
# number of rings (size 3 to 8) (size 9 to 14) (size 15 to 20)
#    0.000    1.750    2.500    1.125    1.750    3.500 
#    4.500    0.625    0.000    0.000    0.000    0.000 
#    0.000    0.000    0.000    0.000    0.000    0.000 
#
# Total GULP energy -89139.539736 kJ/mol
# GULP energy per Si atom -5571.221233 kJ/mol
# Density = 2.394634 g / cm^3
# Si number density = 24.000970 Si / 1000 Ang^3
#
#
#
# Elastic Constant Matrix: (Units=GPa)
#
#
# Indices 1 2 3 4 5 6 
#
# 1 80.0388 8.3517 35.8742 5.5524 -7.9969 -21.7105
# 2 8.3517 64.6098 24.0570 -14.5717 4.2408 -14.3818
# 3 35.8742 24.0570 147.5302 -16.8170 -10.2207 -4.2181
# 4 5.5524 -14.5717 -16.8170 41.1469 -14.1186 -1.7256
# 5 -7.9969 4.2408 -10.2207 -14.1186 52.1919 6.4679
# 6 -21.7105 -14.3818 -4.2181 -1.7256 6.4679 32.2959
#
#
#
# Elastic Compliance Matrix: (Units=1/GPa)
#
#
# Indices 1 2 3 4 5 6 
#
# 1 0.017872 0.001329 -0.004684 -0.003610 -0.000744 0.011951
# 2 0.001329 0.019947 -0.002768 0.005595 -0.001691 0.010052
# 3 -0.004684 -0.002768 0.008931 0.004117 0.002811 -0.003558
# 4 -0.003610 0.005595 0.004117 0.031289 0.008184 0.000635
# 5 -0.000744 -0.001691 0.002811 0.008184 0.022563 -0.004968
# 6 0.011951 0.010052 -0.003558 0.000635 -0.004968 0.044038
#
#
# Mechanical properties :
#
#
# Convention : Reuss Voigt Hill
#
# Bulk Modulus (GPa) = 28.98232 47.63829 38.31031
# Shear Modulus (GPa) = 29.69344 40.05333 34.87339
#
# Velocity S-wave (km/s) = 3.52117 4.08955 3.81596
# Velocity P-wave (km/s) = 5.35100 6.49545 5.95080
#
# Compressibility (1/GPa) = 0.03450379
#
# Stress axis : x y z
#
# Youngs Moduli (GPa) = 55.95245 50.13382 111.97084
#
# Poissons Ratio (x) = -0.06661 0.52446
# Poissons Ratio (y) = -0.07434 0.30991
# Poissons Ratio (z) = 0.26208 0.13876
#
# Static dielectric constant tensor:
#      x y z
#    x 0.327720 -1.256710 -1.475350 
#    y -1.256710 1.014650 -1.119700 
#    z -1.475350 -1.119700 0.661270 
# 
# From -- ./inp_files/278280.got.cif
#   From: 2010.05.17/outbox.cif.g08.bks.cpg/sg2_140_cif.got.tgz:278280.got - 2010.06.03 11:33:40.
