data_PCOD9101941
_publ_section_title
;
Structure prediction by ZEFSAII (Michael W. Deem and Ramdas Pophale) SiO2 
 PCOD9101941
Probable space group: P -1
;
_chemical_formula_sum "Si O2"
_cell_formula_units_Z 16
_cell_length_a 22.687808
_cell_length_b 9.015686
_cell_length_c 21.729739
_cell_angle_alpha 37.003098
_cell_angle_beta 19.576986
_cell_angle_gamma 29.156561
_cell_volume 717.568353
_symmetry_space_group_name_H-M "P -1"
_symmetry_group_IT_number 2
_symmetry_cell_setting 'triclinic'
loop_
_space_group_symop_operation_xyz
x,y,z
-x,-y,-z
loop_
_atom_site_type_symbol
_atom_site_label
_atom_site_fract_x
_atom_site_fract_y
_atom_site_fract_z
Si Si1 0.010136 0.667623 0.307346
Si Si2 0.405562 0.963652 0.788423
Si Si3 0.601552 0.171638 0.605685
Si Si4 0.292446 0.707702 0.094039
Si Si5 0.848977 0.346756 0.508807
Si Si6 0.113844 0.695289 0.655027
Si Si7 0.199069 0.515774 0.963240
Si Si8 0.058183 0.993999 0.046908
O O1 0.235745 0.521493 0.169172
O O2 0.998739 0.454989 0.342565
O O3 0.971416 0.939499 0.212344
O O4 0.817747 0.822941 0.496040
O O5 0.616828 0.618589 0.677536
O O6 0.222404 0.072958 0.880583
O O7 0.466809 0.192847 0.670306
O O8 0.316468 0.913637 0.954887
O O9 0.700272 0.360276 0.461907
O O10 0.446067 0.232325 0.796118
O O11 0.500000 0.500000 0.000000
O O12 0.084133 0.944562 0.262247
O O13 0.800960 0.362325 0.478957
O O14 0.000000 0.000000 0.500000
O O15 0.988199 0.538706 0.836146
O O16 0.185368 0.682068 0.984457
O O17 0.131619 0.753029 0.894855
#
# Coordination Sequence:
#
# PCOD9101941 Si02
#       8
#     2   2   2   2   2   2   2   2
#     4   9  21  41  60  89 127 158 204 256 302 364
#     4  10  21  41  60  88 127 159 201 257 304 358
#     4  10  22  40  63  89 125 164 197 257 304 357
#     4  10  20  38  61  88 121 162 204 251 308 360
#     4  11  22  39  61  90 123 162 206 252 307 368
#     4  11  22  41  62  93 126 156 211 256 300 369
#     4  11  22  42  65  91 122 164 209 250 312 362
#     4  10  22  42  64  88 125 164 203 257 307 366
#
# _framework density 22.297528
#
# number of rings (size 3 to 8) (size 9 to 14) (size 15 to 20)
#    0.000    1.750    2.500    1.500    0.000    2.000 
#    6.750    7.500    0.000    0.000    0.000    0.000 
#    0.000    0.000    0.000    0.000    0.000    0.000 
#
# Total GULP energy -89136.659409 kJ/mol
# GULP energy per Si atom -5571.041213 kJ/mol
# Density = 2.224678 g / cm^3
# Si number density = 22.297528 Si / 1000 Ang^3
#
#
#
# Elastic Constant Matrix: (Units=GPa)
#
#
# Indices 1 2 3 4 5 6 
#
# 1 119.7516 24.6367 37.4508 -6.3773 -22.4670 34.2777
# 2 24.6367 29.8527 11.9908 -6.2204 2.8180 20.1614
# 3 37.4508 11.9908 78.0772 -7.0267 -9.6674 24.5594
# 4 -6.3773 -6.2204 -7.0267 26.9978 20.1810 -4.2774
# 5 -22.4670 2.8180 -9.6674 20.1810 40.1810 -3.5899
# 6 34.2777 20.1614 24.5594 -4.2774 -3.5899 36.4994
#
#
#
# Elastic Compliance Matrix: (Units=1/GPa)
#
#
# Indices 1 2 3 4 5 6 
#
# 1 0.015179 -0.010411 -0.002966 -0.010458 0.013181 -0.006437
# 2 -0.010411 0.070467 0.002988 0.030876 -0.028261 -0.030319
# 3 -0.002966 0.002988 0.017202 0.002948 -0.000113 -0.010105
# 4 -0.010458 0.030876 0.002948 0.076002 -0.045907 -0.004825
# 5 0.013181 -0.028261 -0.000113 -0.045907 0.057590 0.003592
# 6 -0.006437 -0.030319 -0.010105 -0.004825 0.003592 0.056778
#
#
# Mechanical properties :
#
#
# Convention : Reuss Voigt Hill
#
# Bulk Modulus (GPa) = 12.18484 41.75978 26.97231
# Shear Modulus (GPa) = 14.64762 30.97584 22.81173
#
# Velocity S-wave (km/s) = 2.56582 3.73125 3.20200
# Velocity P-wave (km/s) = 3.77550 6.10999 5.07870
#
# Compressibility (1/GPa) = 0.08206920
#
# Stress axis : x y z
#
# Youngs Moduli (GPa) = 65.88138 14.19104 58.13430
#
# Poissons Ratio (x) = 0.14775 0.17243
# Poissons Ratio (y) = 0.68590 -0.17371
# Poissons Ratio (z) = 0.19540 -0.04240
#
# Static dielectric constant tensor:
#      x y z
#    x 1.805780 0.034520 -0.025170 
#    y 0.034520 1.827580 -0.027040 
#    z -0.025170 -0.027040 1.891490 
# 
# From -- ./inp_files/349970.got.cif
#   From: 2010.05.17/outbox.cif.g08.bks.cpg/sg2_175_cif.got.tgz:349970.got - 2010.06.03 11:33:40.
