data_PCOD9101972
_publ_section_title
;
Structure prediction by ZEFSAII (Michael W. Deem and Ramdas Pophale) SiO2 
 PCOD9101972
Probable space group: P -1
;
_chemical_formula_sum "Si O2"
_cell_formula_units_Z 16
_cell_length_a 23.104129
_cell_length_b 22.586499
_cell_length_c 8.328675
_cell_angle_alpha 28.445361
_cell_angle_beta 142.292836
_cell_angle_gamma 159.695246
_cell_volume 703.492039
_symmetry_space_group_name_H-M "P -1"
_symmetry_group_IT_number 2
_symmetry_cell_setting 'triclinic'
loop_
_space_group_symop_operation_xyz
x,y,z
-x,-y,-z
loop_
_atom_site_type_symbol
_atom_site_label
_atom_site_fract_x
_atom_site_fract_y
_atom_site_fract_z
Si Si1 0.634607 0.513417 0.170028
Si Si2 0.112831 0.406642 0.608176
Si Si3 0.815372 0.992212 0.174117
Si Si4 0.904600 0.209924 0.340392
Si Si5 0.544621 0.112865 0.657430
Si Si6 0.619810 0.950143 0.099119
Si Si7 0.380477 0.201678 0.085092
Si Si8 0.903675 0.978122 0.712251
O O1 0.803614 0.621658 0.229051
O O2 0.520690 0.296822 0.545223
O O3 0.528106 0.418955 0.999868
O O4 0.705877 0.716461 0.922468
O O5 0.266109 0.629679 0.514277
O O6 0.041085 0.407244 0.296754
O O7 0.961693 0.213770 0.859246
O O8 0.715122 0.983191 0.086442
O O9 0.902432 0.986175 0.496345
O O10 0.676132 0.794696 0.210378
O O11 0.767130 0.136986 0.112262
O O12 0.786390 0.989908 0.713110
O O13 0.973853 0.191373 0.403606
O O14 0.431516 0.111992 0.379732
O O15 0.500000 0.000000 0.000000
O O16 0.536464 0.994343 0.791252
O O17 0.000000 0.000000 0.000000
#
# Coordination Sequence:
#
# PCOD9101972 Si02
#       8
#     2   2   2   2   2   2   2   2
#     4  10  20  39  64  90 118 164 213 240 300 370
#     4  10  20  38  61  89 125 160 201 252 306 354
#     4  10  24  41  57  92 131 154 198 266 303 350
#     4   9  18  36  58  86 124 151 205 250 291 359
#     4  11  19  38  67  89 117 167 207 240 301 371
#     4  10  21  39  62  91 124 157 205 256 291 364
#     4   9  20  39  59  89 127 154 199 255 302 357
#     4  11  22  39  64  90 120 166 206 249 305 364
#
# _framework density 22.743683000000001
#
# number of rings (size 3 to 8) (size 9 to 14) (size 15 to 20)
#    0.000    2.000    5.000    0.000    0.000    7.000 
#    4.500    0.000    0.000    0.000    0.000    0.000 
#    0.000    0.000    0.000    0.000    0.000    0.000 
#
# Total GULP energy -89078.965547 kJ/mol
# GULP energy per Si atom -5567.435347 kJ/mol
# Density = 2.269192 g / cm^3
# Si number density = 22.743683 Si / 1000 Ang^3
#
#
#
# Elastic Constant Matrix: (Units=GPa)
#
#
# Indices 1 2 3 4 5 6 
#
# 1 90.7604 26.9057 24.4094 -0.6129 -8.0162 8.5851
# 2 26.9057 93.7936 20.1321 9.4061 -26.1372 -22.0773
# 3 24.4094 20.1321 56.7679 5.3217 -2.1018 -1.4478
# 4 -0.6129 9.4061 5.3217 33.5148 -3.8534 -13.6037
# 5 -8.0162 -26.1372 -2.1018 -3.8534 28.1670 3.5751
# 6 8.5851 -22.0773 -1.4478 -13.6037 3.5751 32.7662
#
#
#
# Elastic Compliance Matrix: (Units=1/GPa)
#
#
# Indices 1 2 3 4 5 6 
#
# 1 0.014400 -0.004793 -0.004613 -0.000688 0.000165 -0.007510
# 2 -0.004793 0.020512 -0.004493 0.002441 0.015871 0.014160
# 3 -0.004613 -0.004493 0.021314 -0.003434 -0.004127 -0.001853
# 4 -0.000688 0.002441 -0.003434 0.036924 0.004773 0.016483
# 5 0.000165 0.015871 -0.004127 0.004773 0.049731 0.007024
# 6 -0.007510 0.014160 -0.001853 0.016483 0.007024 0.048023
#
#
# Mechanical properties :
#
#
# Convention : Reuss Voigt Hill
#
# Bulk Modulus (GPa) = 35.17729 42.69070 38.93400
# Shear Modulus (GPa) = 21.91254 30.21456 26.06355
#
# Velocity S-wave (km/s) = 3.10733 3.64879 3.38889
# Velocity P-wave (km/s) = 5.32676 6.04671 5.69812
#
# Compressibility (1/GPa) = 0.02842743
#
# Stress axis : x y z
#
# Youngs Moduli (GPa) = 69.44479 48.75116 46.91660
#
# Poissons Ratio (x) = 0.23369 0.21641
# Poissons Ratio (y) = 0.33288 0.21082
# Poissons Ratio (z) = 0.32033 0.21906
#
# Static dielectric constant tensor:
#      x y z
#    x 1.963580 0.017400 0.065890 
#    y 0.017400 1.889740 0.031750 
#    z 0.065890 0.031750 1.884980 
# 
# From -- ./inp_files/355558.got.cif
#   From: 2010.05.17/outbox.cif.g08.bks.cpg/sg2_178_cif.got.tgz:355558.got - 2010.06.03 11:33:40.
