data_PCOD9101413
_publ_section_title
;
Structure prediction by ZEFSAII (Michael W. Deem and Ramdas Pophale) SiO2 
 PCOD9101413
Probable space group: P -1
;
_chemical_formula_sum "Si O2"
_cell_formula_units_Z 12
_cell_length_a 14.945902
_cell_length_b 7.403294
_cell_length_c 12.517785
_cell_angle_alpha 88.678275
_cell_angle_beta 152.661617
_cell_angle_gamma 75.707381
_cell_volume 516.970231
_symmetry_space_group_name_H-M "P -1"
_symmetry_group_IT_number 2
_symmetry_cell_setting 'triclinic'
loop_
_space_group_symop_operation_xyz
x,y,z
-x,-y,-z
loop_
_atom_site_type_symbol
_atom_site_label
_atom_site_fract_x
_atom_site_fract_y
_atom_site_fract_z
Si Si1 0.224855 0.107462 0.695822
Si Si2 0.390016 0.656824 0.777931
Si Si3 0.784876 0.330597 0.827349
Si Si4 0.760221 0.911703 0.826779
Si Si5 0.100379 0.111582 0.800635
Si Si6 0.838237 0.357845 0.123127
O O1 0.241633 0.896045 0.672911
O O2 0.128878 0.176125 0.711880
O O3 0.069651 0.289842 0.438857
O O4 0.500000 0.000000 0.000000
O O5 0.180959 0.698473 0.478144
O O6 0.500000 0.500000 0.000000
O O7 0.613405 0.569057 0.939901
O O8 0.500000 0.500000 0.500000
O O9 0.801361 0.105324 0.860580
O O10 0.842948 0.389185 0.002517
O O11 0.994557 0.285874 0.969925
O O12 0.500000 0.000000 0.500000
O O13 0.758238 0.874674 0.952118
O O14 0.179851 0.854885 0.883507
#
# Coordination Sequence:
#
# PCOD9101413 Si02
#       6
#     2   2   2   2   2   2
#     4  11  23  35  55  90 120 145 186 241 293 342
#     4  11  18  37  61  81 110 155 193 222 290 357
#     4  10  22  42  63  90 119 156 206 248 293 352
#     4  10  23  41  64  87 120 162 200 246 301 351
#     4  10  20  38  59  84 116 152 192 237 289 350
#     4  10  20  38  62  82 115 155 189 236 290 353
#
# _framework density 23.21217
#
# number of rings (size 3 to 8) (size 9 to 14) (size 15 to 20)
#    0.000    1.667    3.333    2.000    2.333    2.667 
#    0.000    0.000    0.000    0.000    0.000    0.000 
#    0.000    0.000    0.000    0.000    0.000    0.000 
#
# Total GULP energy -66860.472952 kJ/mol
# GULP energy per Si atom -5571.706079 kJ/mol
# Density = 2.315934 g / cm^3
# Si number density = 23.212170 Si / 1000 Ang^3
#
#
#
# Elastic Constant Matrix: (Units=GPa)
#
#
# Indices 1 2 3 4 5 6 
#
# 1 97.6588 28.7147 58.7453 9.6254 -3.3998 -45.2859
# 2 28.7147 55.4361 13.6615 0.4063 -6.1435 -14.7423
# 3 58.7453 13.6615 192.3073 18.9204 -3.1275 -37.6329
# 4 9.6254 0.4063 18.9204 40.9327 -9.9810 0.5644
# 5 -3.3998 -6.1435 -3.1275 -9.9810 41.7633 6.1026
# 6 -45.2859 -14.7423 -37.6329 0.5644 6.1026 32.7323
#
#
#
# Elastic Compliance Matrix: (Units=1/GPa)
#
#
# Indices 1 2 3 4 5 6 
#
# 1 0.034194 -0.006207 -0.000121 -0.010341 -0.007320 0.045918
# 2 -0.006207 0.021765 0.000451 0.001745 0.002980 0.001149
# 3 -0.000121 0.000451 0.007272 -0.003848 -0.001599 0.008762
# 4 -0.010341 0.001745 -0.003848 0.031232 0.009552 -0.020265
# 5 -0.007320 0.002980 -0.001599 0.009552 0.028297 -0.016063
# 6 0.045918 0.001149 0.008762 -0.020265 -0.016063 0.108014
#
#
# Mechanical properties :
#
#
# Convention : Reuss Voigt Hill
#
# Bulk Modulus (GPa) = 19.42492 60.84947 40.13719
# Shear Modulus (GPa) = 19.25394 39.37102 29.31248
#
# Velocity S-wave (km/s) = 2.88319 4.12289 3.55745
# Velocity P-wave (km/s) = 4.41251 6.99540 5.84833
#
# Compressibility (1/GPa) = 0.05148027
#
# Stress axis : x y z
#
# Youngs Moduli (GPa) = 29.24461 45.94427 137.51483
#
# Poissons Ratio (x) = 0.28516 0.01658
# Poissons Ratio (y) = 0.18151 -0.06207
# Poissons Ratio (z) = 0.00353 -0.02074
#
# Static dielectric constant tensor:
#      x y z
#    x 1.982680 0.096540 0.078430 
#    y 0.096540 2.305100 0.335200 
#    z 0.078430 0.335200 2.325620 
# 
# From -- ./inp_files/21833.got.cif
#   From: 2010.05.17/outbox.cif.g08.bks.cpg/sg2_11_cif.got.tgz:21833.got - 2010.06.03 11:33:40.
