data_PCOD9101877
_publ_section_title
;
Structure prediction by ZEFSAII (Michael W. Deem and Ramdas Pophale) SiO2 
 PCOD9101877
Probable space group: P -1
;
_chemical_formula_sum "Si O2"
_cell_formula_units_Z 16
_cell_length_a 12.783295
_cell_length_b 7.385265
_cell_length_c 26.543562
_cell_angle_alpha 124.604776
_cell_angle_beta 27.011034
_cell_angle_gamma 139.234132
_cell_volume 693.223086
_symmetry_space_group_name_H-M "P -1"
_symmetry_group_IT_number 2
_symmetry_cell_setting 'triclinic'
loop_
_space_group_symop_operation_xyz
x,y,z
-x,-y,-z
loop_
_atom_site_type_symbol
_atom_site_label
_atom_site_fract_x
_atom_site_fract_y
_atom_site_fract_z
Si Si1 0.975236 0.131935 0.608675
Si Si2 0.621062 0.798554 0.295343
Si Si3 0.414705 0.964292 0.871693
Si Si4 0.995349 0.619253 0.093893
Si Si5 0.957114 0.659183 0.228658
Si Si6 0.316688 0.972383 0.390803
Si Si7 0.739247 0.522318 0.865937
Si Si8 0.528973 0.759067 0.441424
O O1 0.086104 0.955214 0.524353
O O2 0.279324 0.478933 0.540073
O O3 0.714256 0.004502 0.741157
O O4 0.824995 0.117972 0.618173
O O5 0.728794 0.632968 0.202731
O O6 0.452401 0.669822 0.401025
O O7 0.424366 0.812889 0.342797
O O8 0.946140 0.136724 0.222149
O O9 0.163118 0.720428 0.899884
O O10 0.545475 0.297704 0.866719
O O11 0.245292 0.815292 0.974036
O O12 0.106321 0.741707 0.122067
O O13 0.623650 0.322882 0.312174
O O14 0.857475 0.838968 0.318117
O O15 0.148123 0.625477 0.177489
O O16 0.500000 0.500000 0.000000
O O17 0.500000 0.000000 0.500000
#
# Coordination Sequence:
#
# PCOD9101877 Si02
#       8
#     2   2   2   2   2   2   2   2
#     4  10  20  38  61  85 120 156 203 239 302 364
#     4  10  21  40  63  85 124 156 202 249 305 355
#     4  11  22  38  63  89 120 153 202 252 295 357
#     4  10  21  41  61  88 124 155 196 257 303 345
#     4   9  20  40  64  84 123 163 195 242 313 357
#     4   9  19  37  62  86 113 162 194 244 303 359
#     4  11  22  41  62  89 120 164 203 241 300 371
#     4  10  21  38  60  90 122 156 197 255 299 354
#
# _framework density 23.080593
#
# number of rings (size 3 to 8) (size 9 to 14) (size 15 to 20)
#    0.000    2.000    2.500    0.750    1.750    2.000 
#    2.250    7.500    0.000    0.000    0.000    0.000 
#    0.000    0.000    0.000    0.000    0.000    0.000 
#
# Total GULP energy -89371.896705 kJ/mol
# GULP energy per Si atom -5585.743544 kJ/mol
# Density = 2.302806 g / cm^3
# Si number density = 23.080593 Si / 1000 Ang^3
#
#
#
# Elastic Constant Matrix: (Units=GPa)
#
#
# Indices 1 2 3 4 5 6 
#
# 1 45.9613 11.3032 26.1256 11.7389 -12.4224 -14.7273
# 2 11.3032 104.1213 28.1893 15.3442 -9.4680 10.9222
# 3 26.1256 28.1893 135.7369 14.3239 22.1182 5.8662
# 4 11.7389 15.3442 14.3239 32.9744 -1.1480 -4.9068
# 5 -12.4224 -9.4680 22.1182 -1.1480 30.9927 3.4756
# 6 -14.7273 10.9222 5.8662 -4.9068 3.4756 23.9399
#
#
#
# Elastic Compliance Matrix: (Units=1/GPa)
#
#
# Indices 1 2 3 4 5 6 
#
# 1 0.046507 -0.001405 -0.013298 -0.005122 0.024381 0.027920
# 2 -0.001405 0.012509 -0.002345 -0.005281 0.005622 -0.007896
# 3 -0.013298 -0.002345 0.013366 -0.001775 -0.014685 -0.008618
# 4 -0.005122 -0.005281 -0.001775 0.036419 -0.001884 0.007432
# 5 0.024381 0.005622 -0.014685 -0.001884 0.053278 0.007911
# 6 0.027920 -0.007896 -0.008618 0.007432 0.007911 0.065036
#
#
# Mechanical properties :
#
#
# Convention : Reuss Voigt Hill
#
# Bulk Modulus (GPa) = 26.11974 46.33954 36.22964
# Shear Modulus (GPa) = 18.24992 32.26150 25.25571
#
# Velocity S-wave (km/s) = 2.81500 3.74274 3.31152
# Velocity P-wave (km/s) = 4.68048 6.22883 5.50932
#
# Compressibility (1/GPa) = 0.03828521
#
# Stress axis : x y z
#
# Youngs Moduli (GPa) = 21.50236 79.94040 74.81470
#
# Poissons Ratio (x) = 0.11233 0.99492
# Poissons Ratio (y) = 0.03022 0.17543
# Poissons Ratio (z) = 0.28595 0.18745
#
# Static dielectric constant tensor:
#      x y z
#    x 1.879660 0.060150 -0.000120 
#    y 0.060150 1.923760 -0.032250 
#    z -0.000120 -0.032250 1.861400 
# 
# From -- ./inp_files/204200.got.cif
#   From: 2010.05.17/outbox.cif.g08.bks.cpg/sg2_103_cif.got.tgz:204200.got - 2010.06.03 11:33:40.
