data_PCOD9101649
_publ_section_title
;
Structure prediction by ZEFSAII (Michael W. Deem and Ramdas Pophale) SiO2 
 PCOD9101649
Probable space group: P -1
;
_chemical_formula_sum "Si O2"
_cell_formula_units_Z 16
_cell_length_a 16.140485
_cell_length_b 5.359207
_cell_length_c 15.884583
_cell_angle_alpha 114.926919
_cell_angle_beta 37.772995
_cell_angle_gamma 123.946576
_cell_volume 697.647516
_symmetry_space_group_name_H-M "P -1"
_symmetry_group_IT_number 2
_symmetry_cell_setting 'triclinic'
loop_
_space_group_symop_operation_xyz
x,y,z
-x,-y,-z
loop_
_atom_site_type_symbol
_atom_site_label
_atom_site_fract_x
_atom_site_fract_y
_atom_site_fract_z
Si Si1 0.869526 0.780090 0.194112
Si Si2 0.347338 0.543255 0.540980
Si Si3 0.099468 0.321639 0.386931
Si Si4 0.351954 0.099629 0.721538
Si Si5 0.667563 0.630683 0.909322
Si Si6 0.911829 0.671303 0.409354
Si Si7 0.804175 0.355124 0.892800
Si Si8 0.173585 0.794485 0.959806
O O1 0.756267 0.735275 0.356398
O O2 0.802314 0.914890 0.194998
O O3 0.855969 0.457426 0.124413
O O4 0.044378 0.918054 0.092544
O O5 0.507247 0.602463 0.380798
O O6 0.233521 0.513560 0.553082
O O7 0.377635 0.825210 0.618412
O O8 0.249087 0.491318 0.242389
O O9 0.131160 0.289612 0.454683
O O10 0.000000 0.500000 0.500000
O O11 0.004459 0.025305 0.366809
O O12 0.324126 0.048063 0.836324
O O13 0.710875 0.517344 0.945764
O O14 0.724286 0.989466 0.900066
O O15 0.500000 0.500000 0.000000
O O16 0.036584 0.546493 0.268406
O O17 0.822534 0.377827 0.982095
#
# Coordination Sequence:
#
# PCOD9101649 Si02
#       8
#     2   2   2   2   2   2   2   2
#     4  10  20  38  60  86 127 168 210 265 323 380
#     4  10  21  39  58  90 122 168 222 258 331 384
#     4  10  21  41  65  92 125 162 217 279 330 396
#     4  10  22  37  60  87 134 168 210 275 320 389
#     4  11  25  44  68  97 132 173 211 279 345 400
#     4  10  21  39  64  91 124 168 221 274 323 400
#     4  11  23  42  69  95 131 168 227 265 328 412
#     4  10  22  37  59  93 122 167 217 264 320 386
#
# _framework density 22.934215999999999
#
# number of rings (size 3 to 8) (size 9 to 14) (size 15 to 20)
#    0.000    1.750    2.500    1.125    1.750    3.000 
#    0.000    0.000    0.000    0.000    0.000    0.000 
#    0.000    0.000    0.000    0.000    0.000    0.000 
#
# Total GULP energy -89128.324384 kJ/mol
# GULP energy per Si atom -5570.520274 kJ/mol
# Density = 2.288202 g / cm^3
# Si number density = 22.934216 Si / 1000 Ang^3
#
#
#
# Elastic Constant Matrix: (Units=GPa)
#
#
# Indices 1 2 3 4 5 6 
#
# 1 112.8850 19.2243 61.9038 -22.7863 -9.1893 -7.3932
# 2 19.2243 31.7313 33.0551 -3.3397 2.6280 -1.7610
# 3 61.9038 33.0551 139.0035 -19.6064 2.6519 -1.6564
# 4 -22.7863 -3.3397 -19.6064 26.0234 -4.6844 0.2026
# 5 -9.1893 2.6280 2.6519 -4.6844 32.5581 0.5104
# 6 -7.3932 -1.7610 -1.6564 0.2026 0.5104 30.5608
#
#
#
# Elastic Compliance Matrix: (Units=1/GPa)
#
#
# Indices 1 2 3 4 5 6 
#
# 1 0.014564 -0.003660 -0.004266 0.010157 0.006169 0.002911
# 2 -0.003660 0.043342 -0.009354 -0.005525 -0.004584 0.001218
# 3 -0.004266 -0.009354 0.011868 0.003861 -0.000846 -0.000939
# 4 0.010157 -0.005525 0.003861 0.051370 0.010360 0.001834
# 5 0.006169 -0.004584 -0.000846 0.010360 0.034377 0.000540
# 6 0.002911 0.001218 -0.000939 0.001834 0.000540 0.033424
#
#
# Mechanical properties :
#
#
# Convention : Reuss Voigt Hill
#
# Bulk Modulus (GPa) = 28.39804 56.88736 42.64270
# Shear Modulus (GPa) = 21.25454 29.12423 25.18939
#
# Velocity S-wave (km/s) = 3.04758 3.56744 3.31770
# Velocity P-wave (km/s) = 4.97925 6.46740 5.77149
#
# Compressibility (1/GPa) = 0.03521369
#
# Stress axis : x y z
#
# Youngs Moduli (GPa) = 68.66075 23.07221 84.26147
#
# Poissons Ratio (x) = 0.08445 0.35947
# Poissons Ratio (y) = 0.25131 0.78819
# Poissons Ratio (z) = 0.29292 0.21582
#
# Static dielectric constant tensor:
#      x y z
#    x 2.008300 -0.011790 0.132630 
#    y -0.011790 1.932160 -0.062040 
#    z 0.132630 -0.062040 2.009200 
# 
# From -- ./inp_files/299809.got.cif
#   From: 2010.05.17/outbox.cif.g08.bks.cpg/sg2_150_cif.got.tgz:299809.got - 2010.06.03 11:33:40.
