data_PCOD9101792
_publ_section_title
;
Structure prediction by ZEFSAII (Michael W. Deem and Ramdas Pophale) SiO2 
 PCOD9101792
Probable space group: P -1
;
_chemical_formula_sum "Si O2"
_cell_formula_units_Z 12
_cell_length_a 7.258592
_cell_length_b 7.308231
_cell_length_c 9.245338
_cell_angle_alpha 91.954590
_cell_angle_beta 88.782520
_cell_angle_gamma 113.957555
_cell_volume 447.913036
_symmetry_space_group_name_H-M "P -1"
_symmetry_group_IT_number 2
_symmetry_cell_setting 'triclinic'
loop_
_space_group_symop_operation_xyz
x,y,z
-x,-y,-z
loop_
_atom_site_type_symbol
_atom_site_label
_atom_site_fract_x
_atom_site_fract_y
_atom_site_fract_z
Si Si1 0.679820 0.155659 0.369756
Si Si2 0.286193 0.990932 0.917281
Si Si3 0.821910 0.362690 0.891676
Si Si4 0.719850 0.848331 0.526756
Si Si5 0.193175 0.239951 0.153654
Si Si6 0.915106 0.585564 0.369193
O O1 0.604407 0.995681 0.236940
O O2 0.782282 0.368942 0.295372
O O3 0.514616 0.188009 0.472681
O O4 0.814916 0.072932 0.463612
O O5 0.047205 0.880529 0.870979
O O6 0.313547 0.831434 0.021496
O O7 0.295999 0.177859 0.016387
O O8 0.738284 0.521226 0.840099
O O9 0.922554 0.300734 0.752024
O O10 0.000000 0.500000 0.000000
O O11 0.761274 0.825304 0.692399
O O12 0.780289 0.699342 0.426590
O O13 0.000000 0.500000 0.500000
#
# Coordination Sequence:
#
# PCOD9101792 Si02
#       6
#     2   2   2   2   2   2
#     4  11  25  44  59  91 129 167 202 246 309 371
#     4  10  22  38  65  88 123 157 204 259 298 356
#     4  10  20  38  60  94 117 149 205 260 301 349
#     4  11  26  41  62  90 130 166 202 245 309 375
#     4  10  21  39  61  93 119 156 208 252 301 354
#     4  12  23  40  68  91 120 159 211 259 303 353
#
# _framework density 26.790917
#
# number of rings (size 3 to 8) (size 9 to 14) (size 15 to 20)
#    0.000    1.333    5.000    0.500    9.333    2.000 
#    0.000    0.833    0.000    0.000    0.000    0.000 
#    0.000    0.000    0.000    0.000    0.000    0.000 
#
# Total GULP energy -67208.819893 kJ/mol
# GULP energy per Si atom -5600.734991 kJ/mol
# Density = 2.672994 g / cm^3
# Si number density = 26.790917 Si / 1000 Ang^3
#
#
#
# Elastic Constant Matrix: (Units=GPa)
#
#
# Indices 1 2 3 4 5 6 
#
# 1 70.6644 28.3922 48.1254 7.1376 -19.9225 -40.9144
# 2 28.3922 156.5000 62.9434 -4.2903 -18.9218 -48.5233
# 3 48.1254 62.9434 212.6773 6.1754 -37.2896 -36.3152
# 4 7.1376 -4.2903 6.1754 51.6863 -10.5510 -11.4653
# 5 -19.9225 -18.9218 -37.2896 -10.5510 56.6766 3.3098
# 6 -40.9144 -48.5233 -36.3152 -11.4653 3.3098 46.8195
#
#
#
# Elastic Compliance Matrix: (Units=1/GPa)
#
#
# Indices 1 2 3 4 5 6 
#
# 1 0.041630 0.009519 -0.001972 0.008571 0.015439 0.045722
# 2 0.009519 0.012872 -0.001265 0.006080 0.006676 0.021694
# 3 -0.001972 -0.001265 0.006346 0.000423 0.003034 0.001777
# 4 0.008571 0.006080 0.000423 0.024750 0.008786 0.019559
# 5 0.015439 0.006676 0.003034 0.008786 0.027591 0.022966
# 6 0.045722 0.021694 0.001777 0.019559 0.022966 0.088342
#
#
# Mechanical properties :
#
#
# Convention : Reuss Voigt Hill
#
# Bulk Modulus (GPa) = 13.62201 79.86265 46.74233
# Shear Modulus (GPa) = 23.42603 51.06188 37.24396
#
# Velocity S-wave (km/s) = 2.96024 4.37044 3.73254
# Velocity P-wave (km/s) = 4.09629 7.43922 6.00507
#
# Compressibility (1/GPa) = 0.07341062
#
# Stress axis : x y z
#
# Youngs Moduli (GPa) = 24.02111 77.68878 157.58592
#
# Poissons Ratio (x) = -0.73949 0.31075
# Poissons Ratio (y) = -0.22865 0.19937
# Poissons Ratio (z) = 0.04737 0.09829
#
# Static dielectric constant tensor:
#      x y z
#    x 2.299750 0.191210 0.057740 
#    y 0.191210 2.250480 0.003430 
#    z 0.057740 0.003430 2.030280 
# 
# From -- ./inp_files/151507.got.cif
#   From: 2010.05.17/outbox.cif.g08.bks.cpg/sg2_76_cif.got.tgz:151507.got - 2010.06.03 11:33:40.
