data_PCOD9101389
_publ_section_title
;
Structure prediction by ZEFSAII (Michael W. Deem and Ramdas Pophale) SiO2 
 PCOD9101389
Probable space group: P -1
;
_chemical_formula_sum "Si O2"
_cell_formula_units_Z 14
_cell_length_a 7.189860
_cell_length_b 7.981974
_cell_length_c 18.906576
_cell_angle_alpha 137.517957
_cell_angle_beta 123.256293
_cell_angle_gamma 60.463574
_cell_volume 605.197330
_symmetry_space_group_name_H-M "P -1"
_symmetry_group_IT_number 2
_symmetry_cell_setting 'triclinic'
loop_
_space_group_symop_operation_xyz
x,y,z
-x,-y,-z
loop_
_atom_site_type_symbol
_atom_site_label
_atom_site_fract_x
_atom_site_fract_y
_atom_site_fract_z
Si Si1 0.995423 0.008168 0.086856
Si Si2 0.704564 0.064620 0.322718
Si Si3 0.668534 0.620415 0.728770
Si Si4 0.598055 0.369649 0.908480
Si Si5 0.803391 0.047910 0.622591
Si Si6 0.422159 0.685888 0.840860
Si Si7 0.669982 0.840729 0.386137
O O1 0.134536 0.230743 0.205662
O O2 0.752439 0.084534 0.094441
O O3 0.145586 0.756820 0.067353
O O4 0.000000 0.000000 0.000000
O O5 0.541367 0.320951 0.350366
O O6 0.943376 0.030557 0.322071
O O7 0.557788 0.846236 0.205296
O O8 0.767672 0.008860 0.400441
O O9 0.765240 0.331767 0.672368
O O10 0.566294 0.734802 0.818009
O O11 0.570102 0.562404 0.898294
O O12 0.500000 0.500000 0.000000
O O13 0.600451 0.059358 0.639266
O O14 0.753315 0.874637 0.492986
O O15 0.297559 0.451929 0.717656
#
# Coordination Sequence:
#
# PCOD9101389 Si02
#       7
#     2   2   2   2   2   2   2
#     4  11  22  38  60  81 114 152 188 236 292 328
#     4  10  21  36  58  83 118 151 189 238 284 337
#     4  10  23  37  57  88 114 149 196 235 274 351
#     4  10  20  38  59  83 112 151 193 235 283 342
#     4  10  20  39  61  85 118 152 190 233 292 330
#     4  10  21  40  59  81 119 150 188 239 283 336
#     4   9  20  38  61  86 117 152 189 238 280 346
#
# _framework density 23.132950000000001
#
# number of rings (size 3 to 8) (size 9 to 14) (size 15 to 20)
#    0.000    2.000    1.429    2.143    0.000    5.714 
#    0.000   10.000    0.000    0.000    0.000    0.000 
#    0.000    0.000    0.000    0.000    0.000    0.000 
#
# Total GULP energy -78295.013577 kJ/mol
# GULP energy per Si atom -5592.500970 kJ/mol
# Density = 2.308030 g / cm^3
# Si number density = 23.132950 Si / 1000 Ang^3
#
#
#
# Elastic Constant Matrix: (Units=GPa)
#
#
# Indices 1 2 3 4 5 6 
#
# 1 85.8050 28.5834 2.2199 3.9690 -7.3707 -19.7839
# 2 28.5834 83.4815 20.1823 5.5749 -5.6523 -24.3118
# 3 2.2199 20.1823 72.1024 1.0716 -20.7862 -10.7693
# 4 3.9690 5.5749 1.0716 23.5887 1.1033 -5.1586
# 5 -7.3707 -5.6523 -20.7862 1.1033 29.7550 -0.7160
# 6 -19.7839 -24.3118 -10.7693 -5.1586 -0.7160 41.4819
#
#
#
# Elastic Compliance Matrix: (Units=1/GPa)
#
#
# Indices 1 2 3 4 5 6 
#
# 1 0.014549 -0.003675 0.002882 -0.000739 0.005080 0.005529
# 2 -0.003675 0.016081 -0.003379 -0.001586 0.000002 0.006598
# 3 0.002882 -0.003379 0.019380 -0.000195 0.013729 0.004638
# 4 -0.000739 -0.001586 -0.000195 0.043896 -0.002150 0.004089
# 5 0.005080 0.000002 0.013729 -0.002150 0.044693 0.006492
# 6 0.005529 0.006598 0.004638 0.004089 0.006492 0.032436
#
#
# Mechanical properties :
#
#
# Convention : Reuss Voigt Hill
#
# Bulk Modulus (GPa) = 23.99955 38.15112 31.07534
# Shear Modulus (GPa) = 25.87090 31.65869 28.76480
#
# Velocity S-wave (km/s) = 3.34781 3.70341 3.53009
# Velocity P-wave (km/s) = 5.03398 5.90042 5.48433
#
# Compressibility (1/GPa) = 0.04166744
#
# Stress axis : x y z
#
# Youngs Moduli (GPa) = 68.73185 62.18425 51.60017
#
# Poissons Ratio (x) = 0.22851 -0.14871
# Poissons Ratio (y) = 0.25257 0.17434
# Poissons Ratio (z) = -0.19808 0.21010
#
# Static dielectric constant tensor:
#      x y z
#    x 1.883220 -0.015290 0.052610 
#    y -0.015290 1.864900 -0.033690 
#    z 0.052610 -0.033690 1.901040 
# 
# From -- ./inp_files/587010.got.cif
#   From: 2010.05.17/outbox.cif.g08.bks.cpg/sg2_294_cif.got.tgz:587010.got - 2010.06.03 11:33:40.
