data_PCOD9101998
_publ_section_title
;
Structure prediction by ZEFSAII (Michael W. Deem and Ramdas Pophale) SiO2 
 PCOD9101998
Probable space group: P -1
;
_chemical_formula_sum "Si O2"
_cell_formula_units_Z 14
_cell_length_a 5.077881
_cell_length_b 21.975100
_cell_length_c 8.036301
_cell_angle_alpha 141.579379
_cell_angle_beta 95.454823
_cell_angle_gamma 96.569819
_cell_volume 528.247801
_symmetry_space_group_name_H-M "P -1"
_symmetry_group_IT_number 2
_symmetry_cell_setting 'triclinic'
loop_
_space_group_symop_operation_xyz
x,y,z
-x,-y,-z
loop_
_atom_site_type_symbol
_atom_site_label
_atom_site_fract_x
_atom_site_fract_y
_atom_site_fract_z
Si Si1 0.146868 0.230699 0.408011
Si Si2 0.305553 0.487646 0.697813
Si Si3 0.110094 0.422289 0.960969
Si Si4 0.574859 0.134723 0.342537
Si Si5 0.700929 0.660992 0.892267
Si Si6 0.352434 0.113296 0.632624
Si Si7 0.781574 0.940284 0.145344
O O1 0.881172 0.163617 0.351423
O O2 0.115143 0.343410 0.644827
O O3 0.436628 0.228976 0.508127
O O4 0.137868 0.165703 0.101487
O O5 0.407847 0.578355 0.756509
O O6 0.198463 0.384698 0.363600
O O7 0.595968 0.492231 0.809888
O O8 0.122355 0.524938 0.900286
O O9 0.102255 0.347024 0.959569
O O10 0.551653 0.111993 0.487499
O O11 0.365863 0.056216 0.032537
O O12 0.672646 0.772706 0.113658
O O13 0.416443 0.081231 0.752271
O O14 0.056180 0.033028 0.392350
#
# Coordination Sequence:
#
# PCOD9101998 Si02
#       7
#     2   2   2   2   2   2   2
#     4  10  20  39  63  87 125 157 208 245 313 353
#     4   9  19  30  54  89 120 141 212 243 301 353
#     4  10  16  32  55  86 112 158 188 252 296 362
#     4  10  21  41  61  90 120 166 201 256 293 373
#     4   9  18  30  55  84 121 154 195 255 294 364
#     4  11  19  44  62  94 124 168 205 249 316 354
#     4   9  24  39  62  94 128 161 206 260 291 380
#
# _framework density 26.502711999999999
#
# number of rings (size 3 to 8) (size 9 to 14) (size 15 to 20)
#    1.714    0.571    1.429    2.571    0.000    0.571 
#    2.571    1.429    0.000    1.714    0.000    0.000 
#    0.000    0.000    0.000    0.000    0.000    0.000 
#
# Total GULP energy -78296.911338 kJ/mol
# GULP energy per Si atom -5592.636524 kJ/mol
# Density = 2.644239 g / cm^3
# Si number density = 26.502712 Si / 1000 Ang^3
#
#
#
# Elastic Constant Matrix: (Units=GPa)
#
#
# Indices 1 2 3 4 5 6 
#
# 1 84.1013 10.8885 27.2258 -14.2232 -28.5914 -0.9240
# 2 10.8885 102.1216 39.8160 -9.2281 -12.3109 -0.4017
# 3 27.2258 39.8160 198.8471 -0.0643 -21.5837 9.8287
# 4 -14.2232 -9.2281 -0.0643 47.9395 7.5360 -14.7815
# 5 -28.5914 -12.3109 -21.5837 7.5360 45.7339 -5.5763
# 6 -0.9240 -0.4017 9.8287 -14.7815 -5.5763 29.4444
#
#
#
# Elastic Compliance Matrix: (Units=1/GPa)
#
#
# Indices 1 2 3 4 5 6 
#
# 1 0.016514 0.000499 -0.001596 0.005181 0.009517 0.005461
# 2 0.000499 0.011114 -0.002194 0.002781 0.002139 0.002701
# 3 -0.001596 -0.002194 0.005956 -0.001945 0.001199 -0.002817
# 4 0.005181 0.002781 -0.001945 0.027399 0.000344 0.014669
# 5 0.009517 0.002139 0.001199 0.000344 0.029596 0.005705
# 6 0.005461 0.002701 -0.002817 0.014669 0.005705 0.043556
#
#
# Mechanical properties :
#
#
# Convention : Reuss Voigt Hill
#
# Bulk Modulus (GPa) = 37.03585 60.10340 48.56962
# Shear Modulus (GPa) = 33.39588 45.09953 39.24770
#
# Velocity S-wave (km/s) = 3.55363 4.12964 3.85241
# Velocity P-wave (km/s) = 5.55359 6.74285 6.17691
#
# Compressibility (1/GPa) = 0.02700087
#
# Stress axis : x y z
#
# Youngs Moduli (GPa) = 60.55312 89.97374 167.90681
#
# Poissons Ratio (x) = -0.04485 0.26801
# Poissons Ratio (y) = -0.03019 0.36841
# Poissons Ratio (z) = 0.09665 0.19742
#
# Static dielectric constant tensor:
#      x y z
#    x 1.997840 -0.034900 -0.023190 
#    y -0.034900 2.191350 0.017280 
#    z -0.023190 0.017280 2.096140 
# 
# From -- ./inp_files/142402.got.cif
#   From: 2010.05.17/outbox.cif.g08.bks.cpg/sg2_72_cif.got.tgz:142402.got - 2010.06.03 11:33:40.
