data_PCOD9101152
_publ_section_title
;
Structure prediction by ZEFSAII (Michael W. Deem and Ramdas Pophale) SiO2 
 PCOD9101152
Probable space group: P -1
;
_chemical_formula_sum "Si O2"
_cell_formula_units_Z 13
_cell_length_a 7.269534
_cell_length_b 16.272524
_cell_length_c 4.949294
_cell_angle_alpha 74.523506
_cell_angle_beta 52.369181
_cell_angle_gamma 75.817409
_cell_volume 444.265187
_symmetry_space_group_name_H-M "P -1"
_symmetry_group_IT_number 2
_symmetry_cell_setting 'triclinic'
loop_
_space_group_symop_operation_xyz
x,y,z
-x,-y,-z
loop_
_atom_site_type_symbol
_atom_site_label
_atom_site_fract_x
_atom_site_fract_y
_atom_site_fract_z
Si Si1 0.486340 0.209689 0.319276
Si Si2 0.302949 0.057068 0.798528
Si Si3 0.056925 0.253455 0.259155
Si Si4 0.500000 0.500000 0.500000
Si Si5 0.907677 0.578485 0.220984
Si Si6 0.879025 0.096300 0.722473
Si Si7 0.315164 0.632907 0.142251
O O1 0.406995 0.147269 0.680283
O O2 0.265950 0.236194 0.300482
O O3 0.674968 0.151456 0.022516
O O4 0.599871 0.296286 0.197441
O O5 0.089335 0.077590 0.764066
O O6 0.500000 0.000000 0.500000
O O7 0.221525 0.994881 0.161119
O O8 0.962808 0.161291 0.365140
O O9 0.847711 0.310587 0.547260
O O10 0.123844 0.320957 0.919405
O O11 0.655837 0.550355 0.529588
O O12 0.502059 0.579432 0.210635
O O13 0.131236 0.577598 0.212651
O O14 0.000000 0.500000 0.000000
#
# Coordination Sequence:
#
# PCOD9101152 Si02
#       7
#     2   2   2   1   2   2   2
#     4   9  17  33  56  82 120 160 199 246 301 349
#     4   8  13  25  50  88 122 158 198 242 294 347
#     4  10  20  38  56  85 121 158 202 250 303 354
#     4  12  24  42  62  86 116 158 204 252 310 364
#     4  12  26  42  62  88 120 158 203 255 309 364
#     4   8  15  27  52  86 121 156 205 240 289 362
#     4  11  24  41  61  90 120 155 208 252 300 373
#
# _framework density 29.261800000000001
#
# number of rings (size 3 to 8) (size 9 to 14) (size 15 to 20)
#    0.000    2.154    3.077    0.462    0.000    1.846 
#    0.000    0.000    0.000    0.923    0.000   96.923 
#    0.000    0.000    0.000    0.000    0.000    0.462 
#
# Total GULP energy -72604.209013 kJ/mol
# GULP energy per Si atom -5584.939155 kJ/mol
# Density = 2.919520 g / cm^3
# Si number density = 29.261800 Si / 1000 Ang^3
#
#
#
# Elastic Constant Matrix: (Units=GPa)
#
#
# Indices 1 2 3 4 5 6 
#
# 1 135.4813 64.0077 58.0163 -36.0992 6.7168 11.1449
# 2 64.0077 174.7622 58.7953 -43.9754 2.5009 -0.7203
# 3 58.0163 58.7953 141.7344 -53.0980 -17.7959 9.1657
# 4 -36.0992 -43.9754 -53.0980 76.4396 11.1961 -16.1111
# 5 6.7168 2.5009 -17.7959 11.1961 43.3549 -8.8842
# 6 11.1449 -0.7203 9.1657 -16.1111 -8.8842 57.9538
#
#
#
# Elastic Compliance Matrix: (Units=1/GPa)
#
#
# Indices 1 2 3 4 5 6 
#
# 1 0.010567 -0.002381 -0.003047 0.001671 -0.003521 -0.001655
# 2 -0.002381 0.007811 -0.001436 0.002830 -0.001115 0.001398
# 3 -0.003047 -0.001436 0.011282 0.005159 0.004025 0.000835
# 4 0.001671 0.002830 0.005159 0.020352 -0.002712 0.004140
# 5 -0.003521 -0.001115 0.004025 -0.002712 0.026718 0.003369
# 6 -0.001655 0.001398 0.000835 0.004140 0.003369 0.019126
#
#
# Mechanical properties :
#
#
# Convention : Reuss Voigt Hill
#
# Bulk Modulus (GPa) = 62.76473 90.40182 76.58328
# Shear Modulus (GPa) = 43.51837 53.62690 48.57264
#
# Velocity S-wave (km/s) = 3.86062 4.28560 4.07865
# Velocity P-wave (km/s) = 6.43183 7.44646 6.95766
#
# Compressibility (1/GPa) = 0.01593251
#
# Stress axis : x y z
#
# Youngs Moduli (GPa) = 94.63827 128.02479 88.63640
#
# Poissons Ratio (x) = 0.30484 0.27003
# Poissons Ratio (y) = 0.22534 0.12727
# Poissons Ratio (z) = 0.28832 0.18383
#
# Static dielectric constant tensor:
#      x y z
#    x 2.006570 0.222920 0.029550 
#    y 0.222920 2.402650 0.069890 
#    z 0.029550 0.069890 2.446620 
# 
# From -- ./inp_files/41501.got.cif
#   From: 2010.05.17/outbox.cif.g08.bks.cpg/sg2_21_cif.got.tgz:41501.got - 2010.06.03 11:33:40.
