data_PCOD9101352
_publ_section_title
;
Structure prediction by ZEFSAII (Michael W. Deem and Ramdas Pophale) SiO2 
 PCOD9101352
Probable space group: P -1
;
_chemical_formula_sum "Si O2"
_cell_formula_units_Z 15
_cell_length_a 7.826989
_cell_length_b 8.404723
_cell_length_c 20.883426
_cell_angle_alpha 49.046776
_cell_angle_beta 128.718208
_cell_angle_gamma 145.842008
_cell_volume 571.258443
_symmetry_space_group_name_H-M "P -1"
_symmetry_group_IT_number 2
_symmetry_cell_setting 'triclinic'
loop_
_space_group_symop_operation_xyz
x,y,z
-x,-y,-z
loop_
_atom_site_type_symbol
_atom_site_label
_atom_site_fract_x
_atom_site_fract_y
_atom_site_fract_z
Si Si1 0.000000 0.000000 0.500000
Si Si2 0.600886 0.205541 0.796579
Si Si3 0.932207 0.819796 0.305832
Si Si4 0.779727 0.462566 0.101862
Si Si5 0.464320 0.219318 0.419624
Si Si6 0.717589 0.670147 0.161132
Si Si7 0.087904 0.318671 0.059845
Si Si8 0.657145 0.469882 0.608158
O O1 0.939400 0.691267 0.567680
O O2 0.674721 0.798027 0.429544
O O3 0.305857 0.147391 0.759208
O O4 0.692017 0.349075 0.709519
O O5 0.891830 0.437158 0.849618
O O6 0.490843 0.890973 0.860679
O O7 0.783031 0.553925 0.391160
O O8 0.904533 0.719383 0.253692
O O9 0.255507 0.102328 0.338220
O O10 0.814304 0.614952 0.134768
O O11 0.765687 0.590457 0.001031
O O12 0.302122 0.249249 0.431117
O O13 0.500000 0.000000 0.500000
O O14 0.346609 0.405061 0.145767
O O15 0.796139 0.968597 0.089215
O O16 0.000000 0.500000 0.000000
#
# Coordination Sequence:
#
# PCOD9101352 Si02
#       8
#     1   2   2   2   2   2   2   2
#     4  10  20  38  58  92 118 164 206 266 332 374
#     4  11  22  42  65  90 127 173 226 259 324 403
#     4  11  23  43  68  91 130 176 223 276 327 399
#     4  12  24  41  66  99 135 174 216 275 337 381
#     4  11  23  43  66  95 125 172 223 275 334 392
#     4  12  25  44  64 100 138 167 218 280 332 386
#     4  12  24  43  70  98 132 180 223 262 322 400
#     4  10  21  40  63  89 127 166 215 267 326 394
#
# _framework density 26.257816999999999
#
# number of rings (size 3 to 8) (size 9 to 14) (size 15 to 20)
#    0.000    0.800    0.000    9.600    0.000    0.000 
#   14.400    0.000    0.000    0.000    0.000    0.000 
#    0.000    0.000    0.000    0.000    0.000    0.000 
#
# Total GULP energy -83876.578547 kJ/mol
# GULP energy per Si atom -5591.771903 kJ/mol
# Density = 2.619805 g / cm^3
# Si number density = 26.257817 Si / 1000 Ang^3
#
#
#
# Elastic Constant Matrix: (Units=GPa)
#
#
# Indices 1 2 3 4 5 6 
#
# 1 76.8383 -3.3654 10.6376 9.5428 -2.2733 -20.0997
# 2 -3.3654 137.1382 24.3284 -0.3664 -0.1415 23.2821
# 3 10.6376 24.3284 133.1984 14.8455 -18.8905 -2.7490
# 4 9.5428 -0.3664 14.8455 63.2422 -4.9833 1.5570
# 5 -2.2733 -0.1415 -18.8905 -4.9833 37.5081 3.8653
# 6 -20.0997 23.2821 -2.7490 1.5570 3.8653 31.1514
#
#
#
# Elastic Compliance Matrix: (Units=1/GPa)
#
#
# Indices 1 2 3 4 5 6 
#
# 1 0.016473 -0.001526 -0.000617 -0.002716 -0.000912 0.011963
# 2 -0.001526 0.008900 -0.001768 0.000888 -0.000024 -0.007834
# 3 -0.000617 -0.001768 0.008654 -0.001668 0.003961 0.001279
# 4 -0.002716 0.000888 -0.001668 0.016834 0.001607 -0.003604
# 5 -0.000912 -0.000024 0.003961 0.001607 0.029219 -0.003927
# 6 0.011963 -0.007834 0.001279 -0.003604 -0.003927 0.046455
#
#
# Mechanical properties :
#
#
# Convention : Reuss Voigt Hill
#
# Bulk Modulus (GPa) = 38.15799 45.59735 41.87767
# Shear Modulus (GPa) = 34.94300 47.41864 41.18082
#
# Velocity S-wave (km/s) = 3.65192 4.25418 3.96451
# Velocity P-wave (km/s) = 5.68732 6.44466 6.07780
#
# Compressibility (1/GPa) = 0.02620683
#
# Stress axis : x y z
#
# Youngs Moduli (GPa) = 60.70679 112.35478 115.55656
#
# Poissons Ratio (x) = 0.17141 0.07125
# Poissons Ratio (y) = 0.09261 0.20428
# Poissons Ratio (z) = 0.03743 0.19862
#
# Static dielectric constant tensor:
#      x y z
#    x 1.026330 -0.963720 0.947050 
#    y -0.963720 1.225360 0.720830 
#    z 0.947050 0.720830 1.339120 
# 
# From -- ./inp_files/587845.got.cif
#   From: 2010.05.17/outbox.cif.g08.bks.cpg/sg2_294_cif.got.tgz:587845.got - 2010.06.03 11:33:40.
