data_PCOD9101990
_publ_section_title
;
Structure prediction by ZEFSAII (Michael W. Deem and Ramdas Pophale) SiO2 
 PCOD9101990
Probable space group: P -1
;
_chemical_formula_sum "Si O2"
_cell_formula_units_Z 16
_cell_length_a 9.909499
_cell_length_b 9.575888
_cell_length_c 18.359919
_cell_angle_alpha 128.750428
_cell_angle_beta 84.413199
_cell_angle_gamma 53.799141
_cell_volume 734.886242
_symmetry_space_group_name_H-M "P -1"
_symmetry_group_IT_number 2
_symmetry_cell_setting 'triclinic'
loop_
_space_group_symop_operation_xyz
x,y,z
-x,-y,-z
loop_
_atom_site_type_symbol
_atom_site_label
_atom_site_fract_x
_atom_site_fract_y
_atom_site_fract_z
Si Si1 0.575922 0.544257 0.102221
Si Si2 0.773287 0.743801 0.697584
Si Si3 0.205449 0.687984 0.142197
Si Si4 0.677615 0.383142 0.367441
Si Si5 0.507992 0.203135 0.354269
Si Si6 0.383839 0.099212 0.959407
Si Si7 0.225918 0.386916 0.647002
Si Si8 0.103258 0.530179 0.866353
O O1 0.422397 0.538656 0.129704
O O2 0.760358 0.434716 0.112246
O O3 0.363941 0.924678 0.215315
O O4 0.729739 0.334110 0.952032
O O5 0.741684 0.627936 0.599632
O O6 0.040826 0.501035 0.635345
O O7 0.600827 0.857830 0.809427
O O8 0.225129 0.454855 0.069085
O O9 0.931272 0.060847 0.293344
O O10 0.560746 0.317794 0.338807
O O11 0.511107 0.689101 0.529583
O O12 0.745015 0.434857 0.313810
O O13 0.724969 0.812842 0.215818
O O14 0.178761 0.170612 0.993026
O O15 0.500000 0.000000 0.000000
O O16 0.113217 0.484597 0.764815
O O17 0.500000 0.000000 0.500000
#
# Coordination Sequence:
#
# PCOD9101990 Si02
#       8
#     2   2   2   2   2   2   2   2
#     4   9  21  37  63  91 119 156 209 253 296 365
#     4  10  22  40  64  92 117 164 211 248 303 367
#     4  10  20  38  61  90 121 160 206 252 301 359
#     4  11  22  40  64  89 123 164 204 256 301 362
#     4  10  23  41  65  90 118 163 218 247 295 370
#     4  11  22  39  64  88 129 162 199 256 309 363
#     4  12  24  41  62  92 131 159 199 257 314 363
#     4  11  22  40  63  95 122 163 206 249 310 363
#
# _framework density 21.772078
#
# number of rings (size 3 to 8) (size 9 to 14) (size 15 to 20)
#    0.000    1.500    5.000    0.000    1.750    3.000 
#    2.250    1.875    0.000    0.000    0.000    0.000 
#    0.000    0.000    0.000    0.000    0.000    0.000 
#
# Total GULP energy -89368.922900 kJ/mol
# GULP energy per Si atom -5585.557681 kJ/mol
# Density = 2.172252 g / cm^3
# Si number density = 21.772078 Si / 1000 Ang^3
#
#
#
# Elastic Constant Matrix: (Units=GPa)
#
#
# Indices 1 2 3 4 5 6 
#
# 1 133.0181 11.2696 5.4670 6.5132 -6.7681 -13.5944
# 2 11.2696 41.5947 -3.2122 0.7376 -4.5976 0.5609
# 3 5.4670 -3.2122 45.9161 6.4842 -8.6170 0.3491
# 4 6.5132 0.7376 6.4842 17.8893 -5.9430 -3.2417
# 5 -6.7681 -4.5976 -8.6170 -5.9430 31.5961 2.4894
# 6 -13.5944 0.5609 0.3491 -3.2417 2.4894 32.9505
#
#
#
# Elastic Compliance Matrix: (Units=1/GPa)
#
#
# Indices 1 2 3 4 5 6 
#
# 1 0.008185 -0.002220 -0.000780 -0.001819 0.000623 0.003197
# 2 -0.002220 0.025341 0.002847 -0.000222 0.004081 -0.001708
# 3 -0.000780 0.002847 0.024135 -0.007022 0.005646 -0.001743
# 4 -0.001819 -0.000222 -0.007022 0.063028 0.009137 0.004838
# 5 0.000623 0.004081 0.005646 0.009137 0.035767 -0.001675
# 6 0.003197 -0.001708 -0.001743 0.004838 -0.001675 0.032318
#
#
# Mechanical properties :
#
#
# Convention : Reuss Voigt Hill
#
# Bulk Modulus (GPa) = 17.43494 27.50865 22.47179
# Shear Modulus (GPa) = 24.01548 30.28748 27.15148
#
# Velocity S-wave (km/s) = 3.32481 3.73381 3.53523
# Velocity P-wave (km/s) = 4.77121 5.59024 5.19688
#
# Compressibility (1/GPa) = 0.05735610
#
# Stress axis : x y z
#
# Youngs Moduli (GPa) = 122.16772 39.46182 41.43293
#
# Poissons Ratio (x) = 0.08760 0.03233
# Poissons Ratio (y) = 0.27121 -0.11798
# Poissons Ratio (z) = 0.09533 -0.11236
#
# Static dielectric constant tensor:
#      x y z
#    x 1.687060 -0.265180 0.016070 
#    y -0.265180 1.274820 0.038720 
#    z 0.016070 0.038720 1.781980 
# 
# From -- ./inp_files/176095.got.cif
#   From: 2010.05.17/outbox.cif.g08.bks.cpg/sg2_89_cif.got.tgz:176095.got - 2010.06.03 11:33:40.
