data_PCOD9101579
_publ_section_title
;
Structure prediction by ZEFSAII (Michael W. Deem and Ramdas Pophale) SiO2 
 PCOD9101579
Probable space group: P -1
;
_chemical_formula_sum "Si O2"
_cell_formula_units_Z 12
_cell_length_a 8.015623
_cell_length_b 6.275770
_cell_length_c 14.398262
_cell_angle_alpha 126.750220
_cell_angle_beta 85.280354
_cell_angle_gamma 122.191529
_cell_volume 460.291233
_symmetry_space_group_name_H-M "P -1"
_symmetry_group_IT_number 2
_symmetry_cell_setting 'triclinic'
loop_
_space_group_symop_operation_xyz
x,y,z
-x,-y,-z
loop_
_atom_site_type_symbol
_atom_site_label
_atom_site_fract_x
_atom_site_fract_y
_atom_site_fract_z
Si Si1 0.160187 0.941851 0.022712
Si Si2 0.805113 0.583610 0.080544
Si Si3 0.377900 0.692064 0.352375
Si Si4 0.641092 0.604975 0.426932
Si Si5 0.009213 0.592810 0.415247
Si Si6 0.514285 0.318456 0.846864
O O1 0.045175 0.813910 0.093673
O O2 0.374871 0.298332 0.089994
O O3 0.191163 0.667250 0.916719
O O4 0.000000 0.000000 0.000000
O O5 0.722768 0.799084 0.166578
O O6 0.640538 0.357336 0.943703
O O7 0.478965 0.508869 0.327422
O O8 0.132301 0.479984 0.326634
O O9 0.433289 0.816471 0.277516
O O10 0.500000 0.000000 0.500000
O O11 0.500000 0.500000 0.500000
O O12 0.776176 0.468490 0.371605
O O13 0.828409 0.007880 0.513727
O O14 0.000000 0.500000 0.500000
#
# Coordination Sequence:
#
# PCOD9101579 Si02
#       6
#     2   2   2   2   2   2
#     4   9  18  37  62  90 120 151 203 257 310 379
#     4   9  19  38  64  88 120 157 199 261 317 371
#     4  10  22  42  59  89 131 165 214 262 307 382
#     4  10  20  38  60  83 116 165 213 260 307 364
#     4  10  20  38  61  81 117 166 209 261 308 361
#     4  10  20  39  60  90 122 160 206 251 317 371
#
# _framework density 26.070450999999998
#
# number of rings (size 3 to 8) (size 9 to 14) (size 15 to 20)
#    0.000    2.333    1.667    0.500    0.000    0.000 
#   21.000    0.000    0.000    0.000    0.000    0.000 
#    0.000    0.000    0.000    0.000    0.000    0.000 
#
# Total GULP energy -66863.309947 kJ/mol
# GULP energy per Si atom -5571.942496 kJ/mol
# Density = 2.601111 g / cm^3
# Si number density = 26.070451 Si / 1000 Ang^3
#
#
#
# Elastic Constant Matrix: (Units=GPa)
#
#
# Indices 1 2 3 4 5 6 
#
# 1 262.0375 35.4695 32.3430 -11.6787 -9.2004 8.6962
# 2 35.4695 119.0821 15.9228 -0.3731 9.1885 22.2090
# 3 32.3430 15.9228 84.9777 -21.7035 -14.0469 4.3644
# 4 -11.6787 -0.3731 -21.7035 31.4133 1.6481 -2.7722
# 5 -9.2004 9.1885 -14.0469 1.6481 23.9535 -6.6238
# 6 8.6962 22.2090 4.3644 -2.7722 -6.6238 58.5303
#
#
#
# Elastic Compliance Matrix: (Units=1/GPa)
#
#
# Indices 1 2 3 4 5 6 
#
# 1 0.004186 -0.001273 -0.000885 0.000861 0.001558 0.000144
# 2 -0.001273 0.010624 -0.003162 -0.002541 -0.007509 -0.004577
# 3 -0.000885 -0.003162 0.017214 0.011123 0.010696 0.001785
# 4 0.000861 -0.002541 0.011123 0.039729 0.005799 0.002545
# 5 0.001558 -0.007509 0.010696 0.005799 0.053349 0.008132
# 6 0.000144 -0.004577 0.001785 0.002545 0.008132 0.019708
#
#
# Mechanical properties :
#
#
# Convention : Reuss Voigt Hill
#
# Bulk Modulus (GPa) = 46.75890 70.39642 58.57766
# Shear Modulus (GPa) = 30.75455 48.27023 39.51239
#
# Velocity S-wave (km/s) = 3.43836 4.30761 3.89730
# Velocity P-wave (km/s) = 5.80841 7.19734 6.53985
#
# Compressibility (1/GPa) = 0.02138630
#
# Stress axis : x y z
#
# Youngs Moduli (GPa) = 238.88940 94.12228 58.09153
#
# Poissons Ratio (x) = 0.11981 0.05139
# Poissons Ratio (y) = 0.30409 0.18366
# Poissons Ratio (z) = 0.21135 0.29757
#
# Static dielectric constant tensor:
#      x y z
#    x 2.184770 -0.061350 -0.114960 
#    y -0.061350 2.279860 0.107740 
#    z -0.114960 0.107740 2.244400 
# 
# From -- ./inp_files/488680.got.cif
#   From: 2010.05.17/outbox.cif.g08.bks.cpg/sg2_245_cif.got.tgz:488680.got - 2010.06.03 11:33:40.
