data_PCOD9101044
_publ_section_title
;
Structure prediction by ZEFSAII (Michael W. Deem and Ramdas Pophale) SiO2 
 PCOD9101044
Probable space group: P -1
;
_chemical_formula_sum "Si O2"
_cell_formula_units_Z 14
_cell_length_a 7.894131
_cell_length_b 7.628059
_cell_length_c 14.042131
_cell_angle_alpha 59.661716
_cell_angle_beta 109.153020
_cell_angle_gamma 69.749879
_cell_volume 536.595141
_symmetry_space_group_name_H-M "P -1"
_symmetry_group_IT_number 2
_symmetry_cell_setting 'triclinic'
loop_
_space_group_symop_operation_xyz
x,y,z
-x,-y,-z
loop_
_atom_site_type_symbol
_atom_site_label
_atom_site_fract_x
_atom_site_fract_y
_atom_site_fract_z
Si Si1 0.498536 0.626830 0.760661
Si Si2 0.159673 0.056654 0.458579
Si Si3 0.853294 0.196089 0.206949
Si Si4 0.493932 0.809899 0.212582
Si Si5 0.539886 0.710155 0.467264
Si Si6 0.962522 0.662143 0.354241
Si Si7 0.988990 0.290349 0.007608
O O1 0.351338 0.924586 0.616322
O O2 0.406524 0.648713 0.844827
O O3 0.454468 0.457705 0.734876
O O4 0.771049 0.454307 0.853685
O O5 0.354033 0.900048 0.456825
O O6 0.000000 0.000000 0.500000
O O7 0.961638 0.268756 0.287434
O O8 0.914681 0.204933 0.107729
O O9 0.968703 0.891244 0.321262
O O10 0.494400 0.829368 0.321438
O O11 0.716043 0.784802 0.229636
O O12 0.232860 0.056210 0.069765
O O13 0.500000 0.500000 0.500000
O O14 0.800799 0.562559 0.594590
O O15 0.000000 0.500000 0.500000
O O16 0.000000 0.500000 0.000000
#
# Coordination Sequence:
#
# PCOD9101044 Si02
#       7
#     2   2   2   2   2   2   2
#     4  11  24  42  69 101 139 178 231 290 340 404
#     4  10  20  37  69 101 131 169 225 281 339 400
#     4  11  22  45  70  95 139 187 221 282 353 401
#     4  11  22  41  66 100 138 179 230 283 335 413
#     4  11  17  37  66  99 133 177 218 268 350 398
#     4  10  21  37  71 104 135 178 225 275 341 413
#     4  12  26  47  69  95 136 188 237 280 344 415
#
# _framework density 26.090436
#
# number of rings (size 3 to 8) (size 9 to 14) (size 15 to 20)
#    0.000    1.143    4.286    2.571    0.000    0.000 
#    2.571    2.143    0.000    0.000    0.000    0.000 
#    0.000    0.000    0.000    0.000    0.000    0.000 
#
# Total GULP energy -78026.049616 kJ/mol
# GULP energy per Si atom -5573.289258 kJ/mol
# Density = 2.603105 g / cm^3
# Si number density = 26.090436 Si / 1000 Ang^3
#
#
#
# Elastic Constant Matrix: (Units=GPa)
#
#
# Indices 1 2 3 4 5 6 
#
# 1 103.6638 26.3164 30.2874 -16.2325 42.8198 -29.7313
# 2 26.3164 99.4741 9.6380 -18.9275 0.1444 -16.4294
# 3 30.2874 9.6380 79.8035 -16.6680 29.4114 -2.9095
# 4 -16.2325 -18.9275 -16.6680 39.9070 -11.0676 8.7140
# 5 42.8198 0.1444 29.4114 -11.0676 61.4256 -11.0771
# 6 -29.7313 -16.4294 -2.9095 8.7140 -11.0771 61.2071
#
#
#
# Elastic Compliance Matrix: (Units=1/GPa)
#
#
# Indices 1 2 3 4 5 6 
#
# 1 0.016609 -0.003191 -0.002103 0.000569 -0.009503 0.005310
# 2 -0.003191 0.012144 -0.000506 0.004894 0.003617 0.001643
# 3 -0.002103 -0.000506 0.016473 0.004589 -0.005974 -0.002109
# 4 0.000569 0.004894 0.004589 0.030692 0.002546 -0.002101
# 5 -0.009503 0.003617 -0.005974 0.002546 0.026300 0.000468
# 6 0.005310 0.001643 -0.002109 -0.002101 0.000468 0.019642
#
#
# Mechanical properties :
#
#
# Convention : Reuss Voigt Hill
#
# Bulk Modulus (GPa) = 29.74027 46.15834 37.94930
# Shear Modulus (GPa) = 34.56178 46.95458 40.75818
#
# Velocity S-wave (km/s) = 3.64358 4.24687 3.95674
# Velocity P-wave (km/s) = 5.39672 6.46359 5.95410
#
# Compressibility (1/GPa) = 0.03362444
#
# Stress axis : x y z
#
# Youngs Moduli (GPa) = 60.20953 82.34826 60.70437
#
# Poissons Ratio (x) = 0.26278 0.12768
# Poissons Ratio (y) = 0.19213 0.03073
# Poissons Ratio (z) = 0.12663 0.04169
#
# Static dielectric constant tensor:
#      x y z
#    x -1.703620 -3.258610 0.994030 
#    y -3.258610 -0.922580 0.820280 
#    z 0.994030 0.820280 1.889130 
# 
# From -- ./inp_files/494505.got.cif
#   From: 2010.05.17/outbox.cif.g08.bks.cpg/sg2_248_cif.got.tgz:494505.got - 2010.06.03 11:33:40.
