data_PCOD9101733
_publ_section_title
;
Structure prediction by ZEFSAII (Michael W. Deem and Ramdas Pophale) SiO2 
 PCOD9101733
Probable space group: P -1
;
_chemical_formula_sum "Si O2"
_cell_formula_units_Z 16
_cell_length_a 22.690828
_cell_length_b 5.700932
_cell_length_c 15.554320
_cell_angle_alpha 90.809583
_cell_angle_beta 158.886370
_cell_angle_gamma 98.301761
_cell_volume 651.693670
_symmetry_space_group_name_H-M "P -1"
_symmetry_group_IT_number 2
_symmetry_cell_setting 'triclinic'
loop_
_space_group_symop_operation_xyz
x,y,z
-x,-y,-z
loop_
_atom_site_type_symbol
_atom_site_label
_atom_site_fract_x
_atom_site_fract_y
_atom_site_fract_z
Si Si1 0.582721 0.850113 0.434340
Si Si2 0.261428 0.922307 0.673508
Si Si3 0.524128 0.320502 0.898798
Si Si4 0.068204 0.052540 0.880656
Si Si5 0.074325 0.748829 0.162622
Si Si6 0.792579 0.500172 0.524091
Si Si7 0.216135 0.134213 0.784150
Si Si8 0.419400 0.244263 0.245805
O O1 0.483343 0.797398 0.205928
O O2 0.523542 0.561594 0.391761
O O3 0.799755 0.986555 0.713723
O O4 0.530968 0.069536 0.407537
O O5 0.222925 0.636399 0.588402
O O6 0.083802 0.950824 0.394921
O O7 0.435140 0.127915 0.857181
O O8 0.269320 0.969319 0.785863
O O9 0.371545 0.429871 0.683882
O O10 0.711125 0.580731 0.159386
O O11 0.060182 0.220756 0.951617
O O12 0.262140 0.152858 0.102644
O O13 0.982982 0.752728 0.792472
O O14 0.216472 0.705115 0.418313
O O15 0.000000 0.500000 0.000000
O O16 0.315799 0.174298 0.011645
O O17 0.000000 0.000000 0.500000
#
# Coordination Sequence:
#
# PCOD9101733 Si02
#       8
#     2   2   2   2   2   2   2   2
#     4  11  23  45  69  98 132 179 221 268 344 399
#     4  10  20  38  60  89 128 168 229 272 324 375
#     4  10  21  39  62  86 129 176 215 278 323 392
#     4  10  22  42  65  94 130 179 213 268 338 403
#     4  11  23  42  73 102 125 162 227 285 325 401
#     4  10  20  40  68  89 129 170 222 261 351 384
#     4  11  22  37  57  94 129 172 233 272 319 376
#     4  11  26  44  68  92 144 186 215 267 337 400
#
# _framework density 24.551411999999999
#
# number of rings (size 3 to 8) (size 9 to 14) (size 15 to 20)
#    0.000    1.500    5.000    1.875    3.500    1.000 
#    9.000    4.375    0.000    0.000    0.000    0.000 
#    0.000    0.000    0.000    0.000    0.000    0.000 
#
# Total GULP energy -89541.121629 kJ/mol
# GULP energy per Si atom -5596.320102 kJ/mol
# Density = 2.449553 g / cm^3
# Si number density = 24.551412 Si / 1000 Ang^3
#
#
#
# Elastic Constant Matrix: (Units=GPa)
#
#
# Indices 1 2 3 4 5 6 
#
# 1 115.0428 54.5851 55.3386 15.4576 29.7765 -25.9993
# 2 54.5851 118.6490 23.8846 20.3447 17.3918 -12.5447
# 3 55.3386 23.8846 80.6586 23.2476 24.5827 -4.8275
# 4 15.4576 20.3447 23.2476 47.7132 4.5360 -7.5215
# 5 29.7765 17.3918 24.5827 4.5360 55.3408 -4.0921
# 6 -25.9993 -12.5447 -4.8275 -7.5215 -4.0921 42.8061
#
#
#
# Elastic Compliance Matrix: (Units=1/GPa)
#
#
# Indices 1 2 3 4 5 6 
#
# 1 0.018991 -0.005709 -0.010744 0.003230 -0.003258 0.008906
# 2 -0.005709 0.011431 0.001985 -0.003995 -0.001127 -0.000703
# 3 -0.010744 0.001985 0.022845 -0.008901 -0.004659 -0.005377
# 4 0.003230 -0.003995 -0.008901 0.026523 0.001638 0.004604
# 5 -0.003258 -0.001127 -0.004659 0.001638 0.022080 -0.000436
# 6 0.008906 -0.000703 -0.005377 0.004604 -0.000436 0.028725
#
#
# Mechanical properties :
#
#
# Convention : Reuss Voigt Hill
#
# Bulk Modulus (GPa) = 41.10018 64.66300 52.88159
# Shear Modulus (GPa) = 29.82529 41.20816 35.51673
#
# Velocity S-wave (km/s) = 3.48919 4.10133 3.80758
# Velocity P-wave (km/s) = 5.74538 6.98733 6.39657
#
# Compressibility (1/GPa) = 0.02433080
#
# Stress axis : x y z
#
# Youngs Moduli (GPa) = 52.65524 87.48143 43.77267
#
# Poissons Ratio (x) = 0.49943 0.47031
# Poissons Ratio (y) = 0.30061 -0.08688
# Poissons Ratio (z) = 0.56574 -0.17363
#
# Static dielectric constant tensor:
#      x y z
#    x 1.982760 0.002260 -0.067070 
#    y 0.002260 2.032160 -0.035270 
#    z -0.067070 -0.035270 1.955350 
# 
# From -- ./inp_files/128252.got.cif
#   From: 2010.05.17/outbox.cif.g08.bks.cpg/sg2_65_cif.got.tgz:128252.got - 2010.06.03 11:33:40.
