data_PCOD9101540
_publ_section_title
;
Structure prediction by ZEFSAII (Michael W. Deem and Ramdas Pophale) SiO2 
 PCOD9101540
Probable space group: P -1
;
_chemical_formula_sum "Si O2"
_cell_formula_units_Z 14
_cell_length_a 7.737130
_cell_length_b 5.516657
_cell_length_c 18.586078
_cell_angle_alpha 73.314963
_cell_angle_beta 61.549956
_cell_angle_gamma 43.971380
_cell_volume 482.253963
_symmetry_space_group_name_H-M "P -1"
_symmetry_group_IT_number 2
_symmetry_cell_setting 'triclinic'
loop_
_space_group_symop_operation_xyz
x,y,z
-x,-y,-z
loop_
_atom_site_type_symbol
_atom_site_label
_atom_site_fract_x
_atom_site_fract_y
_atom_site_fract_z
Si Si1 0.847875 0.032213 0.324779
Si Si2 0.016944 0.276234 0.817591
Si Si3 0.796264 0.617110 0.966582
Si Si4 0.432924 0.759834 0.258519
Si Si5 0.338504 0.464119 0.462451
Si Si6 0.814177 0.816504 0.603076
Si Si7 0.430499 0.556602 0.883523
O O1 0.669544 0.400521 0.285358
O O2 0.663924 0.142956 0.421864
O O3 0.877316 0.787862 0.279124
O O4 0.146806 0.860966 0.300448
O O5 0.926264 0.567037 0.868135
O O6 0.732659 0.380656 0.855661
O O7 0.244445 0.923686 0.847587
O O8 0.723920 0.390449 0.018831
O O9 0.000000 0.500000 0.000000
O O10 0.500000 0.000000 0.000000
O O11 0.532528 0.695988 0.162894
O O12 0.337307 0.078229 0.299544
O O13 0.257210 0.348255 0.422347
O O14 0.142162 0.551687 0.558111
O O15 0.280651 0.815560 0.433463
#
# Coordination Sequence:
#
# PCOD9101540 Si02
#       7
#     2   2   2   2   2   2   2
#     4   9  19  36  59  86 115 153 203 255 307 366
#     4  10  20  38  60  80 110 154 199 242 299 366
#     4  12  24  36  54  86 120 150 194 248 304 362
#     4   9  19  36  59  86 115 153 203 255 307 366
#     4   9  18  35  59  88 123 163 207 256 310 368
#     4   9  18  35  59  88 123 163 207 256 310 368
#     4  10  20  38  60  80 110 154 199 242 299 366
#
# _framework density 29.030346000000002
#
# number of rings (size 3 to 8) (size 9 to 14) (size 15 to 20)
#    0.000    2.286    0.000    2.571    0.000    1.714 
#    0.000   11.429    0.000   15.429    0.000    0.000 
#    0.000    0.000    0.000    0.000    0.000    0.000 
#
# Total GULP energy -78355.614019 kJ/mol
# GULP energy per Si atom -5596.829573 kJ/mol
# Density = 2.896427 g / cm^3
# Si number density = 29.030346 Si / 1000 Ang^3
#
#
#
# Elastic Constant Matrix: (Units=GPa)
#
#
# Indices 1 2 3 4 5 6 
#
# 1 195.2912 33.5584 50.6236 8.8032 -0.1090 -23.1492
# 2 33.5584 180.6178 52.2289 5.7725 2.0179 -10.8342
# 3 50.6236 52.2289 182.4630 36.3975 11.0712 -9.6465
# 4 8.8032 5.7725 36.3975 36.0053 3.5028 2.8853
# 5 -0.1090 2.0179 11.0712 3.5028 59.8373 6.7202
# 6 -23.1492 -10.8342 -9.6465 2.8853 6.7202 30.3202
#
#
#
# Elastic Compliance Matrix: (Units=1/GPa)
#
#
# Indices 1 2 3 4 5 6 
#
# 1 0.006030 -0.000508 -0.001200 -0.000493 -0.000185 0.004129
# 2 -0.000508 0.006175 -0.001712 0.000775 -0.000074 0.001217
# 3 -0.001200 -0.001712 0.007989 -0.007551 -0.001205 0.001999
# 4 -0.000493 0.000775 -0.007551 0.035882 -0.000068 -0.005901
# 5 -0.000185 -0.000074 -0.001205 -0.000068 0.017436 -0.004409
# 6 0.004129 0.001217 0.001999 -0.005901 -0.004409 0.038743
#
#
# Mechanical properties :
#
#
# Convention : Reuss Voigt Hill
#
# Bulk Modulus (GPa) = 74.88609 92.35487 83.62048
# Shear Modulus (GPa) = 40.47012 53.36329 46.91671
#
# Velocity S-wave (km/s) = 3.73777 4.29206 4.02447
# Velocity P-wave (km/s) = 6.66931 7.51297 7.10367
#
# Compressibility (1/GPa) = 0.01335361
#
# Stress axis : x y z
#
# Youngs Moduli (GPa) = 165.82603 161.93932 125.17736
#
# Poissons Ratio (x) = 0.08226 0.15020
# Poissons Ratio (y) = 0.08424 0.21436
# Poissons Ratio (z) = 0.19897 0.27731
#
# Static dielectric constant tensor:
#      x y z
#    x 2.251850 0.079530 0.035660 
#    y 0.079530 2.285970 -0.003550 
#    z 0.035660 -0.003550 2.252810 
# 
# From -- ./inp_files/13706.got.cif
#   From: 2010.05.17/outbox.cif.g08.bks.cpg/sg2_7_cif.got.tgz:13706.got - 2010.06.03 11:33:40.
