data_PCOD9101266
_publ_section_title
;
Structure prediction by ZEFSAII (Michael W. Deem and Ramdas Pophale) SiO2 
 PCOD9101266
Probable space group: P -1
;
_chemical_formula_sum "Si O2"
_cell_formula_units_Z 12
_cell_length_a 12.721056
_cell_length_b 13.300394
_cell_length_c 10.781480
_cell_angle_alpha 149.360877
_cell_angle_beta 146.980338
_cell_angle_gamma 31.425587
_cell_volume 445.814433
_symmetry_space_group_name_H-M "P -1"
_symmetry_group_IT_number 2
_symmetry_cell_setting 'triclinic'
loop_
_space_group_symop_operation_xyz
x,y,z
-x,-y,-z
loop_
_atom_site_type_symbol
_atom_site_label
_atom_site_fract_x
_atom_site_fract_y
_atom_site_fract_z
Si Si1 0.875951 0.432208 0.485845
Si Si2 0.027402 0.186835 0.116312
Si Si3 0.166556 0.338418 0.891843
Si Si4 0.419318 0.767139 0.693625
Si Si5 0.613238 0.219677 0.602825
Si Si6 0.432877 0.865521 0.063883
O O1 0.980034 0.284240 0.310748
O O2 0.612239 0.543461 0.355540
O O3 0.918052 0.646202 0.734788
O O4 0.003352 0.307919 0.603908
O O5 0.247593 0.946372 0.070537
O O6 0.809325 0.195881 0.856237
O O7 0.362067 0.204994 0.042809
O O8 0.336392 0.357524 0.977624
O O9 0.000000 0.500000 0.000000
O O10 0.500000 0.500000 0.500000
O O11 0.314330 0.828383 0.520477
O O12 0.296858 0.889900 0.828017
O O13 0.535034 0.034953 0.359095
#
# Coordination Sequence:
#
# PCOD9101266 Si02
#       6
#     2   2   2   2   2   2
#     4  10  20  40  61  86 119 158 198 242 291 351
#     4  10  22  37  61  88 119 156 199 242 291 354
#     4  10  20  38  58  83 117 155 193 241 293 343
#     4  10  21  36  59  87 115 154 197 240 295 348
#     4  11  20  39  62  87 118 155 199 241 296 353
#     4   9  23  38  57  91 118 154 194 245 302 338
#
# _framework density 26.917027000000001
#
# number of rings (size 3 to 8) (size 9 to 14) (size 15 to 20)
#    1.000    1.000    1.667    2.000    0.000    2.667 
#    0.000    0.833    0.000    0.000    0.000    0.000 
#    0.000    0.000    0.000    0.000    0.000    0.000 
#
# Total GULP energy -66868.063445 kJ/mol
# GULP energy per Si atom -5572.338620 kJ/mol
# Density = 2.685576 g / cm^3
# Si number density = 26.917027 Si / 1000 Ang^3
#
#
#
# Elastic Constant Matrix: (Units=GPa)
#
#
# Indices 1 2 3 4 5 6 
#
# 1 96.0514 58.5462 59.6340 -9.2955 5.5747 -30.9578
# 2 58.5462 122.2021 64.7352 -6.3631 1.3598 -37.5082
# 3 59.6340 64.7352 181.4681 -17.5255 -26.3505 -28.5906
# 4 -9.2955 -6.3631 -17.5255 41.8214 -11.6383 -6.1772
# 5 5.5747 1.3598 -26.3505 -11.6383 47.6780 7.7393
# 6 -30.9578 -37.5082 -28.5906 -6.1772 7.7393 52.8974
#
#
#
# Elastic Compliance Matrix: (Units=1/GPa)
#
#
# Indices 1 2 3 4 5 6 
#
# 1 0.017952 -0.004576 -0.003903 0.001207 -0.004804 0.005995
# 2 -0.004576 0.013681 -0.002774 0.000127 -0.002311 0.005876
# 3 -0.003903 -0.002774 0.009231 0.004481 0.006685 0.000283
# 4 0.001207 0.000127 0.004481 0.029264 0.008603 0.005377
# 5 -0.004804 -0.002311 0.006685 0.008603 0.028035 -0.003935
# 6 0.005995 0.005876 0.000283 0.005377 -0.003935 0.027936
#
#
# Mechanical properties :
#
#
# Convention : Reuss Voigt Hill
#
# Bulk Modulus (GPa) = 54.47735 85.06136 69.76936
# Shear Modulus (GPa) = 32.31507 42.93309 37.62408
#
# Velocity S-wave (km/s) = 3.46865 3.99810 3.74275
# Velocity P-wave (km/s) = 6.02702 7.27894 6.68236
#
# Compressibility (1/GPa) = 0.01835625
#
# Stress axis : x y z
#
# Youngs Moduli (GPa) = 55.70440 73.09284 108.33056
#
# Poissons Ratio (x) = 0.33450 0.42285
# Poissons Ratio (y) = 0.25493 0.30053
# Poissons Ratio (z) = 0.21743 0.20277
#
# Static dielectric constant tensor:
#      x y z
#    x 2.119390 0.108800 0.087680 
#    y 0.108800 2.242720 0.141980 
#    z 0.087680 0.141980 2.108870 
# 
# From -- ./inp_files/224441.got.cif
#   From: 2010.05.17/outbox.cif.g08.bks.cpg/sg2_113_cif.got.tgz:224441.got - 2010.06.03 11:33:40.
