data_PCOD9101954
_publ_section_title
;
Structure prediction by ZEFSAII (Michael W. Deem and Ramdas Pophale) SiO2 
 PCOD9101954
Probable space group: P -1
;
_chemical_formula_sum "Si O2"
_cell_formula_units_Z 14
_cell_length_a 8.742488
_cell_length_b 15.143041
_cell_length_c 6.436969
_cell_angle_alpha 93.796205
_cell_angle_beta 58.436734
_cell_angle_gamma 70.006216
_cell_volume 649.568956
_symmetry_space_group_name_H-M "P -1"
_symmetry_group_IT_number 2
_symmetry_cell_setting 'triclinic'
loop_
_space_group_symop_operation_xyz
x,y,z
-x,-y,-z
loop_
_atom_site_type_symbol
_atom_site_label
_atom_site_fract_x
_atom_site_fract_y
_atom_site_fract_z
Si Si1 0.166926 0.388354 0.924688
Si Si2 0.913667 0.380019 0.432082
Si Si3 0.083199 0.242362 0.668212
Si Si4 0.414994 0.429478 0.458289
Si Si5 0.718180 0.957816 0.719940
Si Si6 0.896082 0.060971 0.290328
Si Si7 0.224578 0.745324 0.804782
O O1 0.156066 0.302975 0.779085
O O2 0.362876 0.391035 0.703864
O O3 0.000000 0.500000 0.000000
O O4 0.122164 0.369882 0.186483
O O5 0.764894 0.496501 0.545677
O O6 0.840255 0.321202 0.311694
O O7 0.946331 0.325846 0.616271
O O8 0.243849 0.147670 0.421105
O O9 0.949235 0.205865 0.895207
O O10 0.500000 0.500000 0.500000
O O11 0.580069 0.331455 0.224960
O O12 0.912231 0.937981 0.724086
O O13 0.761514 0.022127 0.517176
O O14 0.500000 0.000000 0.000000
O O15 0.755576 0.171462 0.329916
O O16 0.000000 0.000000 0.000000
#
# Coordination Sequence:
#
# PCOD9101954 Si02
#       7
#     2   2   2   2   2   2   2
#     4   9  20  37  58  88 122 163 214 259 317 393
#     4   9  19  37  61  84 126 161 204 263 313 381
#     4  11  21  39  63  88 128 170 209 267 334 383
#     4   9  19  36  58  89 119 161 210 253 314 394
#     4  11  26  44  67 103 132 174 237 279 333 410
#     4  11  23  45  70  94 138 176 220 287 343 387
#     4  10  20  38  61  88 124 167 207 259 327 388
#
# _framework density 21.552752000000002
#
# number of rings (size 3 to 8) (size 9 to 14) (size 15 to 20)
#    0.000    2.000    2.857    0.857    0.000    5.714 
#    0.000    2.857    0.000    0.000    0.000    0.000 
#    0.000    0.000    0.000    0.000    0.000    0.000 
#
# Total GULP energy -77943.120742 kJ/mol
# GULP energy per Si atom -5567.365767 kJ/mol
# Density = 2.150370 g / cm^3
# Si number density = 21.552752 Si / 1000 Ang^3
#
#
#
# Elastic Constant Matrix: (Units=GPa)
#
#
# Indices 1 2 3 4 5 6 
#
# 1 40.4714 32.3991 37.8657 -1.2836 -6.7634 7.5929
# 2 32.3991 145.7524 59.8501 -3.3855 -9.1959 -1.5084
# 3 37.8657 59.8501 94.7060 -0.5102 -16.3658 4.4020
# 4 -1.2836 -3.3855 -0.5102 49.8029 0.7594 -1.8619
# 5 -6.7634 -9.1959 -16.3658 0.7594 30.4152 -1.5648
# 6 7.5929 -1.5084 4.4020 -1.8619 -1.5648 25.4317
#
#
#
# Elastic Compliance Matrix: (Units=1/GPa)
#
#
# Indices 1 2 3 4 5 6 
#
# 1 0.043206 -0.003805 -0.014343 0.000308 0.000186 -0.010609
# 2 -0.003805 0.009687 -0.004780 0.000613 -0.000373 0.002560
# 3 -0.014343 -0.004780 0.020377 -0.000552 0.006386 0.000824
# 4 0.000308 0.000613 -0.000552 0.020186 -0.000471 0.001489
# 5 0.000186 -0.000373 0.006386 -0.000471 0.036307 0.001017
# 6 -0.010609 0.002560 0.000824 0.001489 0.001017 0.042669
#
#
# Mechanical properties :
#
#
# Convention : Reuss Voigt Hill
#
# Bulk Modulus (GPa) = 36.48021 60.12885 48.30453
# Shear Modulus (GPa) = 21.98508 31.18430 26.58469
#
# Velocity S-wave (km/s) = 3.19730 3.80792 3.51589
# Velocity P-wave (km/s) = 5.53110 6.87697 6.24042
#
# Compressibility (1/GPa) = 0.02741212
#
# Stress axis : x y z
#
# Youngs Moduli (GPa) = 23.14496 103.23074 49.07510
#
# Poissons Ratio (x) = 0.39284 0.70388
# Poissons Ratio (y) = 0.08808 0.23460
# Poissons Ratio (z) = 0.33197 0.49349
#
# Static dielectric constant tensor:
#      x y z
#    x 1.843500 -0.010040 -0.031640 
#    y -0.010040 1.818400 0.035500 
#    z -0.031640 0.035500 1.897980 
# 
# From -- ./inp_files/38341.got.cif
#   From: 2010.05.17/outbox.cif.g08.bks.cpg/sg2_20_cif.got.tgz:38341.got - 2010.06.03 11:33:40.
