data_PCOD9101232
_publ_section_title
;
Structure prediction by ZEFSAII (Michael W. Deem and Ramdas Pophale) SiO2 
 PCOD9101232
Probable space group: P -1
;
_chemical_formula_sum "Si O2"
_cell_formula_units_Z 14
_cell_length_a 9.966570
_cell_length_b 19.450977
_cell_length_c 8.418559
_cell_angle_alpha 84.445738
_cell_angle_beta 120.247604
_cell_angle_gamma 43.630881
_cell_volume 615.888327
_symmetry_space_group_name_H-M "P -1"
_symmetry_group_IT_number 2
_symmetry_cell_setting 'triclinic'
loop_
_space_group_symop_operation_xyz
x,y,z
-x,-y,-z
loop_
_atom_site_type_symbol
_atom_site_label
_atom_site_fract_x
_atom_site_fract_y
_atom_site_fract_z
Si Si1 0.100737 0.058486 0.671006
Si Si2 0.444753 0.248344 0.047985
Si Si3 0.211189 0.119236 0.444338
Si Si4 0.451380 0.368055 0.800956
Si Si5 0.107204 0.378880 0.118380
Si Si6 0.137894 0.604737 0.747460
Si Si7 0.231955 0.844979 0.247322
O O1 0.255898 0.053222 0.643085
O O2 0.763338 0.159196 0.355875
O O3 0.966307 0.127117 0.753434
O O4 0.375468 0.886887 0.901215
O O5 0.166063 0.328380 0.988150
O O6 0.313608 0.361789 0.833935
O O7 0.165193 0.216523 0.455960
O O8 0.500000 0.000000 0.500000
O O9 0.835238 0.243340 0.118723
O O10 0.178181 0.540066 0.631386
O O11 0.553998 0.288432 0.718062
O O12 0.480498 0.228225 0.463240
O O13 0.856447 0.443041 0.078362
O O14 0.000000 0.500000 0.000000
O O15 0.500000 0.500000 0.000000
O O16 0.000000 0.000000 0.000000
#
# Coordination Sequence:
#
# PCOD9101232 Si02
#       7
#     2   2   2   2   2   2   2
#     4   9  18  33  57  86 119 159 208 257 312 364
#     4   9  16  32  58  87 113 152 209 265 298 363
#     4  10  21  37  65  85 122 175 221 250 310 397
#     4  10  20  38  57  92 127 162 206 269 324 364
#     4  11  22  38  66  93 120 166 225 259 316 387
#     4  10  22  39  62  89 128 166 214 256 321 381
#     4  11  23  37  64  96 131 160 206 282 327 360
#
# _framework density 22.731394999999999
#
# number of rings (size 3 to 8) (size 9 to 14) (size 15 to 20)
#    0.000    2.000    2.857    0.857    6.000    0.571 
#    0.000    1.429    0.000    0.000    0.000    0.000 
#    0.000    0.000    0.000    0.000    0.000    0.000 
#
# Total GULP energy -78081.763966 kJ/mol
# GULP energy per Si atom -5577.268855 kJ/mol
# Density = 2.267966 g / cm^3
# Si number density = 22.731395 Si / 1000 Ang^3
#
#
#
# Elastic Constant Matrix: (Units=GPa)
#
#
# Indices 1 2 3 4 5 6 
#
# 1 179.1171 67.5641 21.9546 -7.5542 -11.9519 -25.5914
# 2 67.5641 187.1011 6.3559 -11.3793 -18.5079 -25.3746
# 3 21.9546 6.3559 52.5246 -11.8942 -8.3283 1.4104
# 4 -7.5542 -11.3793 -11.8942 26.5350 2.8599 -5.2180
# 5 -11.9519 -18.5079 -8.3283 2.8599 28.8732 -3.6123
# 6 -25.5914 -25.3746 1.4104 -5.2180 -3.6123 42.9882
#
#
#
# Elastic Compliance Matrix: (Units=1/GPa)
#
#
# Indices 1 2 3 4 5 6 
#
# 1 0.007214 -0.001866 -0.002506 0.000659 0.001437 0.003476
# 2 -0.001866 0.007126 0.001263 0.003379 0.004303 0.003825
# 3 -0.002506 0.001263 0.022960 0.009554 0.005463 0.000119
# 4 0.000659 0.003379 0.009554 0.044930 0.001704 0.007670
# 5 0.001437 0.004303 0.005463 0.001704 0.040246 0.006805
# 6 0.003476 0.003825 0.000119 0.007670 0.006805 0.029088
#
#
# Mechanical properties :
#
#
# Convention : Reuss Voigt Hill
#
# Bulk Modulus (GPa) = 32.17446 67.83245 50.00345
# Shear Modulus (GPa) = 29.73634 41.20380 35.47007
#
# Velocity S-wave (km/s) = 3.62078 4.26213 3.95448
# Velocity P-wave (km/s) = 5.62716 7.35708 6.54949
#
# Compressibility (1/GPa) = 0.03108055
#
# Stress axis : x y z
#
# Youngs Moduli (GPa) = 138.61079 140.33591 43.55392
#
# Poissons Ratio (x) = 0.26193 0.10915
# Poissons Ratio (y) = 0.25871 -0.05499
# Poissons Ratio (z) = 0.34736 -0.17719
#
# Static dielectric constant tensor:
#      x y z
#    x 1.885370 -0.059550 0.017380 
#    y -0.059550 1.923310 -0.001320 
#    z 0.017380 -0.001320 1.919190 
# 
# From -- ./inp_files/217510.got.cif
#   From: 2010.05.17/outbox.cif.g08.bks.cpg/sg2_109_cif.got.tgz:217510.got - 2010.06.03 11:33:40.
