data_PCOD9101468
_publ_section_title
;
Structure prediction by ZEFSAII (Michael W. Deem and Ramdas Pophale) SiO2 
 PCOD9101468
Probable space group: P -1
;
_chemical_formula_sum "Si O2"
_cell_formula_units_Z 16
_cell_length_a 8.204775
_cell_length_b 8.187145
_cell_length_c 19.805680
_cell_angle_alpha 64.018589
_cell_angle_beta 102.026167
_cell_angle_gamma 50.877256
_cell_volume 666.994906
_symmetry_space_group_name_H-M "P -1"
_symmetry_group_IT_number 2
_symmetry_cell_setting 'triclinic'
loop_
_space_group_symop_operation_xyz
x,y,z
-x,-y,-z
loop_
_atom_site_type_symbol
_atom_site_label
_atom_site_fract_x
_atom_site_fract_y
_atom_site_fract_z
Si Si1 0.129867 0.505480 0.181291
Si Si2 0.035867 0.569833 0.562316
Si Si3 0.985388 0.243458 0.681809
Si Si4 0.767015 0.167089 0.006778
Si Si5 0.401872 0.289668 0.094599
Si Si6 0.396587 0.727498 0.290521
Si Si7 0.691478 0.150322 0.354724
Si Si8 0.172423 0.523206 0.897795
O O1 0.237640 0.399156 0.131175
O O2 0.413139 0.272117 0.292968
O O3 0.933860 0.505762 0.168181
O O4 0.932797 0.857196 0.113970
O O5 0.925401 0.512017 0.614399
O O6 0.367232 0.343433 0.644683
O O7 0.000000 0.500000 0.500000
O O8 0.851061 0.920560 0.474698
O O9 0.735206 0.327742 0.669039
O O10 0.264873 0.001882 0.799585
O O11 0.103164 0.054277 0.655652
O O12 0.694867 0.421598 0.988191
O O13 0.451486 0.379775 0.919543
O O14 0.000000 0.000000 0.000000
O O15 0.294629 0.294546 0.014586
O O16 0.574064 0.459333 0.297003
O O17 0.112842 0.098610 0.179222
#
# Coordination Sequence:
#
# PCOD9101468 Si02
#       8
#     2   2   2   2   2   2   2   2
#     4  10  22  39  61  91 129 166 212 273 317 379
#     4  10  23  46  70  98 135 168 217 279 326 383
#     4  10  23  44  66  96 136 169 220 271 323 385
#     4  10  21  37  58  85 125 171 210 260 321 385
#     4  10  20  38  59  87 128 169 209 263 322 378
#     4  12  24  42  73  98 128 179 217 263 333 393
#     4  10  23  44  68  95 133 170 217 273 329 382
#     4  12  22  37  62  95 127 168 223 257 321 392
#
# _framework density 23.988188999999998
#
# number of rings (size 3 to 8) (size 9 to 14) (size 15 to 20)
#    0.000    1.500    1.250    4.500    1.750    3.500 
#    0.000    3.750    0.000    0.000    0.000    0.000 
#    0.000    0.000    0.000    0.000    0.000    0.000 
#
# Total GULP energy -89256.607301 kJ/mol
# GULP energy per Si atom -5578.537956 kJ/mol
# Density = 2.393359 g / cm^3
# Si number density = 23.988189 Si / 1000 Ang^3
#
#
#
# Elastic Constant Matrix: (Units=GPa)
#
#
# Indices 1 2 3 4 5 6 
#
# 1 110.3850 8.4531 33.7365 16.6050 20.7021 -3.6728
# 2 8.4531 46.1204 10.0994 2.9402 -13.6773 -6.4787
# 3 33.7365 10.0994 114.7939 -5.2294 5.8649 2.6822
# 4 16.6050 2.9402 -5.2294 28.3669 11.4912 0.6832
# 5 20.7021 -13.6773 5.8649 11.4912 41.8394 1.6896
# 6 -3.6728 -6.4787 2.6822 0.6832 1.6896 22.8887
#
#
#
# Elastic Compliance Matrix: (Units=1/GPa)
#
#
# Indices 1 2 3 4 5 6 
#
# 1 0.012086 -0.002213 -0.003420 -0.005594 -0.004778 0.002234
# 2 -0.002213 0.027860 -0.002931 -0.007300 0.012328 0.007182
# 3 -0.003420 -0.002931 0.010370 0.005096 -0.002014 -0.002597
# 4 -0.005594 -0.007300 0.005096 0.045445 -0.012653 -0.003983
# 5 -0.004778 0.012328 -0.002014 -0.012653 0.034019 0.000825
# 6 0.002234 0.007182 -0.002597 -0.003983 0.000825 0.046443
#
#
# Mechanical properties :
#
#
# Convention : Reuss Voigt Hill
#
# Bulk Modulus (GPa) = 30.13127 41.76416 35.94771
# Shear Modulus (GPa) = 24.46028 33.21967 28.83997
#
# Velocity S-wave (km/s) = 3.19671 3.72537 3.47112
# Velocity P-wave (km/s) = 5.11990 5.99605 5.57521
#
# Compressibility (1/GPa) = 0.03318812
#
# Stress axis : x y z
#
# Youngs Moduli (GPa) = 82.74175 35.89387 96.43200
#
# Poissons Ratio (x) = 0.07942 0.32981
# Poissons Ratio (y) = 0.18308 0.28264
# Poissons Ratio (z) = 0.28299 0.10520
#
# Static dielectric constant tensor:
#      x y z
#    x 2.077550 -0.009580 -0.048870 
#    y -0.009580 1.995960 -0.008730 
#    z -0.048870 -0.008730 1.944320 
# 
# From -- ./inp_files/606713.got.cif
#   From: 2010.05.17/outbox.cif.g08.bks.cpg/sg2_304_cif.got.tgz:606713.got - 2010.06.03 11:33:40.
