data_PCOD9101666
_publ_section_title
;
Structure prediction by ZEFSAII (Michael W. Deem and Ramdas Pophale) SiO2 
 PCOD9101666
Probable space group: P -1
;
_chemical_formula_sum "Si O2"
_cell_formula_units_Z 16
_cell_length_a 9.501974
_cell_length_b 13.456155
_cell_length_c 15.096683
_cell_angle_alpha 50.530801
_cell_angle_beta 40.412583
_cell_angle_gamma 80.104022
_cell_volume 755.100319
_symmetry_space_group_name_H-M "P -1"
_symmetry_group_IT_number 2
_symmetry_cell_setting 'triclinic'
loop_
_space_group_symop_operation_xyz
x,y,z
-x,-y,-z
loop_
_atom_site_type_symbol
_atom_site_label
_atom_site_fract_x
_atom_site_fract_y
_atom_site_fract_z
Si Si1 0.035364 0.338897 0.783028
Si Si2 0.564128 0.369560 0.447117
Si Si3 0.314900 0.451323 0.896554
Si Si4 0.476570 0.361769 0.142410
Si Si5 0.967937 0.033640 0.597395
Si Si6 0.203297 0.998858 0.837307
Si Si7 0.822026 0.089005 0.295352
Si Si8 0.419461 0.710203 0.054320
O O1 0.298712 0.348503 0.625018
O O2 0.168137 0.489379 0.703586
O O3 0.894576 0.355819 0.755902
O O4 0.813759 0.154066 0.033827
O O5 0.587726 0.434240 0.300323
O O6 0.484914 0.188539 0.592346
O O7 0.327903 0.553770 0.914638
O O8 0.492643 0.388489 0.879610
O O9 0.015367 0.282684 0.112145
O O10 0.158304 0.229021 0.402327
O O11 0.550037 0.295111 0.064510
O O12 0.500000 0.500000 0.000000
O O13 0.126198 0.989080 0.606046
O O14 0.000000 0.000000 0.500000
O O15 0.651411 0.904298 0.854169
O O16 0.099278 0.948038 0.814726
O O17 0.000000 0.000000 0.000000
O O18 0.500000 0.000000 0.500000
#
# Coordination Sequence:
#
# PCOD9101666 Si02
#       8
#     2   2   2   2   2   2   2   2
#     4  10  21  40  61  87 118 157 206 249 296 366
#     4  10  21  39  64  83 117 162 200 251 302 352
#     4  10  20  38  60  87 122 157 195 257 304 358
#     4   9  18  34  54  82 118 152 193 234 303 364
#     4   9  19  35  56  82 120 162 188 247 308 360
#     4  10  22  41  63  87 124 166 204 249 309 367
#     4  11  23  37  61  93 120 158 206 252 303 361
#     4   9  20  36  58  85 119 158 197 247 304 361
#
# _framework density 21.189236999999999
#
# number of rings (size 3 to 8) (size 9 to 14) (size 15 to 20)
#    0.000    2.250    1.250    1.500    3.500    1.500 
#    4.500    1.875    0.000    6.750    0.000    0.000 
#    0.000    0.000    0.000    0.000    0.000    0.000 
#
# Total GULP energy -89095.338905 kJ/mol
# GULP energy per Si atom -5568.458682 kJ/mol
# Density = 2.114101 g / cm^3
# Si number density = 21.189237 Si / 1000 Ang^3
#
#
#
# Elastic Constant Matrix: (Units=GPa)
#
#
# Indices 1 2 3 4 5 6 
#
# 1 109.7116 21.0095 49.5618 -3.1962 -3.2533 7.0170
# 2 21.0095 55.5612 38.6327 -20.8767 -3.6441 18.5759
# 3 49.5618 38.6327 112.3843 -40.2010 8.3236 0.5237
# 4 -3.1962 -20.8767 -40.2010 35.8597 5.3800 1.6839
# 5 -3.2533 -3.6441 8.3236 5.3800 38.4857 0.6432
# 6 7.0170 18.5759 0.5237 1.6839 0.6432 33.7145
#
#
#
# Elastic Compliance Matrix: (Units=1/GPa)
#
#
# Indices 1 2 3 4 5 6 
#
# 1 0.013904 -0.002067 -0.010018 -0.011868 0.004824 -0.001099
# 2 -0.002067 0.035034 -0.006451 0.013447 0.002984 -0.019501
# 3 -0.010018 -0.006451 0.025243 0.025027 -0.010486 0.004198
# 4 -0.011868 0.013447 0.025027 0.065223 -0.014121 -0.008316
# 5 0.004824 0.002984 -0.010486 -0.014121 0.030956 -0.002370
# 6 -0.001099 -0.019501 0.004198 -0.008316 -0.002370 0.041029
#
#
# Mechanical properties :
#
#
# Convention : Reuss Voigt Hill
#
# Bulk Modulus (GPa) = 26.94893 55.11837 41.03365
# Shear Modulus (GPa) = 19.16946 32.84218 26.00582
#
# Velocity S-wave (km/s) = 3.01105 3.94121 3.50710
# Velocity P-wave (km/s) = 4.98341 6.83957 5.98390
#
# Compressibility (1/GPa) = 0.03710723
#
# Stress axis : x y z
#
# Youngs Moduli (GPa) = 71.92166 28.54397 39.61451
#
# Poissons Ratio (x) = 0.05900 0.39688
# Poissons Ratio (y) = 0.14866 0.25557
# Poissons Ratio (z) = 0.72054 0.18415
#
# Static dielectric constant tensor:
#      x y z
#    x 1.781780 0.015430 -0.043050 
#    y 0.015430 1.815280 -0.007190 
#    z -0.043050 -0.007190 1.849620 
# 
# From -- ./inp_files/346435.got.cif
#   From: 2010.05.17/outbox.cif.g08.bks.cpg/sg2_174_cif.got.tgz:346435.got - 2010.06.03 11:33:40.
