data_PCOD9101980
_publ_section_title
;
Structure prediction by ZEFSAII (Michael W. Deem and Ramdas Pophale) SiO2 
 PCOD9101980
Probable space group: P -1
;
_chemical_formula_sum "Si O2"
_cell_formula_units_Z 16
_cell_length_a 5.338531
_cell_length_b 7.007409
_cell_length_c 22.009963
_cell_angle_alpha 94.687182
_cell_angle_beta 107.884513
_cell_angle_gamma 64.323441
_cell_volume 704.946331
_symmetry_space_group_name_H-M "P -1"
_symmetry_group_IT_number 2
_symmetry_cell_setting 'triclinic'
loop_
_space_group_symop_operation_xyz
x,y,z
-x,-y,-z
loop_
_atom_site_type_symbol
_atom_site_label
_atom_site_fract_x
_atom_site_fract_y
_atom_site_fract_z
Si Si1 0.683397 0.638404 0.508949
Si Si2 0.415831 0.864206 0.850465
Si Si3 0.271071 0.375670 0.351042
Si Si4 0.299881 0.326633 0.728314
Si Si5 0.366209 0.802734 0.373825
Si Si6 0.770312 0.139465 0.857784
Si Si7 0.703254 0.488052 0.957836
Si Si8 0.769838 0.093826 0.289417
O O1 0.500000 0.500000 0.500000
O O2 0.725456 0.700622 0.581813
O O3 0.504770 0.811245 0.449165
O O4 0.000000 0.500000 0.500000
O O5 0.358470 0.781873 0.778951
O O6 0.541285 0.680788 0.904507
O O7 0.638916 0.971860 0.860550
O O8 0.097163 0.027535 0.854085
O O9 0.282788 0.603717 0.366019
O O10 0.977193 0.447531 0.291131
O O11 0.546402 0.215018 0.329504
O O12 0.403474 0.271571 0.665219
O O13 0.561243 0.289538 0.792828
O O14 0.096859 0.014795 0.336313
O O15 0.764575 0.276099 0.919330
O O16 0.220536 0.134021 0.734161
O O17 0.500000 0.500000 0.000000
O O18 0.000000 0.500000 0.000000
#
# Coordination Sequence:
#
# PCOD9101980 Si02
#       8
#     2   2   2   2   2   2   2   2
#     4  10  20  38  61  89 128 178 224 270 341 405
#     4  11  25  45  70 102 139 182 226 283 340 409
#     4  10  22  37  62  91 128 178 220 280 339 391
#     4  10  21  39  62  92 128 172 219 281 333 393
#     4  10  20  39  62  85 131 169 220 278 334 396
#     4  11  25  45  72 100 141 182 225 280 348 395
#     4  12  28  47  73 107 139 178 228 273 333 421
#     4  10  23  39  61  97 128 166 232 281 330 397
#
# _framework density 22.696764000000002
#
# number of rings (size 3 to 8) (size 9 to 14) (size 15 to 20)
#    0.000    1.500    2.500    1.500    1.750    7.500 
#    0.000    0.625    0.000    0.000    0.000    0.000 
#    0.000    0.000    0.000    0.000    0.000    0.000 
#
# Total GULP energy -89432.850849 kJ/mol
# GULP energy per Si atom -5589.553178 kJ/mol
# Density = 2.264511 g / cm^3
# Si number density = 22.696764 Si / 1000 Ang^3
#
#
#
# Elastic Constant Matrix: (Units=GPa)
#
#
# Indices 1 2 3 4 5 6 
#
# 1 103.9322 28.6712 41.4581 1.8841 -10.0000 -11.8254
# 2 28.6712 75.7328 26.4202 -13.2863 -1.2981 -7.3795
# 3 41.4581 26.4202 131.9032 -7.8446 -11.7066 7.9323
# 4 1.8841 -13.2863 -7.8446 52.8771 2.1897 -2.9321
# 5 -10.0000 -1.2981 -11.7066 2.1897 47.4145 3.8498
# 6 -11.8254 -7.3795 7.9323 -2.9321 3.8498 45.7601
#
#
#
# Elastic Compliance Matrix: (Units=1/GPa)
#
#
# Indices 1 2 3 4 5 6 
#
# 1 0.012452 -0.003530 -0.003353 -0.001726 0.001539 0.002990
# 2 -0.003530 0.016222 -0.002153 0.004068 -0.001218 0.002440
# 3 -0.003353 -0.002153 0.009445 0.000743 0.001771 -0.002952
# 4 -0.001726 0.004068 0.000743 0.020234 -0.001123 0.001472
# 5 0.001539 -0.001218 0.001771 -0.001123 0.022036 -0.002032
# 6 0.002990 0.002440 -0.002952 0.001472 -0.002032 0.023796
#
#
# Mechanical properties :
#
#
# Convention : Reuss Voigt Hill
#
# Bulk Modulus (GPa) = 49.87686 56.07413 52.97550
# Shear Modulus (GPa) = 38.77791 43.54493 41.16142
#
# Velocity S-wave (km/s) = 4.13791 4.38488 4.26318
# Velocity P-wave (km/s) = 6.69722 7.09899 6.90103
#
# Compressibility (1/GPa) = 0.02004938
#
# Stress axis : x y z
#
# Youngs Moduli (GPa) = 80.30662 61.64372 105.87350
#
# Poissons Ratio (x) = 0.21758 0.35496
# Poissons Ratio (y) = 0.28346 0.22793
# Poissons Ratio (z) = 0.26925 0.13271
#
# Static dielectric constant tensor:
#      x y z
#    x 1.896080 0.080510 0.017540 
#    y 0.080510 1.882880 -0.007800 
#    z 0.017540 -0.007800 1.886230 
# 
# From -- ./inp_files/13707.got.cif
#   From: 2010.05.17/outbox.cif.g08.bks.cpg/sg2_7_cif.got.tgz:13707.got - 2010.06.03 11:33:40.
