data_PCOD9101173
_publ_section_title
;
Structure prediction by ZEFSAII (Michael W. Deem and Ramdas Pophale) SiO2 
 PCOD9101173
Probable space group: P -1
;
_chemical_formula_sum "Si O2"
_cell_formula_units_Z 16
_cell_length_a 11.892059
_cell_length_b 14.695537
_cell_length_c 17.095343
_cell_angle_alpha 35.701535
_cell_angle_beta 20.153328
_cell_angle_gamma 39.832353
_cell_volume 600.444268
_symmetry_space_group_name_H-M "P -1"
_symmetry_group_IT_number 2
_symmetry_cell_setting 'triclinic'
loop_
_space_group_symop_operation_xyz
x,y,z
-x,-y,-z
loop_
_atom_site_type_symbol
_atom_site_label
_atom_site_fract_x
_atom_site_fract_y
_atom_site_fract_z
Si Si1 0.297661 0.315035 0.364997
Si Si2 0.324987 0.913350 0.425258
Si Si3 0.936563 0.645946 0.346322
Si Si4 0.199579 0.345040 0.009116
Si Si5 0.996429 0.441490 0.795056
Si Si6 0.702634 0.759095 0.141020
Si Si7 0.300422 0.982315 0.562497
Si Si8 0.630138 0.736563 0.876954
O O1 0.082585 0.469975 0.383446
O O2 0.661929 0.345617 0.077296
O O3 0.164569 0.161070 0.520399
O O4 0.306649 0.305034 0.460760
O O5 0.049649 0.791449 0.711769
O O6 0.504975 0.845294 0.278554
O O7 0.480381 0.941141 0.391836
O O8 0.235017 0.091080 0.334583
O O9 0.798142 0.630757 0.360420
O O10 0.261115 0.744774 0.079134
O O11 0.388919 0.347963 0.966138
O O12 0.000000 0.500000 0.000000
O O13 0.420859 0.285370 0.833209
O O14 0.864437 0.617951 0.758776
O O15 0.175143 0.401685 0.786229
O O16 0.009732 0.867012 0.848666
O O17 0.500000 0.000000 0.500000
#
# Coordination Sequence:
#
# PCOD9101173 Si02
#       8
#     2   2   2   2   2   2   2   2
#     4  10  20  38  56  95 129 174 206 255 324 383
#     4  11  26  43  68 100 129 171 224 269 331 384
#     4  10  22  35  65  94 129 165 219 259 322 388
#     4  11  25  49  70  92 130 170 224 275 333 383
#     4  11  21  39  65  93 137 168 213 264 322 387
#     4  11  25  42  65 100 130 175 218 269 320 393
#     4  11  22  37  63  92 140 172 207 260 325 381
#     4  11  22  45  69  93 132 175 217 276 322 385
#
# _framework density 26.646937000000001
#
# number of rings (size 3 to 8) (size 9 to 14) (size 15 to 20)
#    0.000    1.250    2.500    4.125    1.750    1.500 
#    2.250    2.500    0.000    0.000    0.000    0.000 
#    0.000    0.000    0.000    0.000    0.000    0.000 
#
# Total GULP energy -89533.288874 kJ/mol
# GULP energy per Si atom -5595.830555 kJ/mol
# Density = 2.658629 g / cm^3
# Si number density = 26.646937 Si / 1000 Ang^3
#
#
#
# Elastic Constant Matrix: (Units=GPa)
#
#
# Indices 1 2 3 4 5 6 
#
# 1 130.4996 22.2503 42.7856 13.2957 40.6345 27.0684
# 2 22.2503 80.5788 33.4326 0.6313 15.0833 20.4898
# 3 42.7856 33.4326 105.8734 -3.0557 11.2357 8.7330
# 4 13.2957 0.6313 -3.0557 59.7028 18.0374 25.5008
# 5 40.6345 15.0833 11.2357 18.0374 54.2573 8.1780
# 6 27.0684 20.4898 8.7330 25.5008 8.1780 41.3539
#
#
#
# Elastic Compliance Matrix: (Units=1/GPa)
#
#
# Indices 1 2 3 4 5 6 
#
# 1 0.013086 0.002131 -0.004115 0.003567 -0.009355 -0.009102
# 2 0.002131 0.017776 -0.004739 0.005800 -0.005730 -0.011646
# 3 -0.004115 -0.004739 0.012298 0.000321 0.001450 0.001960
# 4 0.003567 0.005800 0.000321 0.027767 -0.010518 -0.020318
# 5 -0.009355 -0.005730 0.001450 -0.010518 0.028802 0.009446
# 6 -0.009102 -0.011646 0.001960 -0.020318 0.009446 0.046157
#
#
# Mechanical properties :
#
#
# Convention : Reuss Voigt Hill
#
# Bulk Modulus (GPa) = 33.65190 57.09875 45.37533
# Shear Modulus (GPa) = 29.54473 45.62835 37.58654
#
# Velocity S-wave (km/s) = 3.33340 4.14252 3.75979
# Velocity P-wave (km/s) = 5.24134 6.65996 5.99277
#
# Compressibility (1/GPa) = 0.02971600
#
# Stress axis : x y z
#
# Youngs Moduli (GPa) = 76.41817 56.25547 81.31255
#
# Poissons Ratio (x) = -0.11991 0.33459
# Poissons Ratio (y) = -0.16288 0.38531
# Poissons Ratio (z) = 0.31445 0.26657
#
# Static dielectric constant tensor:
#      x y z
#    x 2.220570 -0.071560 0.064200 
#    y -0.071560 2.097360 -0.032190 
#    z 0.064200 -0.032190 2.066360 
# 
# From -- ./inp_files/522230.got.cif
#   From: 2010.05.17/outbox.cif.g08.bks.cpg/sg2_262_cif.got.tgz:522230.got - 2010.06.03 11:33:40.
