data_PCOD9101601
_publ_section_title
;
Structure prediction by ZEFSAII (Michael W. Deem and Ramdas Pophale) SiO2 
 PCOD9101601
Probable space group: P -1
;
_chemical_formula_sum "Si O2"
_cell_formula_units_Z 13
_cell_length_a 11.721583
_cell_length_b 15.227902
_cell_length_c 12.674943
_cell_angle_alpha 28.424543
_cell_angle_beta 152.084999
_cell_angle_gamma 148.871543
_cell_volume 471.514339
_symmetry_space_group_name_H-M "P -1"
_symmetry_group_IT_number 2
_symmetry_cell_setting 'triclinic'
loop_
_space_group_symop_operation_xyz
x,y,z
-x,-y,-z
loop_
_atom_site_type_symbol
_atom_site_label
_atom_site_fract_x
_atom_site_fract_y
_atom_site_fract_z
Si Si1 0.218744 0.989353 0.819589
Si Si2 0.136314 0.738665 0.454735
Si Si3 0.495010 0.966433 0.701132
Si Si4 0.144597 0.338394 0.290049
Si Si5 0.500000 0.500000 0.000000
Si Si6 0.454095 0.414210 0.795321
Si Si7 0.795025 0.771421 0.831480
O O1 0.184133 0.202621 0.560843
O O2 0.024788 0.829386 0.751035
O O3 0.097792 0.872466 0.951820
O O4 0.500000 0.000000 0.000000
O O5 0.293340 0.854065 0.563414
O O6 0.245471 0.567149 0.696826
O O7 0.842113 0.644281 0.354261
O O8 0.235405 0.897932 0.273601
O O9 0.352708 0.108555 0.480413
O O10 0.499219 0.790356 0.964417
O O11 0.426589 0.449776 0.350493
O O12 0.000000 0.500000 0.000000
O O13 0.694177 0.738727 0.901609
O O14 0.628788 0.540265 0.905217
#
# Coordination Sequence:
#
# PCOD9101601 Si02
#       7
#     2   2   2   2   1   2   2
#     4  10  23  41  63  91 124 161 204 254 307 358
#     4  10  22  38  59  86 122 158 199 246 297 354
#     4  10  21  40  55  88 123 154 199 251 289 360
#     4  10  23  41  62  92 124 156 208 256 299 365
#     4  10  20  38  60  84 120 154 194 242 294 358
#     4  11  22  39  64  86 119 162 201 242 305 360
#     4  10  22  40  61  88 123 158 197 251 296 355
#
# _framework density 27.570741000000002
#
# number of rings (size 3 to 8) (size 9 to 14) (size 15 to 20)
#    0.000    1.846    1.538    1.385    2.154    4.308 
#    8.308    0.000    0.000    0.000    0.000    0.000 
#    0.000    0.000    0.000    0.000    0.000    0.000 
#
# Total GULP energy -72554.298745 kJ/mol
# GULP energy per Si atom -5581.099903 kJ/mol
# Density = 2.750799 g / cm^3
# Si number density = 27.570741 Si / 1000 Ang^3
#
#
#
# Elastic Constant Matrix: (Units=GPa)
#
#
# Indices 1 2 3 4 5 6 
#
# 1 80.3359 67.6206 39.1655 1.8941 7.7724 40.9341
# 2 67.6206 217.6914 81.1185 2.5422 11.0485 62.7555
# 3 39.1655 81.1185 127.9960 -42.4290 24.8267 27.3780
# 4 1.8941 2.5422 -42.4290 54.4318 -0.1379 8.1815
# 5 7.7724 11.0485 24.8267 -0.1379 43.7012 -0.7799
# 6 40.9341 62.7555 27.3780 8.1815 -0.7799 81.3238
#
#
#
# Elastic Compliance Matrix: (Units=1/GPa)
#
#
# Indices 1 2 3 4 5 6 
#
# 1 0.020077 -0.003054 -0.003391 -0.002241 -0.000993 -0.006392
# 2 -0.003054 0.008277 -0.005388 -0.004084 0.001452 -0.002611
# 3 -0.003391 -0.005388 0.020106 0.016416 -0.009452 -0.002646
# 4 -0.002241 -0.004084 0.016416 0.032101 -0.007875 -0.004552
# 5 -0.000993 0.001452 -0.009452 -0.007875 0.028102 0.003624
# 6 -0.006392 -0.002611 -0.002646 -0.004552 0.003624 0.018912
#
#
# Mechanical properties :
#
#
# Convention : Reuss Voigt Hill
#
# Bulk Modulus (GPa) = 40.33142 89.09249 64.71196
# Shear Modulus (GPa) = 31.34690 51.76592 41.55641
#
# Velocity S-wave (km/s) = 3.37555 4.33779 3.88656
# Velocity P-wave (km/s) = 5.46374 7.58109 6.60777
#
# Compressibility (1/GPa) = 0.02479457
#
# Stress axis : x y z
#
# Youngs Moduli (GPa) = 49.80799 120.82205 49.73578
#
# Poissons Ratio (x) = 0.36894 0.16866
# Poissons Ratio (y) = 0.15209 0.26797
# Poissons Ratio (z) = 0.16891 0.65098
#
# Static dielectric constant tensor:
#      x y z
#    x 0.372880 -0.289430 0.197690 
#    y -0.289430 2.104910 0.054040 
#    z 0.197690 0.054040 2.235560 
# 
# From -- ./inp_files/29627.got.cif
#   From: 2010.05.17/outbox.cif.g08.bks.cpg/sg2_15_cif.got.tgz:29627.got - 2010.06.03 11:33:40.
