data_PCOD9101988
_publ_section_title
;
Structure prediction by ZEFSAII (Michael W. Deem and Ramdas Pophale) SiO2 
 PCOD9101988
Probable space group: P -1
;
_chemical_formula_sum "Si O2"
_cell_formula_units_Z 14
_cell_length_a 8.744056
_cell_length_b 8.793744
_cell_length_c 8.843432
_cell_angle_alpha 113.198158
_cell_angle_beta 76.677559
_cell_angle_gamma 79.097279
_cell_volume 577.647431
_symmetry_space_group_name_H-M "P -1"
_symmetry_group_IT_number 2
_symmetry_cell_setting 'triclinic'
loop_
_space_group_symop_operation_xyz
x,y,z
-x,-y,-z
loop_
_atom_site_type_symbol
_atom_site_label
_atom_site_fract_x
_atom_site_fract_y
_atom_site_fract_z
Si Si1 0.303575 0.592052 0.097063
Si Si2 0.945272 0.623115 0.874366
Si Si3 0.204597 0.290223 0.614949
Si Si4 0.304167 0.222789 0.258302
Si Si5 0.640213 0.143536 0.020236
Si Si6 0.197587 0.036089 0.781826
Si Si7 0.093484 0.817507 0.485158
O O1 0.182808 0.473715 0.070491
O O2 0.251490 0.701467 0.308957
O O3 0.500000 0.500000 0.000000
O O4 0.269146 0.732914 0.025315
O O5 0.867134 0.683453 0.750921
O O6 0.125770 0.483443 0.771352
O O7 0.928233 0.795628 0.042117
O O8 0.329002 0.277433 0.444054
O O9 0.258165 0.136580 0.668150
O O10 0.046421 0.272331 0.549127
O O11 0.446965 0.245620 0.125982
O O12 0.331499 0.016706 0.164966
O O13 0.691881 0.056619 0.138166
O O14 0.136578 0.884490 0.661982
O O15 0.000000 0.000000 0.500000
#
# Coordination Sequence:
#
# PCOD9101988 Si02
#       7
#     2   2   2   2   2   2   2
#     4  11  21  41  65  88 123 166 203 248 309 366
#     4  10  21  39  63  92 121 155 206 258 304 354
#     4  10  20  38  63  90 122 160 201 254 307 359
#     4  10  20  38  61  90 120 163 206 242 303 375
#     4  10  21  37  61  91 123 160 204 248 303 368
#     4  10  21  40  62  93 123 156 205 256 300 362
#     4   9  20  40  63  87 119 163 206 243 303 370
#
# _framework density 24.236236999999999
#
# number of rings (size 3 to 8) (size 9 to 14) (size 15 to 20)
#    0.000    2.000    1.429    2.571    0.000    0.571 
#    2.571   22.857    0.000    0.000    0.000    0.000 
#    0.000    0.000    0.000    0.000    0.000    0.000 
#
# Total GULP energy -78108.032150 kJ/mol
# GULP energy per Si atom -5579.145154 kJ/mol
# Density = 2.418107 g / cm^3
# Si number density = 24.236237 Si / 1000 Ang^3
#
#
#
# Elastic Constant Matrix: (Units=GPa)
#
#
# Indices 1 2 3 4 5 6 
#
# 1 29.3034 16.5232 23.5362 11.1800 5.3739 2.7399
# 2 16.5232 74.9641 52.0460 -12.6920 -4.5394 -2.9909
# 3 23.5362 52.0460 126.6897 13.5897 21.5246 -5.1767
# 4 11.1800 -12.6920 13.5897 42.1038 0.8740 7.0199
# 5 5.3739 -4.5394 21.5246 0.8740 31.9045 -3.3663
# 6 2.7399 -2.9909 -5.1767 7.0199 -3.3663 25.5815
#
#
#
# Elastic Compliance Matrix: (Units=1/GPa)
#
#
# Indices 1 2 3 4 5 6 
#
# 1 0.051656 -0.015439 0.000356 -0.017607 -0.011066 -0.003890
# 2 -0.015439 0.030723 -0.014422 0.017750 0.016172 -0.000415
# 3 0.000356 -0.014422 0.017192 -0.010189 -0.013133 0.002822
# 4 -0.017607 0.017750 -0.010189 0.038038 0.010569 -0.007148
# 5 -0.011066 0.016172 -0.013133 0.010569 0.044434 0.003365
# 6 -0.003890 -0.000415 0.002822 -0.007148 0.003365 0.042434
#
#
# Mechanical properties :
#
#
# Convention : Reuss Voigt Hill
#
# Bulk Modulus (GPa) = 24.65440 46.12979 35.39210
# Shear Modulus (GPa) = 16.83454 29.17474 23.00464
#
# Velocity S-wave (km/s) = 2.63839 3.47330 3.08422
# Velocity P-wave (km/s) = 4.41317 5.92957 5.22666
#
# Compressibility (1/GPa) = 0.04056071
#
# Stress axis : x y z
#
# Youngs Moduli (GPa) = 19.35874 32.54845 58.16819
#
# Poissons Ratio (x) = 0.50252 -0.02070
# Poissons Ratio (y) = 0.29888 0.83889
# Poissons Ratio (z) = -0.00689 0.46941
#
# Static dielectric constant tensor:
#      x y z
#    x 2.090210 -0.059220 0.035310 
#    y -0.059220 2.072200 -0.068160 
#    z 0.035310 -0.068160 2.102250 
# 
# From -- ./inp_files/240222.got.cif
#   From: 2010.05.17/outbox.cif.g08.bks.cpg/sg2_121_cif.got.tgz:240222.got - 2010.06.03 11:33:40.
