data_PCOD9101596
_publ_section_title
;
Structure prediction by ZEFSAII (Michael W. Deem and Ramdas Pophale) SiO2 
 PCOD9101596
Probable space group: P -1
;
_chemical_formula_sum "Si O2"
_cell_formula_units_Z 14
_cell_length_a 6.755695
_cell_length_b 26.880586
_cell_length_c 6.817186
_cell_angle_alpha 54.430674
_cell_angle_beta 42.108401
_cell_angle_gamma 47.629240
_cell_volume 604.883338
_symmetry_space_group_name_H-M "P -1"
_symmetry_group_IT_number 2
_symmetry_cell_setting 'triclinic'
loop_
_space_group_symop_operation_xyz
x,y,z
-x,-y,-z
loop_
_atom_site_type_symbol
_atom_site_label
_atom_site_fract_x
_atom_site_fract_y
_atom_site_fract_z
Si Si1 0.989926 0.298752 0.540900
Si Si2 0.681181 0.611931 0.003003
Si Si3 0.093717 0.805659 0.434030
Si Si4 0.709217 0.919819 0.153764
Si Si5 0.730935 0.814152 0.068885
Si Si6 0.780231 0.022436 0.320718
Si Si7 0.183760 0.493504 0.179920
O O1 0.676875 0.365701 0.693658
O O2 0.871322 0.261626 0.549576
O O3 0.137864 0.247479 0.731351
O O4 0.254661 0.321802 0.210376
O O5 0.956387 0.555185 0.064752
O O6 0.716772 0.576937 0.846518
O O7 0.420966 0.816101 0.173973
O O8 0.800496 0.867293 0.394523
O O9 0.000308 0.804805 0.729894
O O10 0.649332 0.881762 0.098550
O O11 0.358730 0.978867 0.344789
O O12 0.040203 0.929158 0.866557
O O13 0.500000 0.000000 0.500000
O O14 0.000000 0.000000 0.000000
O O15 0.000000 0.500000 0.500000
O O16 0.500000 0.500000 0.000000
#
# Coordination Sequence:
#
# PCOD9101596 Si02
#       7
#     2   2   2   2   2   2   2
#     4  11  24  40  60  89 120 150 192 243 288 343
#     4  11  24  41  60  86 118 150 194 243 286 345
#     4  11  23  38  60  88 117 154 194 234 291 349
#     4  10  20  38  60  84 118 154 192 239 286 343
#     4  11  23  38  60  88 117 154 194 234 291 349
#     4   9  18  34  62  87 112 157 196 234 292 336
#     4  11  24  41  62  86 114 155 196 235 292 348
#
# _framework density 23.144957999999999
#
# number of rings (size 3 to 8) (size 9 to 14) (size 15 to 20)
#    0.000    1.429    0.000    5.143    0.000   13.714 
#    0.000    0.000    0.000   60.000    0.000    0.000 
#    0.000    0.000    0.000    0.000    0.000    0.000 
#
# Total GULP energy -77943.137279 kJ/mol
# GULP energy per Si atom -5567.366949 kJ/mol
# Density = 2.309228 g / cm^3
# Si number density = 23.144958 Si / 1000 Ang^3
#
#
#
# Elastic Constant Matrix: (Units=GPa)
#
#
# Indices 1 2 3 4 5 6 
#
# 1 94.8736 39.9538 20.7596 3.4674 -12.1657 25.1732
# 2 39.9538 76.9157 3.2016 5.2635 10.8121 26.4885
# 3 20.7596 3.2016 122.0660 5.8889 -25.4076 13.7706
# 4 3.4674 5.2635 5.8889 38.0254 8.3011 0.0241
# 5 -12.1657 10.8121 -25.4076 8.3011 43.7353 0.4235
# 6 25.1732 26.4885 13.7706 0.0241 0.4235 41.4701
#
#
#
# Elastic Compliance Matrix: (Units=1/GPa)
#
#
# Indices 1 2 3 4 5 6 
#
# 1 0.015909 -0.007337 -0.000578 -0.001712 0.006275 -0.004841
# 2 -0.007337 0.020877 0.000336 -0.000789 -0.006771 -0.008923
# 3 -0.000578 0.000336 0.010081 -0.002905 0.006196 -0.003272
# 4 -0.001712 -0.000789 -0.002905 0.028634 -0.007429 0.002567
# 5 0.006275 -0.006771 0.006196 -0.007429 0.031312 -0.001857
# 6 -0.004841 -0.008923 -0.003272 0.002567 -0.001857 0.033856
#
#
# Mechanical properties :
#
#
# Convention : Reuss Voigt Hill
#
# Bulk Modulus (GPa) = 31.53879 46.85390 39.19634
# Shear Modulus (GPa) = 30.04865 39.97552 35.01208
#
# Velocity S-wave (km/s) = 3.60707 4.16044 3.89360
# Velocity P-wave (km/s) = 5.56814 6.58534 6.09799
#
# Compressibility (1/GPa) = 0.03170699
#
# Stress axis : x y z
#
# Youngs Moduli (GPa) = 62.85915 47.89864 99.19893
#
# Poissons Ratio (x) = 0.35145 0.05736
# Poissons Ratio (y) = 0.46121 -0.03329
# Poissons Ratio (z) = 0.03634 -0.01607
#
# Static dielectric constant tensor:
#      x y z
#    x 1.924870 -0.136580 -0.001630 
#    y -0.136580 1.922860 0.038060 
#    z -0.001630 0.038060 1.843700 
# 
# From -- ./inp_files/12867.got.cif
#   From: 2010.05.17/outbox.cif.g08.bks.cpg/sg2_7_cif.got.tgz:12867.got - 2010.06.03 11:33:40.
