data_PCOD9101603
_publ_section_title
;
Structure prediction by ZEFSAII (Michael W. Deem and Ramdas Pophale) SiO2 
 PCOD9101603
Probable space group: P -1
;
_chemical_formula_sum "Si O2"
_cell_formula_units_Z 14
_cell_length_a 15.976173
_cell_length_b 7.061864
_cell_length_c 15.456463
_cell_angle_alpha 56.410299
_cell_angle_beta 155.346861
_cell_angle_gamma 111.240269
_cell_volume 554.161355
_symmetry_space_group_name_H-M "P -1"
_symmetry_group_IT_number 2
_symmetry_cell_setting 'triclinic'
loop_
_space_group_symop_operation_xyz
x,y,z
-x,-y,-z
loop_
_atom_site_type_symbol
_atom_site_label
_atom_site_fract_x
_atom_site_fract_y
_atom_site_fract_z
Si Si1 0.833180 0.856508 0.306764
Si Si2 0.296739 0.479188 0.863765
Si Si3 0.554994 0.749869 0.224180
Si Si4 0.860112 0.336759 0.715857
Si Si5 0.729298 0.166497 0.804844
Si Si6 0.977902 0.344525 0.103008
Si Si7 0.565495 0.040544 0.336313
O O1 0.795564 0.693461 0.234285
O O2 0.702011 0.811089 0.275621
O O3 0.089137 0.744893 0.599080
O O4 0.693094 0.138476 0.072635
O O5 0.500000 0.500000 0.000000
O O6 0.407290 0.323512 0.093104
O O7 0.690492 0.465244 0.448163
O O8 0.559189 0.897728 0.277597
O O9 0.720451 0.323878 0.671645
O O10 0.997041 0.497789 0.832893
O O11 0.042050 0.070702 0.931668
O O12 0.541606 0.068860 0.663472
O O13 0.762177 0.301520 0.888009
O O14 0.178086 0.074740 0.371208
O O15 0.000000 0.500000 0.000000
#
# Coordination Sequence:
#
# PCOD9101603 Si02
#       7
#     2   2   2   2   2   2   2
#     4   9  19  37  57  79 114 152 193 244 298 353
#     4  10  21  37  58  84 113 150 198 249 297 353
#     4   9  18  35  56  82 116 153 193 241 292 348
#     4   9  19  36  59  88 120 157 202 241 290 357
#     4  10  20  38  60  84 122 160 192 247 297 343
#     4   9  20  37  56  83 117 153 195 240 291 351
#     4  10  21  36  57  85 117 154 199 243 296 359
#
# _framework density 25.263400000000001
#
# number of rings (size 3 to 8) (size 9 to 14) (size 15 to 20)
#    0.000    2.571    0.000    0.857    0.000    9.714 
#    0.000   20.000    0.000    0.000    0.000    0.000 
#    0.000    0.000    0.000    0.000    0.000    0.000 
#
# Total GULP energy -78233.014509 kJ/mol
# GULP energy per Si atom -5588.072465 kJ/mol
# Density = 2.520590 g / cm^3
# Si number density = 25.263400 Si / 1000 Ang^3
#
#
#
# Elastic Constant Matrix: (Units=GPa)
#
#
# Indices 1 2 3 4 5 6 
#
# 1 41.7502 1.1124 30.0177 -8.5945 -10.2912 -0.4716
# 2 1.1124 61.2725 47.0071 -16.0011 -11.9655 -6.3292
# 3 30.0177 47.0071 188.5508 -32.4112 7.1224 -0.3280
# 4 -8.5945 -16.0011 -32.4112 45.4926 1.4805 -10.7242
# 5 -10.2912 -11.9655 7.1224 1.4805 27.5056 -2.2556
# 6 -0.4716 -6.3292 -0.3280 -10.7242 -2.2556 27.4089
#
#
#
# Elastic Compliance Matrix: (Units=1/GPa)
#
#
# Indices 1 2 3 4 5 6 
#
# 1 0.036658 0.012743 -0.008742 0.006290 0.021818 0.007725
# 2 0.012743 0.030658 -0.008871 0.009133 0.020934 0.012489
# 3 -0.008742 -0.008871 0.009600 0.001880 -0.009895 -0.002163
# 4 0.006290 0.009133 0.001880 0.031042 0.005385 0.014829
# 5 0.021818 0.020934 -0.009895 0.005385 0.056872 0.011878
# 6 0.007725 0.012489 -0.002163 0.014829 0.011878 0.046255
#
#
# Mechanical properties :
#
#
# Convention : Reuss Voigt Hill
#
# Bulk Modulus (GPa) = 14.88651 49.76089 32.32370
# Shear Modulus (GPa) = 20.55758 34.31051 27.43405
#
# Velocity S-wave (km/s) = 2.85569 3.68925 3.29891
# Velocity P-wave (km/s) = 4.09617 6.15525 5.22808
#
# Compressibility (1/GPa) = 0.06717493
#
# Stress axis : x y z
#
# Youngs Moduli (GPa) = 27.27909 32.61775 104.16453
#
# Poissons Ratio (x) = -0.41564 0.91065
# Poissons Ratio (y) = -0.34761 0.92405
# Poissons Ratio (z) = 0.23848 0.28935
#
# Static dielectric constant tensor:
#      x y z
#    x 1.956280 -0.024030 -0.002270 
#    y -0.024030 2.054110 -0.060400 
#    z -0.002270 -0.060400 1.984710 
# 
# From -- ./inp_files/140108.got.cif
#   From: 2010.05.17/outbox.cif.g08.bks.cpg/sg2_71_cif.got.tgz:140108.got - 2010.06.03 11:33:40.
