data_PCOD9101799
_publ_section_title
;
Structure prediction by ZEFSAII (Michael W. Deem and Ramdas Pophale) SiO2 
 PCOD9101799
Probable space group: P -1
;
_chemical_formula_sum "Si O2"
_cell_formula_units_Z 9
_cell_length_a 6.899544
_cell_length_b 14.584328
_cell_length_c 8.461997
_cell_angle_alpha 55.924057
_cell_angle_beta 122.750370
_cell_angle_gamma 74.197494
_cell_volume 334.333019
_symmetry_space_group_name_H-M "P -1"
_symmetry_group_IT_number 2
_symmetry_cell_setting 'triclinic'
loop_
_space_group_symop_operation_xyz
x,y,z
-x,-y,-z
loop_
_atom_site_type_symbol
_atom_site_label
_atom_site_fract_x
_atom_site_fract_y
_atom_site_fract_z
Si Si1 0.655184 0.106474 0.615739
Si Si2 0.725173 0.869241 0.031763
Si Si3 0.500000 0.500000 0.500000
Si Si4 0.343794 0.686370 0.738614
Si Si5 0.337137 0.784682 0.990105
O O1 0.424063 0.310495 0.266324
O O2 0.893345 0.978007 0.685996
O O3 0.459334 0.073559 0.633779
O O4 0.000000 0.000000 0.000000
O O5 0.104350 0.696394 0.245878
O O6 0.925965 0.838112 0.310017
O O7 0.540839 0.823312 0.032367
O O8 0.435249 0.396083 0.628763
O O9 0.320342 0.740176 0.852438
O O10 0.500000 0.500000 0.000000
#
# Coordination Sequence:
#
# PCOD9101799 Si02
#       5
#     2   2   1   2   2
#     4   9  22  42  64  91 127 163 207 259 304 367
#     4  10  22  42  66  88 127 165 207 251 316 363
#     4  10  20  38  60  96 120 158 200 262 298 360
#     4  11  22  39  64  96 125 158 211 258 302 373
#     4  11  22  41  68  87 127 168 206 252 314 365
#
# _framework density 26.919267000000001
#
# number of rings (size 3 to 8) (size 9 to 14) (size 15 to 20)
#    0.000    1.778    2.222    1.333    0.000    4.444 
#    0.000   15.556    0.000    0.000    0.000    0.000 
#    0.000    0.000    0.000    0.000    0.000    0.000 
#
# Total GULP energy -50129.978252 kJ/mol
# GULP energy per Si atom -5569.997584 kJ/mol
# Density = 2.685800 g / cm^3
# Si number density = 26.919267 Si / 1000 Ang^3
#
#
#
# Elastic Constant Matrix: (Units=GPa)
#
#
# Indices 1 2 3 4 5 6 
#
# 1 284.9309 89.0957 63.1207 -6.5827 -60.8095 57.2317
# 2 89.0957 171.3583 33.2015 -1.9375 -18.4513 26.7926
# 3 63.1207 33.2015 56.1880 -10.6961 -29.5902 20.3529
# 4 -6.5827 -1.9375 -10.6961 38.9568 18.5176 -7.4112
# 5 -60.8095 -18.4513 -29.5902 18.5176 52.5390 -24.9081
# 6 57.2317 26.7926 20.3529 -7.4112 -24.9081 57.0819
#
#
#
# Elastic Compliance Matrix: (Units=1/GPa)
#
#
# Indices 1 2 3 4 5 6 
#
# 1 0.006149 -0.001741 -0.003079 -0.002484 0.004386 -0.002659
# 2 -0.001741 0.007320 -0.002724 -0.000195 -0.001591 -0.001439
# 3 -0.003079 -0.002724 0.029320 0.002083 0.010718 -0.001142
# 4 -0.002484 -0.000195 0.002083 0.032001 -0.012870 0.000378
# 5 0.004386 -0.001591 0.010718 -0.012870 0.037559 0.007246
# 6 -0.002659 -0.001439 -0.001142 0.000378 0.007246 0.024478
#
#
# Mechanical properties :
#
#
# Convention : Reuss Voigt Hill
#
# Bulk Modulus (GPa) = 36.09841 98.14588 67.12215
# Shear Modulus (GPa) = 31.02762 51.51950 41.27356
#
# Velocity S-wave (km/s) = 3.39871 4.37951 3.91990
# Velocity P-wave (km/s) = 5.37034 7.88111 6.74361
#
# Compressibility (1/GPa) = 0.02770205
#
# Stress axis : x y z
#
# Youngs Moduli (GPa) = 162.63820 136.61328 34.10661
#
# Poissons Ratio (x) = 0.23778 0.10500
# Poissons Ratio (y) = 0.28307 0.09291
# Poissons Ratio (z) = 0.50070 0.37214
#
# Static dielectric constant tensor:
#      x y z
#    x 1.962530 0.087120 -0.017840 
#    y 0.087120 2.033110 0.019590 
#    z -0.017840 0.019590 2.222120 
# 
# From -- ./inp_files/15528.got.cif
#   From: 2010.05.17/outbox.cif.g08.bks.cpg/sg2_8_cif.got.tgz:15528.got - 2010.06.03 11:33:40.
