data_PCOD9101380
_publ_section_title
;
Structure prediction by ZEFSAII (Michael W. Deem and Ramdas Pophale) SiO2 
 PCOD9101380
Probable space group: P -1
;
_chemical_formula_sum "Si O2"
_cell_formula_units_Z 14
_cell_length_a 8.957194
_cell_length_b 12.244722
_cell_length_c 13.432359
_cell_angle_alpha 147.664442
_cell_angle_beta 58.787285
_cell_angle_gamma 99.859999
_cell_volume 547.639514
_symmetry_space_group_name_H-M "P -1"
_symmetry_group_IT_number 2
_symmetry_cell_setting 'triclinic'
loop_
_space_group_symop_operation_xyz
x,y,z
-x,-y,-z
loop_
_atom_site_type_symbol
_atom_site_label
_atom_site_fract_x
_atom_site_fract_y
_atom_site_fract_z
Si Si1 0.551177 0.088768 0.260319
Si Si2 0.071316 0.746126 0.225997
Si Si3 0.653650 0.403996 0.178358
Si Si4 0.255866 0.203870 0.773081
Si Si5 0.176042 0.328348 0.422117
Si Si6 0.735136 0.581419 0.751351
Si Si7 0.984358 0.850970 0.002043
O O1 0.394743 0.329476 0.568782
O O2 0.399771 0.152306 0.265499
O O3 0.619293 0.809068 0.045229
O O4 0.780933 0.056176 0.160263
O O5 0.869453 0.773307 0.266370
O O6 0.221442 0.701812 0.048081
O O7 0.198798 0.477661 0.030714
O O8 0.000000 0.000000 0.500000
O O9 0.425222 0.464208 0.279013
O O10 0.801297 0.204704 0.060822
O O11 0.500000 0.000000 0.500000
O O12 0.151901 0.136107 0.844156
O O13 0.209988 0.311216 0.279572
O O14 0.962346 0.336341 0.520714
O O15 0.086941 0.601839 0.708028
#
# Coordination Sequence:
#
# PCOD9101380 Si02
#       7
#     2   2   2   2   2   2   2
#     4  10  20  38  59  81 117 158 195 239 295 356
#     4  10  23  40  61  92 121 154 205 254 303 366
#     4  10  22  38  59  88 118 151 197 248 299 357
#     4  10  21  40  63  86 122 163 198 249 309 361
#     4   9  20  38  58  86 118 153 198 242 294 358
#     4  10  21  38  60  86 118 153 195 247 298 353
#     4   9  20  37  58  86 120 156 196 243 297 359
#
# _framework density 25.564263
#
# number of rings (size 3 to 8) (size 9 to 14) (size 15 to 20)
#    0.000    2.286    0.000    1.286    0.000   12.000 
#    0.000   11.429    0.000    0.000    0.000    0.000 
#    0.000    0.000    0.000    0.000    0.000    0.000 
#
# Total GULP energy -78051.932183 kJ/mol
# GULP energy per Si atom -5575.138013 kJ/mol
# Density = 2.550608 g / cm^3
# Si number density = 25.564263 Si / 1000 Ang^3
#
#
#
# Elastic Constant Matrix: (Units=GPa)
#
#
# Indices 1 2 3 4 5 6 
#
# 1 182.7503 15.3409 46.3995 12.7135 -30.2451 -19.3983
# 2 15.3409 47.7917 20.0756 10.1621 -1.7455 -12.5530
# 3 46.3995 20.0756 195.0380 11.4980 4.1819 -6.4275
# 4 12.7135 10.1621 11.4980 21.6058 -4.4955 -1.2082
# 5 -30.2451 -1.7455 4.1819 -4.4955 60.6388 5.1364
# 6 -19.3983 -12.5530 -6.4275 -1.2082 5.1364 26.5545
#
#
#
# Elastic Compliance Matrix: (Units=1/GPa)
#
#
# Indices 1 2 3 4 5 6 
#
# 1 0.006938 0.000087 -0.001444 -0.002497 0.003033 0.004060
# 2 0.000087 0.027219 -0.001726 -0.011448 -0.000934 0.012173
# 3 -0.001444 -0.001726 0.005765 -0.001687 -0.001266 -0.000307
# 4 -0.002497 -0.011448 -0.001687 0.054350 0.003059 -0.005763
# 5 0.003033 -0.000934 -0.001266 0.003059 0.018458 -0.001963
# 6 0.004060 0.012173 -0.000307 -0.005763 -0.001963 0.046421
#
#
# Mechanical properties :
#
#
# Convention : Reuss Voigt Hill
#
# Bulk Modulus (GPa) = 29.62400 65.46800 47.54600
# Shear Modulus (GPa) = 28.31779 44.67742 36.49760
#
# Velocity S-wave (km/s) = 3.33184 4.18503 3.78257
# Velocity P-wave (km/s) = 5.13953 7.00124 6.14134
#
# Compressibility (1/GPa) = 0.03375641
#
# Stress axis : x y z
#
# Youngs Moduli (GPa) = 144.13799 36.73941 173.46605
#
# Poissons Ratio (x) = -0.00321 0.25041
# Poissons Ratio (y) = -0.01261 0.29947
# Poissons Ratio (z) = 0.20807 0.06343
#
# Static dielectric constant tensor:
#      x y z
#    x 2.176050 0.043370 -0.100400 
#    y 0.043370 2.131960 0.034450 
#    z -0.100400 0.034450 2.043510 
# 
# From -- ./inp_files/505729.got.cif
#   From: 2010.05.17/outbox.cif.g08.bks.cpg/sg2_253_cif.got.tgz:505729.got - 2010.06.03 11:33:40.
