data_PCOD9101406
_publ_section_title
;
Structure prediction by ZEFSAII (Michael W. Deem and Ramdas Pophale) SiO2 
 PCOD9101406
Probable space group: P -1
;
_chemical_formula_sum "Si O2"
_cell_formula_units_Z 16
_cell_length_a 14.276342
_cell_length_b 5.100827
_cell_length_c 17.772321
_cell_angle_alpha 80.160942
_cell_angle_beta 51.632777
_cell_angle_gamma 108.435275
_cell_volume 837.184349
_symmetry_space_group_name_H-M "P -1"
_symmetry_group_IT_number 2
_symmetry_cell_setting 'triclinic'
loop_
_space_group_symop_operation_xyz
x,y,z
-x,-y,-z
loop_
_atom_site_type_symbol
_atom_site_label
_atom_site_fract_x
_atom_site_fract_y
_atom_site_fract_z
Si Si1 0.326249 0.537517 0.556020
Si Si2 0.930220 0.967030 0.456434
Si Si3 0.743802 0.311646 0.823447
Si Si4 0.443886 0.669297 0.968433
Si Si5 0.970232 0.595663 0.337827
Si Si6 0.480400 0.349838 0.231532
Si Si7 0.300357 0.629369 0.319111
Si Si8 0.489053 0.274323 0.403272
O O1 0.162957 0.437710 0.638347
O O2 0.372430 0.338797 0.492802
O O3 0.377986 0.543154 0.614921
O O4 0.422149 0.899833 0.461515
O O5 0.010116 0.878867 0.361434
O O6 0.781935 0.625799 0.561348
O O7 0.916900 0.254994 0.421348
O O8 0.000000 0.000000 0.500000
O O9 0.787441 0.471587 0.710683
O O10 0.878223 0.295106 0.779967
O O11 0.585230 0.023002 0.890709
O O12 0.699885 0.417699 0.914255
O O13 0.426493 0.592085 0.892386
O O14 0.500000 0.500000 0.000000
O O15 0.432444 0.596440 0.238447
O O16 0.529795 0.369688 0.291403
O O17 0.347456 0.980932 0.303926
#
# Coordination Sequence:
#
# PCOD9101406 Si02
#       8
#     2   2   2   2   2   2   2   2
#     4  10  21  38  58  83 116 146 184 224 281 337
#     4  12  24  34  50  81 120 152 181 216 266 343
#     4  10  23  36  53  77 111 151 187 227 279 327
#     4  10  21  39  55  76 109 148 193 238 276 327
#     4  12  24  37  55  81 116 156 184 223 280 336
#     4  11  21  34  60  80 106 145 192 232 276 321
#     4  11  21  34  52  80 114 148 181 219 271 336
#     4  10  20  38  59  84 112 146 184 233 275 335
#
# _framework density 19.11168
#
# number of rings (size 3 to 8) (size 9 to 14) (size 15 to 20)
#    0.000    1.250    2.500    4.875    5.250    0.000 
#    0.000    0.000    0.000    0.750    0.000    0.875 
#    0.000    0.000    0.000    0.000    0.000    0.000 
#
# Total GULP energy -89087.871806 kJ/mol
# GULP energy per Si atom -5567.991988 kJ/mol
# Density = 1.906818 g / cm^3
# Si number density = 19.111680 Si / 1000 Ang^3
#
#
#
# Elastic Constant Matrix: (Units=GPa)
#
#
# Indices 1 2 3 4 5 6 
#
# 1 129.2690 20.8532 55.3947 24.0896 1.5556 4.6035
# 2 20.8532 61.7961 14.8528 7.7266 8.8642 -8.6568
# 3 55.3947 14.8528 81.6003 32.5801 1.7313 3.5959
# 4 24.0896 7.7266 32.5801 36.1183 -2.9379 5.5827
# 5 1.5556 8.8642 1.7313 -2.9379 36.3338 5.0589
# 6 4.6035 -8.6568 3.5959 5.5827 5.0589 29.1038
#
#
#
# Elastic Compliance Matrix: (Units=1/GPa)
#
#
# Indices 1 2 3 4 5 6 
#
# 1 0.011235 -0.002391 -0.006982 -0.000375 0.000636 -0.001664
# 2 -0.002391 0.019622 -0.000689 -0.003724 -0.006077 0.008070
# 3 -0.006982 -0.000689 0.023998 -0.017285 -0.002304 0.001651
# 4 -0.000375 -0.003724 -0.017285 0.046257 0.006735 -0.008957
# 5 0.000636 -0.006077 -0.002304 0.006735 0.030783 -0.008266
# 6 -0.001664 0.008070 0.001651 -0.008957 -0.008266 0.039974
#
#
# Mechanical properties :
#
#
# Convention : Reuss Voigt Hill
#
# Bulk Modulus (GPa) = 28.79235 50.54075 39.66655
# Shear Modulus (GPa) = 24.56154 32.41550 28.48852
#
# Velocity S-wave (km/s) = 3.58880 4.12285 3.86506
# Velocity P-wave (km/s) = 5.68073 7.01187 6.38110
#
# Compressibility (1/GPa) = 0.03473144
#
# Stress axis : x y z
#
# Youngs Moduli (GPa) = 89.00784 50.96246 41.67076
#
# Poissons Ratio (x) = 0.12183 0.29096
# Poissons Ratio (y) = 0.21278 0.02870
# Poissons Ratio (z) = 0.62149 0.03510
#
# Static dielectric constant tensor:
#      x y z
#    x 1.726060 0.004630 0.036820 
#    y 0.004630 1.741370 0.025990 
#    z 0.036820 0.025990 1.451570 
# 
# From -- ./inp_files/571536.got.cif
#   From: 2010.05.17/outbox.cif.g08.bks.cpg/sg2_286_cif.got.tgz:571536.got - 2010.06.03 11:33:40.
