data_PCOD9101638
_publ_section_title
;
Structure prediction by ZEFSAII (Michael W. Deem and Ramdas Pophale) SiO2 
 PCOD9101638
Probable space group: P -1
;
_chemical_formula_sum "Si O2"
_cell_formula_units_Z 15
_cell_length_a 14.271723
_cell_length_b 26.110600
_cell_length_c 11.110362
_cell_angle_alpha 26.631349
_cell_angle_beta 31.756229
_cell_angle_gamma 19.400623
_cell_volume 615.746539
_symmetry_space_group_name_H-M "P -1"
_symmetry_group_IT_number 2
_symmetry_cell_setting 'triclinic'
loop_
_space_group_symop_operation_xyz
x,y,z
-x,-y,-z
loop_
_atom_site_type_symbol
_atom_site_label
_atom_site_fract_x
_atom_site_fract_y
_atom_site_fract_z
Si Si1 0.072877 0.072371 0.683976
Si Si2 0.869258 0.210530 0.347066
Si Si3 0.316002 0.323753 0.163418
Si Si4 0.099264 0.388741 0.507417
Si Si5 0.690277 0.403199 0.814083
Si Si6 0.811147 0.984984 0.812358
Si Si7 0.500000 0.000000 0.000000
Si Si8 0.846656 0.395273 0.404949
O O1 0.931904 0.148790 0.545361
O O2 0.987966 0.228710 0.518836
O O3 0.402954 0.889477 0.685984
O O4 0.000000 0.000000 0.000000
O O5 0.628577 0.426024 0.148255
O O6 0.139941 0.102795 0.191340
O O7 0.779538 0.135370 0.540182
O O8 0.207180 0.410753 0.231997
O O9 0.087606 0.355042 0.284768
O O10 0.346009 0.421598 0.844343
O O11 0.351155 0.184072 0.706092
O O12 0.000000 0.500000 0.500000
O O13 0.853149 0.431022 0.633408
O O14 0.685984 0.419249 0.642068
O O15 0.906314 0.193014 0.052000
O O16 0.519798 0.067321 0.974981
#
# Coordination Sequence:
#
# PCOD9101638 Si02
#       8
#     2   2   2   2   2   2   1   2
#     4  12  25  40  63  93 125 165 208 255 310 367
#     4  11  23  38  58  88 122 157 197 249 308 365
#     4  10  23  43  65  91 123 163 210 257 308 364
#     4  10  21  37  62  92 120 154 199 252 306 363
#     4  10  21  38  59  85 118 158 198 245 303 360
#     4  10  22  39  60  86 120 157 199 250 305 365
#     4  10  20  38  60  86 118 156 200 244 298 360
#     4  10  23  43  65  88 121 164 210 257 304 364
#
# _framework density 24.360673999999999
#
# number of rings (size 3 to 8) (size 9 to 14) (size 15 to 20)
#    0.000    1.600    0.000    4.000    0.000    7.467 
#    0.000   10.667    0.000    0.000    0.000    0.000 
#    0.000    0.000    0.000    0.000    0.000    0.000 
#
# Total GULP energy -83742.617010 kJ/mol
# GULP energy per Si atom -5582.841134 kJ/mol
# Density = 2.430523 g / cm^3
# Si number density = 24.360674 Si / 1000 Ang^3
#
#
#
# Elastic Constant Matrix: (Units=GPa)
#
#
# Indices 1 2 3 4 5 6 
#
# 1 120.2611 45.2405 48.2838 -5.4238 13.6234 23.0656
# 2 45.2405 83.2594 10.0424 -8.2764 6.4220 5.1872
# 3 48.2838 10.0424 107.0968 0.1534 16.2242 7.5023
# 4 -5.4238 -8.2764 0.1534 27.2900 7.0268 8.9943
# 5 13.6234 6.4220 16.2242 7.0268 44.0684 -2.2180
# 6 23.0656 5.1872 7.5023 8.9943 -2.2180 47.1953
#
#
#
# Elastic Compliance Matrix: (Units=1/GPa)
#
#
# Indices 1 2 3 4 5 6 
#
# 1 0.014379 -0.006231 -0.005064 0.003767 -0.002594 -0.006378
# 2 -0.006231 0.015689 0.001544 0.003812 -0.001522 0.000277
# 3 -0.005064 0.001544 0.011920 0.000098 -0.003051 0.000248
# 4 0.003767 0.003812 0.000098 0.044683 -0.009446 -0.011235
# 5 -0.002594 -0.001522 -0.003051 -0.009446 0.026596 0.004970
# 6 -0.006378 0.000277 0.000248 -0.011235 0.004970 0.026610
#
#
# Mechanical properties :
#
#
# Convention : Reuss Voigt Hill
#
# Bulk Modulus (GPa) = 44.47123 57.52784 50.99954
# Shear Modulus (GPa) = 29.96257 37.51411 33.73834
#
# Velocity S-wave (km/s) = 3.51088 3.92847 3.72553
# Velocity P-wave (km/s) = 5.89322 6.65158 6.28385
#
# Compressibility (1/GPa) = 0.02248645
#
# Stress axis : x y z
#
# Youngs Moduli (GPa) = 69.54459 63.73893 83.88949
#
# Poissons Ratio (x) = 0.39713 0.42483
# Poissons Ratio (y) = 0.43330 -0.12949
# Poissons Ratio (z) = 0.35218 -0.09839
#
# Static dielectric constant tensor:
#      x y z
#    x 2.036120 -0.093230 -0.027830 
#    y -0.093230 2.111840 0.129080 
#    z -0.027830 0.129080 1.985820 
# 
# From -- ./inp_files/458244.got.cif
#   From: 2010.05.17/outbox.cif.g08.bks.cpg/sg2_230_cif.got.tgz:458244.got - 2010.06.03 11:33:40.
