data_PCOD9101963
_publ_section_title
;
Structure prediction by ZEFSAII (Michael W. Deem and Ramdas Pophale) SiO2 
 PCOD9101963
Probable space group: P -1
;
_chemical_formula_sum "Si O2"
_cell_formula_units_Z 16
_cell_length_a 15.912720
_cell_length_b 13.488402
_cell_length_c 13.142031
_cell_angle_alpha 31.701608
_cell_angle_beta 40.435934
_cell_angle_gamma 24.840464
_cell_volume 621.937942
_symmetry_space_group_name_H-M "P -1"
_symmetry_group_IT_number 2
_symmetry_cell_setting 'triclinic'
loop_
_space_group_symop_operation_xyz
x,y,z
-x,-y,-z
loop_
_atom_site_type_symbol
_atom_site_label
_atom_site_fract_x
_atom_site_fract_y
_atom_site_fract_z
Si Si1 0.391729 0.382678 0.689360
Si Si2 0.222005 0.616874 0.343525
Si Si3 0.433669 0.894987 0.419867
Si Si4 0.499867 0.225763 0.266185
Si Si5 0.282246 0.068076 0.045805
Si Si6 0.379367 0.362015 0.031206
Si Si7 0.882119 0.819303 0.358807
Si Si8 0.063972 0.822949 0.753748
O O1 0.499006 0.326341 0.535159
O O2 0.209450 0.698948 0.632201
O O3 0.573782 0.154838 0.799694
O O4 0.298794 0.276530 0.848018
O O5 0.349456 0.306772 0.550997
O O6 0.402101 0.471306 0.227572
O O7 0.053267 0.764443 0.287226
O O8 0.107344 0.843632 0.343243
O O9 0.348857 0.173483 0.201190
O O10 0.266481 0.032600 0.536296
O O11 0.383266 0.371768 0.140483
O O12 0.500000 0.000000 0.500000
O O13 0.732298 0.024967 0.225005
O O14 0.060862 0.229399 0.107987
O O15 0.398877 0.849777 0.031638
O O16 0.212456 0.644602 0.870094
O O17 0.000000 0.500000 0.500000
#
# Coordination Sequence:
#
# PCOD9101963 Si02
#       8
#     2   2   2   2   2   2   2   2
#     4   9  20  39  62  88 118 156 207 246 291 363
#     4  11  24  39  57  92 124 157 199 247 302 358
#     4  10  21  38  61  90 119 154 204 251 293 355
#     4  11  20  40  60  87 122 152 196 251 295 352
#     4   9  20  39  62  86 120 159 199 248 299 352
#     4  10  20  38  61  89 116 154 205 246 294 362
#     4  11  20  37  65  87 117 159 199 250 298 349
#     4  11  24  39  59  88 127 157 197 249 303 353
#
# _framework density 25.726039
#
# number of rings (size 3 to 8) (size 9 to 14) (size 15 to 20)
#    0.000    1.750    3.750    1.125    0.000   10.000 
#    0.000    2.500    0.000    0.000    0.000    0.000 
#    0.000    0.000    0.000    0.000    0.000    0.000 
#
# Total GULP energy -89225.701138 kJ/mol
# GULP energy per Si atom -5576.606321 kJ/mol
# Density = 2.566748 g / cm^3
# Si number density = 25.726039 Si / 1000 Ang^3
#
#
#
# Elastic Constant Matrix: (Units=GPa)
#
#
# Indices 1 2 3 4 5 6 
#
# 1 85.0259 49.8541 10.9616 -0.8802 0.6732 20.8138
# 2 49.8541 179.5463 37.5137 -20.5834 9.4857 29.1517
# 3 10.9616 37.5137 51.0785 -15.6401 0.6873 9.4754
# 4 -0.8802 -20.5834 -15.6401 31.9115 2.9415 -0.0526
# 5 0.6732 9.4857 0.6873 2.9415 38.9220 5.8885
# 6 20.8138 29.1517 9.4754 -0.0526 5.8885 62.7953
#
#
#
# Elastic Compliance Matrix: (Units=1/GPa)
#
#
# Indices 1 2 3 4 5 6 
#
# 1 0.014825 -0.003841 -0.000544 -0.002466 0.001356 -0.003178
# 2 -0.003841 0.008218 -0.003778 0.003512 -0.001864 -0.001794
# 3 -0.000544 -0.003778 0.025984 0.010280 -0.000006 -0.001977
# 4 -0.002466 0.003512 0.010280 0.038904 -0.003634 -0.001991
# 5 0.001356 -0.001864 -0.000006 -0.003634 0.026714 -0.002092
# 6 -0.003178 -0.001794 -0.001977 -0.001991 -0.002092 0.018304
#
#
# Mechanical properties :
#
#
# Convention : Reuss Voigt Hill
#
# Bulk Modulus (GPa) = 30.58065 56.92329 43.75197
# Shear Modulus (GPa) = 31.21575 41.21384 36.21480
#
# Velocity S-wave (km/s) = 3.48716 4.00688 3.75602
# Velocity P-wave (km/s) = 5.30344 6.60163 5.98782
#
# Compressibility (1/GPa) = 0.03270042
#
# Stress axis : x y z
#
# Youngs Moduli (GPa) = 67.45311 121.68633 38.48538
#
# Poissons Ratio (x) = 0.46741 0.02094
# Poissons Ratio (y) = 0.25909 0.14539
# Poissons Ratio (z) = 0.03671 0.45972
#
# Static dielectric constant tensor:
#      x y z
#    x 2.114190 0.066450 -0.035970 
#    y 0.066450 2.025970 0.063930 
#    z -0.035970 0.063930 2.087120 
# 
# From -- ./inp_files/538874.got.cif
#   From: 2010.05.17/outbox.cif.g08.bks.cpg/sg2_270_cif.got.tgz:538874.got - 2010.06.03 11:33:40.
