data_PCOD9101165
_publ_section_title
;
Structure prediction by ZEFSAII (Michael W. Deem and Ramdas Pophale) SiO2 
 PCOD9101165
Probable space group: P -1
;
_chemical_formula_sum "Si O2"
_cell_formula_units_Z 12
_cell_length_a 7.428627
_cell_length_b 16.451316
_cell_length_c 7.633366
_cell_angle_alpha 134.857362
_cell_angle_beta 55.861294
_cell_angle_gamma 137.879786
_cell_volume 442.096026
_symmetry_space_group_name_H-M "P -1"
_symmetry_group_IT_number 2
_symmetry_cell_setting 'triclinic'
loop_
_space_group_symop_operation_xyz
x,y,z
-x,-y,-z
loop_
_atom_site_type_symbol
_atom_site_label
_atom_site_fract_x
_atom_site_fract_y
_atom_site_fract_z
Si Si1 0.296500 0.554304 0.869552
Si Si2 0.904549 0.215498 0.089991
Si Si3 0.309653 0.083086 0.117315
Si Si4 0.057928 0.849078 0.414317
Si Si5 0.369136 0.522331 0.434068
Si Si6 0.526845 0.849203 0.271487
O O1 0.292910 0.599035 0.727038
O O2 0.380685 0.457322 0.774232
O O3 0.496732 0.705213 0.085677
O O4 0.000000 0.500000 0.000000
O O5 0.591541 0.155696 0.174277
O O6 0.098061 0.372826 0.303134
O O7 0.988982 0.219730 0.851588
O O8 0.889392 0.085445 0.991108
O O9 0.182903 0.163626 0.372443
O O10 0.366587 0.095525 0.899292
O O11 0.231935 0.816528 0.390208
O O12 0.270210 0.019744 0.517685
O O13 0.500000 0.500000 0.500000
#
# Coordination Sequence:
#
# PCOD9101165 Si02
#       6
#     2   2   2   2   2   2
#     4   9  20  36  58  81 106 151 192 229 266 332
#     4  10  20  38  56  89 114 142 192 226 283 333
#     4  10  21  34  59  87 117 148 172 239 288 329
#     4  10  21  34  58  87 116 148 176 234 284 334
#     4   8  21  37  58  82 106 149 192 234 264 329
#     4  10  21  37  54  88 117 142 191 225 283 337
#
# _framework density 27.143425000000001
#
# number of rings (size 3 to 8) (size 9 to 14) (size 15 to 20)
#    1.000    1.333    0.000    2.000    0.000    9.333 
#    0.000    3.333    0.000    6.000    0.000    0.000 
#    0.000    0.000    0.000    0.000    0.000    0.000 
#
# Total GULP energy -66800.945843 kJ/mol
# GULP energy per Si atom -5566.745487 kJ/mol
# Density = 2.708165 g / cm^3
# Si number density = 27.143425 Si / 1000 Ang^3
#
#
#
# Elastic Constant Matrix: (Units=GPa)
#
#
# Indices 1 2 3 4 5 6 
#
# 1 77.4169 19.8943 29.3083 -6.8316 -9.9894 30.3297
# 2 19.8943 81.7979 32.7438 -15.4284 -3.1883 11.3946
# 3 29.3083 32.7438 131.4209 10.8643 -8.9238 9.7158
# 4 -6.8316 -15.4284 10.8643 50.9783 21.4455 -8.4841
# 5 -9.9894 -3.1883 -8.9238 21.4455 51.3220 10.3223
# 6 30.3297 11.3946 9.7158 -8.4841 10.3223 44.1944
#
#
#
# Elastic Compliance Matrix: (Units=1/GPa)
#
#
# Indices 1 2 3 4 5 6 
#
# 1 0.021541 -0.002496 -0.002080 -0.003746 0.008539 -0.016395
# 2 -0.002496 0.015533 -0.004127 0.006680 -0.003158 0.000635
# 3 -0.002080 -0.004127 0.009917 -0.005444 0.003657 -0.001588
# 4 -0.003746 0.006680 -0.005444 0.031343 -0.016767 0.011979
# 5 0.008539 -0.003158 0.003657 -0.016767 0.031916 -0.016523
# 6 -0.016395 0.000635 -0.001588 0.011979 -0.016523 0.040223
#
#
# Mechanical properties :
#
#
# Convention : Reuss Voigt Hill
#
# Bulk Modulus (GPa) = 33.80234 50.50315 42.15275
# Shear Modulus (GPa) = 28.13082 43.21157 35.67120
#
# Velocity S-wave (km/s) = 3.22277 3.99428 3.62909
# Velocity P-wave (km/s) = 5.13114 6.31813 5.75532
#
# Compressibility (1/GPa) = 0.02958375
#
# Stress axis : x y z
#
# Youngs Moduli (GPa) = 46.42413 64.38017 100.83600
#
# Poissons Ratio (x) = 0.16070 0.20977
# Poissons Ratio (y) = 0.11588 0.41615
# Poissons Ratio (z) = 0.09657 0.26570
#
# Static dielectric constant tensor:
#      x y z
#    x 2.136600 -0.023260 0.011850 
#    y -0.023260 2.038000 0.031640 
#    z 0.011850 0.031640 1.768870 
# 
# From -- ./inp_files/222541.got.cif
#   From: 2010.05.17/outbox.cif.g08.bks.cpg/sg2_112_cif.got.tgz:222541.got - 2010.06.03 11:33:40.
