data_PCOD9101211
_publ_section_title
;
Structure prediction by ZEFSAII (Michael W. Deem and Ramdas Pophale) SiO2 
 PCOD9101211
Probable space group: P -1
;
_chemical_formula_sum "Si O2"
_cell_formula_units_Z 16
_cell_length_a 25.870347
_cell_length_b 14.612922
_cell_length_c 17.371623
_cell_angle_alpha 21.077194
_cell_angle_beta 20.425484
_cell_angle_gamma 20.178189
_cell_volume 708.242306
_symmetry_space_group_name_H-M "P -1"
_symmetry_group_IT_number 2
_symmetry_cell_setting 'triclinic'
loop_
_space_group_symop_operation_xyz
x,y,z
-x,-y,-z
loop_
_atom_site_type_symbol
_atom_site_label
_atom_site_fract_x
_atom_site_fract_y
_atom_site_fract_z
Si Si1 0.553774 0.024965 0.607071
Si Si2 0.143979 0.190822 0.875634
Si Si3 0.596464 0.645081 0.294033
Si Si4 0.188067 0.737748 0.965105
Si Si5 0.720451 0.456749 0.516815
Si Si6 0.850062 0.593174 0.858685
Si Si7 0.100244 0.872580 0.622974
Si Si8 0.379125 0.553390 0.992646
O O1 0.517057 0.087600 0.700030
O O2 0.689880 0.124868 0.321735
O O3 0.385123 0.247246 0.620258
O O4 0.613119 0.689095 0.769880
O O5 0.182881 0.453085 0.627662
O O6 0.002550 0.302356 0.916921
O O7 0.059271 0.147626 0.105118
O O8 0.310407 0.878533 0.867289
O O9 0.500000 0.500000 0.500000
O O10 0.737207 0.384902 0.355772
O O11 0.694144 0.733376 0.027101
O O12 0.219406 0.488629 0.055157
O O13 0.235850 0.605082 0.087791
O O14 0.000000 0.000000 0.000000
O O15 0.851663 0.202348 0.475270
O O16 0.569856 0.421207 0.793577
O O17 0.914272 0.820172 0.575657
#
# Coordination Sequence:
#
# PCOD9101211 Si02
#       8
#     2   2   2   2   2   2   2   2
#     4  10  23  40  61  88 122 156 198 245 297 352
#     4  11  24  41  63  89 121 155 203 251 293 352
#     4  10  20  38  57  87 120 155 197 242 287 351
#     4  11  23  39  57  87 130 156 192 247 291 355
#     4  10  23  45  61  88 122 153 202 255 293 349
#     4  11  23  39  61  91 122 157 198 242 298 357
#     4  10  24  39  62  91 117 160 200 240 305 353
#     4  11  24  39  64  91 116 163 200 240 304 354
#
# _framework density 22.591138999999998
#
# number of rings (size 3 to 8) (size 9 to 14) (size 15 to 20)
#    0.000    1.500    2.500    1.500    3.500    3.000 
#    0.000    0.000    0.000    0.000    0.000    0.000 
#    0.000    0.000    0.000    0.000    0.000    0.000 
#
# Total GULP energy -89439.680541 kJ/mol
# GULP energy per Si atom -5589.980034 kJ/mol
# Density = 2.253972 g / cm^3
# Si number density = 22.591139 Si / 1000 Ang^3
#
#
#
# Elastic Constant Matrix: (Units=GPa)
#
#
# Indices 1 2 3 4 5 6 
#
# 1 53.8139 -7.3804 3.1074 7.7646 -10.9048 5.4340
# 2 -7.3804 41.9744 14.7643 -0.4673 15.6784 10.6481
# 3 3.1074 14.7643 58.2941 -12.0957 -18.6293 -9.0076
# 4 7.7646 -0.4673 -12.0957 32.9044 -3.0160 -4.2340
# 5 -10.9048 15.6784 -18.6293 -3.0160 10.4338 -3.4547
# 6 5.4340 10.6481 -9.0076 -4.2340 -3.4547 22.2246
#
#
#
# Elastic Compliance Matrix: (Units=1/GPa)
#
#
# Indices 1 2 3 4 5 6 
#
# 1 0.022713 0.004368 -0.002729 -0.006766 0.007404 -0.008890
# 2 0.004368 0.001003 0.016217 0.010230 0.039301 0.013082
# 3 -0.002729 0.016217 -0.000916 -0.004403 -0.034664 -0.013701
# 4 -0.006766 0.010230 -0.004403 0.027947 -0.023331 -0.003334
# 5 0.007404 0.039301 -0.034664 -0.023331 -0.039079 -0.045208
# 6 -0.008890 0.013082 -0.013701 -0.003334 -0.045208 0.027686
#
#
# Mechanical properties :
#
#
# Convention : Reuss Voigt Hill
#
# Bulk Modulus (GPa) = 17.09012 19.45167 18.27090
# Shear Modulus (GPa) = 216.01021 22.68531 119.34776
#
# Velocity S-wave (km/s) = 9.78901 3.17230 7.27627
# Velocity P-wave (km/s) = 11.63391 4.69542 8.87115
#
# Compressibility (1/GPa) = 0.05851333
#
# Stress axis : x y z
#
# Youngs Moduli (GPa) = 44.02674 996.53113 -1092.13954
#
# Poissons Ratio (x) = -4.35282 -2.98003
# Poissons Ratio (y) = -0.19231 17.71084
# Poissons Ratio (z) = 0.12013 -16.16039
#
# Static dielectric constant tensor:
#      x y z
#    x 1.896090 0.023370 0.002110 
#    y 0.023370 1.849760 -0.003240 
#    z 0.002110 -0.003240 1.834930 
# 
# From -- ./inp_files/69571.got.cif
#   From: 2010.05.17/outbox.cif.g08.bks.cpg/sg2_35_cif.got.tgz:69571.got - 2010.06.03 11:33:40.
