data_PCOD9101648
_publ_section_title
;
Structure prediction by ZEFSAII (Michael W. Deem and Ramdas Pophale) SiO2 
 PCOD9101648
Probable space group: P -1
;
_chemical_formula_sum "Si O2"
_cell_formula_units_Z 16
_cell_length_a 15.313956
_cell_length_b 8.576496
_cell_length_c 10.484107
_cell_angle_alpha 137.245620
_cell_angle_beta 125.405252
_cell_angle_gamma 55.241296
_cell_volume 735.390153
_symmetry_space_group_name_H-M "P -1"
_symmetry_group_IT_number 2
_symmetry_cell_setting 'triclinic'
loop_
_space_group_symop_operation_xyz
x,y,z
-x,-y,-z
loop_
_atom_site_type_symbol
_atom_site_label
_atom_site_fract_x
_atom_site_fract_y
_atom_site_fract_z
Si Si1 0.542299 0.718444 0.713980
Si Si2 0.436529 0.244437 0.954349
Si Si3 0.891887 0.655334 0.576199
Si Si4 0.862025 0.993866 0.318665
Si Si5 0.236573 0.587148 0.847321
Si Si6 0.680923 0.039259 0.982621
Si Si7 0.952170 0.439748 0.128309
Si Si8 0.922799 0.069147 0.680470
O O1 0.500000 0.500000 0.500000
O O2 0.442928 0.963477 0.778643
O O3 0.640748 0.803019 0.775942
O O4 0.583477 0.679186 0.870552
O O5 0.346190 0.410219 0.890224
O O6 0.563699 0.235434 0.023855
O O7 0.795725 0.533045 0.381125
O O8 0.000000 0.500000 0.500000
O O9 0.930362 0.645323 0.749417
O O10 0.875832 0.909357 0.644682
O O11 0.849298 0.123437 0.522584
O O12 0.753338 0.009888 0.154254
O O13 0.916230 0.717774 0.233962
O O14 0.954860 0.065147 0.352089
O O15 0.138617 0.603984 0.875138
O O16 0.254100 0.846324 0.995119
O O17 0.942742 0.292167 0.906287
#
# Coordination Sequence:
#
# PCOD9101648 Si02
#       8
#     2   2   2   2   2   2   2   2
#     4   9  20  41  67  90 125 159 208 265 313 365
#     4   9  21  42  65  91 124 166 205 257 317 368
#     4  10  20  38  60  86 125 167 205 257 311 370
#     4  11  22  41  63  92 127 167 208 260 320 361
#     4  11  21  41  65  90 130 170 210 255 318 373
#     4  10  22  40  66  91 126 169 207 258 314 376
#     4  11  23  40  61  93 127 165 213 258 313 377
#     4  11  23  39  66  88 129 166 210 261 313 372
#
# _framework density 21.757158
#
# number of rings (size 3 to 8) (size 9 to 14) (size 15 to 20)
#    0.750    1.000    2.500    3.375    1.750    0.000 
#    9.000    1.875    0.000    0.000    0.000    0.000 
#    0.000    0.000    0.000    0.000    0.000    0.000 
#
# Total GULP energy -89292.838882 kJ/mol
# GULP energy per Si atom -5580.802430 kJ/mol
# Density = 2.170764 g / cm^3
# Si number density = 21.757158 Si / 1000 Ang^3
#
#
#
# Elastic Constant Matrix: (Units=GPa)
#
#
# Indices 1 2 3 4 5 6 
#
# 1 47.4443 28.5090 27.9587 -1.3801 20.6982 10.0913
# 2 28.5090 112.3136 75.3789 -20.1884 10.8275 8.6459
# 3 27.9587 75.3789 179.2294 0.0396 6.0394 5.1573
# 4 -1.3801 -20.1884 0.0396 28.6353 4.3000 15.5177
# 5 20.6982 10.8275 6.0394 4.3000 32.4578 2.6340
# 6 10.0913 8.6459 5.1573 15.5177 2.6340 26.7651
#
#
#
# Elastic Compliance Matrix: (Units=1/GPa)
#
#
# Indices 1 2 3 4 5 6 
#
# 1 0.040086 0.000771 -0.005071 0.018588 -0.025501 -0.022653
# 2 0.000771 0.021890 -0.008442 0.028269 -0.008239 -0.021314
# 3 -0.005071 -0.008442 0.009484 -0.011999 0.005123 0.009264
# 4 0.018588 0.028269 -0.011999 0.095957 -0.026337 -0.066870
# 5 -0.025501 -0.008239 0.005123 -0.026337 0.050604 0.021578
# 6 -0.022653 -0.021314 0.009264 -0.066870 0.021578 0.087649
#
#
# Mechanical properties :
#
#
# Convention : Reuss Voigt Hill
#
# Bulk Modulus (GPa) = 21.74956 66.96450 44.35703
# Shear Modulus (GPa) = 14.43090 31.38102 22.90596
#
# Velocity S-wave (km/s) = 2.57820 3.80192 3.24821
# Velocity P-wave (km/s) = 4.34523 7.07939 5.87362
#
# Compressibility (1/GPa) = 0.04597794
#
# Stress axis : x y z
#
# Youngs Moduli (GPa) = 24.94643 45.68267 105.43654
#
# Poissons Ratio (x) = -0.03524 0.53462
# Poissons Ratio (y) = -0.01924 0.89010
# Poissons Ratio (z) = 0.12649 0.38565
#
# Static dielectric constant tensor:
#      x y z
#    x 1.838290 0.022720 0.019140 
#    y 0.022720 1.807210 0.000950 
#    z 0.019140 0.000950 1.826730 
# 
# From -- ./inp_files/460886.got.cif
#   From: 2010.05.17/outbox.cif.g08.bks.cpg/sg2_231_cif.got.tgz:460886.got - 2010.06.03 11:33:40.
