data_PCOD9101325
_publ_section_title
;
Structure prediction by ZEFSAII (Michael W. Deem and Ramdas Pophale) SiO2 
 PCOD9101325
Probable space group: P -1
;
_chemical_formula_sum "Si O2"
_cell_formula_units_Z 14
_cell_length_a 8.658690
_cell_length_b 13.337317
_cell_length_c 9.456573
_cell_angle_alpha 125.313917
_cell_angle_beta 64.927259
_cell_angle_gamma 72.095270
_cell_volume 536.271849
_symmetry_space_group_name_H-M "P -1"
_symmetry_group_IT_number 2
_symmetry_cell_setting 'triclinic'
loop_
_space_group_symop_operation_xyz
x,y,z
-x,-y,-z
loop_
_atom_site_type_symbol
_atom_site_label
_atom_site_fract_x
_atom_site_fract_y
_atom_site_fract_z
Si Si1 0.264940 0.456346 0.605745
Si Si2 0.722700 0.587077 0.763544
Si Si3 0.562300 0.025477 0.847552
Si Si4 0.951647 0.653964 0.286115
Si Si5 0.795216 0.227396 0.765103
Si Si6 0.930711 0.127885 0.350757
Si Si7 0.169441 0.776946 0.836192
O O1 0.117738 0.455662 0.781207
O O2 0.199007 0.458145 0.468659
O O3 0.217675 0.625893 0.774408
O O4 0.574400 0.280560 0.338952
O O5 0.708828 0.265519 0.663717
O O6 0.905515 0.430417 0.683589
O O7 0.447341 0.667478 0.956290
O O8 0.644422 0.771986 0.972494
O O9 0.662801 0.864081 0.577357
O O10 0.814927 0.965752 0.744009
O O11 0.500000 0.000000 0.000000
O O12 0.094959 0.693616 0.190656
O O13 0.000000 0.000000 0.500000
O O14 0.914301 0.211009 0.280010
O O15 0.970520 0.967699 0.152585
#
# Coordination Sequence:
#
# PCOD9101325 Si02
#       7
#     2   2   2   2   2   2   2
#     4  11  21  38  59  93 115 156 199 246 294 348
#     4  12  22  37  64  93 123 152 189 254 314 352
#     4  11  20  35  60  94 121 148 193 256 304 343
#     4  11  23  36  59  95 122 150 200 250 306 349
#     4  11  21  40  63  89 121 157 189 253 315 352
#     4  10  20  38  58  88 114 161 199 235 295 357
#     4  10  21  36  61  83 122 160 200 241 279 357
#
# _framework density 26.106164
#
# number of rings (size 3 to 8) (size 9 to 14) (size 15 to 20)
#    0.000    1.143    5.714    2.571    2.000    0.000 
#    0.000    0.000    0.000   15.429    0.000    0.000 
#    0.000    0.000    0.000    0.000    0.000    0.000 
#
# Total GULP energy -78094.007792 kJ/mol
# GULP energy per Si atom -5578.143414 kJ/mol
# Density = 2.604674 g / cm^3
# Si number density = 26.106164 Si / 1000 Ang^3
#
#
#
# Elastic Constant Matrix: (Units=GPa)
#
#
# Indices 1 2 3 4 5 6 
#
# 1 54.3845 16.6757 -3.2540 8.4747 -6.2408 16.5571
# 2 16.6757 158.5730 43.0022 -8.7393 -1.8228 49.2842
# 3 -3.2540 43.0022 63.2179 19.2345 -10.9779 10.6575
# 4 8.4747 -8.7393 19.2345 53.0014 8.4407 -2.1171
# 5 -6.2408 -1.8228 -10.9779 8.4407 20.3970 -0.7077
# 6 16.5571 49.2842 10.6575 -2.1171 -0.7077 54.1474
#
#
#
# Elastic Compliance Matrix: (Units=1/GPa)
#
#
# Indices 1 2 3 4 5 6 
#
# 1 0.027349 -0.005031 0.013776 -0.013785 0.020803 -0.006762
# 2 -0.005031 0.012902 -0.012360 0.008862 -0.010968 -0.007569
# 3 0.013776 -0.012360 0.037943 -0.023327 0.033153 -0.000909
# 4 -0.013785 0.008862 -0.023327 0.035974 -0.030807 0.001744
# 5 0.020803 -0.010968 0.033153 -0.030807 0.084900 -0.002998
# 6 -0.006762 -0.007569 -0.000909 0.001744 -0.002998 0.027633
#
#
# Mechanical properties :
#
#
# Convention : Reuss Voigt Hill
#
# Bulk Modulus (GPa) = 14.09160 43.22481 28.65821
# Shear Modulus (GPa) = 19.41122 40.15926 29.78524
#
# Velocity S-wave (km/s) = 2.72977 3.92638 3.38143
# Velocity P-wave (km/s) = 3.91727 6.09496 5.12316
#
# Compressibility (1/GPa) = 0.07096425
#
# Stress axis : x y z
#
# Youngs Moduli (GPa) = 36.56507 77.50864 26.35552
#
# Poissons Ratio (x) = 0.38993 -0.36309
# Poissons Ratio (y) = 0.18395 0.32575
# Poissons Ratio (z) = -0.50374 0.95801
#
# Static dielectric constant tensor:
#      x y z
#    x 2.160090 0.004580 0.030450 
#    y 0.004580 2.171470 -0.039700 
#    z 0.030450 -0.039700 2.174840 
# 
# From -- ./inp_files/517056.got.cif
#   From: 2010.05.17/outbox.cif.g08.bks.cpg/sg2_259_cif.got.tgz:517056.got - 2010.06.03 11:33:40.
