data_PCOD9101258
_publ_section_title
;
Structure prediction by ZEFSAII (Michael W. Deem and Ramdas Pophale) SiO2 
 PCOD9101258
Probable space group: P -1
;
_chemical_formula_sum "Si O2"
_cell_formula_units_Z 16
_cell_length_a 12.348854
_cell_length_b 8.452662
_cell_length_c 11.583247
_cell_angle_alpha 84.850283
_cell_angle_beta 145.510458
_cell_angle_gamma 111.171733
_cell_volume 586.850303
_symmetry_space_group_name_H-M "P -1"
_symmetry_group_IT_number 2
_symmetry_cell_setting 'triclinic'
loop_
_space_group_symop_operation_xyz
x,y,z
-x,-y,-z
loop_
_atom_site_type_symbol
_atom_site_label
_atom_site_fract_x
_atom_site_fract_y
_atom_site_fract_z
Si Si1 0.273720 0.405646 0.579843
Si Si2 0.717520 0.257440 0.334771
Si Si3 0.856719 0.315173 0.810777
Si Si4 0.424448 0.675011 0.033512
Si Si5 0.437454 0.337026 0.365168
Si Si6 0.126731 0.114283 0.284703
Si Si7 0.438961 0.902580 0.243981
Si Si8 0.084936 0.263269 0.789463
O O1 0.192042 0.533066 0.556501
O O2 0.508694 0.559167 0.715893
O O3 0.133257 0.274054 0.359880
O O4 0.329637 0.286171 0.723610
O O5 0.621153 0.241348 0.124605
O O6 0.911525 0.214517 0.534407
O O7 0.522936 0.101327 0.251732
O O8 0.635152 0.296546 0.561309
O O9 0.748531 0.152670 0.821183
O O10 0.990819 0.307963 0.820477
O O11 0.000000 0.500000 0.000000
O O12 0.289494 0.454596 0.915109
O O13 0.358024 0.751894 0.080820
O O14 0.500000 0.500000 0.500000
O O15 0.195747 0.183367 0.208727
O O16 0.347297 0.101411 0.514785
O O17 0.923707 0.921747 0.163411
#
# Coordination Sequence:
#
# PCOD9101258 Si02
#       8
#     2   2   2   2   2   2   2   2
#     4  10  20  38  58  82 111 155 197 229 277 339
#     4  11  22  38  62  84 109 154 202 233 270 344
#     4  11  20  35  60  90 117 142 185 243 288 335
#     4  11  22  40  56  84 120 152 188 238 285 329
#     4   9  18  34  57  80 113 151 185 221 287 339
#     4   8  19  35  57  81 116 152 182 229 290 347
#     4   9  20  36  60  85 112 149 190 234 285 336
#     4  11  22  37  59  87 117 148 188 237 293 336
#
# _framework density 27.264192000000001
#
# number of rings (size 3 to 8) (size 9 to 14) (size 15 to 20)
#    0.000    2.000    2.500    1.875    1.750    1.500 
#    0.000    5.000    0.000    0.000    0.000    0.000 
#    0.000    0.000    0.000    0.000    0.000    0.000 
#
# Total GULP energy -89542.812177 kJ/mol
# GULP energy per Si atom -5596.425761 kJ/mol
# Density = 2.720214 g / cm^3
# Si number density = 27.264192 Si / 1000 Ang^3
#
#
#
# Elastic Constant Matrix: (Units=GPa)
#
#
# Indices 1 2 3 4 5 6 
#
# 1 67.9251 10.3211 16.6971 -6.7999 -1.1374 -3.9343
# 2 10.3211 107.0147 27.2861 10.4316 -10.4238 16.9271
# 3 16.6971 27.2861 81.1822 -16.8722 -3.6783 14.0649
# 4 -6.7999 10.4316 -16.8722 52.6840 6.2517 -11.8634
# 5 -1.1374 -10.4238 -3.6783 6.2517 40.3290 -3.0238
# 6 -3.9343 16.9271 14.0649 -11.8634 -3.0238 44.7749
#
#
#
# Elastic Compliance Matrix: (Units=1/GPa)
#
#
# Indices 1 2 3 4 5 6 
#
# 1 0.016116 -0.001626 -0.002917 0.002302 -0.000324 0.003535
# 2 -0.001626 0.012044 -0.003854 -0.005256 0.003181 -0.004663
# 3 -0.002917 -0.003854 0.015631 0.004912 -0.000598 -0.002448
# 4 0.002302 -0.005256 0.004912 0.023881 -0.004045 0.006701
# 5 -0.000324 0.003181 -0.000598 -0.004045 0.026155 -0.000349
# 6 0.003535 -0.004663 -0.002448 0.006701 -0.000349 0.026928
#
#
# Mechanical properties :
#
#
# Convention : Reuss Voigt Hill
#
# Bulk Modulus (GPa) = 37.04006 40.52560 38.78283
# Shear Modulus (GPa) = 34.11840 41.01209 37.56525
#
# Velocity S-wave (km/s) = 3.54135 3.88267 3.71593
# Velocity P-wave (km/s) = 5.50787 5.91578 5.71547
#
# Compressibility (1/GPa) = 0.02699780
#
# Stress axis : x y z
#
# Youngs Moduli (GPa) = 62.05030 83.03024 63.97418
#
# Poissons Ratio (x) = 0.13498 0.18660
# Poissons Ratio (y) = 0.10087 0.24656
# Poissons Ratio (z) = 0.18099 0.32001
#
# Static dielectric constant tensor:
#      x y z
#    x 2.144950 -0.006170 0.016690 
#    y -0.006170 2.167200 -0.012290 
#    z 0.016690 -0.012290 2.168880 
# 
# From -- ./inp_files/176685.got.cif
#   From: 2010.05.17/outbox.cif.g08.bks.cpg/sg2_89_cif.got.tgz:176685.got - 2010.06.03 11:33:40.
