data_PCOD9101605
_publ_section_title
;
Structure prediction by ZEFSAII (Michael W. Deem and Ramdas Pophale) SiO2 
 PCOD9101605
Probable space group: P -1
;
_chemical_formula_sum "Si O2"
_cell_formula_units_Z 13
_cell_length_a 7.003898
_cell_length_b 18.113597
_cell_length_c 9.466690
_cell_angle_alpha 45.604365
_cell_angle_beta 138.220075
_cell_angle_gamma 121.063447
_cell_volume 571.716107
_symmetry_space_group_name_H-M "P -1"
_symmetry_group_IT_number 2
_symmetry_cell_setting 'triclinic'
loop_
_space_group_symop_operation_xyz
x,y,z
-x,-y,-z
loop_
_atom_site_type_symbol
_atom_site_label
_atom_site_fract_x
_atom_site_fract_y
_atom_site_fract_z
Si Si1 0.365787 0.652669 0.156903
Si Si2 0.368632 0.635973 0.858620
Si Si3 0.135645 0.214797 0.639191
Si Si4 0.000000 0.000000 0.000000
Si Si5 0.943163 0.538815 0.259771
Si Si6 0.079715 0.162805 0.377985
Si Si7 0.202528 0.032652 0.364148
O O1 0.673381 0.699283 0.296679
O O2 0.234700 0.574965 0.300781
O O3 0.355515 0.607547 0.054550
O O4 0.151268 0.751462 0.907301
O O5 0.202096 0.551289 0.789947
O O6 0.192329 0.742848 0.603540
O O7 0.700721 0.629944 0.006514
O O8 0.135794 0.105726 0.863900
O O9 0.245874 0.204338 0.551579
O O10 0.003198 0.053890 0.090739
O O11 0.000000 0.500000 0.500000
O O12 0.240662 0.120427 0.385444
O O13 0.913610 0.065519 0.483396
O O14 0.500000 0.000000 0.500000
#
# Coordination Sequence:
#
# PCOD9101605 Si02
#       7
#     2   2   2   1   2   2   2
#     4  11  23  42  66  94 130 172 216 268 327 390
#     4  10  24  45  66  95 132 172 214 268 333 393
#     4  10  22  42  67  96 133 175 218 268 324 385
#     4  10  22  38  64  96 126 170 218 262 314 378
#     4  11  25  43  68  99 129 168 219 272 330 394
#     4   9  22  38  57  89 123 164 214 262 318 380
#     4  10  20  38  60  84 122 168 214 264 315 372
#
# _framework density 22.738557
#
# number of rings (size 3 to 8) (size 9 to 14) (size 15 to 20)
#    0.000    1.846    0.000    2.308    0.000   14.769 
#    0.000    6.154    0.000    0.000    0.000    0.000 
#    0.000    0.000    0.000    0.000    0.000    0.000 
#
# Total GULP energy -72404.276793 kJ/mol
# GULP energy per Si atom -5569.559753 kJ/mol
# Density = 2.268680 g / cm^3
# Si number density = 22.738557 Si / 1000 Ang^3
#
#
#
# Elastic Constant Matrix: (Units=GPa)
#
#
# Indices 1 2 3 4 5 6 
#
# 1 130.5054 43.6648 41.2967 15.6083 -8.3190 -22.1630
# 2 43.6648 84.1212 38.1619 27.4433 -16.2822 -17.0735
# 3 41.2967 38.1619 65.8187 16.3890 -16.8904 -3.5359
# 4 15.6083 27.4433 16.3890 19.3164 -9.1039 -5.4061
# 5 -8.3190 -16.2822 -16.8904 -9.1039 28.7688 4.7991
# 6 -22.1630 -17.0735 -3.5359 -5.4061 4.7991 47.6686
#
#
#
# Elastic Compliance Matrix: (Units=1/GPa)
#
#
# Indices 1 2 3 4 5 6 
#
# 1 0.010875 -0.002699 -0.005606 -0.000239 -0.002398 0.003888
# 2 -0.002699 0.026424 -0.006057 -0.028588 0.000832 0.004434
# 3 -0.005606 -0.006057 0.025703 -0.005676 0.008982 -0.004417
# 4 -0.000239 -0.028588 -0.005676 0.103534 0.013243 -0.000363
# 5 -0.002398 0.000832 0.008982 0.013243 0.044524 -0.003131
# 6 0.003888 0.004434 -0.004417 -0.000363 -0.003131 0.024321
#
#
# Mechanical properties :
#
#
# Convention : Reuss Voigt Hill
#
# Bulk Modulus (GPa) = 29.17219 58.52134 43.84677
# Shear Modulus (GPa) = 18.14680 29.63890 23.89285
#
# Velocity S-wave (km/s) = 2.82807 3.61427 3.24506
# Velocity P-wave (km/s) = 4.84986 6.57341 5.77628
#
# Compressibility (1/GPa) = 0.03427922
#
# Stress axis : x y z
#
# Youngs Moduli (GPa) = 91.95013 37.84473 38.90556
#
# Poissons Ratio (x) = 0.10215 0.21809
# Poissons Ratio (y) = 0.24819 0.23564
# Poissons Ratio (z) = 0.51544 0.22922
#
# Static dielectric constant tensor:
#      x y z
#    x 1.846730 -0.034190 0.057280 
#    y -0.034190 1.852040 0.015250 
#    z 0.057280 0.015250 1.901550 
# 
# From -- ./inp_files/137305.got.cif
#   From: 2010.05.17/outbox.cif.g08.bks.cpg/sg2_69_cif.got.tgz:137305.got - 2010.06.03 11:33:40.
