data_PCOD9101993
_publ_section_title
;
Structure prediction by ZEFSAII (Michael W. Deem and Ramdas Pophale) SiO2 
 PCOD9101993
Probable space group: P -1
;
_chemical_formula_sum "Si O2"
_cell_formula_units_Z 16
_cell_length_a 7.520286
_cell_length_b 5.593017
_cell_length_c 20.929738
_cell_angle_alpha 81.778351
_cell_angle_beta 53.259716
_cell_angle_gamma 107.690342
_cell_volume 608.250774
_symmetry_space_group_name_H-M "P -1"
_symmetry_group_IT_number 2
_symmetry_cell_setting 'triclinic'
loop_
_space_group_symop_operation_xyz
x,y,z
-x,-y,-z
loop_
_atom_site_type_symbol
_atom_site_label
_atom_site_fract_x
_atom_site_fract_y
_atom_site_fract_z
Si Si1 0.051766 0.751505 0.934917
Si Si2 0.039492 0.460502 0.669225
Si Si3 0.309801 0.177215 0.416536
Si Si4 0.737225 0.713437 0.115091
Si Si5 0.728082 0.593659 0.897585
Si Si6 0.929191 0.224553 0.830743
Si Si7 0.269286 0.631421 0.476632
Si Si8 0.261456 0.190496 0.277723
O O1 0.980429 0.671870 0.881940
O O2 0.835618 0.789404 0.017887
O O3 0.314281 0.033281 0.869215
O O4 0.000000 0.500000 0.000000
O O5 0.111369 0.418411 0.727505
O O6 0.919416 0.667211 0.694164
O O7 0.219841 0.579800 0.564350
O O8 0.861177 0.135413 0.698253
O O9 0.392707 0.454557 0.428924
O O10 0.346297 0.233946 0.331686
O O11 0.405727 0.961157 0.423092
O O12 0.000000 0.000000 0.500000
O O13 0.511828 0.405466 0.176863
O O14 0.928044 0.756879 0.132799
O O15 0.719966 0.329316 0.875141
O O16 0.799152 0.902522 0.848461
O O17 0.500000 0.500000 0.000000
O O18 0.000000 0.500000 0.500000
#
# Coordination Sequence:
#
# PCOD9101993 Si02
#       8
#     2   2   2   2   2   2   2   2
#     4  10  21  43  65  80 114 166 200 240 298 356
#     4  12  23  36  61  93 119 154 196 252 297 345
#     4  10  16  32  55  85 120 147 187 250 294 333
#     4  10  25  41  60  86 121 160 201 241 299 362
#     4  11  24  41  63  88 115 151 200 252 297 351
#     4  11  25  43  56  85 128 155 187 245 315 351
#     4  10  16  33  54  83 118 151 186 237 299 343
#     4  12  23  36  62  96 115 153 208 251 283 354
#
# _framework density 26.304940999999999
#
# number of rings (size 3 to 8) (size 9 to 14) (size 15 to 20)
#    0.000    1.250    6.250    1.125    5.250    0.000 
#    0.000    0.000    0.000    1.500    0.000    0.000 
#    0.000    0.000    0.000    0.000    0.000    0.000 
#
# Total GULP energy -89155.508157 kJ/mol
# GULP energy per Si atom -5572.219260 kJ/mol
# Density = 2.624507 g / cm^3
# Si number density = 26.304941 Si / 1000 Ang^3
#
#
#
# Elastic Constant Matrix: (Units=GPa)
#
#
# Indices 1 2 3 4 5 6 
#
# 1 88.6581 58.2192 28.7038 3.5146 23.4165 2.1863
# 2 58.2192 182.5925 11.4936 -19.4304 4.8786 -44.8658
# 3 28.7038 11.4936 96.9438 -7.8929 32.0130 -18.8191
# 4 3.5146 -19.4304 -7.8929 40.8839 -7.7818 12.3629
# 5 23.4165 4.8786 32.0130 -7.7818 42.1850 4.6976
# 6 2.1863 -44.8658 -18.8191 12.3629 4.6976 46.1704
#
#
#
# Elastic Compliance Matrix: (Units=1/GPa)
#
#
# Indices 1 2 3 4 5 6 
#
# 1 0.021460 -0.009442 -0.005546 -0.005517 -0.006480 -0.010315
# 2 -0.009442 0.011677 0.004139 0.003347 -0.000035 0.012588
# 3 -0.005546 0.004139 0.018182 -0.000434 -0.012738 0.013108
# 4 -0.005517 0.003347 -0.000434 0.029871 0.009138 -0.005591
# 5 -0.006480 -0.000035 -0.012738 0.009138 0.039931 -0.011428
# 6 -0.010315 0.012588 0.013108 -0.005591 -0.011428 0.042383
#
#
# Mechanical properties :
#
#
# Convention : Reuss Voigt Hill
#
# Bulk Modulus (GPa) = 33.76054 62.78086 48.27070
# Shear Modulus (GPa) = 25.63117 43.83304 34.73211
#
# Velocity S-wave (km/s) = 3.12490 4.08651 3.63762
# Velocity P-wave (km/s) = 5.08745 6.79592 6.00278
#
# Compressibility (1/GPa) = 0.02962038
#
# Stress axis : x y z
#
# Youngs Moduli (GPa) = 46.59883 85.63927 54.99891
#
# Poissons Ratio (x) = 0.80859 0.30503
# Poissons Ratio (y) = 0.43998 -0.22763
# Poissons Ratio (z) = 0.25845 -0.35444
#
# Static dielectric constant tensor:
#      x y z
#    x 5.680010 -8.900600 -3.772740 
#    y -8.900600 29.157230 11.132370 
#    z -3.772740 11.132370 6.470230 
# 
# From -- ./inp_files/550178.got.cif
#   From: 2010.05.17/outbox.cif.g08.bks.cpg/sg2_276_cif.got.tgz:550178.got - 2010.06.03 11:33:40.
