data_PCOD9101529
_publ_section_title
;
Structure prediction by ZEFSAII (Michael W. Deem and Ramdas Pophale) SiO2 
 PCOD9101529
Probable space group: P -1
;
_chemical_formula_sum "Si O2"
_cell_formula_units_Z 16
_cell_length_a 11.400583
_cell_length_b 13.723768
_cell_length_c 11.382544
_cell_angle_alpha 67.909914
_cell_angle_beta 85.114025
_cell_angle_gamma 145.097676
_cell_volume 632.588863
_symmetry_space_group_name_H-M "P -1"
_symmetry_group_IT_number 2
_symmetry_cell_setting 'triclinic'
loop_
_space_group_symop_operation_xyz
x,y,z
-x,-y,-z
loop_
_atom_site_type_symbol
_atom_site_label
_atom_site_fract_x
_atom_site_fract_y
_atom_site_fract_z
Si Si1 0.363328 0.930243 0.745392
Si Si2 0.166707 0.319455 0.737514
Si Si3 0.446935 0.551684 0.369684
Si Si4 0.007486 0.104429 0.225895
Si Si5 0.457991 0.160291 0.858620
Si Si6 0.329657 0.699105 0.987245
Si Si7 0.481134 0.192611 0.446889
Si Si8 0.533252 0.688080 0.839531
O O1 0.013550 0.612912 0.883142
O O2 0.398113 0.044512 0.797030
O O3 0.524721 0.113145 0.533784
O O4 0.470102 0.908884 0.802611
O O5 0.194348 0.321528 0.594579
O O6 0.426088 0.449401 0.701650
O O7 0.272213 0.526751 0.643622
O O8 0.863406 0.066879 0.954078
O O9 0.351802 0.575170 0.295452
O O10 0.747526 0.843889 0.281062
O O11 0.183516 0.156472 0.252983
O O12 0.244809 0.371456 0.013022
O O13 0.842541 0.039781 0.365523
O O14 0.635834 0.241901 0.906513
O O15 0.510996 0.740363 0.933737
O O16 0.485197 0.239496 0.293352
#
# Coordination Sequence:
#
# PCOD9101529 Si02
#       8
#     2   2   2   2   2   2   2   2
#     4  11  24  48  67  92 135 172 223 273 332 376
#     4  10  21  35  63  96 129 174 209 259 329 389
#     4  10  20  38  59  95 137 169 209 264 325 393
#     4  10  20  38  62  95 136 174 205 266 330 388
#     4  12  22  44  70  93 131 174 220 268 325 386
#     4  11  25  44  71  96 123 178 226 273 322 389
#     4  11  21  41  65  92 136 178 206 274 330 384
#     4  11  22  38  63  99 129 167 225 261 325 394
#
# _framework density 25.29289
#
# number of rings (size 3 to 8) (size 9 to 14) (size 15 to 20)
#    0.000    1.250    3.750    3.375    0.000    2.500 
#    9.000    0.625    0.000    0.000    0.000    0.000 
#    0.000    0.000    0.000    0.000    0.000    0.000 
#
# Total GULP energy -89374.747939 kJ/mol
# GULP energy per Si atom -5585.921746 kJ/mol
# Density = 2.523532 g / cm^3
# Si number density = 25.292890 Si / 1000 Ang^3
#
#
#
# Elastic Constant Matrix: (Units=GPa)
#
#
# Indices 1 2 3 4 5 6 
#
# 1 68.2233 13.4765 18.0710 6.0133 34.8461 -18.0883
# 2 13.4765 86.1327 37.7216 13.4039 12.4333 -6.1746
# 3 18.0710 37.7216 110.6232 14.1141 33.0703 -8.5972
# 4 6.0133 13.4039 14.1141 28.7112 3.8117 3.4156
# 5 34.8461 12.4333 33.0703 3.8117 60.0058 -1.4779
# 6 -18.0883 -6.1746 -8.5972 3.4156 -1.4779 25.6946
#
#
#
# Elastic Compliance Matrix: (Units=1/GPa)
#
#
# Indices 1 2 3 4 5 6 
#
# 1 0.029415 -0.000793 0.003453 -0.007703 -0.017797 0.021673
# 2 -0.000793 0.014394 -0.004001 -0.004856 0.000046 0.002210
# 3 0.003453 -0.004001 0.013383 -0.005095 -0.008076 0.006160
# 4 -0.007703 -0.004856 -0.005095 0.042131 0.005276 -0.013592
# 5 -0.017797 0.000046 -0.008076 0.005276 0.030758 -0.014152
# 6 0.021673 0.002210 0.006160 -0.013592 -0.014152 0.057760
#
#
# Mechanical properties :
#
#
# Convention : Reuss Voigt Hill
#
# Bulk Modulus (GPa) = 18.34543 44.83526 31.59034
# Shear Modulus (GPa) = 23.95855 35.92966 29.94410
#
# Velocity S-wave (km/s) = 3.08107 3.77310 3.44451
# Velocity P-wave (km/s) = 4.46389 6.06190 5.32320
#
# Compressibility (1/GPa) = 0.05450950
#
# Stress axis : x y z
#
# Youngs Moduli (GPa) = 33.99608 69.47446 74.72085
#
# Poissons Ratio (x) = 0.05510 -0.25800
# Poissons Ratio (y) = 0.02696 0.29896
# Poissons Ratio (z) = -0.11738 0.27797
#
# Static dielectric constant tensor:
#      x y z
#    x 2.049530 0.051260 0.032610 
#    y 0.051260 2.041650 0.049110 
#    z 0.032610 0.049110 2.023810 
# 
# From -- ./inp_files/433829.got.cif
#   From: 2010.05.17/outbox.cif.g08.bks.cpg/sg2_217_cif.got.tgz:433829.got - 2010.06.03 11:33:40.
