data_PCOD9101700
_publ_section_title
;
Structure prediction by ZEFSAII (Michael W. Deem and Ramdas Pophale) SiO2 
 PCOD9101700
Probable space group: P -1
;
_chemical_formula_sum "Si O2"
_cell_formula_units_Z 15
_cell_length_a 6.850617
_cell_length_b 13.704582
_cell_length_c 7.813820
_cell_angle_alpha 90.572550
_cell_angle_beta 119.868189
_cell_angle_gamma 109.814031
_cell_volume 583.945280
_symmetry_space_group_name_H-M "P -1"
_symmetry_group_IT_number 2
_symmetry_cell_setting 'triclinic'
loop_
_space_group_symop_operation_xyz
x,y,z
-x,-y,-z
loop_
_atom_site_type_symbol
_atom_site_label
_atom_site_fract_x
_atom_site_fract_y
_atom_site_fract_z
Si Si1 0.741089 0.438357 0.162632
Si Si2 0.763121 0.548797 0.534259
Si Si3 0.726583 0.247272 0.794982
Si Si4 0.063386 0.884782 0.350758
Si Si5 0.495333 0.188149 0.029365
Si Si6 0.000000 0.500000 0.000000
Si Si7 0.763849 0.925062 0.793509
Si Si8 0.186597 0.218988 0.439675
O O1 0.757844 0.497023 0.347519
O O2 0.596177 0.313538 0.119641
O O3 0.707861 0.478276 0.964414
O O4 0.039396 0.469353 0.252013
O O5 0.500000 0.500000 0.500000
O O6 0.856752 0.674296 0.562731
O O7 0.463472 0.244417 0.621934
O O8 0.831566 0.193535 0.696356
O O9 0.663417 0.181941 0.945803
O O10 0.899781 0.368123 0.909692
O O11 0.012341 0.867088 0.528813
O O12 0.784592 0.849943 0.158034
O O13 0.234406 0.003735 0.368122
O O14 0.469049 0.117737 0.185131
O O15 0.813483 0.824347 0.749843
O O16 0.000000 0.000000 0.000000
#
# Coordination Sequence:
#
# PCOD9101700 Si02
#       8
#     2   2   2   2   2   1   2   2
#     4  10  22  39  61  93 125 159 202 244 299 367
#     4  11  23  39  62  90 125 164 199 244 303 365
#     4  10  22  39  61  90 122 162 204 244 301 366
#     4  10  22  41  63  86 120 163 203 253 306 357
#     4   9  21  39  60  90 123 154 201 254 301 359
#     4  10  20  38  60  88 126 154 192 244 290 358
#     4  10  22  41  63  87 119 158 205 259 311 359
#     4  11  23  40  61  88 121 159 206 253 301 361
#
# _framework density 25.687335999999998
#
# number of rings (size 3 to 8) (size 9 to 14) (size 15 to 20)
#    0.000    1.867    0.000    2.800    0.000   11.733 
#    0.000    8.667    0.000    0.000    0.000    0.000 
#    0.000    0.000    0.000    0.000    0.000    0.000 
#
# Total GULP energy -83817.895659 kJ/mol
# GULP energy per Si atom -5587.859711 kJ/mol
# Density = 2.562887 g / cm^3
# Si number density = 25.687336 Si / 1000 Ang^3
#
#
#
# Elastic Constant Matrix: (Units=GPa)
#
#
# Indices 1 2 3 4 5 6 
#
# 1 102.4328 13.6355 34.9615 -11.3680 -1.2666 20.7833
# 2 13.6355 84.4098 -1.0637 -7.5485 -3.2551 47.5306
# 3 34.9615 -1.0637 67.1353 12.6995 -17.0837 5.6049
# 4 -11.3680 -7.5485 12.6995 39.6292 -0.7386 -11.7861
# 5 -1.2666 -3.2551 -17.0837 -0.7386 52.6163 -5.4011
# 6 20.7833 47.5306 5.6049 -11.7861 -5.4011 41.7102
#
#
#
# Elastic Compliance Matrix: (Units=1/GPa)
#
#
# Indices 1 2 3 4 5 6 
#
# 1 0.014428 0.001979 -0.008596 0.005059 -0.002994 -0.007247
# 2 0.001979 0.036358 0.004471 -0.007414 -0.001000 -0.045243
# 3 -0.008596 0.004471 0.023818 -0.010961 0.007013 -0.006201
# 4 0.005059 -0.007414 -0.010961 0.033723 -0.001707 0.016709
# 5 -0.002994 -0.001000 0.007013 -0.001707 0.021535 0.003995
# 6 -0.007247 -0.045243 -0.006201 0.016709 0.003995 0.085214
#
#
# Mechanical properties :
#
#
# Convention : Reuss Voigt Hill
#
# Bulk Modulus (GPa) = 14.22255 38.78271 26.50263
# Shear Modulus (GPa) = 20.59263 40.55411 30.57337
#
# Velocity S-wave (km/s) = 2.83444 3.97767 3.45369
# Velocity P-wave (km/s) = 4.03248 6.01885 5.12286
#
# Compressibility (1/GPa) = 0.07031086
#
# Stress axis : x y z
#
# Youngs Moduli (GPa) = 69.31045 27.50431 41.98477
#
# Poissons Ratio (x) = -0.05442 0.36090
# Poissons Ratio (y) = -0.13714 -0.18771
# Poissons Ratio (z) = 0.59580 -0.12297
#
# Static dielectric constant tensor:
#      x y z
#    x 2.159860 -0.052980 -0.026150 
#    y -0.052980 2.074410 -0.092590 
#    z -0.026150 -0.092590 2.194420 
# 
# From -- ./inp_files/34307.got.cif
#   From: 2010.05.17/outbox.cif.g08.bks.cpg/sg2_18_cif.got.tgz:34307.got - 2010.06.03 11:33:40.
