data_PCOD9101829
_publ_section_title
;
Structure prediction by ZEFSAII (Michael W. Deem and Ramdas Pophale) SiO2 
 PCOD9101829
Probable space group: P -1
;
_chemical_formula_sum "Si O2"
_cell_formula_units_Z 16
_cell_length_a 16.306668
_cell_length_b 13.093325
_cell_length_c 7.089553
_cell_angle_alpha 147.132799
_cell_angle_beta 68.186993
_cell_angle_gamma 120.479770
_cell_volume 703.128608
_symmetry_space_group_name_H-M "P -1"
_symmetry_group_IT_number 2
_symmetry_cell_setting 'triclinic'
loop_
_space_group_symop_operation_xyz
x,y,z
-x,-y,-z
loop_
_atom_site_type_symbol
_atom_site_label
_atom_site_fract_x
_atom_site_fract_y
_atom_site_fract_z
Si Si1 0.879945 0.257065 0.838702
Si Si2 0.813237 0.425300 0.824891
Si Si3 0.285316 0.256071 0.154945
Si Si4 0.637650 0.494898 0.194971
Si Si5 0.446990 0.149012 0.736080
Si Si6 0.976252 0.784673 0.084959
Si Si7 0.898095 0.106811 0.200830
Si Si8 0.304831 0.139997 0.556617
O O1 0.854927 0.423325 0.999533
O O2 0.957376 0.320947 0.035127
O O3 0.919791 0.155468 0.478389
O O4 0.782919 0.077382 0.714403
O O5 0.838431 0.249653 0.430975
O O6 0.703054 0.385125 0.880661
O O7 0.870057 0.634375 0.993003
O O8 0.336347 0.465597 0.546101
O O9 0.356443 0.132646 0.917578
O O10 0.282077 0.264336 0.943710
O O11 0.179034 0.122867 0.111652
O O12 0.675224 0.721406 0.427188
O O13 0.528114 0.372695 0.047748
O O14 0.400064 0.116588 0.518154
O O15 0.500000 0.000000 0.500000
O O16 0.010859 0.827973 0.908590
O O17 0.000000 0.000000 0.500000
#
# Coordination Sequence:
#
# PCOD9101829 Si02
#       8
#     2   2   2   2   2   2   2   2
#     4   9  20  39  56  79 116 147 183 232 279 330
#     4  10  22  38  57  82 115 152 182 228 286 328
#     4   9  20  36  58  85 111 146 187 230 278 328
#     4  12  20  38  61  84 115 146 188 234 270 330
#     4  10  20  38  61  82 117 152 180 226 286 330
#     4  12  22  36  59  86 109 148 194 228 274 334
#     4   9  20  39  56  79 116 147 183 232 279 330
#     4   9  20  36  58  85 111 146 187 230 278 328
#
# _framework density 22.755438000000002
#
# number of rings (size 3 to 8) (size 9 to 14) (size 15 to 20)
#    1.500    0.500    0.000    5.250    0.000    0.500 
#    2.250    0.625    0.000    0.000    0.000    0.000 
#    0.000    0.000    0.000    0.000    0.000    0.000 
#
# Total GULP energy -89236.521019 kJ/mol
# GULP energy per Si atom -5577.282564 kJ/mol
# Density = 2.270365 g / cm^3
# Si number density = 22.755438 Si / 1000 Ang^3
#
#
#
# Elastic Constant Matrix: (Units=GPa)
#
#
# Indices 1 2 3 4 5 6 
#
# 1 88.6680 20.4797 -2.1427 1.2948 -3.4137 4.7103
# 2 20.4797 78.1526 0.5143 3.0855 1.2288 14.2585
# 3 -2.1427 0.5143 38.5077 -3.9029 -9.4445 6.7468
# 4 1.2948 3.0855 -3.9029 15.2862 0.5325 4.8442
# 5 -3.4137 1.2288 -9.4445 0.5325 30.7552 7.8957
# 6 4.7103 14.2585 6.7468 4.8442 7.8957 25.1218
#
#
#
# Elastic Compliance Matrix: (Units=1/GPa)
#
#
# Indices 1 2 3 4 5 6 
#
# 1 0.012185 -0.002901 0.001736 0.000542 0.002504 -0.001996
# 2 -0.002901 0.015187 0.001807 0.000516 0.002002 -0.009290
# 3 0.001736 0.001807 0.034180 0.013336 0.014956 -0.017803
# 4 0.000542 0.000516 0.013336 0.075053 0.008236 -0.021037
# 5 0.002504 0.002002 0.014956 0.008236 0.042439 -0.020549
# 6 -0.001996 -0.009290 -0.017803 -0.021037 -0.020549 0.060749
#
#
# Mechanical properties :
#
#
# Convention : Reuss Voigt Hill
#
# Bulk Modulus (GPa) = 15.91500 27.00343 21.45922
# Shear Modulus (GPa) = 19.27119 26.66444 22.96782
#
# Velocity S-wave (km/s) = 2.91328 3.42685 3.18045
# Velocity P-wave (km/s) = 4.28082 5.24883 4.78935
#
# Compressibility (1/GPa) = 0.06283381
#
# Stress axis : x y z
#
# Youngs Moduli (GPa) = 82.07127 65.84679 29.25662
#
# Poissons Ratio (x) = 0.19102 -0.05078
# Poissons Ratio (y) = 0.23809 -0.05285
# Poissons Ratio (z) = -0.14244 -0.11896
#
# Static dielectric constant tensor:
#      x y z
#    x 1.862820 -0.036380 0.001980 
#    y -0.036380 1.844510 -0.002900 
#    z 0.001980 -0.002900 1.875130 
# 
# From -- ./inp_files/314330.got.cif
#   From: 2010.05.17/outbox.cif.g08.bks.cpg/sg2_158_cif.got.tgz:314330.got - 2010.06.03 11:33:40.
