data_PCOD9101482
_publ_section_title
;
Structure prediction by ZEFSAII (Michael W. Deem and Ramdas Pophale) SiO2 
 PCOD9101482
Probable space group: P -1
;
_chemical_formula_sum "Si O2"
_cell_formula_units_Z 16
_cell_length_a 15.146080
_cell_length_b 11.867155
_cell_length_c 8.371311
_cell_angle_alpha 139.405788
_cell_angle_beta 128.234082
_cell_angle_gamma 54.531438
_cell_volume 750.930543
_symmetry_space_group_name_H-M "P -1"
_symmetry_group_IT_number 2
_symmetry_cell_setting 'triclinic'
loop_
_space_group_symop_operation_xyz
x,y,z
-x,-y,-z
loop_
_atom_site_type_symbol
_atom_site_label
_atom_site_fract_x
_atom_site_fract_y
_atom_site_fract_z
Si Si1 0.064952 0.798946 0.336182
Si Si2 0.226223 0.436139 0.541524
Si Si3 0.594423 0.345871 0.143926
Si Si4 0.193250 0.550442 0.978409
Si Si5 0.840940 0.682792 0.003200
Si Si6 0.549331 0.808615 0.415521
Si Si7 0.567066 0.332190 0.573452
Si Si8 0.290630 0.914541 0.786035
O O1 0.189163 0.802742 0.551014
O O2 0.096517 0.720441 0.110397
O O3 0.000000 0.000000 0.500000
O O4 0.972717 0.697622 0.195116
O O5 0.307234 0.574945 0.745302
O O6 0.167476 0.487777 0.704136
O O7 0.165384 0.413626 0.279614
O O8 0.314910 0.249397 0.471080
O O9 0.536957 0.492377 0.370088
O O10 0.648609 0.146112 0.044751
O O11 0.488688 0.330003 0.897520
O O12 0.196057 0.413628 0.984798
O O13 0.316877 0.604997 0.177139
O O14 0.762551 0.882898 0.103649
O O15 0.485157 0.776723 0.469612
O O16 0.500000 0.000000 0.500000
O O17 0.611701 0.185701 0.332081
#
# Coordination Sequence:
#
# PCOD9101482 Si02
#       8
#     2   2   2   2   2   2   2   2
#     4   9  21  43  63  89 126 158 204 267 314 357
#     4  11  22  40  62  93 124 167 207 247 313 369
#     4  11  20  40  59  88 129 162 202 254 307 364
#     4  11  21  40  68  90 122 166 207 251 312 377
#     4  11  24  41  63  93 127 157 211 265 308 359
#     4  11  22  37  58  88 132 160 199 261 299 360
#     4  10  20  38  59  88 123 167 206 246 307 371
#     4  10  22  38  64  90 119 168 207 254 311 367
#
# _framework density 21.306898
#
# number of rings (size 3 to 8) (size 9 to 14) (size 15 to 20)
#    0.000    1.500    2.500    3.750    1.750    1.500 
#    0.000    3.750    0.000    6.000    0.000    0.000 
#    0.000    0.000    0.000    0.000    0.000    0.000 
#
# Total GULP energy -89116.114463 kJ/mol
# GULP energy per Si atom -5569.757154 kJ/mol
# Density = 2.125840 g / cm^3
# Si number density = 21.306898 Si / 1000 Ang^3
#
#
#
# Elastic Constant Matrix: (Units=GPa)
#
#
# Indices 1 2 3 4 5 6 
#
# 1 91.1130 38.3452 32.2646 9.5937 -26.4062 -6.3059
# 2 38.3452 104.1924 41.7642 19.2028 -26.4987 3.5651
# 3 32.2646 41.7642 90.7743 3.1073 -19.0195 12.4502
# 4 9.5937 19.2028 3.1073 39.7381 -4.2919 -3.6580
# 5 -26.4062 -26.4987 -19.0195 -4.2919 26.9424 -1.7130
# 6 -6.3059 3.5651 12.4502 -3.6580 -1.7130 18.7078
#
#
#
# Elastic Compliance Matrix: (Units=1/GPa)
#
#
# Indices 1 2 3 4 5 6 
#
# 1 0.017815 -0.001706 -0.004101 -0.000774 0.013408 0.010136
# 2 -0.001706 0.015424 -0.004145 -0.005775 0.009588 -0.001007
# 3 -0.004101 -0.004145 0.016499 0.001006 0.003005 -0.011101
# 4 -0.000774 -0.005775 0.001006 0.028496 -0.000829 0.005666
# 5 0.013408 0.009588 0.003005 -0.000829 0.062071 0.006214
# 6 0.010136 -0.001007 -0.011101 0.005666 0.006214 0.066127
#
#
# Mechanical properties :
#
#
# Convention : Reuss Voigt Hill
#
# Bulk Modulus (GPa) = 33.52127 56.75861 45.13994
# Shear Modulus (GPa) = 21.16117 28.65804 24.90961
#
# Velocity S-wave (km/s) = 3.15486 3.67142 3.42290
# Velocity P-wave (km/s) = 5.38866 6.68348 6.07069
#
# Compressibility (1/GPa) = 0.02983181
#
# Stress axis : x y z
#
# Youngs Moduli (GPa) = 56.13336 64.83246 60.60946
#
# Poissons Ratio (x) = 0.11063 0.24858
# Poissons Ratio (y) = 0.09579 0.25125
# Poissons Ratio (z) = 0.23022 0.26876
#
# Static dielectric constant tensor:
#      x y z
#    x 1.770880 0.006690 -0.016020 
#    y 0.006690 1.832040 -0.034540 
#    z -0.016020 -0.034540 1.857970 
# 
# From -- ./inp_files/308843.got.cif
#   From: 2010.05.17/outbox.cif.g08.bks.cpg/sg2_155_cif.got.tgz:308843.got - 2010.06.03 11:33:40.
