data_PCOD9101831
_publ_section_title
;
Structure prediction by ZEFSAII (Michael W. Deem and Ramdas Pophale) SiO2 
 PCOD9101831
Probable space group: P -1
;
_chemical_formula_sum "Si O2"
_cell_formula_units_Z 16
_cell_length_a 20.253723
_cell_length_b 13.133364
_cell_length_c 23.969062
_cell_angle_alpha 159.111140
_cell_angle_beta 160.443574
_cell_angle_gamma 30.497087
_cell_volume 751.537709
_symmetry_space_group_name_H-M "P -1"
_symmetry_group_IT_number 2
_symmetry_cell_setting 'triclinic'
loop_
_space_group_symop_operation_xyz
x,y,z
-x,-y,-z
loop_
_atom_site_type_symbol
_atom_site_label
_atom_site_fract_x
_atom_site_fract_y
_atom_site_fract_z
Si Si1 0.807001 0.575434 0.129698
Si Si2 0.197616 0.787039 0.728143
Si Si3 0.149824 0.278580 0.013151
Si Si4 0.494101 0.255904 0.948258
Si Si5 0.401032 0.615260 0.570877
Si Si6 0.982261 0.863408 0.977240
Si Si7 0.878174 0.234589 0.183542
Si Si8 0.760566 0.176658 0.347610
O O1 0.838239 0.326500 0.982931
O O2 0.021804 0.675957 0.381253
O O3 0.750757 0.844176 0.187470
O O4 0.654347 0.533064 0.039231
O O5 0.354699 0.736428 0.874791
O O6 0.269997 0.781010 0.719696
O O7 0.008390 0.539499 0.457423
O O8 0.148920 0.102540 0.864734
O O9 0.093665 0.023503 0.883144
O O10 0.373969 0.429057 0.285254
O O11 0.000000 0.500000 0.000000
O O12 0.646310 0.282382 0.030734
O O13 0.374568 0.925539 0.681521
O O14 0.220729 0.360609 0.285464
O O15 0.390745 0.677769 0.660740
O O16 0.967065 0.120777 0.139592
O O17 0.000000 0.000000 0.000000
#
# Coordination Sequence:
#
# PCOD9101831 Si02
#       8
#     2   2   2   2   2   2   2   2
#     4   9  19  35  56  86 113 144 206 247 275 351
#     4  10  20  38  61  82 120 160 191 241 300 355
#     4  10  22  38  58  90 115 152 205 245 282 346
#     4   9  19  37  60  84 110 156 202 241 292 348
#     4   8  18  37  57  81 116 153 189 240 294 349
#     4  11  22  39  58  85 124 156 190 243 307 350
#     4  10  21  39  60  82 122 162 187 238 307 349
#     4   9  17  34  60  83 111 153 194 241 294 343
#
# _framework density 21.289684000000001
#
# number of rings (size 3 to 8) (size 9 to 14) (size 15 to 20)
#    0.000    2.750    0.000    3.750    1.750    6.500 
#    6.750    1.875    0.000    0.000    0.000    0.000 
#    0.000    0.000    0.000    0.000    0.000    0.000 
#
# Total GULP energy -89143.597279 kJ/mol
# GULP energy per Si atom -5571.474830 kJ/mol
# Density = 2.124123 g / cm^3
# Si number density = 21.289684 Si / 1000 Ang^3
#
#
#
# Elastic Constant Matrix: (Units=GPa)
#
#
# Indices 1 2 3 4 5 6 
#
# 1 83.1851 2.9367 -6.7138 -9.0039 4.8238 -14.1242
# 2 2.9367 82.7414 13.9775 -8.4778 8.2503 -33.6780
# 3 -6.7138 13.9775 78.0711 4.7709 11.3821 -11.8072
# 4 -9.0039 -8.4778 4.7709 11.5198 -4.7453 4.2354
# 5 4.8238 8.2503 11.3821 -4.7453 27.6733 2.4907
# 6 -14.1242 -33.6780 -11.8072 4.2354 2.4907 37.1587
#
#
#
# Elastic Compliance Matrix: (Units=1/GPa)
#
#
# Indices 1 2 3 4 5 6 
#
# 1 0.014807 0.004259 0.001976 0.008792 -0.004000 0.009382
# 2 0.004259 0.022295 0.000274 0.008432 -0.007990 0.021487
# 3 0.001976 0.000274 0.016383 -0.012197 -0.010000 0.008265
# 4 0.008792 0.008432 -0.012197 0.116670 0.021664 -0.007642
# 5 -0.004000 -0.007990 -0.010000 0.021664 0.048633 -0.017669
# 6 0.009382 0.021487 0.008265 -0.007642 -0.017669 0.054634
#
#
# Mechanical properties :
#
#
# Convention : Reuss Voigt Hill
#
# Bulk Modulus (GPa) = 15.03695 29.37760 22.20727
# Shear Modulus (GPa) = 17.69463 30.85685 24.27574
#
# Velocity S-wave (km/s) = 2.88607 3.81120 3.38043
# Velocity P-wave (km/s) = 4.26430 5.76159 5.06854
#
# Compressibility (1/GPa) = 0.06650287
#
# Stress axis : x y z
#
# Youngs Moduli (GPa) = 67.53482 44.85350 61.03898
#
# Poissons Ratio (x) = -0.19105 -0.12059
# Poissons Ratio (y) = -0.28765 -0.01672
# Poissons Ratio (z) = -0.13342 -0.01229
#
# Static dielectric constant tensor:
#      x y z
#    x 1.849500 -0.055850 0.027490 
#    y -0.055850 1.859980 -0.000170 
#    z 0.027490 -0.000170 1.798490 
# 
# From -- ./inp_files/620798.got.cif
#   From: 2010.05.17/outbox.cif.g08.bks.cpg/sg2_311_cif.got.tgz:620798.got - 2010.06.03 11:33:40.
