data_PCOD9101382
_publ_section_title
;
Structure prediction by ZEFSAII (Michael W. Deem and Ramdas Pophale) SiO2 
 PCOD9101382
Probable space group: P -1
;
_chemical_formula_sum "Si O2"
_cell_formula_units_Z 16
_cell_length_a 6.863624
_cell_length_b 16.823666
_cell_length_c 7.734716
_cell_angle_alpha 96.237175
_cell_angle_beta 122.855369
_cell_angle_gamma 72.048904
_cell_volume 711.831474
_symmetry_space_group_name_H-M "P -1"
_symmetry_group_IT_number 2
_symmetry_cell_setting 'triclinic'
loop_
_space_group_symop_operation_xyz
x,y,z
-x,-y,-z
loop_
_atom_site_type_symbol
_atom_site_label
_atom_site_fract_x
_atom_site_fract_y
_atom_site_fract_z
Si Si1 0.735013 0.515325 0.529171
Si Si2 0.179496 0.848310 0.125041
Si Si3 0.484869 0.085839 0.913754
Si Si4 0.632854 0.710361 0.479960
Si Si5 0.895579 0.279343 0.188351
Si Si6 0.454749 0.777185 0.783185
Si Si7 0.005454 0.091244 0.575099
Si Si8 0.786875 0.460450 0.162677
O O1 0.500000 0.500000 0.500000
O O2 0.656593 0.612617 0.451447
O O3 0.798014 0.457511 0.376727
O O4 0.986582 0.502124 0.756699
O O5 0.273272 0.911620 0.067884
O O6 0.415592 0.773059 0.284759
O O7 0.046599 0.891323 0.242180
O O8 0.039744 0.800841 0.923656
O O9 0.272665 0.097490 0.674981
O O10 0.424079 0.165426 0.032281
O O11 0.500000 0.000000 0.000000
O O12 0.587931 0.732726 0.667497
O O13 0.890550 0.726001 0.573276
O O14 0.638671 0.283878 0.153424
O O15 0.861703 0.367413 0.098497
O O16 0.204447 0.842651 0.612039
O O17 0.000000 0.000000 0.500000
O O18 0.500000 0.500000 0.000000
#
# Coordination Sequence:
#
# PCOD9101382 Si02
#       8
#     2   2   2   2   2   2   2   2
#     4  10  21  37  59  90 121 156 198 243 294 347
#     4  10  23  38  59  83 112 152 193 236 290 343
#     4  11  22  39  56  83 112 144 190 240 288 342
#     4  10  20  38  59  82 115 153 193 235 285 349
#     4  10  20  38  59  82 113 154 190 235 289 344
#     4  10  21  38  57  81 112 147 192 236 286 344
#     4  11  22  39  56  83 111 144 190 239 289 343
#     4  10  21  37  59  88 122 154 198 243 292 349
#
# _framework density 22.477229999999999
#
# number of rings (size 3 to 8) (size 9 to 14) (size 15 to 20)
#    0.000    1.750    1.250    3.000    0.000    1.500 
#    2.250    6.250    0.000    0.000    0.000    0.000 
#    0.000    0.000    0.000    0.000    0.000    0.000 
#
# Total GULP energy -89323.261958 kJ/mol
# GULP energy per Si atom -5582.703872 kJ/mol
# Density = 2.242607 g / cm^3
# Si number density = 22.477230 Si / 1000 Ang^3
#
#
#
# Elastic Constant Matrix: (Units=GPa)
#
#
# Indices 1 2 3 4 5 6 
#
# 1 79.1793 19.9037 17.8253 17.1911 17.3329 12.6923
# 2 19.9037 90.6073 30.0860 16.3375 16.3478 6.7154
# 3 17.8253 30.0860 85.1252 15.0570 28.0049 11.6510
# 4 17.1911 16.3375 15.0570 40.0328 -5.2448 8.7893
# 5 17.3329 16.3478 28.0049 -5.2448 43.1088 4.0559
# 6 12.6923 6.7154 11.6510 8.7893 4.0559 29.0032
#
#
#
# Elastic Compliance Matrix: (Units=1/GPa)
#
#
# Indices 1 2 3 4 5 6 
#
# 1 0.016500 -0.001077 0.001243 -0.007164 -0.007505 -0.004250
# 2 -0.001077 0.013611 -0.002609 -0.004648 -0.003626 0.000283
# 3 0.001243 -0.002609 0.017971 -0.007019 -0.011720 -0.003393
# 4 -0.007164 -0.004648 -0.007019 0.035703 0.014088 -0.005759
# 5 -0.007505 -0.003626 -0.011720 0.014088 0.036975 -0.000608
# 6 -0.004250 0.000283 -0.003393 -0.005759 -0.000608 0.039467
#
#
# Mechanical properties :
#
#
# Convention : Reuss Voigt Hill
#
# Bulk Modulus (GPa) = 23.14933 43.39354 33.27144
# Shear Modulus (GPa) = 27.85388 34.90209 31.37798
#
# Velocity S-wave (km/s) = 3.52405 3.94480 3.74035
# Velocity P-wave (km/s) = 5.18459 6.33215 5.78688
#
# Compressibility (1/GPa) = 0.04319780
#
# Stress axis : x y z
#
# Youngs Moduli (GPa) = 60.60608 73.47148 55.64672
#
# Poissons Ratio (x) = 0.07909 -0.06919
# Poissons Ratio (y) = 0.06524 0.14516
# Poissons Ratio (z) = -0.07536 0.19166
#
# Static dielectric constant tensor:
#      x y z
#    x 1.875470 0.041330 0.019960 
#    y 0.041330 1.844830 -0.032360 
#    z 0.019960 -0.032360 1.847480 
# 
# From -- ./inp_files/52389.got.cif
#   From: 2010.05.17/outbox.cif.g08.bks.cpg/sg2_27_cif.got.tgz:52389.got - 2010.06.03 11:33:40.
