data_PCOD9101781
_publ_section_title
;
Structure prediction by ZEFSAII (Michael W. Deem and Ramdas Pophale) SiO2 
 PCOD9101781
Probable space group: P -1
;
_chemical_formula_sum "Si O2"
_cell_formula_units_Z 14
_cell_length_a 11.991977
_cell_length_b 5.680842
_cell_length_c 20.819006
_cell_angle_alpha 82.612409
_cell_angle_beta 154.803084
_cell_angle_gamma 106.395734
_cell_volume 550.614875
_symmetry_space_group_name_H-M "P -1"
_symmetry_group_IT_number 2
_symmetry_cell_setting 'triclinic'
loop_
_space_group_symop_operation_xyz
x,y,z
-x,-y,-z
loop_
_atom_site_type_symbol
_atom_site_label
_atom_site_fract_x
_atom_site_fract_y
_atom_site_fract_z
Si Si1 0.758771 0.980101 0.239002
Si Si2 0.350067 0.293231 0.567684
Si Si3 0.764089 0.443095 0.064738
Si Si4 0.357907 0.182465 0.094558
Si Si5 0.780815 0.630971 0.368081
Si Si6 0.624886 0.278483 0.589465
Si Si7 0.077697 0.346114 0.104374
O O1 0.853077 0.776300 0.332806
O O2 0.585777 0.064794 0.199207
O O3 0.527938 0.814014 0.071238
O O4 0.056224 0.223049 0.377710
O O5 0.252127 0.209906 0.593051
O O6 0.534033 0.195827 0.619517
O O7 0.598258 0.569692 0.704581
O O8 0.034556 0.571699 0.247069
O O9 0.908205 0.386386 0.077381
O O10 0.671880 0.674539 0.990242
O O11 0.481624 0.396503 0.205554
O O12 0.068812 0.957528 0.971644
O O13 0.000000 0.500000 0.500000
O O14 0.500000 0.500000 0.500000
O O15 0.500000 0.000000 0.500000
O O16 0.000000 0.500000 0.000000
#
# Coordination Sequence:
#
# PCOD9101781 Si02
#       7
#     2   2   2   2   2   2   2
#     4  10  21  39  62 101 139 170 219 264 349 423
#     4  11  23  41  66  98 132 179 228 280 341 407
#     4   9  22  41  67  89 129 176 214 286 350 398
#     4  10  20  38  60  92 142 178 209 271 334 428
#     4  11  22  35  61 102 141 179 213 264 336 419
#     4  11  28  52  74 100 132 179 244 303 348 397
#     4  10  21  35  56  94 135 175 226 261 334 411
#
# _framework density 25.426121999999999
#
# number of rings (size 3 to 8) (size 9 to 14) (size 15 to 20)
#    0.000    1.714    1.429    3.000    8.000    3.429 
#    0.000    1.429    0.000    0.000    0.000    0.000 
#    0.000    0.000    0.000    0.000    0.000    0.000 
#
# Total GULP energy -77983.308247 kJ/mol
# GULP energy per Si atom -5570.236303 kJ/mol
# Density = 2.536825 g / cm^3
# Si number density = 25.426122 Si / 1000 Ang^3
#
#
#
# Elastic Constant Matrix: (Units=GPa)
#
#
# Indices 1 2 3 4 5 6 
#
# 1 58.9668 23.7298 10.4857 13.4694 -5.1336 5.8111
# 2 23.7298 94.7980 69.5207 4.2890 -27.5543 9.8872
# 3 10.4857 69.5207 258.9549 50.6808 2.9850 8.8712
# 4 13.4694 4.2890 50.6808 58.5126 -6.2121 -6.8447
# 5 -5.1336 -27.5543 2.9850 -6.2121 29.5334 2.6689
# 6 5.8111 9.8872 8.8712 -6.8447 2.6689 28.6821
#
#
#
# Elastic Compliance Matrix: (Units=1/GPa)
#
#
# Indices 1 2 3 4 5 6 
#
# 1 0.021706 -0.008998 0.003379 -0.008380 -0.006388 -0.003746
# 2 -0.008998 0.027793 -0.009299 0.010473 0.027960 -0.004984
# 3 0.003379 -0.009299 0.007988 -0.008244 -0.010545 -0.000936
# 4 -0.008380 0.010473 -0.008244 0.027612 0.014424 0.005885
# 5 -0.006388 0.027960 -0.010545 0.014424 0.063619 -0.007560
# 6 -0.003746 -0.004984 -0.000936 0.005885 -0.007560 0.039739
#
#
# Mechanical properties :
#
#
# Convention : Reuss Voigt Hill
#
# Bulk Modulus (GPa) = 36.16368 68.91024 52.53696
# Shear Modulus (GPa) = 21.97689 43.94451 32.96070
#
# Velocity S-wave (km/s) = 2.94316 4.16182 3.60437
# Velocity P-wave (km/s) = 5.07972 7.08910 6.16680
#
# Compressibility (1/GPa) = 0.02765205
#
# Stress axis : x y z
#
# Youngs Moduli (GPa) = 46.06956 35.98005 125.18213
#
# Poissons Ratio (x) = 0.32376 -0.42298
# Poissons Ratio (y) = 0.41455 1.16401
# Poissons Ratio (z) = -0.15566 0.33456
#
# Static dielectric constant tensor:
#      x y z
#    x 2.103000 0.054820 0.016610 
#    y 0.054820 2.081570 0.037330 
#    z 0.016610 0.037330 2.091120 
# 
# From -- ./inp_files/362850.got.cif
#   From: 2010.05.17/outbox.cif.g08.bks.cpg/sg2_182_cif.got.tgz:362850.got - 2010.06.03 11:33:40.
