data_PCOD9101316
_publ_section_title
;
Structure prediction by ZEFSAII (Michael W. Deem and Ramdas Pophale) SiO2 
 PCOD9101316
Probable space group: P -1
;
_chemical_formula_sum "Si O2"
_cell_formula_units_Z 16
_cell_length_a 8.760069
_cell_length_b 8.014890
_cell_length_c 15.543354
_cell_angle_alpha 58.271172
_cell_angle_beta 94.163437
_cell_angle_gamma 52.775686
_cell_volume 603.700188
_symmetry_space_group_name_H-M "P -1"
_symmetry_group_IT_number 2
_symmetry_cell_setting 'triclinic'
loop_
_space_group_symop_operation_xyz
x,y,z
-x,-y,-z
loop_
_atom_site_type_symbol
_atom_site_label
_atom_site_fract_x
_atom_site_fract_y
_atom_site_fract_z
Si Si1 0.713012 0.184027 0.943847
Si Si2 0.303963 0.370687 0.202539
Si Si3 0.135952 0.664830 0.416568
Si Si4 0.951798 0.480682 0.370340
Si Si5 0.218906 0.677522 0.706333
Si Si6 0.478749 0.758631 0.930625
Si Si7 0.130609 0.351665 0.957988
Si Si8 0.570588 0.207047 0.432573
O O1 0.817901 0.297987 0.910848
O O2 0.440373 0.497050 0.825580
O O3 0.748043 0.025518 0.076288
O O4 0.762007 0.967814 0.937915
O O5 0.473876 0.191483 0.173936
O O6 0.433633 0.262841 0.326910
O O7 0.090376 0.426476 0.176034
O O8 0.976962 0.685463 0.339801
O O9 0.388230 0.427949 0.442488
O O10 0.136922 0.537830 0.539550
O O11 0.003908 0.997307 0.345393
O O12 0.808246 0.517556 0.277121
O O13 0.217952 0.150816 0.450447
O O14 0.291445 0.733125 0.609680
O O15 0.500000 0.500000 0.000000
O O16 0.667705 0.683906 0.020323
O O17 0.000000 0.500000 0.000000
#
# Coordination Sequence:
#
# PCOD9101316 Si02
#       8
#     2   2   2   2   2   2   2   2
#     4  10  20  40  59  88 124 163 206 257 316 370
#     4   9  20  38  60  88 121 164 202 262 305 370
#     4  10  21  41  63  92 127 168 210 260 321 373
#     4  10  22  41  65  94 131 163 212 266 315 383
#     4  10  23  42  61  95 132 162 214 264 313 385
#     4   9  19  38  60  85 120 161 201 254 310 366
#     4  10  20  38  58  87 121 159 211 254 309 376
#     4  10  20  40  65  92 127 163 213 258 320 376
#
# _framework density 26.503222999999998
#
# number of rings (size 3 to 8) (size 9 to 14) (size 15 to 20)
#    0.000    2.250    0.000    2.625    0.000    3.000 
#   40.500    0.000    0.000    0.000    0.000    0.000 
#    0.000    0.000    0.000    0.000    0.000    0.000 
#
# Total GULP energy -89221.772582 kJ/mol
# GULP energy per Si atom -5576.360786 kJ/mol
# Density = 2.644290 g / cm^3
# Si number density = 26.503223 Si / 1000 Ang^3
#
#
#
# Elastic Constant Matrix: (Units=GPa)
#
#
# Indices 1 2 3 4 5 6 
#
# 1 139.1939 34.5646 25.4266 24.0939 4.9016 -1.4242
# 2 34.5646 161.9273 14.2457 10.1646 0.1954 -31.0838
# 3 25.4266 14.2457 64.5555 15.9510 14.1929 -0.7359
# 4 24.0939 10.1646 15.9510 32.5268 1.6169 3.2034
# 5 4.9016 0.1954 14.1929 1.6169 42.9724 18.7518
# 6 -1.4242 -31.0838 -0.7359 3.2034 18.7518 59.8844
#
#
#
# Elastic Compliance Matrix: (Units=1/GPa)
#
#
# Indices 1 2 3 4 5 6 
#
# 1 0.008764 -0.001438 -0.001862 -0.005100 -0.000070 -0.000266
# 2 -0.001438 0.007453 -0.000303 -0.001469 -0.001645 0.004424
# 3 -0.001862 -0.000303 0.019952 -0.008221 -0.007271 0.002760
# 4 -0.005100 -0.001469 -0.008221 0.039246 0.003675 -0.004235
# 5 -0.000070 -0.001645 -0.007271 0.003675 0.030170 -0.010589
# 6 -0.000266 0.004424 0.002760 -0.004235 -0.010589 0.022565
#
#
# Mechanical properties :
#
#
# Convention : Reuss Voigt Hill
#
# Bulk Modulus (GPa) = 34.52723 57.12783 45.82753
# Shear Modulus (GPa) = 34.48026 46.50604 40.49315
#
# Velocity S-wave (km/s) = 3.61083 4.19350 3.91302
# Velocity P-wave (km/s) = 5.51724 6.71186 6.14366
#
# Compressibility (1/GPa) = 0.02896265
#
# Stress axis : x y z
#
# Youngs Moduli (GPa) = 114.10489 134.18008 50.11970
#
# Poissons Ratio (x) = 0.19292 0.09333
# Poissons Ratio (y) = 0.16405 0.01520
# Poissons Ratio (z) = 0.21248 0.04068
#
# Static dielectric constant tensor:
#      x y z
#    x 2.167330 -0.045840 -0.005890 
#    y -0.045840 2.677800 0.127190 
#    z -0.005890 0.127190 2.163010 
# 
# From -- ./inp_files/556074.got.cif
#   From: 2010.05.17/outbox.cif.g08.bks.cpg/sg2_279_cif.got.tgz:556074.got - 2010.06.03 11:33:40.
