data_PCOD9101140
_publ_section_title
;
Structure prediction by ZEFSAII (Michael W. Deem and Ramdas Pophale) SiO2 
 PCOD9101140
Probable space group: P -1
;
_chemical_formula_sum "Si O2"
_cell_formula_units_Z 16
_cell_length_a 15.255227
_cell_length_b 9.088443
_cell_length_c 14.089851
_cell_angle_alpha 70.599587
_cell_angle_beta 28.268047
_cell_angle_gamma 90.789427
_cell_volume 635.136881
_symmetry_space_group_name_H-M "P -1"
_symmetry_group_IT_number 2
_symmetry_cell_setting 'triclinic'
loop_
_space_group_symop_operation_xyz
x,y,z
-x,-y,-z
loop_
_atom_site_type_symbol
_atom_site_label
_atom_site_fract_x
_atom_site_fract_y
_atom_site_fract_z
Si Si1 0.046575 0.931275 0.375608
Si Si2 0.323127 0.978172 0.532451
Si Si3 0.740244 0.595938 0.594816
Si Si4 0.146958 0.752580 0.934461
Si Si5 0.667869 0.658410 0.117860
Si Si6 0.090918 0.990279 0.064096
Si Si7 0.082586 0.662660 0.684200
Si Si8 0.170757 0.680935 0.378715
O O1 0.220065 0.879421 0.245120
O O2 0.780408 0.716126 0.627963
O O3 0.000000 0.000000 0.500000
O O4 0.171754 0.126235 0.144134
O O5 0.201802 0.784716 0.764042
O O6 0.316752 0.898026 0.451240
O O7 0.604769 0.163229 0.263412
O O8 0.145672 0.027914 0.694090
O O9 0.558240 0.525321 0.694954
O O10 0.662933 0.374398 0.741833
O O11 0.019896 0.799290 0.240269
O O12 0.116755 0.916742 0.956267
O O13 0.918098 0.513591 0.239991
O O14 0.845283 0.611236 0.971103
O O15 0.666535 0.761735 0.192909
O O16 0.054867 0.651293 0.599860
O O17 0.000000 0.500000 0.500000
#
# Coordination Sequence:
#
# PCOD9101140 Si02
#       8
#     2   2   2   2   2   2   2   2
#     4  10  20  38  56  81 118 153 195 251 294 347
#     4  10  24  40  61  94 122 154 203 247 296 365
#     4  10  21  38  57  84 118 152 200 240 293 361
#     4  11  22  40  65  90 120 161 200 243 305 355
#     4  10  22  37  59  87 115 160 198 241 301 355
#     4  10  21  39  62  87 123 156 196 248 295 352
#     4  11  21  41  61  85 123 156 196 248 300 350
#     4  10  21  38  58  83 119 154 194 246 291 351
#
# _framework density 25.191423
#
# number of rings (size 3 to 8) (size 9 to 14) (size 15 to 20)
#    0.000    1.750    2.500    1.500    1.750    1.000 
#    0.000    0.000    0.000    8.250    0.000    0.000 
#    0.000    0.000    0.000    0.000    0.000    0.000 
#
# Total GULP energy -89174.932908 kJ/mol
# GULP energy per Si atom -5573.433307 kJ/mol
# Density = 2.513409 g / cm^3
# Si number density = 25.191423 Si / 1000 Ang^3
#
#
#
# Elastic Constant Matrix: (Units=GPa)
#
#
# Indices 1 2 3 4 5 6 
#
# 1 84.0231 44.7392 19.0906 -10.7294 -16.0590 10.4015
# 2 44.7392 152.2074 24.1953 -19.0389 -15.3708 21.8882
# 3 19.0906 24.1953 42.5156 -15.2389 -18.9969 0.6826
# 4 -10.7294 -19.0389 -15.2389 34.6971 -1.7498 -0.6210
# 5 -16.0590 -15.3708 -18.9969 -1.7498 42.5591 -0.9299
# 6 10.4015 21.8882 0.6826 -0.6210 -0.9299 47.7570
#
#
#
# Elastic Compliance Matrix: (Units=1/GPa)
#
#
# Indices 1 2 3 4 5 6 
#
# 1 0.015376 -0.003242 -0.002842 0.001868 0.003402 -0.001732
# 2 -0.003242 0.008779 -0.001909 0.002976 0.001147 -0.003229
# 3 -0.002842 -0.001909 0.038863 0.015989 0.016274 0.001463
# 4 0.001868 0.002976 0.015989 0.038559 0.010474 -0.001294
# 5 0.003402 0.001147 0.016274 0.010474 0.032874 -0.000723
# 6 -0.001732 -0.003229 0.001463 -0.001294 -0.000723 0.022745
#
#
# Mechanical properties :
#
#
# Convention : Reuss Voigt Hill
#
# Bulk Modulus (GPa) = 21.26225 50.53290 35.89758
# Shear Modulus (GPa) = 26.47483 37.71737 32.09610
#
# Velocity S-wave (km/s) = 3.24535 3.87360 3.57331
# Velocity P-wave (km/s) = 4.74359 6.33321 5.59514
#
# Compressibility (1/GPa) = 0.04703170
#
# Stress axis : x y z
#
# Youngs Moduli (GPa) = 65.03458 113.91111 25.73164
#
# Poissons Ratio (x) = 0.36925 0.07314
# Poissons Ratio (y) = 0.21081 0.04913
# Poissons Ratio (z) = 0.18484 0.21749
#
# Static dielectric constant tensor:
#      x y z
#    x 2.111650 0.088320 -0.043190 
#    y 0.088320 2.090140 0.033630 
#    z -0.043190 0.033630 2.030300 
# 
# From -- ./inp_files/55262.got.cif
#   From: 2010.05.17/outbox.cif.g08.bks.cpg/sg2_28_cif.got.tgz:55262.got - 2010.06.03 11:33:40.
