data_PCOD9101759
_publ_section_title
;
Structure prediction by ZEFSAII (Michael W. Deem and Ramdas Pophale) SiO2 
 PCOD9101759
Probable space group: P -1
;
_chemical_formula_sum "Si O2"
_cell_formula_units_Z 16
_cell_length_a 11.370674
_cell_length_b 11.565094
_cell_length_c 15.223929
_cell_angle_alpha 57.494559
_cell_angle_beta 38.868086
_cell_angle_gamma 35.817449
_cell_volume 710.720442
_symmetry_space_group_name_H-M "P -1"
_symmetry_group_IT_number 2
_symmetry_cell_setting 'triclinic'
loop_
_space_group_symop_operation_xyz
x,y,z
-x,-y,-z
loop_
_atom_site_type_symbol
_atom_site_label
_atom_site_fract_x
_atom_site_fract_y
_atom_site_fract_z
Si Si1 0.580311 0.816312 0.116755
Si Si2 0.845523 0.450852 0.647082
Si Si3 0.956458 0.849401 0.492492
Si Si4 0.915869 0.161921 0.386438
Si Si5 0.535584 0.057221 0.187871
Si Si6 0.299649 0.763169 0.928514
Si Si7 0.940785 0.443431 0.190396
Si Si8 0.995061 0.668116 0.195813
O O1 0.628621 0.928187 0.099493
O O2 0.733617 0.618415 0.167038
O O3 0.248496 0.971517 0.245587
O O4 0.752518 0.732613 0.961070
O O5 0.513367 0.654552 0.767612
O O6 0.974165 0.355751 0.707834
O O7 0.000000 0.500000 0.500000
O O8 0.894018 0.297382 0.617003
O O9 0.129327 0.799211 0.498487
O O10 0.761862 0.838195 0.652598
O O11 0.796797 0.077027 0.465472
O O12 0.832673 0.351952 0.316593
O O13 0.727506 0.897798 0.221314
O O14 0.548872 0.212369 0.103773
O O15 0.244070 0.635313 0.033592
O O16 0.000000 0.000000 0.000000
O O17 0.968991 0.536260 0.215895
#
# Coordination Sequence:
#
# PCOD9101759 Si02
#       8
#     2   2   2   2   2   2   2   2
#     4   9  20  36  62  87 120 157 210 261 307 381
#     4  12  23  40  64  93 125 169 210 257 309 378
#     4  10  22  39  61  91 125 161 212 254 312 378
#     4  10  21  40  62  86 125 166 200 263 313 367
#     4   9  19  42  61  86 126 159 201 266 317 357
#     4  10  22  42  63  89 127 166 203 260 319 364
#     4  10  20  38  60  91 120 161 207 256 320 367
#     4  10  23  38  64  92 125 162 211 260 306 379
#
# _framework density 22.512369
#
# number of rings (size 3 to 8) (size 9 to 14) (size 15 to 20)
#    0.000    2.000    1.250    1.500    3.500    1.500 
#    0.000   12.500    0.000    0.000    0.000    0.000 
#    0.000    0.000    0.000    0.000    0.000    0.000 
#
# Total GULP energy -89277.918583 kJ/mol
# GULP energy per Si atom -5579.869911 kJ/mol
# Density = 2.246113 g / cm^3
# Si number density = 22.512369 Si / 1000 Ang^3
#
#
#
# Elastic Constant Matrix: (Units=GPa)
#
#
# Indices 1 2 3 4 5 6 
#
# 1 46.6626 38.7313 29.0713 3.4032 10.5284 14.8172
# 2 38.7313 111.5322 42.1270 -18.5129 9.2155 24.5174
# 3 29.0713 42.1270 100.3283 -13.6247 2.5319 15.2478
# 4 3.4032 -18.5129 -13.6247 45.8023 12.2996 -3.8403
# 5 10.5284 9.2155 2.5319 12.2996 40.8344 1.5460
# 6 14.8172 24.5174 15.2478 -3.8403 1.5460 46.9723
#
#
#
# Elastic Compliance Matrix: (Units=1/GPa)
#
#
# Indices 1 2 3 4 5 6 
#
# 1 0.037297 -0.010398 -0.006743 -0.008247 -0.004190 -0.004685
# 2 -0.010398 0.015429 -0.001939 0.006839 -0.002608 -0.003499
# 3 -0.006743 -0.001939 0.013345 0.003524 0.000322 -0.000915
# 4 -0.008247 0.006839 0.003524 0.028513 -0.008242 0.000491
# 5 -0.004190 -0.002608 0.000322 -0.008242 0.028584 0.000964
# 6 -0.004685 -0.003499 -0.000915 0.000491 0.000964 0.024899
#
#
# Mechanical properties :
#
#
# Convention : Reuss Voigt Hill
#
# Bulk Modulus (GPa) = 35.82950 53.15359 44.49154
# Shear Modulus (GPa) = 25.57140 36.62804 31.09972
#
# Velocity S-wave (km/s) = 3.37394 4.03801 3.72082
# Velocity P-wave (km/s) = 5.57925 6.73816 6.18590
#
# Compressibility (1/GPa) = 0.02790996
#
# Stress axis : x y z
#
# Youngs Moduli (GPa) = 26.81204 64.81242 74.93401
#
# Poissons Ratio (x) = 0.67389 0.50532
# Poissons Ratio (y) = 0.27878 0.14533
# Poissons Ratio (z) = 0.18081 0.12570
#
# Static dielectric constant tensor:
#      x y z
#    x 1.756460 0.048310 0.002400 
#    y 0.048310 1.914100 -0.029950 
#    z 0.002400 -0.029950 1.818510 
# 
# From -- ./inp_files/519575.got.cif
#   From: 2010.05.17/outbox.cif.g08.bks.cpg/sg2_260_cif.got.tgz:519575.got - 2010.06.03 11:33:40.
