data_PCOD9101276
_publ_section_title
;
Structure prediction by ZEFSAII (Michael W. Deem and Ramdas Pophale) SiO2 
 PCOD9101276
Probable space group: P -1
;
_chemical_formula_sum "Si O2"
_cell_formula_units_Z 16
_cell_length_a 14.448371
_cell_length_b 14.441800
_cell_length_c 13.345189
_cell_angle_alpha 31.431839
_cell_angle_beta 152.341783
_cell_angle_gamma 137.822313
_cell_volume 672.830636
_symmetry_space_group_name_H-M "P -1"
_symmetry_group_IT_number 2
_symmetry_cell_setting 'triclinic'
loop_
_space_group_symop_operation_xyz
x,y,z
-x,-y,-z
loop_
_atom_site_type_symbol
_atom_site_label
_atom_site_fract_x
_atom_site_fract_y
_atom_site_fract_z
Si Si1 0.627309 0.652975 0.673897
Si Si2 0.088438 0.253700 0.290115
Si Si3 0.578461 0.774405 0.862649
Si Si4 0.169027 0.492650 0.527716
Si Si5 0.645948 0.607463 0.418479
Si Si6 0.362875 0.849585 0.380698
Si Si7 0.739249 0.146839 0.176794
Si Si8 0.228783 0.665651 0.760602
O O1 0.846195 0.679182 0.817234
O O2 0.493088 0.559141 0.549765
O O3 0.497159 0.819861 0.437398
O O4 0.650812 0.507483 0.918122
O O5 0.183605 0.375056 0.353080
O O6 0.863712 0.227090 0.130889
O O7 0.211143 0.062126 0.589715
O O8 0.513023 0.800271 0.662114
O O9 0.373161 0.772059 0.731030
O O10 0.699214 0.943691 0.856117
O O11 0.701725 0.594717 0.176949
O O12 0.256663 0.417621 0.574787
O O13 0.195333 0.704595 0.354828
O O14 0.953717 0.414259 0.397840
O O15 0.489689 0.779716 0.111750
O O16 0.825471 0.217060 0.300566
#
# Coordination Sequence:
#
# PCOD9101276 Si02
#       8
#     2   2   2   2   2   2   2   2
#     4  10  22  39  61  88 124 165 205 259 306 369
#     4  11  21  37  58  87 124 162 206 257 301 368
#     4  11  22  45  69  90 130 164 201 271 312 373
#     4  11  22  42  66  95 126 166 208 258 315 376
#     4  10  20  38  58  84 119 161 207 249 307 363
#     4  10  23  44  67  95 124 165 212 253 323 374
#     4  10  21  37  57  87 122 162 206 253 311 362
#     4  11  22  41  64  90 130 166 206 263 312 372
#
# _framework density 23.78013
#
# number of rings (size 3 to 8) (size 9 to 14) (size 15 to 20)
#    0.000    1.500    5.000    1.875    0.000    2.500 
#    9.000    1.250    0.000    0.000    0.000    0.000 
#    0.000    0.000    0.000    0.000    0.000    0.000 
#
# Total GULP energy -89484.196709 kJ/mol
# GULP energy per Si atom -5592.762294 kJ/mol
# Density = 2.372601 g / cm^3
# Si number density = 23.780130 Si / 1000 Ang^3
#
#
#
# Elastic Constant Matrix: (Units=GPa)
#
#
# Indices 1 2 3 4 5 6 
#
# 1 71.2733 13.1290 2.8851 -13.2421 -0.3751 4.6520
# 2 13.1290 96.1543 18.8211 -10.8002 10.1391 8.1388
# 3 2.8851 18.8211 30.2864 -9.8588 0.0350 3.4691
# 4 -13.2421 -10.8002 -9.8588 35.9861 -6.3688 2.0224
# 5 -0.3751 10.1391 0.0350 -6.3688 14.9591 -6.0049
# 6 4.6520 8.1388 3.4691 2.0224 -6.0049 29.0497
#
#
#
# Elastic Compliance Matrix: (Units=1/GPa)
#
#
# Indices 1 2 3 4 5 6 
#
# 1 0.015676 -0.002071 0.002119 0.006507 0.003821 -0.001846
# 2 -0.002071 0.013832 -0.008009 -0.000588 -0.011647 -0.004954
# 3 0.002119 -0.008009 0.041786 0.011624 0.009563 -0.001918
# 4 0.006507 -0.000588 0.011624 0.035972 0.015196 -0.001629
# 5 0.003821 -0.011647 0.009563 0.015196 0.088839 0.018816
# 6 -0.001846 -0.004954 -0.001918 -0.001629 0.018816 0.040339
#
#
# Mechanical properties :
#
#
# Convention : Reuss Voigt Hill
#
# Bulk Modulus (GPa) = 18.05967 29.70938 23.88452
# Shear Modulus (GPa) = 18.46227 26.85756 22.65992
#
# Velocity S-wave (km/s) = 2.78937 3.36432 3.09025
# Velocity P-wave (km/s) = 4.24088 5.25471 4.77478
#
# Compressibility (1/GPa) = 0.05537201
#
# Stress axis : x y z
#
# Youngs Moduli (GPa) = 63.79241 72.29745 23.93164
#
# Poissons Ratio (x) = 0.14972 -0.05071
# Poissons Ratio (y) = 0.13211 0.19166
# Poissons Ratio (z) = -0.13518 0.57901
#
# Static dielectric constant tensor:
#      x y z
#    x 1.935040 -0.008570 0.011820 
#    y -0.008570 1.917120 -0.002140 
#    z 0.011820 -0.002140 1.910330 
# 
# From -- ./inp_files/534167.got.cif
#   From: 2010.05.17/outbox.cif.g08.bks.cpg/sg2_268_cif.got.tgz:534167.got - 2010.06.03 11:33:40.
