data_PCOD9101488
_publ_section_title
;
Structure prediction by ZEFSAII (Michael W. Deem and Ramdas Pophale) SiO2 
 PCOD9101488
Probable space group: P -1
;
_chemical_formula_sum "Si O2"
_cell_formula_units_Z 16
_cell_length_a 24.694075
_cell_length_b 7.101213
_cell_length_c 5.440240
_cell_angle_alpha 61.975273
_cell_angle_beta 119.388427
_cell_angle_gamma 122.250733
_cell_volume 674.399701
_symmetry_space_group_name_H-M "P -1"
_symmetry_group_IT_number 2
_symmetry_cell_setting 'triclinic'
loop_
_space_group_symop_operation_xyz
x,y,z
-x,-y,-z
loop_
_atom_site_type_symbol
_atom_site_label
_atom_site_fract_x
_atom_site_fract_y
_atom_site_fract_z
Si Si1 0.008628 0.824604 0.435150
Si Si2 0.112725 0.246775 0.131144
Si Si3 0.669829 0.811834 0.500751
Si Si4 0.878492 0.294986 0.100607
Si Si5 0.650111 0.316477 0.612487
Si Si6 0.421063 0.937561 0.884861
Si Si7 0.233735 0.704538 0.810295
Si Si8 0.213144 0.215003 0.993399
O O1 0.043105 0.665480 0.726427
O O2 0.068020 0.995812 0.289419
O O3 0.000000 0.000000 0.500000
O O4 0.937555 0.722240 0.205403
O O5 0.179339 0.232794 0.171826
O O6 0.124457 0.476109 0.178653
O O7 0.661016 0.583736 0.471959
O O8 0.712008 0.784916 0.846335
O O9 0.599458 0.841192 0.325149
O O10 0.722693 0.056392 0.368422
O O11 0.835881 0.291059 0.253916
O O12 0.838949 0.032525 0.070495
O O13 0.617321 0.209811 0.347565
O O14 0.605497 0.189499 0.833534
O O15 0.720869 0.298188 0.848074
O O16 0.500000 0.000000 0.000000
O O17 0.224129 0.474620 0.772118
#
# Coordination Sequence:
#
# PCOD9101488 Si02
#       8
#     2   2   2   2   2   2   2   2
#     4  11  22  40  57  81 115 153 194 249 302 372
#     4  10  23  40  56  84 116 146 202 248 301 374
#     4  10  22  40  64  93 129 167 205 262 315 368
#     4  11  21  37  61  84 117 158 192 251 314 360
#     4  10  23  42  66  97 132 171 218 263 310 379
#     4  11  24  42  66  99 135 172 216 261 312 376
#     4   9  21  38  61  91 123 157 207 255 307 372
#     4  10  20  38  59  89 118 153 204 250 311 370
#
# _framework density 23.724802
#
# number of rings (size 3 to 8) (size 9 to 14) (size 15 to 20)
#    0.000    1.750    1.250    2.250    0.000    7.500 
#    2.250    0.000    0.000    0.000    0.000    0.000 
#    0.000    0.000    0.000    0.000    0.000    0.000 
#
# Total GULP energy -89228.437278 kJ/mol
# GULP energy per Si atom -5576.777330 kJ/mol
# Density = 2.367080 g / cm^3
# Si number density = 23.724802 Si / 1000 Ang^3
#
#
#
# Elastic Constant Matrix: (Units=GPa)
#
#
# Indices 1 2 3 4 5 6 
#
# 1 104.2801 -0.9480 33.0807 -13.8767 24.1239 -6.6890
# 2 -0.9480 117.2555 29.7960 -10.3423 2.2533 -29.8907
# 3 33.0807 29.7960 87.7084 7.5782 24.8983 -11.1893
# 4 -13.8767 -10.3423 7.5782 26.2557 -2.9672 4.8639
# 5 24.1239 2.2533 24.8983 -2.9672 40.6626 -9.2962
# 6 -6.6890 -29.8907 -11.1893 4.8639 -9.2962 30.4364
#
#
#
# Elastic Compliance Matrix: (Units=1/GPa)
#
#
# Indices 1 2 3 4 5 6 
#
# 1 0.013575 0.002637 -0.005597 0.009231 -0.003905 0.000848
# 2 0.002637 0.013673 -0.005987 0.006782 0.004612 0.012131
# 3 -0.005597 -0.005987 0.018991 -0.011630 -0.009062 -0.001038
# 4 0.009231 0.006782 -0.011630 0.049902 0.004404 -0.002216
# 5 -0.003905 0.004612 -0.009062 0.004404 0.034876 0.010288
# 6 0.000848 0.012131 -0.001038 -0.002216 0.010288 0.048071
#
#
# Mechanical properties :
#
#
# Convention : Reuss Voigt Hill
#
# Bulk Modulus (GPa) = 35.27788 48.12239 41.70014
# Shear Modulus (GPa) = 24.22114 35.95864 30.08989
#
# Velocity S-wave (km/s) = 3.19865 3.89737 3.56517
# Velocity P-wave (km/s) = 5.34263 6.37026 5.87894
#
# Compressibility (1/GPa) = 0.02834637
#
# Stress axis : x y z
#
# Youngs Moduli (GPa) = 73.66383 73.13544 52.65539
#
# Poissons Ratio (x) = -0.19288 0.29470
# Poissons Ratio (y) = -0.19428 0.31527
# Poissons Ratio (z) = 0.41228 0.43789
#
# Static dielectric constant tensor:
#      x y z
#    x 1.987510 0.140540 -0.122490 
#    y 0.140540 2.180040 -0.135610 
#    z -0.122490 -0.135610 2.079820 
# 
# From -- ./inp_files/12910.got.cif
#   From: 2010.05.17/outbox.cif.g08.bks.cpg/sg2_7_cif.got.tgz:12910.got - 2010.06.03 11:33:40.
