data_PCOD9101607
_publ_section_title
;
Structure prediction by ZEFSAII (Michael W. Deem and Ramdas Pophale) SiO2 
 PCOD9101607
Probable space group: P -1
;
_chemical_formula_sum "Si O2"
_cell_formula_units_Z 16
_cell_length_a 11.994927
_cell_length_b 13.034072
_cell_length_c 12.595289
_cell_angle_alpha 34.664448
_cell_angle_beta 35.902725
_cell_angle_gamma 37.723958
_cell_volume 609.128216
_symmetry_space_group_name_H-M "P -1"
_symmetry_group_IT_number 2
_symmetry_cell_setting 'triclinic'
loop_
_space_group_symop_operation_xyz
x,y,z
-x,-y,-z
loop_
_atom_site_type_symbol
_atom_site_label
_atom_site_fract_x
_atom_site_fract_y
_atom_site_fract_z
Si Si1 0.351986 0.794784 0.684891
Si Si2 0.030818 0.329290 0.405933
Si Si3 0.447793 0.310346 0.851283
Si Si4 0.048673 0.625103 0.975626
Si Si5 0.238363 0.920151 0.878508
Si Si6 0.148620 0.955608 0.321210
Si Si7 0.706504 0.435378 0.727851
Si Si8 0.435516 0.049529 0.258633
O O1 0.188375 0.694019 0.889576
O O2 0.289866 0.951487 0.692208
O O3 0.574910 0.654501 0.666671
O O4 0.369513 0.873034 0.488200
O O5 0.275544 0.235030 0.287136
O O6 0.924585 0.405421 0.534342
O O7 0.961788 0.493540 0.226857
O O8 0.956402 0.153835 0.583079
O O9 0.219794 0.483388 0.879651
O O10 0.575164 0.384492 0.776728
O O11 0.616249 0.206472 0.718545
O O12 0.419999 0.127310 0.086785
O O13 0.887268 0.828989 0.881287
O O14 0.343389 0.003442 0.815941
O O15 0.297577 0.696535 0.058010
O O16 0.000000 0.000000 0.000000
O O17 0.000000 0.000000 0.500000
#
# Coordination Sequence:
#
# PCOD9101607 Si02
#       8
#     2   2   2   2   2   2   2   2
#     4  11  21  36  60  88 118 169 213 246 308 364
#     4  10  21  42  64  89 125 163 208 253 306 377
#     4   8  20  39  59  90 124 155 207 254 298 379
#     4  10  22  40  64  90 126 169 206 252 314 370
#     4  11  23  36  55  87 126 160 208 265 297 349
#     4  11  23  41  68  95 124 160 203 260 319 377
#     4   9  20  36  56  83 121 161 202 254 300 360
#     4  10  20  38  60  84 123 164 205 255 304 361
#
# _framework density 26.267047999999999
#
# number of rings (size 3 to 8) (size 9 to 14) (size 15 to 20)
#    0.000    2.000    1.250    2.250    5.250    1.000 
#    0.000    4.375    0.000    0.000    0.000    0.000 
#    0.000    0.000    0.000    0.000    0.000    0.000 
#
# Total GULP energy -89394.038103 kJ/mol
# GULP energy per Si atom -5587.127381 kJ/mol
# Density = 2.620726 g / cm^3
# Si number density = 26.267048 Si / 1000 Ang^3
#
#
#
# Elastic Constant Matrix: (Units=GPa)
#
#
# Indices 1 2 3 4 5 6 
#
# 1 75.4440 23.1460 4.8488 5.1354 -1.1184 -0.3428
# 2 23.1460 107.6480 23.6167 14.1302 -4.8339 -6.4254
# 3 4.8488 23.6167 97.2550 -5.9089 12.9881 0.2332
# 4 5.1354 14.1302 -5.9089 53.3824 -0.8334 3.0372
# 5 -1.1184 -4.8339 12.9881 -0.8334 29.7917 4.9342
# 6 -0.3428 -6.4254 0.2332 3.0372 4.9342 32.7292
#
#
#
# Elastic Compliance Matrix: (Units=1/GPa)
#
#
# Indices 1 2 3 4 5 6 
#
# 1 0.014213 -0.002996 -0.000028 -0.000553 0.000111 -0.000405
# 2 -0.002996 0.011276 -0.003137 -0.003122 0.002651 0.002095
# 3 -0.000028 -0.003137 0.011925 0.002067 -0.005644 -0.000042
# 4 -0.000553 -0.003122 0.002067 0.019971 -0.000470 -0.002416
# 5 0.000111 0.002651 -0.005644 -0.000470 0.037279 -0.005015
# 6 -0.000405 0.002095 -0.000042 -0.002416 -0.005015 0.031941
#
#
# Mechanical properties :
#
#
# Convention : Reuss Voigt Hill
#
# Bulk Modulus (GPa) = 39.85710 42.61887 41.23799
# Shear Modulus (GPa) = 33.94582 38.42970 36.18776
#
# Velocity S-wave (km/s) = 3.59881 3.82912 3.71575
# Velocity P-wave (km/s) = 5.69871 5.98414 5.84317
#
# Compressibility (1/GPa) = 0.02508963
#
# Stress axis : x y z
#
# Youngs Moduli (GPa) = 70.35597 88.68433 83.85729
#
# Poissons Ratio (x) = 0.26574 0.00239
# Poissons Ratio (y) = 0.21082 0.26310
# Poissons Ratio (z) = 0.00200 0.27824
#
# Static dielectric constant tensor:
#      x y z
#    x 2.049370 -0.013810 -0.030920 
#    y -0.013810 2.098220 -0.028020 
#    z -0.030920 -0.028020 2.068070 
# 
# From -- ./inp_files/534063.got.cif
#   From: 2010.05.17/outbox.cif.g08.bks.cpg/sg2_268_cif.got.tgz:534063.got - 2010.06.03 11:33:40.
