data_PCOD9101198
_publ_section_title
;
Structure prediction by ZEFSAII (Michael W. Deem and Ramdas Pophale) SiO2 
 PCOD9101198
Probable space group: P -1
;
_chemical_formula_sum "Si O2"
_cell_formula_units_Z 14
_cell_length_a 13.178067
_cell_length_b 7.818490
_cell_length_c 8.003253
_cell_angle_alpha 127.058128
_cell_angle_beta 57.419641
_cell_angle_gamma 95.613233
_cell_volume 522.037565
_symmetry_space_group_name_H-M "P -1"
_symmetry_group_IT_number 2
_symmetry_cell_setting 'triclinic'
loop_
_space_group_symop_operation_xyz
x,y,z
-x,-y,-z
loop_
_atom_site_type_symbol
_atom_site_label
_atom_site_fract_x
_atom_site_fract_y
_atom_site_fract_z
Si Si1 0.729733 0.858433 0.959916
Si Si2 0.105291 0.095476 0.841403
Si Si3 0.890519 0.204323 0.633861
Si Si4 0.347840 0.099829 0.485718
Si Si5 0.946052 0.514449 0.368546
Si Si6 0.618046 0.205591 0.006615
Si Si7 0.541114 0.675390 0.234719
O O1 0.822847 0.909022 0.047373
O O2 0.647646 0.718279 0.040010
O O3 0.809616 0.705381 0.643405
O O4 0.644061 0.104501 0.108930
O O5 0.196419 0.172189 0.678340
O O6 0.105590 0.867944 0.609014
O O7 0.966648 0.284015 0.110226
O O8 0.752298 0.231877 0.842436
O O9 0.941866 0.403807 0.759044
O O10 0.000000 0.000000 0.500000
O O11 0.401305 0.286109 0.616261
O O12 0.396507 0.002974 0.207676
O O13 0.412125 0.878132 0.419167
O O14 0.000000 0.500000 0.500000
O O15 0.521892 0.435467 0.142997
#
# Coordination Sequence:
#
# PCOD9101198 Si02
#       7
#     2   2   2   2   2   2   2
#     4  10  21  39  60  92 123 154 206 244 291 370
#     4   9  21  39  61  82 124 159 190 250 298 345
#     4  11  21  37  58  86 118 158 200 237 294 361
#     4   9  20  40  63  88 117 158 205 243 297 361
#     4  10  20  38  57  84 120 157 191 242 293 351
#     4  11  21  39  60  90 120 154 203 248 295 354
#     4  10  21  42  64  83 122 162 193 251 305 343
#
# _framework density 26.817993000000001
#
# number of rings (size 3 to 8) (size 9 to 14) (size 15 to 20)
#    0.000    2.000    1.429    3.000    0.000    3.429 
#    2.571   13.571    0.000    0.000    0.000    0.000 
#    0.000    0.000    0.000    0.000    0.000    0.000 
#
# Total GULP energy -78063.474518 kJ/mol
# GULP energy per Si atom -5575.962466 kJ/mol
# Density = 2.675695 g / cm^3
# Si number density = 26.817993 Si / 1000 Ang^3
#
#
#
# Elastic Constant Matrix: (Units=GPa)
#
#
# Indices 1 2 3 4 5 6 
#
# 1 74.7349 13.8035 24.7651 1.4495 6.1775 5.2442
# 2 13.8035 83.7795 27.2579 -4.4075 2.7149 -10.7448
# 3 24.7651 27.2579 136.9730 -5.8245 -4.3133 17.2427
# 4 1.4495 -4.4075 -5.8245 34.7689 2.2815 -9.7852
# 5 6.1775 2.7149 -4.3133 2.2815 43.1671 -1.6288
# 6 5.2442 -10.7448 17.2427 -9.7852 -1.6288 33.8316
#
#
#
# Elastic Compliance Matrix: (Units=1/GPa)
#
#
# Indices 1 2 3 4 5 6 
#
# 1 0.014860 -0.002117 -0.002092 -0.001808 -0.002203 -0.002539
# 2 -0.002117 0.014576 -0.003357 0.003587 -0.000850 0.007665
# 3 -0.002092 -0.003357 0.009050 -0.000428 0.001233 -0.005419
# 4 -0.001808 0.003587 -0.000428 0.032385 -0.001308 0.010941
# 5 -0.002203 -0.000850 0.001233 -0.001308 0.023735 0.000208
# 6 -0.002539 0.007665 -0.005419 0.010941 0.000208 0.038322
#
#
# Mechanical properties :
#
#
# Convention : Reuss Voigt Hill
#
# Bulk Modulus (GPa) = 42.81949 47.46003 45.13976
# Shear Modulus (GPa) = 32.08307 37.66423 34.87365
#
# Velocity S-wave (km/s) = 3.46255 3.75165 3.60999
# Velocity P-wave (km/s) = 5.65571 6.04169 5.85188
#
# Compressibility (1/GPa) = 0.02335385
#
# Stress axis : x y z
#
# Youngs Moduli (GPa) = 67.29384 68.60408 110.49975
#
# Poissons Ratio (x) = 0.14523 0.23118
# Poissons Ratio (y) = 0.14246 0.37096
# Poissons Ratio (z) = 0.14079 0.23031
#
# Static dielectric constant tensor:
#      x y z
#    x 1.920930 -0.250310 -0.013180 
#    y -0.250310 1.843760 -0.003290 
#    z -0.013180 -0.003290 2.182650 
# 
# From -- ./inp_files/220749.got.cif
#   From: 2010.05.17/outbox.cif.g08.bks.cpg/sg2_111_cif.got.tgz:220749.got - 2010.06.03 11:33:40.
