data_PCOD9101457
_publ_section_title
;
Structure prediction by ZEFSAII (Michael W. Deem and Ramdas Pophale) SiO2 
 PCOD9101457
Probable space group: P -1
;
_chemical_formula_sum "Si O2"
_cell_formula_units_Z 16
_cell_length_a 8.105101
_cell_length_b 29.062173
_cell_length_c 5.851703
_cell_angle_alpha 107.600151
_cell_angle_beta 58.036402
_cell_angle_gamma 141.373914
_cell_volume 713.705334
_symmetry_space_group_name_H-M "P -1"
_symmetry_group_IT_number 2
_symmetry_cell_setting 'triclinic'
loop_
_space_group_symop_operation_xyz
x,y,z
-x,-y,-z
loop_
_atom_site_type_symbol
_atom_site_label
_atom_site_fract_x
_atom_site_fract_y
_atom_site_fract_z
Si Si1 0.756184 0.048051 0.577892
Si Si2 0.328111 0.035437 0.097036
Si Si3 0.001659 0.637732 0.822434
Si Si4 0.611345 0.344888 0.073315
Si Si5 0.704265 0.633409 0.415858
Si Si6 0.232508 0.111635 0.017828
Si Si7 0.918980 0.528056 0.426942
Si Si8 0.648179 0.259661 0.664677
O O1 0.071495 0.116881 0.323813
O O2 0.500000 0.000000 0.500000
O O3 0.755211 0.995972 0.630092
O O4 0.640905 0.065979 0.865997
O O5 0.370381 0.096617 0.056974
O O6 0.046685 0.961713 0.040655
O O7 0.883172 0.573696 0.641696
O O8 0.139565 0.631592 0.911544
O O9 0.278836 0.719123 0.621946
O O10 0.774957 0.632718 0.098806
O O11 0.382799 0.329679 0.381794
O O12 0.489428 0.277519 0.908177
O O13 0.801136 0.414527 0.866104
O O14 0.401889 0.545660 0.563082
O O15 0.010582 0.679317 0.393310
O O16 0.463651 0.179758 0.776671
O O17 0.000000 0.500000 0.500000
#
# Coordination Sequence:
#
# PCOD9101457 Si02
#       8
#     2   2   2   2   2   2   2   2
#     4   9  18  35  60  92 120 149 192 248 298 351
#     4   9  19  35  63  92 119 150 205 249 292 361
#     4  10  23  40  59  89 120 157 202 251 309 362
#     4  10  23  42  59  87 118 156 205 254 308 367
#     4  11  23  39  62  87 117 157 206 251 304 371
#     4  10  20  38  59  87 120 162 196 247 302 356
#     4  11  22  38  66  88 115 156 202 261 312 353
#     4  10  25  40  57  86 126 161 201 247 306 367
#
# _framework density 22.418213999999999
#
# number of rings (size 3 to 8) (size 9 to 14) (size 15 to 20)
#    0.000    2.000    1.250    1.125    1.750    7.500 
#    0.000    2.500    0.000    0.000    0.000    0.000 
#    0.000    0.000    0.000    0.000    0.000    0.000 
#
# Total GULP energy -89226.381146 kJ/mol
# GULP energy per Si atom -5576.648822 kJ/mol
# Density = 2.236719 g / cm^3
# Si number density = 22.418214 Si / 1000 Ang^3
#
#
#
# Elastic Constant Matrix: (Units=GPa)
#
#
# Indices 1 2 3 4 5 6 
#
# 1 76.9877 32.5086 27.8255 -15.5022 -4.8548 -13.7139
# 2 32.5086 44.6865 33.7427 -18.2548 1.2873 -18.2368
# 3 27.8255 33.7427 98.0123 3.8856 -15.9996 -24.7880
# 4 -15.5022 -18.2548 3.8856 32.0077 -18.9469 7.5723
# 5 -4.8548 1.2873 -15.9996 -18.9469 38.7275 3.2803
# 6 -13.7139 -18.2368 -24.7880 7.5723 3.2803 22.6914
#
#
#
# Elastic Compliance Matrix: (Units=1/GPa)
#
#
# Indices 1 2 3 4 5 6 
#
# 1 0.019799 -0.011154 -0.001643 0.007513 0.006033 -0.002173
# 2 -0.011154 0.058334 -0.013524 0.027804 0.003357 0.015604
# 3 -0.001643 -0.013524 0.019480 -0.014084 0.000208 0.014088
# 4 0.007513 0.027804 -0.014084 0.076614 0.033280 -0.018876
# 5 0.006033 0.003357 0.000208 0.033280 0.043754 -0.010860
# 6 -0.002173 0.015604 0.014088 -0.018876 -0.010860 0.078555
#
#
# Mechanical properties :
#
#
# Convention : Reuss Voigt Hill
#
# Bulk Modulus (GPa) = 22.23681 45.31557 33.77619
# Shear Modulus (GPa) = 13.72983 27.05930 20.39457
#
# Velocity S-wave (km/s) = 2.47744 3.47799 3.01945
# Velocity P-wave (km/s) = 4.25726 6.03210 5.22065
#
# Compressibility (1/GPa) = 0.04497048
#
# Stress axis : x y z
#
# Youngs Moduli (GPa) = 50.50724 17.14261 51.33343
#
# Poissons Ratio (x) = 0.19121 0.08436
# Poissons Ratio (y) = 0.56337 0.69424
# Poissons Ratio (z) = 0.08301 0.23184
#
# Static dielectric constant tensor:
#      x y z
#    x 1.846300 -0.022870 0.008580 
#    y -0.022870 1.859880 0.056880 
#    z 0.008580 0.056880 1.934000 
# 
# From -- ./inp_files/56737.got.cif
#   From: 2010.05.17/outbox.cif.g08.bks.cpg/sg2_29_cif.got.tgz:56737.got - 2010.06.03 11:33:40.
