data_PCOD9101644
_publ_section_title
;
Structure prediction by ZEFSAII (Michael W. Deem and Ramdas Pophale) SiO2 
 PCOD9101644
Probable space group: P -1
;
_chemical_formula_sum "Si O2"
_cell_formula_units_Z 16
_cell_length_a 20.203242
_cell_length_b 7.701922
_cell_length_c 22.044493
_cell_angle_alpha 39.345628
_cell_angle_beta 20.099481
_cell_angle_gamma 46.683111
_cell_volume 734.517612
_symmetry_space_group_name_H-M "P -1"
_symmetry_group_IT_number 2
_symmetry_cell_setting 'triclinic'
loop_
_space_group_symop_operation_xyz
x,y,z
-x,-y,-z
loop_
_atom_site_type_symbol
_atom_site_label
_atom_site_fract_x
_atom_site_fract_y
_atom_site_fract_z
Si Si1 0.316904 0.283025 0.690648
Si Si2 0.968410 0.695904 0.579396
Si Si3 0.358943 0.731314 0.954688
Si Si4 0.367610 0.678462 0.815678
Si Si5 0.957553 0.353832 0.206946
Si Si6 0.225557 0.501932 0.500400
Si Si7 0.931588 0.931464 0.921691
Si Si8 0.801173 0.943931 0.549687
O O1 0.500000 0.500000 0.500000
O O2 0.203775 0.451613 0.696361
O O3 0.386228 0.997565 0.690297
O O4 0.156883 0.182644 0.907873
O O5 0.152416 0.562383 0.478779
O O6 0.923921 0.751887 0.532950
O O7 0.778396 0.510426 0.824577
O O8 0.000000 0.000000 0.500000
O O9 0.358078 0.673189 0.898855
O O10 0.578543 0.793562 0.772654
O O11 0.252744 0.999095 0.977100
O O12 0.555862 0.552004 0.670342
O O13 0.166112 0.508925 0.008964
O O14 0.968029 0.275131 0.148655
O O15 0.894581 0.061695 0.374409
O O16 0.200382 0.771924 0.487554
O O17 0.079087 0.224391 0.722935
#
# Coordination Sequence:
#
# PCOD9101644 Si02
#       8
#     2   2   2   2   2   2   2   2
#     4  11  23  41  63  87 118 155 194 244 298 351
#     4   9  19  37  60  86 119 158 197 243 294 347
#     4  10  20  38  60  86 122 159 197 244 292 345
#     4  11  23  39  59  88 120 157 198 243 293 350
#     4  12  23  39  62  89 120 157 197 241 293 353
#     4  10  21  40  62  87 121 156 196 245 295 351
#     4  10  21  40  61  86 117 155 195 242 295 351
#     4  11  21  38  61  89 119 157 198 244 295 348
#
# _framework density 21.783003000000001
#
# number of rings (size 3 to 8) (size 9 to 14) (size 15 to 20)
#    0.000    1.500    0.000    7.875    0.000    0.000 
#    0.000   14.375    0.000    0.000    0.000    0.000 
#    0.000    0.000    0.000    0.000    0.000    0.000 
#
# Total GULP energy -89451.919935 kJ/mol
# GULP energy per Si atom -5590.744996 kJ/mol
# Density = 2.173342 g / cm^3
# Si number density = 21.783003 Si / 1000 Ang^3
#
#
#
# Elastic Constant Matrix: (Units=GPa)
#
#
# Indices 1 2 3 4 5 6 
#
# 1 157.9057 319.2036 60.8528 20.3749 47.3168 -225.5808
# 2 319.2036 1000.7434 165.1221 76.0035 172.5505 -637.3813
# 3 60.8528 165.1221 108.3380 3.6339 3.4887 -120.2734
# 4 20.3749 76.0035 3.6339 41.1932 8.6258 -53.5370
# 5 47.3168 172.5505 3.4887 8.6258 79.4087 -125.6281
# 6 -225.5808 -637.3813 -120.2734 -53.5370 -125.6281 473.3154
#
#
#
# Elastic Compliance Matrix: (Units=1/GPa)
#
#
# Indices 1 2 3 4 5 6 
#
# 1 0.023515 -0.003014 0.003293 0.006206 0.009416 0.011186
# 2 -0.003014 0.007490 -0.001316 -0.002034 -0.002430 0.007441
# 3 0.003293 -0.001316 0.018756 0.008104 0.013554 0.009077
# 4 0.006206 -0.002034 0.008104 0.033629 0.010920 0.008981
# 5 0.009416 -0.002430 0.013554 0.010920 0.034144 0.014958
# 6 0.011186 0.007441 0.009077 0.008981 0.014958 0.024757
#
#
# Mechanical properties :
#
#
# Convention : Reuss Voigt Hill
#
# Bulk Modulus (GPa) = 20.97047 261.92714 141.44880
# Shear Modulus (GPa) = 31.19926 166.90405 99.05166
#
# Velocity S-wave (km/s) = 3.78865 8.76285 6.75061
# Velocity P-wave (km/s) = 5.36529 14.92944 11.21772
#
# Compressibility (1/GPa) = 0.04768610
#
# Stress axis : x y z
#
# Youngs Moduli (GPa) = 42.52628 133.50580 53.31733
#
# Poissons Ratio (x) = 0.40239 -0.17557
# Poissons Ratio (y) = 0.12817 0.07018
# Poissons Ratio (z) = -0.14004 0.17574
#
# Static dielectric constant tensor:
#      x y z
#    x 1.832190 -0.004170 0.022590 
#    y -0.004170 1.819430 0.000760 
#    z 0.022590 0.000760 1.743980 
# 
# From -- ./inp_files/217558.got.cif
#   From: 2010.05.17/outbox.cif.g08.bks.cpg/sg2_109_cif.got.tgz:217558.got - 2010.06.03 11:33:40.
