data_PCOD9101897
_publ_section_title
;
Structure prediction by ZEFSAII (Michael W. Deem and Ramdas Pophale) SiO2 
 PCOD9101897
Probable space group: P -1
;
_chemical_formula_sum "Si O2"
_cell_formula_units_Z 14
_cell_length_a 9.675999
_cell_length_b 6.516778
_cell_length_c 18.511889
_cell_angle_alpha 68.415635
_cell_angle_beta 33.611626
_cell_angle_gamma 66.289680
_cell_volume 590.369495
_symmetry_space_group_name_H-M "P -1"
_symmetry_group_IT_number 2
_symmetry_cell_setting 'triclinic'
loop_
_space_group_symop_operation_xyz
x,y,z
-x,-y,-z
loop_
_atom_site_type_symbol
_atom_site_label
_atom_site_fract_x
_atom_site_fract_y
_atom_site_fract_z
Si Si1 0.774472 0.535826 0.034747
Si Si2 0.078631 0.265974 0.668665
Si Si3 0.634555 0.636658 0.609954
Si Si4 0.802942 0.947662 0.216211
Si Si5 0.507371 0.177898 0.759603
Si Si6 0.691072 0.684364 0.740183
Si Si7 0.204052 0.078814 0.108073
O O1 0.570697 0.721506 0.141627
O O2 0.602963 0.349952 0.119464
O O3 0.000000 0.500000 0.000000
O O4 0.851869 0.653431 0.913733
O O5 0.241106 0.281484 0.525094
O O6 0.232026 0.226335 0.682279
O O7 0.866319 0.492316 0.734461
O O8 0.948151 0.044372 0.752376
O O9 0.601057 0.380156 0.650844
O O10 0.773030 0.643329 0.625923
O O11 0.373421 0.814441 0.716174
O O12 0.724005 0.871568 0.183122
O O13 0.090479 0.982774 0.096950
O O14 0.696150 0.943253 0.717382
O O15 0.500000 0.000000 0.000000
#
# Coordination Sequence:
#
# PCOD9101897 Si02
#       7
#     2   2   2   2   2   2   2
#     4  11  21  39  65  85 116 164 202 242 294 355
#     4  10  21  38  63  88 123 158 199 246 303 358
#     4  10  20  39  65  88 117 161 201 247 299 351
#     4   9  21  39  61  92 117 153 204 247 299 353
#     4  10  22  38  60  90 121 153 203 247 295 352
#     4  10  21  39  59  90 119 156 203 245 296 361
#     4  10  20  38  61  86 119 156 198 241 302 350
#
# _framework density 23.713961999999999
#
# number of rings (size 3 to 8) (size 9 to 14) (size 15 to 20)
#    0.857    1.143    1.429    3.429    0.000    3.429 
#    0.000    7.857    0.000    0.000    0.000    0.000 
#    0.000    0.000    0.000    0.000    0.000    0.000 
#
# Total GULP energy -78113.494282 kJ/mol
# GULP energy per Si atom -5579.535306 kJ/mol
# Density = 2.365999 g / cm^3
# Si number density = 23.713962 Si / 1000 Ang^3
#
#
#
# Elastic Constant Matrix: (Units=GPa)
#
#
# Indices 1 2 3 4 5 6 
#
# 1 79.7854 36.7231 9.9685 -3.9287 -0.2182 -18.2067
# 2 36.7231 133.8795 36.1995 -23.2201 11.7971 -21.0284
# 3 9.9685 36.1995 86.6838 -29.8931 11.8342 2.0428
# 4 -3.9287 -23.2201 -29.8931 33.5930 -15.7888 6.1867
# 5 -0.2182 11.7971 11.8342 -15.7888 29.0202 -4.4252
# 6 -18.2067 -21.0284 2.0428 6.1867 -4.4252 43.8482
#
#
#
# Elastic Compliance Matrix: (Units=1/GPa)
#
#
# Indices 1 2 3 4 5 6 
#
# 1 0.015438 -0.003550 -0.001334 -0.001928 0.001851 0.005228
# 2 -0.003550 0.010304 -0.002694 0.003364 -0.000824 0.003035
# 3 -0.001334 -0.002694 0.018137 0.015706 0.001509 -0.004754
# 4 -0.001928 0.003364 0.015706 0.057547 0.022645 -0.005753
# 5 0.001851 -0.000824 0.001509 0.022645 0.046792 0.001831
# 6 0.005228 0.003035 -0.004754 -0.005753 0.001831 0.027650
#
#
# Mechanical properties :
#
#
# Convention : Reuss Voigt Hill
#
# Bulk Modulus (GPa) = 34.81472 51.79233 43.30352
# Shear Modulus (GPa) = 24.92552 35.78947 30.35749
#
# Velocity S-wave (km/s) = 3.24557 3.88908 3.58180
# Velocity P-wave (km/s) = 5.36264 6.48494 5.95031
#
# Compressibility (1/GPa) = 0.02872348
#
# Stress axis : x y z
#
# Youngs Moduli (GPa) = 64.77713 97.04568 55.13659
#
# Poissons Ratio (x) = 0.34454 0.07353
# Poissons Ratio (y) = 0.22997 0.14853
# Poissons Ratio (z) = 0.08638 0.26143
#
# Static dielectric constant tensor:
#      x y z
#    x 1.922870 -0.048580 -0.019370 
#    y -0.048580 1.947960 -0.026620 
#    z -0.019370 -0.026620 1.949840 
# 
# From -- ./inp_files/98558.got.cif
#   From: 2010.05.17/outbox.cif.g08.bks.cpg/sg2_50_cif.got.tgz:98558.got - 2010.06.03 11:33:40.
