data_PCOD9101832
_publ_section_title
;
Structure prediction by ZEFSAII (Michael W. Deem and Ramdas Pophale) SiO2 
 PCOD9101832
Probable space group: P -1
;
_chemical_formula_sum "Si O2"
_cell_formula_units_Z 15
_cell_length_a 7.209068
_cell_length_b 9.939853
_cell_length_c 15.322861
_cell_angle_alpha 53.863509
_cell_angle_beta 134.175717
_cell_angle_gamma 100.504155
_cell_volume 584.340428
_symmetry_space_group_name_H-M "P -1"
_symmetry_group_IT_number 2
_symmetry_cell_setting 'triclinic'
loop_
_space_group_symop_operation_xyz
x,y,z
-x,-y,-z
loop_
_atom_site_type_symbol
_atom_site_label
_atom_site_fract_x
_atom_site_fract_y
_atom_site_fract_z
Si Si1 0.812782 0.800362 0.113938
Si Si2 0.770293 0.871173 0.548492
Si Si3 0.783040 0.398934 0.893706
Si Si4 0.284496 0.214265 0.254608
Si Si5 0.498186 0.826561 0.188060
Si Si6 0.311461 0.529797 0.840401
Si Si7 0.653297 0.320854 0.562475
Si Si8 0.000000 0.500000 0.500000
O O1 0.630447 0.811879 0.138510
O O2 0.846733 0.608284 0.159425
O O3 0.091929 0.809242 0.242707
O O4 0.654706 0.960403 0.933529
O O5 0.804954 0.887314 0.658505
O O6 0.550248 0.777979 0.490657
O O7 0.074700 0.729889 0.672846
O O8 0.597510 0.078645 0.382746
O O9 0.771543 0.594006 0.790139
O O10 0.713019 0.274561 0.849790
O O11 0.534760 0.465575 0.859693
O O12 0.073823 0.277144 0.081303
O O13 0.756979 0.695091 0.379173
O O14 0.500000 0.500000 0.000000
O O15 0.500000 0.500000 0.500000
O O16 0.799972 0.390345 0.506483
#
# Coordination Sequence:
#
# PCOD9101832 Si02
#       8
#     2   2   2   2   2   2   2   1
#     4   9  19  36  61  85 115 160 198 244 312 364
#     4  11  22  39  61  90 119 156 210 249 305 364
#     4  10  20  38  61  82 121 156 203 250 304 361
#     4  10  22  38  60  87 115 166 203 250 301 367
#     4   9  18  36  59  88 113 154 205 247 299 371
#     4  11  21  38  59  87 123 159 198 252 306 360
#     4  11  21  39  64  88 125 158 200 259 308 361
#     4  10  22  38  60  92 122 158 200 252 308 366
#
# _framework density 25.669968000000001
#
# number of rings (size 3 to 8) (size 9 to 14) (size 15 to 20)
#    0.000    1.867    2.667    1.600    0.000    1.600 
#    2.400    2.000    0.000    0.000    0.000    0.000 
#    0.000    0.000    0.000    0.000    0.000    0.000 
#
# Total GULP energy -83559.052279 kJ/mol
# GULP energy per Si atom -5570.603485 kJ/mol
# Density = 2.561154 g / cm^3
# Si number density = 25.669968 Si / 1000 Ang^3
#
#
#
# Elastic Constant Matrix: (Units=GPa)
#
#
# Indices 1 2 3 4 5 6 
#
# 1 69.7938 31.0154 30.7133 -1.1439 5.7023 3.2475
# 2 31.0154 61.0449 24.8850 -0.7148 2.5776 0.4054
# 3 30.7133 24.8850 203.2343 -19.1433 28.4543 2.4046
# 4 -1.1439 -0.7148 -19.1433 36.3428 -8.6618 8.0341
# 5 5.7023 2.5776 28.4543 -8.6618 22.8835 -4.2039
# 6 3.2475 0.4054 2.4046 8.0341 -4.2039 27.3654
#
#
#
# Elastic Compliance Matrix: (Units=1/GPa)
#
#
# Indices 1 2 3 4 5 6 
#
# 1 0.019326 -0.009105 -0.001462 -0.000444 -0.002562 -0.002293
# 2 -0.009105 0.021563 -0.001593 -0.000557 0.001858 0.001350
# 3 -0.001462 -0.001593 0.006572 0.002134 -0.007209 -0.002114
# 4 -0.000444 -0.000557 0.002134 0.032436 0.008258 -0.008380
# 5 -0.002562 0.001858 -0.007209 0.008258 0.057564 0.007329
# 6 -0.002293 0.001350 -0.002114 -0.008380 0.007329 0.040567
#
#
# Mechanical properties :
#
#
# Convention : Reuss Voigt Hill
#
# Bulk Modulus (GPa) = 43.21281 56.36672 49.78976
# Shear Modulus (GPa) = 23.80271 33.81563 28.80917
#
# Velocity S-wave (km/s) = 3.04840 3.63343 3.35370
# Velocity P-wave (km/s) = 5.40933 6.29352 5.86810
#
# Compressibility (1/GPa) = 0.02314129
#
# Stress axis : x y z
#
# Youngs Moduli (GPa) = 51.74349 46.37616 152.17006
#
# Poissons Ratio (x) = 0.42226 0.22244
# Poissons Ratio (y) = 0.47113 0.24238
# Poissons Ratio (z) = 0.07564 0.07387
#
# Static dielectric constant tensor:
#      x y z
#    x 2.126440 0.023570 -0.030390 
#    y 0.023570 2.016420 -0.001170 
#    z -0.030390 -0.001170 2.091130 
# 
# From -- ./inp_files/213781.got.cif
#   From: 2010.05.17/outbox.cif.g08.bks.cpg/sg2_107_cif.got.tgz:213781.got - 2010.06.03 11:33:40.
