data_PCOD9101558
_publ_section_title
;
Structure prediction by ZEFSAII (Michael W. Deem and Ramdas Pophale) SiO2 
 PCOD9101558
Probable space group: P -1
;
_chemical_formula_sum "Si O2"
_cell_formula_units_Z 16
_cell_length_a 8.991073
_cell_length_b 15.762623
_cell_length_c 14.359879
_cell_angle_alpha 41.524978
_cell_angle_beta 134.250869
_cell_angle_gamma 107.121968
_cell_volume 847.707479
_symmetry_space_group_name_H-M "P -1"
_symmetry_group_IT_number 2
_symmetry_cell_setting 'triclinic'
loop_
_space_group_symop_operation_xyz
x,y,z
-x,-y,-z
loop_
_atom_site_type_symbol
_atom_site_label
_atom_site_fract_x
_atom_site_fract_y
_atom_site_fract_z
Si Si1 0.141193 0.088708 0.094180
Si Si2 0.238565 0.130776 0.695032
Si Si3 0.412188 0.646818 0.900311
Si Si4 0.064989 0.973925 0.440923
Si Si5 0.347959 0.149772 0.408531
Si Si6 0.183077 0.328226 0.011005
Si Si7 0.973231 0.637879 0.751846
Si Si8 0.794551 0.951211 0.060708
O O1 0.060383 0.241870 0.983685
O O2 0.397941 0.970469 0.343819
O O3 0.169660 0.105257 0.982737
O O4 0.960849 0.025906 0.082006
O O5 0.115917 0.263583 0.460999
O O6 0.155157 0.161712 0.740055
O O7 0.162835 0.010081 0.726994
O O8 0.518534 0.066125 0.860258
O O9 0.252447 0.803284 0.653942
O O10 0.657576 0.650955 0.016890
O O11 0.219879 0.635301 0.893093
O O12 0.500000 0.500000 0.000000
O O13 0.183136 0.073000 0.386002
O O14 0.000000 0.000000 0.500000
O O15 0.350134 0.222880 0.252425
O O16 0.220446 0.277921 0.323595
O O17 0.025239 0.479079 0.871946
#
# Coordination Sequence:
#
# PCOD9101558 Si02
#       8
#     2   2   2   2   2   2   2   2
#     4  11  22  38  57  86 114 144 191 244 274 328
#     4  10  20  38  60  82 109 152 192 233 274 336
#     4   9  19  33  51  80 117 144 171 221 283 343
#     4  11  18  32  59  87 111 140 182 231 283 335
#     4  12  21  35  59  89 119 147 181 233 291 347
#     4  11  23  35  56  88 119 146 182 234 300 339
#     4  10  21  38  55  82 121 152 180 226 293 349
#     4  10  22  38  60  80 108 152 201 234 272 319
#
# _framework density 18.874434000000001
#
# number of rings (size 3 to 8) (size 9 to 14) (size 15 to 20)
#    0.000    1.500    5.000    1.500    3.500    0.000 
#    0.000    1.250    0.000    0.000    0.000    0.000 
#    0.000    0.000    0.000    0.000    0.000    0.000 
#
# Total GULP energy -89103.639339 kJ/mol
# GULP energy per Si atom -5568.977459 kJ/mol
# Density = 1.883147 g / cm^3
# Si number density = 18.874434 Si / 1000 Ang^3
#
#
#
# Elastic Constant Matrix: (Units=GPa)
#
#
# Indices 1 2 3 4 5 6 
#
# 1 101.3405 43.8732 30.0147 -0.7145 -1.6840 -7.9792
# 2 43.8732 104.4033 35.4229 -5.1773 7.4247 4.2593
# 3 30.0147 35.4229 38.4580 4.5076 -0.8728 -1.1275
# 4 -0.7145 -5.1773 4.5076 22.9475 -4.0382 2.8285
# 5 -1.6840 7.4247 -0.8728 -4.0382 34.0620 10.4874
# 6 -7.9792 4.2593 -1.1275 2.8285 10.4874 21.2120
#
#
#
# Elastic Compliance Matrix: (Units=1/GPa)
#
#
# Indices 1 2 3 4 5 6 
#
# 1 0.014108 -0.003517 -0.007653 0.000351 -0.000474 0.005794
# 2 -0.003517 0.016148 -0.013080 0.006473 -0.001623 -0.005321
# 3 -0.007653 -0.013080 0.045590 -0.012334 0.001184 0.003230
# 4 0.000351 0.006473 -0.012334 0.050456 0.008145 -0.012578
# 5 -0.000474 -0.001623 0.001184 0.008145 0.036512 -0.018927
# 6 0.005794 -0.005321 0.003230 -0.012578 -0.018927 0.061598
#
#
# Mechanical properties :
#
#
# Convention : Reuss Voigt Hill
#
# Bulk Modulus (GPa) = 36.56913 51.42481 43.99697
# Shear Modulus (GPa) = 17.72887 24.63704 21.18295
#
# Velocity S-wave (km/s) = 3.06813 3.61683 3.35372
# Velocity P-wave (km/s) = 5.65405 6.68931 6.19335
#
# Compressibility (1/GPa) = 0.02734547
#
# Stress axis : x y z
#
# Youngs Moduli (GPa) = 70.88255 61.92881 21.93464
#
# Poissons Ratio (x) = 0.21781 0.16787
# Poissons Ratio (y) = 0.24930 0.28690
# Poissons Ratio (z) = 0.54247 0.81002
#
# Static dielectric constant tensor:
#      x y z
#    x 1.712870 0.023360 0.002620 
#    y 0.023360 1.669690 0.025380 
#    z 0.002620 0.025380 1.676090 
# 
# From -- ./inp_files/313652.got.cif
#   From: 2010.05.17/outbox.cif.g08.bks.cpg/sg2_157_cif.got.tgz:313652.got - 2010.06.03 11:33:40.
