data_PCOD9101022
_publ_section_title
;
Structure prediction by ZEFSAII (Michael W. Deem and Ramdas Pophale) SiO2 
 PCOD9101022
Probable space group: P -1
;
_chemical_formula_sum "Si O2"
_cell_formula_units_Z 16
_cell_length_a 9.649894
_cell_length_b 19.748277
_cell_length_c 8.296698
_cell_angle_alpha 33.631603
_cell_angle_beta 116.522450
_cell_angle_gamma 119.263491
_cell_volume 761.371607
_symmetry_space_group_name_H-M "P -1"
_symmetry_group_IT_number 2
_symmetry_cell_setting 'triclinic'
loop_
_space_group_symop_operation_xyz
x,y,z
-x,-y,-z
loop_
_atom_site_type_symbol
_atom_site_label
_atom_site_fract_x
_atom_site_fract_y
_atom_site_fract_z
Si Si1 0.771380 0.021416 0.869585
Si Si2 0.003651 0.181141 0.133142
Si Si3 0.885187 0.810809 0.182879
Si Si4 0.055493 0.588463 0.204759
Si Si5 0.616249 0.413742 0.792843
Si Si6 0.478940 0.874537 0.627235
Si Si7 0.251821 0.065822 0.621128
Si Si8 0.152252 0.446553 0.131558
O O1 0.686246 0.122433 0.551544
O O2 0.773439 0.906499 0.975507
O O3 0.697173 0.960316 0.120679
O O4 0.945846 0.102275 0.845452
O O5 0.135950 0.161289 0.368384
O O6 0.095957 0.219675 0.935092
O O7 0.907759 0.272972 0.978536
O O8 0.870445 0.057400 0.266736
O O9 0.847528 0.683605 0.518657
O O10 0.000000 0.500000 0.500000
O O11 0.215195 0.562358 0.262323
O O12 0.900223 0.575557 0.036076
O O13 0.500000 0.500000 0.500000
O O14 0.683581 0.456996 0.922179
O O15 0.535896 0.264897 0.033136
O O16 0.609956 0.896065 0.511922
O O17 0.500000 0.000000 0.500000
O O18 0.000000 0.500000 0.000000
#
# Coordination Sequence:
#
# PCOD9101022 Si02
#       8
#     2   2   2   2   2   2   2   2
#     4  10  21  38  61  99 127 169 220 278 324 401
#     4  10  20  38  62  96 128 161 221 274 325 388
#     4  10  20  37  68  93 130 168 221 273 334 385
#     4  11  23  41  70  97 127 175 231 275 326 397
#     4  11  27  46  67  98 140 179 224 275 341 407
#     4  12  25  41  65  92 136 175 218 269 345 393
#     4  10  22  37  63  94 130 171 214 279 328 393
#     4  10  21  40  65  92 126 178 223 267 323 404
#
# _framework density 21.014703999999998
#
# number of rings (size 3 to 8) (size 9 to 14) (size 15 to 20)
#    0.000    1.500    0.000    5.625    5.250    5.000 
#    0.000    1.875    0.000    0.000    0.000    0.000 
#    0.000    0.000    0.000    0.000    0.000    0.000 
#
# Total GULP energy -89249.935829 kJ/mol
# GULP energy per Si atom -5578.120989 kJ/mol
# Density = 2.096687 g / cm^3
# Si number density = 21.014704 Si / 1000 Ang^3
#
#
#
# Elastic Constant Matrix: (Units=GPa)
#
#
# Indices 1 2 3 4 5 6 
#
# 1 70.2188 16.7118 25.0917 -8.9279 14.5459 -0.6224
# 2 16.7118 83.6288 31.6779 -3.4229 6.6930 -1.8853
# 3 25.0917 31.6779 121.0888 -9.0733 21.5851 -0.3437
# 4 -8.9279 -3.4229 -9.0733 26.0870 1.2307 4.3844
# 5 14.5459 6.6930 21.5851 1.2307 41.7767 -2.9800
# 6 -0.6224 -1.8853 -0.3437 4.3844 -2.9800 19.6902
#
#
#
# Elastic Compliance Matrix: (Units=1/GPa)
#
#
# Indices 1 2 3 4 5 6 
#
# 1 0.017082 -0.002195 -0.001664 0.005499 -0.005018 -0.001683
# 2 -0.002195 0.013590 -0.003179 -0.000307 0.000331 0.001295
# 3 -0.001664 -0.003179 0.010472 0.003131 -0.004525 -0.001556
# 4 0.005499 -0.000307 0.003131 0.043247 -0.005489 -0.010261
# 5 -0.005018 0.000331 -0.004525 -0.005489 0.028511 0.005331
# 6 -0.001683 0.001295 -0.001556 -0.010261 0.005331 0.053922
#
#
# Mechanical properties :
#
#
# Convention : Reuss Voigt Hill
#
# Bulk Modulus (GPa) = 36.94180 46.87769 41.90974
# Shear Modulus (GPa) = 26.32663 30.94113 28.63388
#
# Velocity S-wave (km/s) = 3.54329 3.84129 3.69530
# Velocity P-wave (km/s) = 5.86149 6.48302 6.18007
#
# Compressibility (1/GPa) = 0.02706961
#
# Stress axis : x y z
#
# Youngs Moduli (GPa) = 58.54174 73.58100 95.49662
#
# Poissons Ratio (x) = 0.16148 0.15888
# Poissons Ratio (y) = 0.12847 0.30357
# Poissons Ratio (z) = 0.09739 0.23391
#
# Static dielectric constant tensor:
#      x y z
#    x 1.752160 -0.038260 0.032790 
#    y -0.038260 1.771630 0.066880 
#    z 0.032790 0.066880 1.700500 
# 
# From -- ./inp_files/222895.got.cif
#   From: 2010.05.17/outbox.cif.g08.bks.cpg/sg2_112_cif.got.tgz:222895.got - 2010.06.03 11:33:40.
