data_PCOD9101891
_publ_section_title
;
Structure prediction by ZEFSAII (Michael W. Deem and Ramdas Pophale) SiO2 
 PCOD9101891
Probable space group: P -1
;
_chemical_formula_sum "Si O2"
_cell_formula_units_Z 14
_cell_length_a 17.563946
_cell_length_b 20.375381
_cell_length_c 8.729978
_cell_angle_alpha 49.928591
_cell_angle_beta 40.532039
_cell_angle_gamma 20.127418
_cell_volume 663.667894
_symmetry_space_group_name_H-M "P -1"
_symmetry_group_IT_number 2
_symmetry_cell_setting 'triclinic'
loop_
_space_group_symop_operation_xyz
x,y,z
-x,-y,-z
loop_
_atom_site_type_symbol
_atom_site_label
_atom_site_fract_x
_atom_site_fract_y
_atom_site_fract_z
Si Si1 0.146485 0.666694 0.277668
Si Si2 0.507160 0.541899 0.229711
Si Si3 0.094565 0.586824 0.026179
Si Si4 0.912439 0.951101 0.428864
Si Si5 0.452009 0.384998 0.520212
Si Si6 0.591522 0.005669 0.985805
Si Si7 0.238646 0.209927 0.492802
O O1 0.252722 0.541667 0.448841
O O2 0.012304 0.842489 0.281270
O O3 0.921527 0.761596 0.387171
O O4 0.394338 0.519384 0.005094
O O5 0.722889 0.460145 0.103805
O O6 0.522682 0.431402 0.414627
O O7 0.190022 0.780583 0.359129
O O8 0.294786 0.428792 0.817537
O O9 0.834603 0.798209 0.018628
O O10 0.966919 0.618712 0.317208
O O11 0.726773 0.157149 0.388325
O O12 0.725357 0.001127 0.715313
O O13 0.359433 0.180919 0.205337
O O14 0.500000 0.000000 0.000000
O O15 0.500000 0.000000 0.500000
#
# Coordination Sequence:
#
# PCOD9101891 Si02
#       7
#     2   2   2   2   2   2   2
#     4  10  20  40  61  85 119 153 193 241 291 344
#     4  10  22  39  61  87 121 153 189 243 295 345
#     4  10  20  38  61  86 118 154 192 238 296 344
#     4  11  22  35  63  90 115 152 199 235 294 343
#     4  11  21  36  60  91 117 153 193 237 292 349
#     4  11  19  38  64  84 115 155 199 239 285 348
#     4   9  19  35  65  84 109 159 196 235 290 341
#
# _framework density 21.094888000000001
#
# number of rings (size 3 to 8) (size 9 to 14) (size 15 to 20)
#    0.000    1.714    4.286    2.143    0.000    2.857 
#    0.000    3.571    9.429    0.000    0.000    0.000 
#    0.000    0.000    0.000    0.000    0.000    0.000 
#
# Total GULP energy -78021.453434 kJ/mol
# GULP energy per Si atom -5572.960960 kJ/mol
# Density = 2.104687 g / cm^3
# Si number density = 21.094888 Si / 1000 Ang^3
#
#
#
# Elastic Constant Matrix: (Units=GPa)
#
#
# Indices 1 2 3 4 5 6 
#
# 1 61.0098 43.2510 20.2871 6.9818 6.7262 -29.7393
# 2 43.2510 104.5326 12.8397 20.9474 -2.2626 8.7622
# 3 20.2871 12.8397 140.2860 19.1058 21.1364 1.0415
# 4 6.9818 20.9474 19.1058 27.3423 -0.3818 0.6561
# 5 6.7262 -2.2626 21.1364 -0.3818 39.8255 14.1535
# 6 -29.7393 8.7622 1.0415 0.6561 14.1535 23.3806
#
#
#
# Elastic Compliance Matrix: (Units=1/GPa)
#
#
# Indices 1 2 3 4 5 6 
#
# 1 -0.029578 0.019050 -0.000629 -0.004725 0.028306 -0.061736
# 2 0.019050 -0.000356 0.000120 -0.005702 -0.015378 0.033828
# 3 -0.000629 0.000120 0.008864 -0.006255 -0.005444 0.002231
# 4 -0.004725 -0.005702 -0.006255 0.046854 0.007629 -0.009528
# 5 0.028306 -0.015378 -0.005444 0.007629 0.009637 0.035962
# 6 -0.061736 0.033828 0.002231 -0.009528 0.035962 -0.070034
#
#
# Mechanical properties :
#
#
# Convention : Reuss Voigt Hill
#
# Bulk Modulus (GPa) = 62.45585 50.95379 56.70482
# Shear Modulus (GPa) = -75.34875 33.40641 -20.97117
#
# Velocity S-wave (km/s) = -5.98302 3.98380 -3.15641
# Velocity P-wave (km/s) = 4.24939 6.73557 3.69531
#
# Compressibility (1/GPa) = 0.01601131
#
# Stress axis : x y z
#
# Youngs Moduli (GPa) = -33.80905 -2808.14166 112.81892
#
# Poissons Ratio (x) = 53.49450 0.07098
# Poissons Ratio (y) = 0.64406 -0.01355
# Poissons Ratio (z) = -0.02127 0.33723
#
# Static dielectric constant tensor:
#      x y z
#    x 1.786710 0.006650 0.066270 
#    y 0.006650 1.703620 0.010430 
#    z 0.066270 0.010430 1.850160 
# 
# From -- ./inp_files/282936.got.cif
#   From: 2010.05.17/outbox.cif.g08.bks.cpg/sg2_142_cif.got.tgz:282936.got - 2010.06.03 11:33:40.
