data_PCOD9101895
_publ_section_title
;
Structure prediction by ZEFSAII (Michael W. Deem and Ramdas Pophale) SiO2 
 PCOD9101895
Probable space group: P -1
;
_chemical_formula_sum "Si O2"
_cell_formula_units_Z 16
_cell_length_a 22.419259
_cell_length_b 7.712424
_cell_length_c 6.011580
_cell_angle_alpha 42.568678
_cell_angle_beta 89.911441
_cell_angle_gamma 89.849585
_cell_volume 703.153237
_symmetry_space_group_name_H-M "P -1"
_symmetry_group_IT_number 2
_symmetry_cell_setting 'triclinic'
loop_
_space_group_symop_operation_xyz
x,y,z
-x,-y,-z
loop_
_atom_site_type_symbol
_atom_site_label
_atom_site_fract_x
_atom_site_fract_y
_atom_site_fract_z
Si Si1 0.745291 0.214807 0.127371
Si Si2 0.501421 0.759637 0.887344
Si Si3 0.873225 0.221907 0.120361
Si Si4 0.127466 0.249899 0.098594
Si Si5 0.999757 0.634788 0.129245
Si Si6 0.255025 0.264890 0.087905
Si Si7 0.622864 0.645292 0.243636
Si Si8 0.621486 0.149418 0.952104
O O1 0.809484 0.219762 0.995788
O O2 0.742820 0.961008 0.517895
O O3 0.746211 0.462172 0.050001
O O4 0.684599 0.231662 0.975992
O O5 0.500000 0.000000 0.500000
O O6 0.500000 0.500000 0.000000
O O7 0.563535 0.748142 0.028133
O O8 0.441385 0.768230 0.022577
O O9 0.871749 0.977322 0.509679
O O10 0.872982 0.479674 0.026209
O O11 0.937239 0.218077 0.006312
O O12 0.191463 0.238312 0.985582
O O13 0.064447 0.226582 0.998773
O O14 0.000000 0.500000 0.500000
O O15 0.000000 0.500000 0.000000
O O16 0.315523 0.264448 0.950867
O O17 0.621351 0.338274 0.556275
O O18 0.621815 0.839276 0.269800
#
# Coordination Sequence:
#
# PCOD9101895 Si02
#       8
#     2   2   2   2   2   2   2   2
#     4  10  20  38  61  86 118 160 203 246 300 374
#     4  12  24  42  64  84 112 158 206 248 304 374
#     4   9  19  37  61  88 123 163 211 262 315 377
#     4   9  19  37  61  88 123 163 211 262 315 377
#     4  10  21  40  64  94 130 172 220 274 334 398
#     4  10  20  38  61  86 118 160 203 246 300 374
#     4  12  24  39  59  89 123 153 194 253 311 368
#     4  12  24  39  59  89 123 153 194 253 311 368
#
# _framework density 22.754639000000001
#
# number of rings (size 3 to 8) (size 9 to 14) (size 15 to 20)
#    0.000    1.500    0.000    5.625    0.000    1.000 
#    0.000   15.000    0.000    0.000    0.000    0.000 
#    0.000    0.000    0.000    0.000    0.000    0.000 
#
# Total GULP energy -89118.566913 kJ/mol
# GULP energy per Si atom -5569.910432 kJ/mol
# Density = 2.270285 g / cm^3
# Si number density = 22.754639 Si / 1000 Ang^3
#
#
#
# Elastic Constant Matrix: (Units=GPa)
#
#
# Indices 1 2 3 4 5 6 
#
# 1 251.9769 -8.3489 28.7773 21.9055 2.2015 5.2751
# 2 -8.3489 67.7863 18.7370 -30.5319 5.5522 8.1746
# 3 28.7773 18.7370 110.3681 -28.7339 2.2284 1.9198
# 4 21.9055 -30.5319 -28.7339 43.5387 -2.7534 -0.9398
# 5 2.2015 5.5522 2.2284 -2.7534 56.8213 19.1292
# 6 5.2751 8.1746 1.9198 -0.9398 19.1292 66.0335
#
#
#
# Elastic Compliance Matrix: (Units=1/GPa)
#
#
# Indices 1 2 3 4 5 6 
#
# 1 0.004567 -0.000707 -0.002167 -0.004239 -0.000150 -0.000231
# 2 -0.000707 0.022111 0.000712 0.016244 -0.000601 -0.002296
# 3 -0.002167 0.000712 0.011978 0.009495 0.000053 -0.000143
# 4 -0.004239 0.016244 0.009495 0.042775 0.000807 -0.001573
# 5 -0.000150 -0.000601 0.000053 0.000807 0.019577 -0.005575
# 6 -0.000231 -0.002296 -0.000143 -0.001573 -0.005575 0.017043
#
#
# Mechanical properties :
#
#
# Convention : Reuss Voigt Hill
#
# Bulk Modulus (GPa) = 29.12874 56.49581 42.81227
# Shear Modulus (GPa) = 37.36306 59.34308 48.35307
#
# Velocity S-wave (km/s) = 4.05655 5.11235 4.61475
# Velocity P-wave (km/s) = 5.89660 7.72854 6.87387
#
# Compressibility (1/GPa) = 0.03433036
#
# Stress axis : x y z
#
# Youngs Moduli (GPa) = 218.94495 45.22678 83.48443
#
# Poissons Ratio (x) = 0.03200 0.18094
# Poissons Ratio (y) = 0.15490 -0.05942
# Poissons Ratio (z) = 0.47452 -0.03219
#
# Static dielectric constant tensor:
#      x y z
#    x 1.701050 -0.202220 0.063910 
#    y -0.202220 1.735610 0.074190 
#    z 0.063910 0.074190 1.823160 
# 
# From -- ./inp_files/116498.got.cif
#   From: 2010.05.17/outbox.cif.g08.bks.cpg/sg2_59_cif.got.tgz:116498.got - 2010.06.03 11:33:40.
