data_PCOD9101589
_publ_section_title
;
Structure prediction by ZEFSAII (Michael W. Deem and Ramdas Pophale) SiO2 
 PCOD9101589
Probable space group: P -1
;
_chemical_formula_sum "Si O2"
_cell_formula_units_Z 15
_cell_length_a 8.316093
_cell_length_b 17.887825
_cell_length_c 11.978746
_cell_angle_alpha 140.699727
_cell_angle_beta 81.021279
_cell_angle_gamma 126.595699
_cell_volume 724.707977
_symmetry_space_group_name_H-M "P -1"
_symmetry_group_IT_number 2
_symmetry_cell_setting 'triclinic'
loop_
_space_group_symop_operation_xyz
x,y,z
-x,-y,-z
loop_
_atom_site_type_symbol
_atom_site_label
_atom_site_fract_x
_atom_site_fract_y
_atom_site_fract_z
Si Si1 0.102917 0.172452 0.929035
Si Si2 0.884495 0.258495 0.160394
Si Si3 0.104240 0.613679 0.460527
Si Si4 0.000000 0.500000 0.000000
Si Si5 0.557203 0.044629 0.310642
Si Si6 0.017079 0.147939 0.462892
Si Si7 0.318431 0.535108 0.821458
Si Si8 0.112418 0.822271 0.257727
O O1 0.041137 0.216783 0.877863
O O2 0.943027 0.964897 0.702985
O O3 0.389882 0.293193 0.032548
O O4 0.026532 0.212273 0.086854
O O5 0.825795 0.274525 0.307593
O O6 0.063504 0.455965 0.313587
O O7 0.636600 0.105651 0.935608
O O8 0.840202 0.514462 0.327108
O O9 0.307154 0.758831 0.512503
O O10 0.960101 0.347305 0.887890
O O11 0.208475 0.555643 0.955558
O O12 0.397964 0.977047 0.361443
O O13 0.780660 0.075767 0.340571
O O14 0.941298 0.119090 0.567188
O O15 0.247067 0.360984 0.657913
#
# Coordination Sequence:
#
# PCOD9101589 Si02
#       8
#     2   2   2   1   2   2   2   2
#     4  11  22  37  56  84 121 149 186 238 289 340
#     4  10  22  38  60  87 112 150 193 244 290 331
#     4  10  21  40  62  84 113 149 200 239 280 341
#     4  10  20  38  60  84 114 150 194 228 274 340
#     4  10  20  38  61  83 112 151 194 237 282 338
#     4  10  21  36  55  83 117 150 187 232 284 344
#     4  10  22  38  58  86 116 154 189 232 286 338
#     4  10  21  36  59  87 115 153 190 233 286 338
#
# _framework density 20.697990999999998
#
# number of rings (size 3 to 8) (size 9 to 14) (size 15 to 20)
#    0.000    1.867    0.000    4.400    0.000    6.933 
#    0.000    4.000    0.000    0.000    0.000    0.000 
#    0.000    0.000    0.000    0.000    0.000    0.000 
#
# Total GULP energy -83554.956684 kJ/mol
# GULP energy per Si atom -5570.330446 kJ/mol
# Density = 2.065088 g / cm^3
# Si number density = 20.697991 Si / 1000 Ang^3
#
#
#
# Elastic Constant Matrix: (Units=GPa)
#
#
# Indices 1 2 3 4 5 6 
#
# 1 -4.5519 -22.7511 18.4282 -11.7520 -14.2466 -3.0321
# 2 -22.7511 17.3691 -6.2066 3.7794 -4.7522 -10.6619
# 3 18.4282 -6.2066 49.1751 6.4398 -16.2684 5.8796
# 4 -11.7520 3.7794 6.4398 15.4450 -6.2941 -3.9472
# 5 -14.2466 -4.7522 -16.2684 -6.2941 44.0207 2.1122
# 6 -3.0321 -10.6619 5.8796 -3.9472 2.1122 14.9674
#
#
#
# Elastic Compliance Matrix: (Units=1/GPa)
#
#
# Indices 1 2 3 4 5 6 
#
# 1 -0.010465 -0.026756 0.003124 -0.011266 -0.005551 -0.024595
# 2 -0.026756 0.040478 0.018127 -0.037391 -0.003267 0.006893
# 3 0.003124 0.018127 0.026495 -0.008585 0.011568 -0.000759
# 4 -0.011266 -0.037391 -0.008585 0.066496 -0.000970 -0.007872
# 5 -0.005551 -0.003267 0.011568 -0.000970 0.025271 -0.011819
# 6 -0.024595 0.006893 -0.000759 -0.007872 -0.011819 0.066630
#
#
# Mechanical properties :
#
#
# Convention : Reuss Voigt Hill
#
# Bulk Modulus (GPa) = 21.97919 4.54816 13.26367
# Shear Modulus (GPa) = 20.74009 19.72139 20.23074
#
# Velocity S-wave (km/s) = 3.16893 3.09012 3.12977
# Velocity P-wave (km/s) = 4.90219 3.86445 4.41393
#
# Compressibility (1/GPa) = 0.04549759
#
# Stress axis : x y z
#
# Youngs Moduli (GPa) = -95.55613 24.70501 37.74345
#
# Poissons Ratio (x) = 0.66101 -0.11792
# Poissons Ratio (y) = -2.55671 -0.68418
# Poissons Ratio (z) = 0.29854 -0.44783
#
# Static dielectric constant tensor:
#      x y z
#    x 1.722860 -0.013350 0.007560 
#    y -0.013350 1.746180 -0.005220 
#    z 0.007560 -0.005220 1.771230 
# 
# From -- ./inp_files/402331.got.cif
#   From: 2010.05.17/outbox.cif.g08.bks.cpg/sg2_202_cif.got.tgz:402331.got - 2010.06.03 11:33:40.
