data_PCOD9101396
_publ_section_title
;
Structure prediction by ZEFSAII (Michael W. Deem and Ramdas Pophale) SiO2 
 PCOD9101396
Probable space group: P -1
;
_chemical_formula_sum "Si O2"
_cell_formula_units_Z 16
_cell_length_a 5.218802
_cell_length_b 25.565542
_cell_length_c 12.390660
_cell_angle_alpha 29.547168
_cell_angle_beta 90.216758
_cell_angle_gamma 87.801071
_cell_volume 812.329051
_symmetry_space_group_name_H-M "P -1"
_symmetry_group_IT_number 2
_symmetry_cell_setting 'triclinic'
loop_
_space_group_symop_operation_xyz
x,y,z
-x,-y,-z
loop_
_atom_site_type_symbol
_atom_site_label
_atom_site_fract_x
_atom_site_fract_y
_atom_site_fract_z
Si Si1 0.000891 0.041282 0.050748
Si Si2 0.479831 0.053178 0.784554
Si Si3 0.473415 0.629467 0.400749
Si Si4 0.036403 0.290993 0.622933
Si Si5 0.786584 0.559186 0.818154
Si Si6 0.567820 0.709309 0.707462
Si Si7 0.194202 0.574287 0.303016
Si Si8 0.104657 0.645152 0.946097
O O1 0.253923 0.982867 0.206160
O O2 0.749677 0.000819 0.174845
O O3 0.006357 0.166815 0.832521
O O4 0.000000 0.000000 0.000000
O O5 0.430800 0.179582 0.555344
O O6 0.500000 0.000000 0.000000
O O7 0.236417 0.650365 0.445245
O O8 0.328819 0.651980 0.245571
O O9 0.583008 0.507736 0.600150
O O10 0.721897 0.687955 0.335543
O O11 0.104934 0.340640 0.420150
O O12 0.554540 0.613029 0.793279
O O13 0.772525 0.472499 0.880298
O O14 0.000000 0.500000 0.000000
O O15 0.325463 0.715429 0.776150
O O16 0.834994 0.680248 0.823851
O O17 0.000000 0.500000 0.500000
O O18 0.065374 0.636470 0.089560
#
# Coordination Sequence:
#
# PCOD9101396 Si02
#       8
#     2   2   2   2   2   2   2   2
#     4  10  21  37  60  85 119 158 201 259 305 346
#     4  10  20  38  59  83 116 160 207 258 296 340
#     4  11  24  37  64  89 124 157 209 260 309 358
#     4  12  23  39  59  95 125 163 207 254 313 366
#     4  10  22  35  53  81 131 170 200 230 289 375
#     4  11  24  38  57  89 124 169 210 239 305 374
#     4  11  23  42  65  90 128 165 211 259 311 356
#     4  11  24  38  59  87 128 165 201 248 304 375
#
# _framework density 19.696452000000001
#
# number of rings (size 3 to 8) (size 9 to 14) (size 15 to 20)
#    0.000    1.250    2.500    3.375    7.000    6.000 
#    0.000    0.000    0.000    0.000    0.000   17.500 
#    0.000    0.000    0.000    0.000    0.000    0.000 
#
# Total GULP energy -89190.595230 kJ/mol
# GULP energy per Si atom -5574.412202 kJ/mol
# Density = 1.965162 g / cm^3
# Si number density = 19.696452 Si / 1000 Ang^3
#
#
#
# Elastic Constant Matrix: (Units=GPa)
#
#
# Indices 1 2 3 4 5 6 
#
# 1 143.4702 21.6010 21.8328 1.2332 -6.7152 -0.5984
# 2 21.6010 56.3064 23.1780 9.9663 -4.0399 1.3295
# 3 21.8328 23.1780 102.2124 -0.1649 -1.4286 5.0717
# 4 1.2332 9.9663 -0.1649 27.0619 3.7699 -1.0432
# 5 -6.7152 -4.0399 -1.4286 3.7699 23.1824 -6.2845
# 6 -0.5984 1.3295 5.0717 -1.0432 -6.2845 24.6203
#
#
#
# Elastic Compliance Matrix: (Units=1/GPa)
#
#
# Indices 1 2 3 4 5 6 
#
# 1 0.007592 -0.002396 -0.001103 0.000299 0.001950 0.001051
# 2 -0.002396 0.022415 -0.004544 -0.008780 0.004479 0.000439
# 3 -0.001103 -0.004544 0.011150 0.001892 -0.001368 -0.002347
# 4 0.000299 -0.008780 0.001892 0.041304 -0.008106 -0.000227
# 5 0.001950 0.004479 -0.001368 -0.008106 0.049039 0.012262
# 6 0.001051 0.000439 -0.002347 -0.000227 0.012262 0.044223
#
#
# Mechanical properties :
#
#
# Convention : Reuss Voigt Hill
#
# Bulk Modulus (GPa) = 39.88821 48.35697 44.12259
# Shear Modulus (GPa) = 24.97919 30.66472 27.82196
#
# Velocity S-wave (km/s) = 3.56505 3.94999 3.76245
# Velocity P-wave (km/s) = 6.10259 6.73852 6.42842
#
# Compressibility (1/GPa) = 0.02507007
#
# Stress axis : x y z
#
# Youngs Moduli (GPa) = 131.72157 44.61283 89.68632
#
# Poissons Ratio (x) = 0.10691 0.09889
# Poissons Ratio (y) = 0.31565 0.40757
# Poissons Ratio (z) = 0.14524 0.20274
#
# Static dielectric constant tensor:
#      x y z
#    x 1.747340 0.015350 -0.030260 
#    y 0.015350 1.736950 0.009100 
#    z -0.030260 0.009100 1.701030 
# 
# From -- ./inp_files/370816.got.cif
#   From: 2010.05.17/outbox.cif.g08.bks.cpg/sg2_186_cif.got.tgz:370816.got - 2010.06.03 11:33:40.
