data_PCOD9101042
_publ_section_title
;
Structure prediction by ZEFSAII (Michael W. Deem and Ramdas Pophale) SiO2 
 PCOD9101042
Probable space group: P -1
;
_chemical_formula_sum "Si O2"
_cell_formula_units_Z 16
_cell_length_a 9.190828
_cell_length_b 14.458354
_cell_length_c 9.393340
_cell_angle_alpha 133.513054
_cell_angle_beta 69.771098
_cell_angle_gamma 83.352530
_cell_volume 725.545139
_symmetry_space_group_name_H-M "P -1"
_symmetry_group_IT_number 2
_symmetry_cell_setting 'triclinic'
loop_
_space_group_symop_operation_xyz
x,y,z
-x,-y,-z
loop_
_atom_site_type_symbol
_atom_site_label
_atom_site_fract_x
_atom_site_fract_y
_atom_site_fract_z
Si Si1 0.691265 0.830272 0.651276
Si Si2 0.831794 0.022657 0.447597
Si Si3 0.012498 0.365305 0.440629
Si Si4 0.437110 0.786997 0.483945
Si Si5 0.215786 0.476148 0.048767
Si Si6 0.975036 0.696161 0.154394
Si Si7 0.866179 0.174144 0.184179
Si Si8 0.787253 0.063041 0.824273
O O1 0.530595 0.825475 0.621247
O O2 0.791435 0.731002 0.649865
O O3 0.844063 0.756378 0.398782
O O4 0.673768 0.990573 0.842435
O O5 0.934987 0.844209 0.245569
O O6 0.991870 0.052819 0.382796
O O7 0.683374 0.073677 0.430879
O O8 0.745417 0.099493 0.710026
O O9 0.853049 0.432409 0.685720
O O10 0.978207 0.255960 0.239836
O O11 0.000000 0.500000 0.500000
O O12 0.296783 0.753479 0.571551
O O13 0.582386 0.657403 0.194345
O O14 0.167029 0.584869 0.043445
O O15 0.090153 0.401834 0.008904
O O16 0.778613 0.177424 0.064638
O O17 0.000000 0.000000 0.000000
#
# Coordination Sequence:
#
# PCOD9101042 Si02
#       8
#     2   2   2   2   2   2   2   2
#     4   9  19  40  64  97 131 170 219 273 340 389
#     4  10  20  37  69 101 125 176 231 279 320 404
#     4  11  24  43  69  95 134 187 228 263 338 419
#     4  11  23  41  71 102 133 171 224 286 338 391
#     4   9  20  39  62  95 132 174 213 275 337 404
#     4   8  17  35  64  90 127 170 218 266 332 398
#     4  12  24  45  67  96 135 185 224 274 343 402
#     4  10  21  40  63  95 134 175 218 273 334 401
#
# _framework density 22.052385999999998
#
# number of rings (size 3 to 8) (size 9 to 14) (size 15 to 20)
#    0.000    2.000    2.500    0.750    1.750    5.500 
#    2.250    0.625    0.000    0.000    0.000    0.000 
#    0.000    0.000    0.000    0.000    0.000    0.000 
#
# Total GULP energy -89244.207740 kJ/mol
# GULP energy per Si atom -5577.762984 kJ/mol
# Density = 2.200219 g / cm^3
# Si number density = 22.052386 Si / 1000 Ang^3
#
#
#
# Elastic Constant Matrix: (Units=GPa)
#
#
# Indices 1 2 3 4 5 6 
#
# 1 124.7882 71.2998 21.6451 11.1175 24.1384 -9.2714
# 2 71.2998 112.9788 24.0507 5.7916 9.3446 -10.6288
# 3 21.6451 24.0507 73.0712 -4.5660 15.7770 -4.5995
# 4 11.1175 5.7916 -4.5660 30.9485 1.2729 5.5900
# 5 24.1384 9.3446 15.7770 1.2729 44.2581 0.8922
# 6 -9.2714 -10.6288 -4.5995 5.5900 0.8922 25.6159
#
#
#
# Elastic Compliance Matrix: (Units=1/GPa)
#
#
# Indices 1 2 3 4 5 6 
#
# 1 0.014394 -0.008028 -0.000404 -0.004004 -0.005954 0.002887
# 2 -0.008028 0.014633 -0.002805 -0.000862 0.002258 0.002772
# 3 -0.000404 -0.002805 0.016073 0.003052 -0.005026 0.001085
# 4 -0.004004 -0.000862 0.003052 0.035993 0.000427 -0.009128
# 5 -0.005954 0.002258 -0.005026 0.000427 0.027209 -0.003161
# 6 0.002887 0.002772 0.001085 -0.009128 -0.003161 0.043530
#
#
# Mechanical properties :
#
#
# Convention : Reuss Voigt Hill
#
# Bulk Modulus (GPa) = 44.20033 60.53658 52.36846
# Shear Modulus (GPa) = 27.49544 33.08734 30.29139
#
# Velocity S-wave (km/s) = 3.53487 3.87770 3.71025
# Velocity P-wave (km/s) = 6.06195 6.89635 6.49257
#
# Compressibility (1/GPa) = 0.02262427
#
# Stress axis : x y z
#
# Youngs Moduli (GPa) = 69.47397 68.33779 62.21783
#
# Poissons Ratio (x) = 0.54864 0.02515
# Poissons Ratio (y) = 0.55777 0.17453
# Poissons Ratio (z) = 0.02808 0.19169
#
# Static dielectric constant tensor:
#      x y z
#    x 1.862990 0.000820 0.047200 
#    y 0.000820 1.861310 0.022760 
#    z 0.047200 0.022760 1.871870 
# 
# From -- ./inp_files/208887.got.cif
#   From: 2010.05.17/outbox.cif.g08.bks.cpg/sg2_105_cif.got.tgz:208887.got - 2010.06.03 11:33:40.
