data_PCOD9101113
_publ_section_title
;
Structure prediction by ZEFSAII (Michael W. Deem and Ramdas Pophale) SiO2 
 PCOD9101113
Probable space group: P -1
;
_chemical_formula_sum "Si O2"
_cell_formula_units_Z 14
_cell_length_a 8.688786
_cell_length_b 9.518137
_cell_length_c 9.747471
_cell_angle_alpha 50.030510
_cell_angle_beta 72.196361
_cell_angle_gamma 65.242100
_cell_volume 560.236900
_symmetry_space_group_name_H-M "P -1"
_symmetry_group_IT_number 2
_symmetry_cell_setting 'triclinic'
loop_
_space_group_symop_operation_xyz
x,y,z
-x,-y,-z
loop_
_atom_site_type_symbol
_atom_site_label
_atom_site_fract_x
_atom_site_fract_y
_atom_site_fract_z
Si Si1 0.995502 0.571951 0.800170
Si Si2 0.809874 0.171355 0.541523
Si Si3 0.338699 0.151802 0.265433
Si Si4 0.029773 0.861188 0.207910
Si Si5 0.366677 0.554012 0.349258
Si Si6 0.343865 0.138275 0.667865
Si Si7 0.333373 0.270690 0.879087
O O1 0.075658 0.744267 0.640474
O O2 0.142743 0.396393 0.804706
O O3 0.798985 0.659680 0.754352
O O4 0.000000 0.500000 0.000000
O O5 0.676391 0.351061 0.545228
O O6 0.912381 0.061613 0.715202
O O7 0.726462 0.031491 0.576645
O O8 0.537643 0.063576 0.299326
O O9 0.320964 0.191331 0.082373
O O10 0.854194 0.827295 0.316719
O O11 0.189641 0.674486 0.249227
O O12 0.000000 0.000000 0.000000
O O13 0.382886 0.330278 0.485653
O O14 0.526411 0.616145 0.214161
O O15 0.385488 0.126653 0.827596
#
# Coordination Sequence:
#
# PCOD9101113 Si02
#       7
#     2   2   2   2   2   2   2
#     4  10  22  37  56  83 116 150 187 232 282 335
#     4  10  20  38  54  84 119 142 187 235 280 324
#     4  11  22  33  59  85 112 150 190 231 281 336
#     4  10  21  35  55  86 117 146 185 234 284 334
#     4  10  21  33  56  83 117 140 185 237 282 321
#     4  12  19  34  58  84 110 152 186 230 283 332
#     4  11  19  36  57  86 115 142 188 240 282 326
#
# _framework density 24.989429000000001
#
# number of rings (size 3 to 8) (size 9 to 14) (size 15 to 20)
#    0.857    0.571    2.857    4.286    0.000    0.000 
#    0.000    0.714    0.000    1.714    0.000   12.000 
#    0.000    0.000    0.000    0.000    0.000    0.000 
#
# Total GULP energy -78141.233769 kJ/mol
# GULP energy per Si atom -5581.516698 kJ/mol
# Density = 2.493255 g / cm^3
# Si number density = 24.989429 Si / 1000 Ang^3
#
#
#
# Elastic Constant Matrix: (Units=GPa)
#
#
# Indices 1 2 3 4 5 6 
#
# 1 124.8481 45.8290 30.3589 -10.7688 2.6827 -33.8942
# 2 45.8290 121.8921 22.3851 -18.9706 12.3525 -48.6677
# 3 30.3589 22.3851 115.5114 14.9827 -0.3083 -3.7356
# 4 -10.7688 -18.9706 14.9827 35.9241 -12.5177 18.9469
# 5 2.6827 12.3525 -0.3083 -12.5177 37.7749 -1.6308
# 6 -33.8942 -48.6677 -3.7356 18.9469 -1.6308 44.3362
#
#
#
# Elastic Compliance Matrix: (Units=1/GPa)
#
#
# Indices 1 2 3 4 5 6 
#
# 1 0.010861 -0.000662 -0.002483 -0.000043 -0.000271 0.007375
# 2 -0.000662 0.016097 -0.002151 -0.001849 -0.005088 0.017585
# 3 -0.002483 -0.002151 0.010514 -0.006279 -0.001147 -0.000732
# 4 -0.000043 -0.001849 -0.006279 0.046135 0.014905 -0.021758
# 5 -0.000271 -0.005088 -0.001147 0.014905 0.032608 -0.011059
# 6 0.007375 0.017585 -0.000732 -0.021758 -0.011059 0.056326
#
#
# Mechanical properties :
#
#
# Convention : Reuss Voigt Hill
#
# Bulk Modulus (GPa) = 37.20082 62.15529 49.67806
# Shear Modulus (GPa) = 26.02910 41.18560 33.60735
#
# Velocity S-wave (km/s) = 3.23089 4.06411 3.67122
# Velocity P-wave (km/s) = 5.37002 6.85195 6.15575
#
# Compressibility (1/GPa) = 0.02688112
#
# Stress axis : x y z
#
# Youngs Moduli (GPa) = 92.07321 62.12393 95.11017
#
# Poissons Ratio (x) = 0.04112 0.23615
# Poissons Ratio (y) = 0.06094 0.20454
# Poissons Ratio (z) = 0.22861 0.13360
#
# Static dielectric constant tensor:
#      x y z
#    x 2.017200 -0.072680 0.047240 
#    y -0.072680 2.037500 -0.032560 
#    z 0.047240 -0.032560 1.973090 
# 
# From -- ./inp_files/198415.got.cif
#   From: 2010.05.17/outbox.cif.g08.bks.cpg/sg2_100_cif.got.tgz:198415.got - 2010.06.03 11:33:40.
