data_PCOD9101292
_publ_section_title
;
Structure prediction by ZEFSAII (Michael W. Deem and Ramdas Pophale) SiO2 
 PCOD9101292
Probable space group: P -1
;
_chemical_formula_sum "Si O2"
_cell_formula_units_Z 15
_cell_length_a 11.771345
_cell_length_b 7.889648
_cell_length_c 17.292164
_cell_angle_alpha 52.276633
_cell_angle_beta 149.218943
_cell_angle_gamma 123.577109
_cell_volume 648.579731
_symmetry_space_group_name_H-M "P -1"
_symmetry_group_IT_number 2
_symmetry_cell_setting 'triclinic'
loop_
_space_group_symop_operation_xyz
x,y,z
-x,-y,-z
loop_
_atom_site_type_symbol
_atom_site_label
_atom_site_fract_x
_atom_site_fract_y
_atom_site_fract_z
Si Si1 0.852625 0.919313 0.123587
Si Si2 0.472402 0.890438 0.780731
Si Si3 0.905875 0.479266 0.330578
Si Si4 0.074557 0.471941 0.257024
Si Si5 0.623717 0.631069 0.359938
Si Si6 0.197777 0.939808 0.190779
Si Si7 0.812365 0.409537 0.976719
Si Si8 0.500000 0.500000 0.500000
O O1 0.854435 0.727375 0.238948
O O2 0.088093 0.953250 0.206216
O O3 0.811282 0.154693 0.062083
O O4 0.664020 0.853267 0.967230
O O5 0.293081 0.694285 0.722692
O O6 0.378605 0.113573 0.693815
O O7 0.591459 0.931440 0.756367
O O8 0.960169 0.457271 0.276079
O O9 0.139140 0.425570 0.518596
O O10 0.251108 0.686769 0.288413
O O11 0.268193 0.318575 0.397349
O O12 0.889649 0.506540 0.076121
O O13 0.568333 0.514952 0.441241
O O14 0.425682 0.559181 0.206279
O O15 0.000000 0.000000 0.000000
O O16 0.000000 0.500000 0.000000
#
# Coordination Sequence:
#
# PCOD9101292 Si02
#       8
#     2   2   2   2   2   2   2   1
#     4   9  20  34  55  84 117 142 188 237 277 328
#     4  10  17  33  57  85 109 152 193 224 273 337
#     4  10  21  35  56  86 115 146 189 236 274 324
#     4  10  19  33  57  82 113 140 183 228 280 325
#     4  10  20  32  56  84 117 140 189 236 276 330
#     4   9  16  31  55  84 103 137 189 235 258 325
#     4  11  19  36  60  84 113 152 184 226 290 338
#     4  10  16  32  52  84 106 132 180 238 262 308
#
# _framework density 23.127458000000001
#
# number of rings (size 3 to 8) (size 9 to 14) (size 15 to 20)
#    0.000    2.133    2.667    2.400    0.000    0.000 
#    0.000    3.333    2.933    1.600    0.000   20.533 
#    0.000    0.000    0.000    0.000    0.000    0.000 
#
# Total GULP energy -83550.335352 kJ/mol
# GULP energy per Si atom -5570.022357 kJ/mol
# Density = 2.307482 g / cm^3
# Si number density = 23.127458 Si / 1000 Ang^3
#
#
#
# Elastic Constant Matrix: (Units=GPa)
#
#
# Indices 1 2 3 4 5 6 
#
# 1 29.8438 31.4649 22.7566 9.0345 6.6818 26.0050
# 2 31.4649 130.0895 68.3117 2.1298 15.6347 33.7542
# 3 22.7566 68.3117 128.2208 -3.0004 8.0557 12.6031
# 4 9.0345 2.1298 -3.0004 29.1522 -1.4994 8.4582
# 5 6.6818 15.6347 8.0557 -1.4994 27.0540 3.5332
# 6 26.0050 33.7542 12.6031 8.4582 3.5332 35.1648
#
#
#
# Elastic Compliance Matrix: (Units=1/GPa)
#
#
# Indices 1 2 3 4 5 6 
#
# 1 0.121676 0.000725 -0.013434 -0.016767 -0.016935 -0.080128
# 2 0.000725 0.014557 -0.006353 0.001289 -0.005057 -0.012034
# 3 -0.013434 -0.006353 0.012460 0.002923 0.002049 0.010658
# 4 -0.016767 0.001289 0.002923 0.039940 0.004735 0.000032
# 5 -0.016935 -0.005057 0.002049 0.004735 0.042250 0.011259
# 6 -0.080128 -0.012034 0.010658 0.000032 0.011259 0.094286
#
#
# Mechanical properties :
#
#
# Convention : Reuss Voigt Hill
#
# Bulk Modulus (GPa) = 9.04414 59.24672 34.14543
# Shear Modulus (GPa) = 12.49533 29.31562 20.90548
#
# Velocity S-wave (km/s) = 2.32692 3.56415 3.00980
# Velocity P-wave (km/s) = 3.33743 6.52769 5.18407
#
# Compressibility (1/GPa) = 0.11056882
#
# Stress axis : x y z
#
# Youngs Moduli (GPa) = 8.21857 68.69506 80.25586
#
# Poissons Ratio (x) = -0.04980 1.07812
# Poissons Ratio (y) = -0.00596 0.50990
# Poissons Ratio (z) = 0.11040 0.43645
#
# Static dielectric constant tensor:
#      x y z
#    x 1.927710 -0.119740 0.107480 
#    y -0.119740 1.973130 -0.112900 
#    z 0.107480 -0.112900 2.285690 
# 
# From -- ./inp_files/445517.got.cif
#   From: 2010.05.17/outbox.cif.g08.bks.cpg/sg2_223_cif.got.tgz:445517.got - 2010.06.03 11:33:40.
