data_PCOD9101890
_publ_section_title
;
Structure prediction by ZEFSAII (Michael W. Deem and Ramdas Pophale) SiO2 
 PCOD9101890
Probable space group: P -1
;
_chemical_formula_sum "Si O2"
_cell_formula_units_Z 13
_cell_length_a 5.097490
_cell_length_b 16.906786
_cell_length_c 5.080359
_cell_angle_alpha 84.242771
_cell_angle_beta 86.469729
_cell_angle_gamma 101.747862
_cell_volume 424.988989
_symmetry_space_group_name_H-M "P -1"
_symmetry_group_IT_number 2
_symmetry_cell_setting 'triclinic'
loop_
_space_group_symop_operation_xyz
x,y,z
-x,-y,-z
loop_
_atom_site_type_symbol
_atom_site_label
_atom_site_fract_x
_atom_site_fract_y
_atom_site_fract_z
Si Si1 0.081657 0.573945 0.665413
Si Si2 0.955420 0.109484 0.904905
Si Si3 0.643822 0.791551 0.741243
Si Si4 0.500000 0.500000 0.000000
Si Si5 0.953723 0.717830 0.372690
Si Si6 0.397340 0.355538 0.042805
Si Si7 0.556829 0.930495 0.331628
O O1 0.000000 0.500000 0.500000
O O2 0.132936 0.660942 0.494776
O O3 0.198321 0.431758 0.146147
O O4 0.341654 0.573495 0.830633
O O5 0.118601 0.147016 0.139799
O O6 0.986296 0.185394 0.675847
O O7 0.133889 0.051529 0.783766
O O8 0.637604 0.079728 0.908001
O O9 0.451563 0.728337 0.965596
O O10 0.725387 0.710443 0.626191
O O11 0.521488 0.846997 0.531312
O O12 0.516786 0.570212 0.215709
O O13 0.858206 0.693420 0.099227
O O14 0.500000 0.000000 0.500000
#
# Coordination Sequence:
#
# PCOD9101890 Si02
#       7
#     2   2   2   1   2   2   2
#     4  10  16  32  55  78 115 165 209 270 325 369
#     4  10  24  42  67 100 131 171 220 260 320 394
#     4  10  23  39  62  92 126 173 214 270 327 383
#     4   8  18  30  56  78 118 160 216 272 320 382
#     4  10  19  36  60  84 122 165 217 264 323 380
#     4   9  18  35  54  80 117 157 217 264 317 387
#     4  11  24  44  69 101 135 169 213 265 322 388
#
# _framework density 30.589027999999999
#
# number of rings (size 3 to 8) (size 9 to 14) (size 15 to 20)
#    0.923    1.231    1.538    1.385    0.000    7.385 
#    0.000    3.846    0.000    0.000    0.000    0.000 
#    0.000    0.000    0.000    0.000    0.000    0.000 
#
# Total GULP energy -72517.980373 kJ/mol
# GULP energy per Si atom -5578.306183 kJ/mol
# Density = 3.051941 g / cm^3
# Si number density = 30.589028 Si / 1000 Ang^3
#
#
#
# Elastic Constant Matrix: (Units=GPa)
#
#
# Indices 1 2 3 4 5 6 
#
# 1 201.6879 69.2066 95.6622 -1.7123 47.4086 -3.3995
# 2 69.2066 197.9843 52.7461 -7.0155 0.7560 -25.7702
# 3 95.6622 52.7461 179.0537 9.6891 33.4704 -13.9236
# 4 -1.7123 -7.0155 9.6891 63.0482 -1.3886 -5.0438
# 5 47.4086 0.7560 33.4704 -1.3886 64.9558 -5.7344
# 6 -3.3995 -25.7702 -13.9236 -5.0438 -5.7344 55.1159
#
#
#
# Elastic Compliance Matrix: (Units=1/GPa)
#
#
# Indices 1 2 3 4 5 6 
#
# 1 0.008213 -0.002276 -0.003012 0.000190 -0.004569 -0.001776
# 2 -0.002276 0.006529 -0.000978 0.001109 0.002379 0.003014
# 3 -0.003012 -0.000978 0.007983 -0.001373 -0.001840 0.001057
# 4 0.000190 0.001109 -0.001373 0.016367 0.001064 0.001792
# 5 -0.004569 0.002379 -0.001840 0.001064 0.019896 0.002533
# 6 -0.001776 0.003014 0.001057 0.001792 0.002533 0.020138
#
#
# Mechanical properties :
#
#
# Convention : Reuss Voigt Hill
#
# Bulk Modulus (GPa) = 98.09538 112.66173 105.37856
# Shear Modulus (GPa) = 52.60079 60.69805 56.64942
#
# Velocity S-wave (km/s) = 4.15130 4.45939 4.30810
# Velocity P-wave (km/s) = 7.42403 7.96402 7.69876
#
# Compressibility (1/GPa) = 0.01019416
#
# Stress axis : x y z
#
# Youngs Moduli (GPa) = 121.75489 153.15273 125.27256
#
# Poissons Ratio (x) = 0.34850 0.37733
# Poissons Ratio (y) = 0.27706 0.12251
# Poissons Ratio (z) = 0.36674 0.14977
#
# Static dielectric constant tensor:
#      x y z
#    x 2.654600 0.012850 -0.205350 
#    y 0.012850 2.541620 -0.166280 
#    z -0.205350 -0.166280 2.480690 
# 
# From -- ./inp_files/6767.got.cif
#   From: 2010.05.17/outbox.cif.g08.bks.cpg/sg2_4_cif.got.tgz:6767.got - 2010.06.03 11:33:40.
