data_PCOD9101341
_publ_section_title
;
Structure prediction by ZEFSAII (Michael W. Deem and Ramdas Pophale) SiO2 
 PCOD9101341
Probable space group: P -1
;
_chemical_formula_sum "Si O2"
_cell_formula_units_Z 15
_cell_length_a 9.785785
_cell_length_b 18.470137
_cell_length_c 8.618440
_cell_angle_alpha 51.902923
_cell_angle_beta 118.664738
_cell_angle_gamma 146.477969
_cell_volume 674.845789
_symmetry_space_group_name_H-M "P -1"
_symmetry_group_IT_number 2
_symmetry_cell_setting 'triclinic'
loop_
_space_group_symop_operation_xyz
x,y,z
-x,-y,-z
loop_
_atom_site_type_symbol
_atom_site_label
_atom_site_fract_x
_atom_site_fract_y
_atom_site_fract_z
Si Si1 0.000000 0.000000 0.000000
Si Si2 0.794421 0.198844 0.974880
Si Si3 0.476500 0.499406 0.239926
Si Si4 0.267261 0.523342 0.828084
Si Si5 0.050774 0.934708 0.810885
Si Si6 0.875645 0.752289 0.375397
Si Si7 0.603639 0.071165 0.695335
Si Si8 0.400421 0.161764 0.436024
O O1 0.108787 0.130414 0.770724
O O2 0.092166 0.961868 0.979624
O O3 0.945619 0.170773 0.097678
O O4 0.590445 0.096226 0.135045
O O5 0.678423 0.145869 0.808969
O O6 0.977653 0.367566 0.871896
O O7 0.602096 0.481429 0.222112
O O8 0.686505 0.633016 0.294297
O O9 0.251115 0.347431 0.408533
O O10 0.372328 0.534811 0.033474
O O11 0.349613 0.664490 0.651669
O O12 0.788779 0.864612 0.733576
O O13 0.254466 0.078891 0.626467
O O14 0.149422 0.838403 0.381909
O O15 0.458396 0.086271 0.508792
#
# Coordination Sequence:
#
# PCOD9101341 Si02
#       8
#     1   2   2   2   2   2   2   2
#     4  12  20  34  62  84 114 150 206 236 284 346
#     4  10  20  38  64  83 121 160 196 238 301 348
#     4  10  22  38  62  86 121 152 201 245 298 340
#     4  11  19  38  62  91 110 158 204 245 277 361
#     4  10  20  38  58  90 116 159 200 246 282 357
#     4  11  22  40  58  89 120 159 191 251 296 355
#     4  10  21  40  58  85 127 157 187 247 304 349
#     4  10  22  36  62  87 121 153 203 241 293 345
#
# _framework density 22.227301000000001
#
# number of rings (size 3 to 8) (size 9 to 14) (size 15 to 20)
#    0.000    1.600    2.667    3.200    0.000    2.667 
#    0.000    4.667    0.000    0.000    0.000    0.000 
#    0.000    0.000    0.000    0.000    0.000    0.000 
#
# Total GULP energy -83625.388292 kJ/mol
# GULP energy per Si atom -5575.025886 kJ/mol
# Density = 2.217671 g / cm^3
# Si number density = 22.227301 Si / 1000 Ang^3
#
#
#
# Elastic Constant Matrix: (Units=GPa)
#
#
# Indices 1 2 3 4 5 6 
#
# 1 60.0416 25.6283 20.3922 -11.5865 -6.7650 23.4490
# 2 25.6283 84.1779 37.9350 -36.5976 -11.3255 17.3187
# 3 20.3922 37.9350 97.4969 -34.5414 -6.8019 5.0510
# 4 -11.5865 -36.5976 -34.5414 50.0128 8.4753 -3.8937
# 5 -6.7650 -11.3255 -6.8019 8.4753 32.7341 -2.8037
# 6 23.4490 17.3187 5.0510 -3.8937 -2.8037 30.5698
#
#
#
# Elastic Compliance Matrix: (Units=1/GPa)
#
#
# Indices 1 2 3 4 5 6 
#
# 1 0.026089 -0.002333 -0.003385 0.000217 0.002292 -0.017893
# 2 -0.002333 0.020972 -0.002928 0.011755 0.002446 -0.007886
# 3 -0.003385 -0.002928 0.014559 0.007406 -0.000368 0.002759
# 4 0.000217 0.011755 0.007406 0.034042 -0.003509 -0.004036
# 5 0.002292 0.002446 -0.000368 -0.003509 0.032655 -0.000535
# 6 -0.017893 -0.007886 0.002759 -0.004036 -0.000535 0.049885
#
#
# Mechanical properties :
#
#
# Convention : Reuss Voigt Hill
#
# Bulk Modulus (GPa) = 22.55958 45.51414 34.03686
# Shear Modulus (GPa) = 23.77885 33.18075 28.47980
#
# Velocity S-wave (km/s) = 3.27433 3.86786 3.58341
# Velocity P-wave (km/s) = 4.94637 6.36147 5.69802
#
# Compressibility (1/GPa) = 0.04432707
#
# Stress axis : x y z
#
# Youngs Moduli (GPa) = 38.33060 47.68321 68.68595
#
# Poissons Ratio (x) = 0.11126 0.23250
# Poissons Ratio (y) = 0.08944 0.20111
# Poissons Ratio (z) = 0.12975 0.13962
#
# Static dielectric constant tensor:
#      x y z
#    x 1.775170 0.037800 0.008240 
#    y 0.037800 1.869080 0.051490 
#    z 0.008240 0.051490 1.838330 
# 
# From -- ./inp_files/281725.got.cif
#   From: 2010.05.17/outbox.cif.g08.bks.cpg/sg2_141_cif.got.tgz:281725.got - 2010.06.03 11:33:40.
