data_PCOD9101514
_publ_section_title
;
Structure prediction by ZEFSAII (Michael W. Deem and Ramdas Pophale) SiO2 
 PCOD9101514
Probable space group: P -1
;
_chemical_formula_sum "Si O2"
_cell_formula_units_Z 16
_cell_length_a 23.271119
_cell_length_b 12.638189
_cell_length_c 17.448118
_cell_angle_alpha 28.555821
_cell_angle_beta 164.319137
_cell_angle_gamma 154.238460
_cell_volume 600.032585
_symmetry_space_group_name_H-M "P -1"
_symmetry_group_IT_number 2
_symmetry_cell_setting 'triclinic'
loop_
_space_group_symop_operation_xyz
x,y,z
-x,-y,-z
loop_
_atom_site_type_symbol
_atom_site_label
_atom_site_fract_x
_atom_site_fract_y
_atom_site_fract_z
Si Si1 0.233358 0.772337 0.727894
Si Si2 0.708837 0.939732 0.080567
Si Si3 0.421808 0.462401 0.249309
Si Si4 0.266115 0.769030 0.938576
Si Si5 0.731075 0.075509 0.562637
Si Si6 0.923618 0.896158 0.141274
Si Si7 0.425260 0.583874 0.769294
Si Si8 0.053830 0.269967 0.196613
O O1 0.033577 0.743887 0.430432
O O2 0.687712 0.680469 0.247852
O O3 0.318904 0.558522 0.985362
O O4 0.468935 0.014006 0.861150
O O5 0.829770 0.162030 0.153413
O O6 0.155100 0.795441 0.699234
O O7 0.856509 0.035687 0.132811
O O8 0.451099 0.917547 0.740274
O O9 0.386104 0.187171 0.380129
O O10 0.690934 0.644121 0.493285
O O11 0.292068 0.518890 0.120162
O O12 0.739028 0.282592 0.501276
O O13 0.960751 0.091777 0.801758
O O14 0.645407 0.768317 0.884343
O O15 0.033798 0.167163 0.149840
O O16 0.500000 0.500000 0.000000
O O17 0.000000 0.500000 0.000000
#
# Coordination Sequence:
#
# PCOD9101514 Si02
#       8
#     2   2   2   2   2   2   2   2
#     4   9  19  37  60  89 125 162 209 248 315 390
#     4  11  21  37  58  93 128 156 209 261 302 369
#     4  10  20  38  59  92 133 154 203 258 319 383
#     4   9  18  36  57  84 124 159 197 250 312 371
#     4  11  22  38  63  93 125 164 206 265 309 361
#     4  12  21  40  67  91 123 170 209 253 319 363
#     4  10  23  42  58  96 125 159 220 266 291 364
#     4  12  21  32  58  94 129 161 195 259 327 364
#
# _framework density 26.665217999999999
#
# number of rings (size 3 to 8) (size 9 to 14) (size 15 to 20)
#    0.750    0.750    6.250    0.000    1.750    3.000 
#    2.250    3.750    0.000    3.750    0.000    0.000 
#    0.000    0.000    0.000    0.000    0.000    0.000 
#
# Total GULP energy -89458.609550 kJ/mol
# GULP energy per Si atom -5591.163097 kJ/mol
# Density = 2.660453 g / cm^3
# Si number density = 26.665218 Si / 1000 Ang^3
#
#
#
# Elastic Constant Matrix: (Units=GPa)
#
#
# Indices 1 2 3 4 5 6 
#
# 1 80.1314 5.4509 24.5480 -3.6664 32.8232 2.3810
# 2 5.4509 136.0782 54.0022 -20.0581 18.3126 -7.6068
# 3 24.5480 54.0022 89.1000 -6.3383 27.4685 -18.4488
# 4 -3.6664 -20.0581 -6.3383 59.9699 -9.9323 20.3777
# 5 32.8232 18.3126 27.4685 -9.9323 33.6769 4.4225
# 6 2.3810 -7.6068 -18.4488 20.3777 4.4225 33.6427
#
#
#
# Elastic Compliance Matrix: (Units=1/GPa)
#
#
# Indices 1 2 3 4 5 6 
#
# 1 0.022003 0.001579 0.001788 -0.004120 -0.025721 0.005657
# 2 0.001579 0.010736 -0.008089 0.004826 0.001329 -0.005218
# 3 0.001788 -0.008089 0.028320 -0.012565 -0.027405 0.024788
# 4 -0.004120 0.004826 -0.012565 0.029726 0.023907 -0.026656
# 5 -0.025721 0.001329 -0.027405 0.023907 0.088569 -0.039031
# 6 0.005657 -0.005218 0.024788 -0.026656 -0.039031 0.063013
#
#
# Mechanical properties :
#
#
# Convention : Reuss Voigt Hill
#
# Bulk Modulus (GPa) = 19.37326 52.59021 35.98174
# Shear Modulus (GPa) = 18.58615 40.21180 29.39897
#
# Velocity S-wave (km/s) = 2.64297 3.88754 3.32403
# Velocity P-wave (km/s) = 4.07368 6.31790 5.31558
#
# Compressibility (1/GPa) = 0.05161754
#
# Stress axis : x y z
#
# Youngs Moduli (GPa) = 45.44759 93.14147 35.31018
#
# Poissons Ratio (x) = -0.14709 -0.06315
# Poissons Ratio (y) = -0.07177 0.28562
# Poissons Ratio (z) = -0.08128 0.75342
#
# Static dielectric constant tensor:
#      x y z
#    x 2.229330 -0.079470 0.048770 
#    y -0.079470 2.048870 0.000050 
#    z 0.048770 0.000050 2.125020 
# 
# From -- ./inp_files/614551.got.cif
#   From: 2010.05.17/outbox.cif.g08.bks.cpg/sg2_308_cif.got.tgz:614551.got - 2010.06.03 11:33:40.
