data_PCOD9101778
_publ_section_title
;
Structure prediction by ZEFSAII (Michael W. Deem and Ramdas Pophale) SiO2 
 PCOD9101778
Probable space group: P -1
;
_chemical_formula_sum "Si O2"
_cell_formula_units_Z 12
_cell_length_a 21.009934
_cell_length_b 5.354099
_cell_length_c 16.558676
_cell_angle_alpha 54.552448
_cell_angle_beta 18.629015
_cell_angle_gamma 53.079293
_cell_volume 475.272578
_symmetry_space_group_name_H-M "P -1"
_symmetry_group_IT_number 2
_symmetry_cell_setting 'triclinic'
loop_
_space_group_symop_operation_xyz
x,y,z
-x,-y,-z
loop_
_atom_site_type_symbol
_atom_site_label
_atom_site_fract_x
_atom_site_fract_y
_atom_site_fract_z
Si Si1 0.377245 0.740628 0.667308
Si Si2 0.637169 0.878381 0.130501
Si Si3 0.709801 0.280489 0.820088
Si Si4 0.955811 0.154914 0.257540
Si Si5 0.259118 0.089545 0.292028
Si Si6 0.175389 0.102609 0.702515
O O1 0.500000 0.500000 0.500000
O O2 0.500000 0.000000 0.500000
O O3 0.192472 0.912816 0.802150
O O4 0.344353 0.497977 0.821421
O O5 0.816036 0.934096 0.965183
O O6 0.670036 0.015940 0.978124
O O7 0.414853 0.044168 0.397331
O O8 0.799915 0.538523 0.711786
O O9 0.827898 0.119620 0.630290
O O10 0.500000 0.500000 0.000000
O O11 0.894371 0.529603 0.267253
O O12 0.807453 0.011220 0.522014
O O13 0.927925 0.035883 0.223482
O O14 0.500000 0.000000 0.000000
#
# Coordination Sequence:
#
# PCOD9101778 Si02
#       6
#     2   2   2   2   2   2
#     4  10  23  43  71 101 136 182 225 281 349 407
#     4  11  26  45  71 103 138 180 237 285 339 417
#     4  10  21  38  64  91 130 177 218 277 338 392
#     4  12  26  42  72 104 135 187 232 278 347 411
#     4  10  20  38  60  92 131 172 221 272 332 395
#     4  11  24  46  68  99 143 179 225 289 346 403
#
# _framework density 25.248666
#
# number of rings (size 3 to 8) (size 9 to 14) (size 15 to 20)
#    0.000    1.333    0.000    7.000    0.000   10.667 
#    0.000    0.000    0.000    0.000    0.000    0.000 
#    0.000    0.000    0.000    0.000    0.000    0.000 
#
# Total GULP energy -67203.348738 kJ/mol
# GULP energy per Si atom -5600.279062 kJ/mol
# Density = 2.519120 g / cm^3
# Si number density = 25.248666 Si / 1000 Ang^3
#
#
#
# Elastic Constant Matrix: (Units=GPa)
#
#
# Indices 1 2 3 4 5 6 
#
# 1 180.7751 92.2313 61.6391 1.0388 4.0098 5.6741
# 2 92.2313 155.9725 39.1823 -31.2059 14.9379 4.4133
# 3 61.6391 39.1823 97.3810 -5.6665 -12.4388 -2.6369
# 4 1.0388 -31.2059 -5.6665 45.7502 -16.6484 5.5623
# 5 4.0098 14.9379 -12.4388 -16.6484 66.0470 -0.3150
# 6 5.6741 4.4133 -2.6369 5.5623 -0.3150 65.2655
#
#
#
# Elastic Compliance Matrix: (Units=1/GPa)
#
#
# Indices 1 2 3 4 5 6 
#
# 1 0.010069 -0.005692 -0.004583 -0.005194 -0.001498 -0.000240
# 2 -0.005692 0.011603 -0.000684 0.007929 -0.000414 -0.000995
# 3 -0.004583 -0.000684 0.014102 0.002655 0.003762 0.000806
# 4 -0.005194 0.007929 0.002655 0.030455 0.006687 -0.002541
# 5 -0.001498 -0.000414 0.003762 0.006687 0.017718 -0.000174
# 6 -0.000240 -0.000995 0.000806 -0.002541 -0.000174 0.015658
#
#
# Mechanical properties :
#
#
# Convention : Reuss Voigt Hill
#
# Bulk Modulus (GPa) = 72.17254 91.13709 81.65481
# Shear Modulus (GPa) = 39.63710 51.48427 45.56069
#
# Velocity S-wave (km/s) = 3.96646 4.52053 4.25252
# Velocity P-wave (km/s) = 7.04441 7.96373 7.51814
#
# Compressibility (1/GPa) = 0.01385569
#
# Stress axis : x y z
#
# Youngs Moduli (GPa) = 99.31401 86.18248 70.91065
#
# Poissons Ratio (x) = 0.49053 0.32501
# Poissons Ratio (y) = 0.56528 0.04853
# Poissons Ratio (z) = 0.45519 0.05898
#
# Static dielectric constant tensor:
#      x y z
#    x 1.252260 -0.258080 0.565320 
#    y -0.258080 1.852080 0.155000 
#    z 0.565320 0.155000 1.604140 
# 
# From -- ./inp_files/576445.got.cif
#   From: 2010.05.17/outbox.cif.g08.bks.cpg/sg2_289_cif.got.tgz:576445.got - 2010.06.03 11:33:40.
