data_PCOD9101002
_publ_section_title
;
Structure prediction by ZEFSAII (Michael W. Deem and Ramdas Pophale) SiO2 
 PCOD9101002
Probable space group: P -1
;
_chemical_formula_sum "Si O2"
_cell_formula_units_Z 16
_cell_length_a 11.685531
_cell_length_b 8.272540
_cell_length_c 15.955043
_cell_angle_alpha 68.882672
_cell_angle_beta 128.720138
_cell_angle_gamma 69.781842
_cell_volume 696.155892
_symmetry_space_group_name_H-M "P -1"
_symmetry_group_IT_number 2
_symmetry_cell_setting 'triclinic'
loop_
_space_group_symop_operation_xyz
x,y,z
-x,-y,-z
loop_
_atom_site_type_symbol
_atom_site_label
_atom_site_fract_x
_atom_site_fract_y
_atom_site_fract_z
Si Si1 0.998740 0.692029 0.851224
Si Si2 0.801763 0.541367 0.835823
Si Si3 0.676420 0.403398 0.670630
Si Si4 0.428210 0.797500 0.038923
Si Si5 0.013121 0.911664 0.274450
Si Si6 0.678260 0.072711 0.850405
Si Si7 0.830110 0.574445 0.479961
Si Si8 0.142077 0.424649 0.788415
O O1 0.789246 0.760234 0.776490
O O2 0.104941 0.510632 0.850296
O O3 0.915248 0.955891 0.729684
O O4 0.179082 0.531930 0.043766
O O5 0.635436 0.590278 0.686511
O O6 0.068943 0.252547 0.979545
O O7 0.500000 0.500000 0.500000
O O8 0.711715 0.198547 0.778410
O O9 0.899852 0.248572 0.744870
O O10 0.389210 0.779629 0.119471
O O11 0.698530 0.575408 0.181836
O O12 0.270805 0.825759 0.901225
O O13 0.296547 0.106073 0.913562
O O14 0.112971 0.684292 0.430717
O O15 0.450525 0.161074 0.713305
O O16 0.000000 0.500000 0.500000
O O17 0.907782 0.602841 0.594458
#
# Coordination Sequence:
#
# PCOD9101002 Si02
#       8
#     2   2   2   2   2   2   2   2
#     4  11  23  40  65  93 140 170 204 265 331 388
#     4  11  23  41  65  99 130 169 215 264 323 389
#     4  12  23  40  67  97 128 167 221 269 312 375
#     4  10  20  37  68  88 119 165 229 264 300 369
#     4  11  22  40  62  96 128 167 213 266 319 385
#     4  12  20  37  69  94 123 161 220 275 305 362
#     4  11  23  40  66  94 128 166 228 270 308 372
#     4  10  21  40  62  93 123 171 216 262 316 380
#
# _framework density 22.983357999999999
#
# number of rings (size 3 to 8) (size 9 to 14) (size 15 to 20)
#    0.000    1.000    6.250    1.875    0.000    0.500 
#    0.000    4.375    0.000    0.000    0.000    0.000 
#    0.000    0.000    0.000    0.000    0.000    0.000 
#
# Total GULP energy -89216.554234 kJ/mol
# GULP energy per Si atom -5576.034640 kJ/mol
# Density = 2.293105 g / cm^3
# Si number density = 22.983358 Si / 1000 Ang^3
#
#
#
# Elastic Constant Matrix: (Units=GPa)
#
#
# Indices 1 2 3 4 5 6 
#
# 1 122.7646 12.5700 23.2340 -3.8989 -19.9734 8.9364
# 2 12.5700 69.7784 24.2887 27.6694 -6.5491 14.4704
# 3 23.2340 24.2887 78.2619 26.8128 4.6857 8.4898
# 4 -3.8989 27.6694 26.8128 28.6221 4.8999 -9.1910
# 5 -19.9734 -6.5491 4.6857 4.8999 41.8869 -0.0910
# 6 8.9364 14.4704 8.4898 -9.1910 -0.0910 34.1891
#
#
#
# Elastic Compliance Matrix: (Units=1/GPa)
#
#
# Indices 1 2 3 4 5 6 
#
# 1 0.011009 -0.007877 -0.008251 0.018801 0.002758 0.007567
# 2 -0.007877 0.064712 0.025653 -0.110113 0.016240 -0.061258
# 3 -0.008251 0.025653 0.035633 -0.071898 0.004421 -0.036866
# 4 0.018801 -0.110113 -0.071898 0.257799 -0.030086 0.128768
# 5 0.002758 0.016240 0.004421 -0.030086 0.030717 -0.016698
# 6 0.007567 -0.061258 -0.036866 0.128768 -0.016698 0.096925
#
#
# Mechanical properties :
#
#
# Convention : Reuss Voigt Hill
#
# Bulk Modulus (GPa) = 7.66847 43.44336 25.55592
# Shear Modulus (GPa) = 9.59305 34.98711 22.29008
#
# Velocity S-wave (km/s) = 2.04523 3.90587 3.11760
# Velocity P-wave (km/s) = 2.98682 6.26772 4.90945
#
# Compressibility (1/GPa) = 0.13040412
#
# Stress axis : x y z
#
# Youngs Moduli (GPa) = 90.83705 15.45315 28.06419
#
# Poissons Ratio (x) = 0.12172 0.23156
# Poissons Ratio (y) = 0.71549 -0.71993
# Poissons Ratio (z) = 0.74949 -0.39642
#
# Static dielectric constant tensor:
#      x y z
#    x 1.778630 -0.057200 0.009690 
#    y -0.057200 1.874170 -0.003170 
#    z 0.009690 -0.003170 1.935270 
# 
# From -- ./inp_files/565816.got.cif
#   From: 2010.05.17/outbox.cif.g08.bks.cpg/sg2_283_cif.got.tgz:565816.got - 2010.06.03 11:33:40.
