data_PCOD9101822
_publ_section_title
;
Structure prediction by ZEFSAII (Michael W. Deem and Ramdas Pophale) SiO2 
 PCOD9101822
Probable space group: P -1
;
_chemical_formula_sum "Si O2"
_cell_formula_units_Z 14
_cell_length_a 7.951329
_cell_length_b 11.284717
_cell_length_c 16.927166
_cell_angle_alpha 139.755217
_cell_angle_beta 54.568942
_cell_angle_gamma 97.597626
_cell_volume 645.889083
_symmetry_space_group_name_H-M "P -1"
_symmetry_group_IT_number 2
_symmetry_cell_setting 'triclinic'
loop_
_space_group_symop_operation_xyz
x,y,z
-x,-y,-z
loop_
_atom_site_type_symbol
_atom_site_label
_atom_site_fract_x
_atom_site_fract_y
_atom_site_fract_z
Si Si1 0.338523 0.812769 0.151912
Si Si2 0.256101 0.987793 0.935105
Si Si3 0.094739 0.592076 0.159965
Si Si4 0.709307 0.845598 0.538194
Si Si5 0.684043 0.544274 0.518967
Si Si6 0.144597 0.174422 0.889903
Si Si7 0.856814 0.945608 0.827972
O O1 0.139963 0.746901 0.172556
O O2 0.314122 0.945777 0.147211
O O3 0.263974 0.978291 0.331324
O O4 0.623752 0.584257 0.967484
O O5 0.506322 0.734424 0.727923
O O6 0.239103 0.118232 0.927624
O O7 0.248614 0.066422 0.065249
O O8 0.000000 0.000000 0.000000
O O9 0.885392 0.734750 0.357316
O O10 0.038056 0.435753 0.047038
O O11 0.768248 0.649357 0.483921
O O12 0.404381 0.000779 0.682122
O O13 0.500000 0.500000 0.500000
O O14 0.907385 0.314161 0.381761
O O15 0.958185 0.100746 0.893165
#
# Coordination Sequence:
#
# PCOD9101822 Si02
#       7
#     2   2   2   2   2   2   2
#     4  10  24  40  55  84 113 153 194 237 271 337
#     4   9  17  31  54  84 113 147 176 217 283 339
#     4  10  21  41  62  74 111 159 196 228 285 323
#     4  10  20  38  61  81 110 153 191 227 285 342
#     4  11  19  34  59  87 114 145 183 228 285 341
#     4   9  19  34  59  87 107 145 193 229 279 342
#     4  11  21  35  57  87 123 139 188 237 279 335
#
# _framework density 21.675546000000001
#
# number of rings (size 3 to 8) (size 9 to 14) (size 15 to 20)
#    0.000    2.000    4.286    1.286    2.000    2.286 
#    0.000   10.714    0.000    0.000    0.000    0.000 
#    0.000    0.000    0.000    0.000    0.000    0.000 
#
# Total GULP energy -78160.210549 kJ/mol
# GULP energy per Si atom -5582.872182 kJ/mol
# Density = 2.162621 g / cm^3
# Si number density = 21.675546 Si / 1000 Ang^3
#
#
#
# Elastic Constant Matrix: (Units=GPa)
#
#
# Indices 1 2 3 4 5 6 
#
# 1 38.3888 -0.6235 8.8960 -0.0841 0.9616 -1.5392
# 2 -0.6235 67.3344 45.0213 -11.4961 -3.2338 0.0684
# 3 8.8960 45.0213 117.8886 -23.3105 7.6515 -4.2816
# 4 -0.0841 -11.4961 -23.3105 30.1366 6.8341 3.1731
# 5 0.9616 -3.2338 7.6515 6.8341 15.2788 4.3752
# 6 -1.5392 0.0684 -4.2816 3.1731 4.3752 45.5469
#
#
#
# Elastic Compliance Matrix: (Units=1/GPa)
#
#
# Indices 1 2 3 4 5 6 
#
# 1 0.026840 0.002167 -0.003291 -0.001963 0.001117 0.000624
# 2 0.002167 0.021345 -0.009239 -0.001081 0.009982 -0.001711
# 3 -0.003291 -0.009239 0.015696 0.011912 -0.015521 0.002039
# 4 -0.001963 -0.001081 0.011912 0.048233 -0.027748 0.000360
# 5 0.001117 0.009982 -0.015521 -0.027748 0.090010 -0.008149
# 6 0.000624 -0.001711 0.002039 0.000360 -0.008149 0.022928
#
#
# Mechanical properties :
#
#
# Convention : Reuss Voigt Hill
#
# Bulk Modulus (GPa) = 23.17225 36.68883 29.93054
# Shear Modulus (GPa) = 19.21865 29.54701 24.38283
#
# Velocity S-wave (km/s) = 2.98090 3.69609 3.35759
# Velocity P-wave (km/s) = 4.74988 5.93110 5.37305
#
# Compressibility (1/GPa) = 0.04315507
#
# Stress axis : x y z
#
# Youngs Moduli (GPa) = 37.25812 46.84893 63.70993
#
# Poissons Ratio (x) = -0.10151 0.20966
# Poissons Ratio (y) = -0.08073 0.58861
# Poissons Ratio (z) = 0.12261 0.43283
#
# Static dielectric constant tensor:
#      x y z
#    x 1.850280 0.039190 0.010600 
#    y 0.039190 1.808860 0.004930 
#    z 0.010600 0.004930 1.798980 
# 
# From -- ./inp_files/253315.got.cif
#   From: 2010.05.17/outbox.cif.g08.bks.cpg/sg2_127_cif.got.tgz:253315.got - 2010.06.03 11:33:40.
