data_PCOD9101207
_publ_section_title
;
Structure prediction by ZEFSAII (Michael W. Deem and Ramdas Pophale) SiO2 
 PCOD9101207
Probable space group: P -1
;
_chemical_formula_sum "Si O2"
_cell_formula_units_Z 16
_cell_length_a 5.375421
_cell_length_b 23.546664
_cell_length_c 16.199135
_cell_angle_alpha 22.126816
_cell_angle_beta 107.854513
_cell_angle_gamma 100.958021
_cell_volume 709.417501
_symmetry_space_group_name_H-M "P -1"
_symmetry_group_IT_number 2
_symmetry_cell_setting 'triclinic'
loop_
_space_group_symop_operation_xyz
x,y,z
-x,-y,-z
loop_
_atom_site_type_symbol
_atom_site_label
_atom_site_fract_x
_atom_site_fract_y
_atom_site_fract_z
Si Si1 0.939608 0.433009 0.996376
Si Si2 0.750953 0.998648 0.244790
Si Si3 0.501908 0.841682 0.160444
Si Si4 0.475608 0.711728 0.589692
Si Si5 0.918687 0.188733 0.726029
Si Si6 0.297969 0.258646 0.134366
Si Si7 0.200743 0.866059 0.759158
Si Si8 0.710496 0.190492 0.392540
O O1 0.666239 0.558843 0.773449
O O2 0.875249 0.271725 0.236069
O O3 0.000000 0.500000 0.000000
O O4 0.165113 0.404429 0.986198
O O5 0.634784 0.847306 0.424039
O O6 0.077444 0.942997 0.357120
O O7 0.691651 0.070569 0.232581
O O8 0.631001 0.108521 0.008502
O O9 0.324058 0.752478 0.313986
O O10 0.816670 0.755513 0.303949
O O11 0.500000 0.000000 0.000000
O O12 0.200834 0.769858 0.432386
O O13 0.418350 0.689866 0.709335
O O14 0.000000 0.000000 0.000000
O O15 0.530941 0.242171 0.112034
O O16 0.481494 0.144044 0.377495
O O17 0.028117 0.222816 0.120721
O O18 0.000000 0.000000 0.500000
#
# Coordination Sequence:
#
# PCOD9101207 Si02
#       8
#     2   2   2   2   2   2   2   2
#     4  12  24  40  60  91 127 175 214 260 303 376
#     4  12  24  37  66  97 126 171 205 255 331 376
#     4  10  20  38  58  89 130 152 195 262 318 384
#     4  12  24  36  63  97 127 169 206 253 329 383
#     4  10  20  38  57  86 133 151 192 262 318 382
#     4  12  25  45  57  84 131 172 211 262 291 360
#     4  12  25  41  63  88 127 172 216 255 301 377
#     4  12  22  38  60  91 131 166 214 253 304 374
#
# _framework density 22.553713999999999
#
# number of rings (size 3 to 8) (size 9 to 14) (size 15 to 20)
#    0.000    0.500    7.500    3.000    1.750    0.000 
#    0.000    0.000    0.000    0.000    0.000    5.250 
#    0.000    0.000    0.000    0.000    0.000    0.000 
#
# Total GULP energy -89290.500290 kJ/mol
# GULP energy per Si atom -5580.656268 kJ/mol
# Density = 2.250238 g / cm^3
# Si number density = 22.553714 Si / 1000 Ang^3
#
#
#
# Elastic Constant Matrix: (Units=GPa)
#
#
# Indices 1 2 3 4 5 6 
#
# 1 172.0088 41.0314 18.5246 3.2956 22.5411 -13.1840
# 2 41.0314 118.8421 35.6764 16.4969 12.0786 -7.7995
# 3 18.5246 35.6764 39.5378 15.5933 17.3128 2.3281
# 4 3.2956 16.4969 15.5933 34.1579 1.7106 13.1394
# 5 22.5411 12.0786 17.3128 1.7106 32.4596 0.2461
# 6 -13.1840 -7.7995 2.3281 13.1394 0.2461 41.1539
#
#
#
# Elastic Compliance Matrix: (Units=1/GPa)
#
#
# Indices 1 2 3 4 5 6 
#
# 1 0.006952 -0.001881 0.000430 -0.000526 -0.004345 0.002040
# 2 -0.001881 0.012589 -0.010874 -0.002254 0.002517 0.003103
# 3 0.000430 -0.010874 0.051898 -0.017685 -0.023008 0.000925
# 4 -0.000526 -0.002254 -0.017685 0.043239 0.008460 -0.013451
# 5 -0.004345 0.002517 -0.023008 0.008460 0.044733 -0.002582
# 6 0.002040 0.003103 0.000925 -0.013451 -0.002582 0.029798
#
#
# Mechanical properties :
#
#
# Convention : Reuss Voigt Hill
#
# Bulk Modulus (GPa) = 21.37282 57.87260 39.62271
# Shear Modulus (GPa) = 21.79065 37.23136 29.51101
#
# Velocity S-wave (km/s) = 3.11169 4.06739 3.62121
# Velocity P-wave (km/s) = 4.73362 6.91186 5.92373
#
# Compressibility (1/GPa) = 0.04678839
#
# Stress axis : x y z
#
# Youngs Moduli (GPa) = 143.84737 79.43416 19.26856
#
# Poissons Ratio (x) = 0.14939 -0.00828
# Poissons Ratio (y) = 0.27053 0.20953
# Poissons Ratio (z) = -0.06178 0.86377
#
# Static dielectric constant tensor:
#      x y z
#    x 2.193470 0.126090 0.154750 
#    y 0.126090 1.902770 0.006070 
#    z 0.154750 0.006070 1.988540 
# 
# From -- ./inp_files/485647.got.cif
#   From: 2010.05.17/outbox.cif.g08.bks.cpg/sg2_243_cif.got.tgz:485647.got - 2010.06.03 11:33:40.
