data_PCOD9101114
_publ_section_title
;
Structure prediction by ZEFSAII (Michael W. Deem and Ramdas Pophale) SiO2 
 PCOD9101114
Probable space group: P -1
;
_chemical_formula_sum "Si O2"
_cell_formula_units_Z 16
_cell_length_a 13.926492
_cell_length_b 14.515644
_cell_length_c 8.718549
_cell_angle_alpha 55.985225
_cell_angle_beta 93.771250
_cell_angle_gamma 47.582642
_cell_volume 743.829314
_symmetry_space_group_name_H-M "P -1"
_symmetry_group_IT_number 2
_symmetry_cell_setting 'triclinic'
loop_
_space_group_symop_operation_xyz
x,y,z
-x,-y,-z
loop_
_atom_site_type_symbol
_atom_site_label
_atom_site_fract_x
_atom_site_fract_y
_atom_site_fract_z
Si Si1 0.699298 0.705449 0.445347
Si Si2 0.948433 0.228401 0.652237
Si Si3 0.164271 0.871430 0.755251
Si Si4 0.804894 0.842018 0.382300
Si Si5 0.851869 0.320373 0.906502
Si Si6 0.350941 0.314742 0.888658
Si Si7 0.812854 0.947860 0.589100
Si Si8 0.371616 0.087547 0.264368
O O1 0.821228 0.693670 0.505270
O O2 0.693856 0.684374 0.286737
O O3 0.493485 0.941759 0.262473
O O4 0.757211 0.535315 0.694658
O O5 0.090492 0.193922 0.706461
O O6 0.760019 0.458733 0.330624
O O7 0.059926 0.030431 0.743466
O O8 0.893935 0.248386 0.800351
O O9 0.277925 0.853727 0.690339
O O10 0.257901 0.667888 0.024898
O O11 0.000000 0.000000 0.500000
O O12 0.893716 0.802367 0.584526
O O13 0.578991 0.093897 0.133728
O O14 0.042645 0.148607 0.181981
O O15 0.267534 0.304982 0.004715
O O16 0.709448 0.949593 0.660286
O O17 0.500000 0.000000 0.500000
#
# Coordination Sequence:
#
# PCOD9101114 Si02
#       8
#     2   2   2   2   2   2   2   2
#     4  10  22  36  55  86 122 153 187 242 293 339
#     4  10  22  37  67  84 112 158 192 237 304 341
#     4   9  20  42  59  82 115 148 197 250 283 333
#     4  10  20  38  54  89 124 151 186 241 291 349
#     4  10  22  37  62  84 110 155 202 237 285 349
#     4  10  22  37  56  89 125 148 188 241 290 352
#     4  10  21  36  57  84 115 152 196 232 290 343
#     4  11  20  35  56  85 123 155 187 233 295 349
#
# _framework density 21.510311999999999
#
# number of rings (size 3 to 8) (size 9 to 14) (size 15 to 20)
#    0.000    2.000    2.500    1.875    5.250    4.500 
#    0.000    0.625    8.250    6.750    0.000    0.000 
#    0.000    0.000    0.000    0.000    0.000    0.000 
#
# Total GULP energy -89098.920027 kJ/mol
# GULP energy per Si atom -5568.682502 kJ/mol
# Density = 2.146135 g / cm^3
# Si number density = 21.510312 Si / 1000 Ang^3
#
#
#
# Elastic Constant Matrix: (Units=GPa)
#
#
# Indices 1 2 3 4 5 6 
#
# 1 74.4163 3.5639 46.0807 5.5388 -29.7481 -5.3269
# 2 3.5639 15.1425 4.7112 2.7123 5.4457 6.5813
# 3 46.0807 4.7112 102.7806 5.7051 -37.2364 -4.5580
# 4 5.5388 2.7123 5.7051 26.8641 -4.4091 -1.6969
# 5 -29.7481 5.4457 -37.2364 -4.4091 38.2075 1.9782
# 6 -5.3269 6.5813 -4.5580 -1.6969 1.9782 32.2280
#
#
#
# Elastic Compliance Matrix: (Units=1/GPa)
#
#
# Indices 1 2 3 4 5 6 
#
# 1 0.022966 -0.011827 -0.003937 0.000137 0.015502 0.004710
# 2 -0.011827 0.096914 -0.012179 -0.011911 -0.035129 -0.021939
# 3 -0.003937 -0.012179 0.018000 0.001089 0.016160 0.003447
# 4 0.000137 -0.011911 0.001089 0.039621 0.007217 0.004252
# 5 0.015502 -0.035129 0.016160 0.007217 0.059378 0.008757
# 6 0.004710 -0.021939 0.003447 0.004252 0.008757 0.036462
#
#
# Mechanical properties :
#
#
# Convention : Reuss Voigt Hill
#
# Bulk Modulus (GPa) = 12.19581 33.45010 22.82295
# Shear Modulus (GPa) = 14.02297 28.65884 21.34090
#
# Velocity S-wave (km/s) = 2.55604 3.65407 3.15322
# Velocity P-wave (km/s) = 3.79383 5.77819 4.88777
#
# Compressibility (1/GPa) = 0.08199537
#
# Stress axis : x y z
#
# Youngs Moduli (GPa) = 43.54231 10.31838 55.55593
#
# Poissons Ratio (x) = 0.12203 0.21873
# Poissons Ratio (y) = 0.51497 0.67659
# Poissons Ratio (z) = 0.17143 0.12566
#
# Static dielectric constant tensor:
#      x y z
#    x 1.888790 0.002640 -0.016080 
#    y 0.002640 1.826300 0.006120 
#    z -0.016080 0.006120 1.913880 
# 
# From -- ./inp_files/170461.got.cif
#   From: 2010.05.17/outbox.cif.g08.bks.cpg/sg2_86_cif.got.tgz:170461.got - 2010.06.03 11:33:40.
