data_PCOD9101750
_publ_section_title
;
Structure prediction by ZEFSAII (Michael W. Deem and Ramdas Pophale) SiO2 
 PCOD9101750
Probable space group: P -1
;
_chemical_formula_sum "Si O2"
_cell_formula_units_Z 16
_cell_length_a 8.006136
_cell_length_b 9.207735
_cell_length_c 14.066070
_cell_angle_alpha 89.924464
_cell_angle_beta 45.752628
_cell_angle_gamma 78.413790
_cell_volume 713.271115
_symmetry_space_group_name_H-M "P -1"
_symmetry_group_IT_number 2
_symmetry_cell_setting 'triclinic'
loop_
_space_group_symop_operation_xyz
x,y,z
-x,-y,-z
loop_
_atom_site_type_symbol
_atom_site_label
_atom_site_fract_x
_atom_site_fract_y
_atom_site_fract_z
Si Si1 0.268086 0.781397 0.956750
Si Si2 0.600864 0.174243 0.639944
Si Si3 0.171494 0.347055 0.201192
Si Si4 0.839958 0.982129 0.362569
Si Si5 0.909799 0.674857 0.229418
Si Si6 0.985209 0.674127 0.526224
Si Si7 0.783982 0.944024 0.899899
Si Si8 0.533990 0.109462 0.297905
O O1 0.538462 0.697459 0.891441
O O2 0.319103 0.804998 0.826977
O O3 0.076491 0.701995 0.075614
O O4 0.164965 0.952393 0.037450
O O5 0.731926 0.065219 0.501220
O O6 0.362945 0.302278 0.699854
O O7 0.797778 0.258132 0.596161
O O8 0.497991 0.047872 0.735213
O O9 0.137566 0.235643 0.130911
O O10 0.048868 0.517498 0.220678
O O11 0.039995 0.313793 0.349148
O O12 0.667891 0.068471 0.344911
O O13 0.099448 0.007262 0.240589
O O14 0.876331 0.807550 0.321615
O O15 0.000000 0.500000 0.500000
O O16 0.732532 0.777860 0.586909
O O17 0.500000 0.000000 0.000000
#
# Coordination Sequence:
#
# PCOD9101750 Si02
#       8
#     2   2   2   2   2   2   2   2
#     4   9  20  39  61  91 126 164 208 253 308 360
#     4  11  23  41  62  92 123 168 212 248 306 378
#     4  10  20  38  60  90 124 164 205 256 304 368
#     4  10  21  38  64  91 121 163 212 252 298 373
#     4  10  21  35  64  93 125 160 210 253 308 364
#     4  11  25  40  60  92 129 160 201 258 321 363
#     4   9  18  36  61  88 118 164 209 246 296 364
#     4  10  22  41  64  89 129 161 205 260 305 363
#
# _framework density 22.431863
#
# number of rings (size 3 to 8) (size 9 to 14) (size 15 to 20)
#    0.000    2.000    1.250    2.250    3.500    6.000 
#    0.000    2.500    0.000    6.750    0.000    0.000 
#    0.000    0.000    0.000    0.000    0.000    0.000 
#
# Total GULP energy -89301.909718 kJ/mol
# GULP energy per Si atom -5581.369357 kJ/mol
# Density = 2.238081 g / cm^3
# Si number density = 22.431863 Si / 1000 Ang^3
#
#
#
# Elastic Constant Matrix: (Units=GPa)
#
#
# Indices 1 2 3 4 5 6 
#
# 1 39.2101 28.7671 8.7765 7.2719 -9.3605 -8.4356
# 2 28.7671 134.3651 15.3464 25.1059 3.8824 -25.4330
# 3 8.7765 15.3464 85.7399 -11.2684 -16.5576 -6.5031
# 4 7.2719 25.1059 -11.2684 35.9240 -2.4709 -6.8897
# 5 -9.3605 3.8824 -16.5576 -2.4709 30.7364 3.3398
# 6 -8.4356 -25.4330 -6.5031 -6.8897 3.3398 24.2270
#
#
#
# Elastic Compliance Matrix: (Units=1/GPa)
#
#
# Indices 1 2 3 4 5 6 
#
# 1 0.033895 -0.006878 -0.000038 -0.000775 0.010797 0.002863
# 2 -0.006878 0.012453 -0.003116 -0.007077 -0.006868 0.008776
# 3 -0.000038 -0.003116 0.015130 0.007890 0.008973 0.001784
# 4 -0.000775 -0.007077 0.007890 0.036658 0.007441 0.003818
# 5 0.010797 -0.006868 0.008973 0.007441 0.042644 -0.004805
# 6 0.002863 0.008776 0.001784 0.003818 -0.004805 0.053712
#
#
# Mechanical properties :
#
#
# Convention : Reuss Voigt Hill
#
# Bulk Modulus (GPa) = 24.14612 40.56611 32.35611
# Shear Modulus (GPa) = 21.89513 31.93917 26.91715
#
# Velocity S-wave (km/s) = 3.12761 3.77746 3.46779
# Velocity P-wave (km/s) = 4.88161 6.09500 5.52174
#
# Compressibility (1/GPa) = 0.04141452
#
# Stress axis : x y z
#
# Youngs Moduli (GPa) = 29.50250 80.30403 66.09451
#
# Poissons Ratio (x) = 0.55232 0.00252
# Poissons Ratio (y) = 0.20291 0.20593
# Poissons Ratio (z) = 0.00112 0.25021
#
# Static dielectric constant tensor:
#      x y z
#    x 1.886180 0.031060 0.000580 
#    y 0.031060 1.826190 -0.057120 
#    z 0.000580 -0.057120 1.898450 
# 
# From -- ./inp_files/257416.got.cif
#   From: 2010.05.17/outbox.cif.g08.bks.cpg/sg2_129_cif.got.tgz:257416.got - 2010.06.03 11:33:40.
