data_PCOD9101931
_publ_section_title
;
Structure prediction by ZEFSAII (Michael W. Deem and Ramdas Pophale) SiO2 
 PCOD9101931
Probable space group: P -1
;
_chemical_formula_sum "Si O2"
_cell_formula_units_Z 16
_cell_length_a 14.252289
_cell_length_b 12.428188
_cell_length_c 15.888896
_cell_angle_alpha 28.651958
_cell_angle_beta 62.867342
_cell_angle_gamma 41.873855
_cell_volume 709.063662
_symmetry_space_group_name_H-M "P -1"
_symmetry_group_IT_number 2
_symmetry_cell_setting 'triclinic'
loop_
_space_group_symop_operation_xyz
x,y,z
-x,-y,-z
loop_
_atom_site_type_symbol
_atom_site_label
_atom_site_fract_x
_atom_site_fract_y
_atom_site_fract_z
Si Si1 0.423254 0.464430 0.487007
Si Si2 0.722887 0.613830 0.695010
Si Si3 0.561258 0.147923 0.248713
Si Si4 0.643056 0.314464 0.819772
Si Si5 0.994412 0.268235 0.117334
Si Si6 0.017888 0.099973 0.512047
Si Si7 0.647911 0.880340 0.217334
Si Si8 0.949442 0.467928 0.822261
O O1 0.500000 0.500000 0.500000
O O2 0.465910 0.449124 0.382771
O O3 0.475384 0.126274 0.727562
O O4 0.205813 0.844514 0.315352
O O5 0.605331 0.730346 0.743440
O O6 0.692225 0.457456 0.752118
O O7 0.903999 0.383696 0.821487
O O8 0.665754 0.927122 0.445804
O O9 0.678262 0.865531 0.315143
O O10 0.500000 0.500000 0.000000
O O11 0.572118 0.237983 0.961387
O O12 0.838065 0.888071 0.007886
O O13 0.905808 0.219814 0.238532
O O14 0.000000 0.500000 0.000000
O O15 0.892378 0.468557 0.934052
O O16 0.828015 0.502438 0.353854
O O17 0.118179 0.163483 0.416916
O O18 0.000000 0.000000 0.500000
#
# Coordination Sequence:
#
# PCOD9101931 Si02
#       8
#     2   2   2   2   2   2   2   2
#     4  10  22  39  62  90 124 169 213 254 314 386
#     4  11  23  40  65  92 124 167 214 261 310 384
#     4  11  23  42  63  87 130 174 209 257 312 373
#     4  10  20  41  65  89 126 161 208 265 323 369
#     4  10  20  38  61  87 125 164 203 265 313 367
#     4  10  20  39  63  89 124 163 205 261 321 373
#     4  10  21  40  63  87 124 167 204 261 319 367
#     4  10  22  38  63  95 123 161 210 259 322 376
#
# _framework density 22.564969999999999
#
# number of rings (size 3 to 8) (size 9 to 14) (size 15 to 20)
#    0.000    1.750    3.750    0.375    0.000    2.500 
#    0.000    1.250    5.500    0.000    0.000    0.000 
#    0.000    0.000    0.000    0.000    0.000    0.000 
#
# Total GULP energy -89080.593933 kJ/mol
# GULP energy per Si atom -5567.537121 kJ/mol
# Density = 2.251361 g / cm^3
# Si number density = 22.564970 Si / 1000 Ang^3
#
#
#
# Elastic Constant Matrix: (Units=GPa)
#
#
# Indices 1 2 3 4 5 6 
#
# 1 101.4244 21.2593 74.7460 34.1992 -8.3437 24.4714
# 2 21.2593 102.1693 51.8826 25.4519 -7.9252 12.8948
# 3 74.7460 51.8826 167.0637 54.5195 -41.6639 6.0336
# 4 34.1992 25.4519 54.5195 50.3521 -3.4940 0.6824
# 5 -8.3437 -7.9252 -41.6639 -3.4940 35.7809 -2.5230
# 6 24.4714 12.8948 6.0336 0.6824 -2.5230 33.9303
#
#
#
# Elastic Compliance Matrix: (Units=1/GPa)
#
#
# Indices 1 2 3 4 5 6 
#
# 1 0.021873 0.003536 -0.010447 -0.005670 -0.007944 -0.015738
# 2 0.003536 0.013119 -0.004815 -0.003917 -0.002739 -0.006805
# 3 -0.010447 -0.004815 0.020595 -0.011491 0.019879 0.007411
# 4 -0.005670 -0.003917 -0.011491 0.037254 -0.011508 0.006017
# 5 -0.007944 -0.002739 0.019879 -0.011508 0.048009 0.007037
# 6 -0.015738 -0.006805 0.007411 0.006017 0.007037 0.042493
#
#
# Mechanical properties :
#
#
# Convention : Reuss Voigt Hill
#
# Bulk Modulus (GPa) = 31.11800 74.04813 52.58307
# Shear Modulus (GPa) = 22.98778 38.86396 30.92587
#
# Velocity S-wave (km/s) = 3.19523 4.15458 3.70608
# Velocity P-wave (km/s) = 5.23765 7.47668 6.45499
#
# Compressibility (1/GPa) = 0.03213574
#
# Stress axis : x y z
#
# Youngs Moduli (GPa) = 45.71891 76.22289 48.55495
#
# Poissons Ratio (x) = -0.26955 0.50724
# Poissons Ratio (y) = -0.16167 0.23381
# Poissons Ratio (z) = 0.47761 0.36705
#
# Static dielectric constant tensor:
#      x y z
#    x 1.849890 -0.164490 -0.060050 
#    y -0.164490 2.620490 0.107070 
#    z -0.060050 0.107070 1.934430 
# 
# From -- ./inp_files/532272.got.cif
#   From: 2010.05.17/outbox.cif.g08.bks.cpg/sg2_267_cif.got.tgz:532272.got - 2010.06.03 11:33:40.
