data_PCOD9101370
_publ_section_title
;
Structure prediction by ZEFSAII (Michael W. Deem and Ramdas Pophale) SiO2 
 PCOD9101370
Probable space group: P -1
;
_chemical_formula_sum "Si O2"
_cell_formula_units_Z 10
_cell_length_a 12.276721
_cell_length_b 9.542690
_cell_length_c 6.702821
_cell_angle_alpha 122.571051
_cell_angle_beta 142.813292
_cell_angle_gamma 49.583229
_cell_volume 360.944042
_symmetry_space_group_name_H-M "P -1"
_symmetry_group_IT_number 2
_symmetry_cell_setting 'triclinic'
loop_
_space_group_symop_operation_xyz
x,y,z
-x,-y,-z
loop_
_atom_site_type_symbol
_atom_site_label
_atom_site_fract_x
_atom_site_fract_y
_atom_site_fract_z
Si Si1 0.066780 0.337959 0.688144
Si Si2 0.306172 0.165610 0.574249
Si Si3 0.589787 0.203922 0.716833
Si Si4 0.732753 0.455421 0.604894
Si Si5 0.277962 0.900354 0.741896
O O1 0.103659 0.313250 0.484684
O O2 0.854424 0.430887 0.556652
O O3 0.161499 0.118445 0.715780
O O4 0.189959 0.438615 0.046779
O O5 0.385832 0.193437 0.496169
O O6 0.314529 0.963094 0.423986
O O7 0.484512 0.159298 0.971150
O O8 0.501512 0.412714 0.675014
O O9 0.730699 0.148502 0.072072
O O10 0.774636 0.247837 0.562772
#
# Coordination Sequence:
#
# PCOD9101370 Si02
#       5
#     2   2   2   2   2
#     4  11  22  37  55  84 113 142 174 231 273 317
#     4   9  19  37  61  76 110 146 182 218 273 316
#     4   9  19  37  60  77 107 147 183 221 263 324
#     4  11  22  36  57  83 113 139 181 225 275 313
#     4  10  20  38  59  78 109 147 182 219 267 327
#
# _framework density 27.705126
#
# number of rings (size 3 to 8) (size 9 to 14) (size 15 to 20)
#    1.200    0.800    2.000    1.800    0.000    1.600 
#    0.000    1.000    0.000    0.000    0.000    0.000 
#    0.000    0.000    0.000    0.000    0.000    0.000 
#
# Total GULP energy -55896.606290 kJ/mol
# GULP energy per Si atom -5589.660629 kJ/mol
# Density = 2.764207 g / cm^3
# Si number density = 27.705126 Si / 1000 Ang^3
#
#
#
# Elastic Constant Matrix: (Units=GPa)
#
#
# Indices 1 2 3 4 5 6 
#
# 1 93.9486 32.2106 25.5254 23.4380 -14.7242 -22.6925
# 2 32.2106 171.9921 54.3398 53.8574 0.1910 -27.7706
# 3 25.5254 54.3398 113.6066 45.6815 0.1919 3.2013
# 4 23.4380 53.8574 45.6815 55.7159 1.3766 -5.6724
# 5 -14.7242 0.1910 0.1919 1.3766 25.8943 15.9922
# 6 -22.6925 -27.7706 3.2013 -5.6724 15.9922 62.1701
#
#
#
# Elastic Compliance Matrix: (Units=1/GPa)
#
#
# Indices 1 2 3 4 5 6 
#
# 1 0.013899 -0.000385 -0.001327 -0.004241 0.006314 0.002958
# 2 -0.000385 0.009240 -0.001652 -0.006943 -0.002413 0.004059
# 3 -0.001327 -0.001652 0.013816 -0.009542 0.001658 -0.003231
# 4 -0.004241 -0.006943 -0.009542 0.034375 -0.004145 0.000044
# 5 0.006314 -0.002413 0.001658 -0.004145 0.049889 -0.012069
# 6 0.002958 0.004059 -0.003231 0.000044 -0.012069 0.022253
#
#
# Mechanical properties :
#
#
# Convention : Reuss Voigt Hill
#
# Bulk Modulus (GPa) = 33.08258 67.07765 50.08012
# Shear Modulus (GPa) = 31.19620 46.58751 38.89186
#
# Velocity S-wave (km/s) = 3.35925 4.10512 3.75077
# Velocity P-wave (km/s) = 5.19740 6.83617 6.07232
#
# Compressibility (1/GPa) = 0.03022738
#
# Stress axis : x y z
#
# Youngs Moduli (GPa) = 71.94739 108.21980 72.38029
#
# Poissons Ratio (x) = 0.04164 0.09607
# Poissons Ratio (y) = 0.02769 0.11956
# Poissons Ratio (z) = 0.09550 0.17877
#
# Static dielectric constant tensor:
#      x y z
#    x 2.389400 0.125480 0.010550 
#    y 0.125480 2.145310 -0.001870 
#    z 0.010550 -0.001870 2.060250 
# 
# From -- ./inp_files/147466.got.cif
#   From: 2010.05.17/outbox.cif.g08.bks.cpg/sg2_74_cif.got.tgz:147466.got - 2010.06.03 11:33:40.
