data_PCOD9101902
_publ_section_title
;
Structure prediction by ZEFSAII (Michael W. Deem and Ramdas Pophale) SiO2 
 PCOD9101902
Probable space group: P -1
;
_chemical_formula_sum "Si O2"
_cell_formula_units_Z 14
_cell_length_a 8.081948
_cell_length_b 13.812626
_cell_length_c 11.656710
_cell_angle_alpha 29.885593
_cell_angle_beta 70.261335
_cell_angle_gamma 69.150916
_cell_volume 604.740746
_symmetry_space_group_name_H-M "P -1"
_symmetry_group_IT_number 2
_symmetry_cell_setting 'triclinic'
loop_
_space_group_symop_operation_xyz
x,y,z
-x,-y,-z
loop_
_atom_site_type_symbol
_atom_site_label
_atom_site_fract_x
_atom_site_fract_y
_atom_site_fract_z
Si Si1 0.376937 0.249427 0.887399
Si Si2 0.728979 0.100908 0.871727
Si Si3 0.990377 0.579718 0.293079
Si Si4 0.200637 0.242092 0.166188
Si Si5 0.308539 0.933681 0.621858
Si Si6 0.106549 0.018404 0.813025
Si Si7 0.829186 0.453010 0.937008
O O1 0.571456 0.266279 0.776953
O O2 0.212799 0.395811 0.726861
O O3 0.354638 0.252907 0.025782
O O4 0.339586 0.035441 0.069873
O O5 0.775368 0.974553 0.107954
O O6 0.917734 0.154225 0.730342
O O7 0.000000 0.500000 0.500000
O O8 0.048128 0.799094 0.055200
O O9 0.126496 0.474387 0.274733
O O10 0.015294 0.322259 0.066230
O O11 0.209307 0.024279 0.437961
O O12 0.215673 0.380652 0.129442
O O13 0.208088 0.025858 0.663456
O O14 0.310019 0.701547 0.870035
O O15 0.500000 0.000000 0.500000
#
# Coordination Sequence:
#
# PCOD9101902 Si02
#       7
#     2   2   2   2   2   2   2
#     4   9  18  33  56  84 111 148 195 240 291 356
#     4   9  17  33  55  78 111 143 188 249 290 336
#     4   9  18  35  56  81 118 156 191 241 303 358
#     4  10  20  38  61  86 122 157 195 245 300 360
#     4  11  22  37  61  90 120 158 199 243 299 359
#     4   9  19  34  56  85 114 150 197 242 293 359
#     4   9  21  38  59  89 121 157 200 245 296 361
#
# _framework density 23.150416
#
# number of rings (size 3 to 8) (size 9 to 14) (size 15 to 20)
#    0.000    2.571    0.000    2.143    0.000    4.000 
#    0.000    3.571    0.000    6.857    0.000    0.000 
#    0.000    0.000    0.000    0.000    0.000    0.000 
#
# Total GULP energy -78247.363003 kJ/mol
# GULP energy per Si atom -5589.097357 kJ/mol
# Density = 2.309772 g / cm^3
# Si number density = 23.150416 Si / 1000 Ang^3
#
#
#
# Elastic Constant Matrix: (Units=GPa)
#
#
# Indices 1 2 3 4 5 6 
#
# 1 84.2065 34.5155 33.4668 17.2486 -14.0224 -18.4446
# 2 34.5155 146.9113 48.2339 36.3695 -7.7735 -7.0929
# 3 33.4668 48.2339 106.9600 33.2282 -9.1346 -9.9882
# 4 17.2486 36.3695 33.2282 41.0375 0.1139 -2.3937
# 5 -14.0224 -7.7735 -9.1346 0.1139 32.9675 3.8802
# 6 -18.4446 -7.0929 -9.9882 -2.3937 3.8802 35.3758
#
#
#
# Elastic Compliance Matrix: (Units=1/GPa)
#
#
# Indices 1 2 3 4 5 6 
#
# 1 0.016511 -0.001735 -0.002332 -0.003130 0.005175 0.006823
# 2 -0.001735 0.009352 -0.001656 -0.006223 0.001033 -0.000032
# 3 -0.002332 -0.001656 0.013868 -0.008698 0.002311 0.001526
# 4 -0.003130 -0.006223 -0.008698 0.038127 -0.005082 -0.002198
# 5 0.005175 0.001033 0.002311 -0.005082 0.033490 -0.000459
# 6 0.006823 -0.000032 0.001526 -0.002198 -0.000459 0.032151
#
#
# Mechanical properties :
#
#
# Convention : Reuss Voigt Hill
#
# Bulk Modulus (GPa) = 35.35563 63.39003 49.37283
# Shear Modulus (GPa) = 30.41848 36.66693 33.54270
#
# Velocity S-wave (km/s) = 3.62878 3.98409 3.81058
# Velocity P-wave (km/s) = 5.73260 6.97174 6.38231
#
# Compressibility (1/GPa) = 0.02828403
#
# Stress axis : x y z
#
# Youngs Moduli (GPa) = 60.56501 106.93126 72.10967
#
# Poissons Ratio (x) = 0.18556 0.16817
# Poissons Ratio (y) = 0.10510 0.11940
# Poissons Ratio (z) = 0.14125 0.17706
#
# Static dielectric constant tensor:
#      x y z
#    x 1.906910 -0.008920 0.000770 
#    y -0.008920 1.879180 -0.054210 
#    z 0.000770 -0.054210 1.904720 
# 
# From -- ./inp_files/203223.got.cif
#   From: 2010.05.17/outbox.cif.g08.bks.cpg/sg2_102_cif.got.tgz:203223.got - 2010.06.03 11:33:40.
