data_PCOD9101677
_publ_section_title
;
Structure prediction by ZEFSAII (Michael W. Deem and Ramdas Pophale) SiO2 
 PCOD9101677
Probable space group: P -1
;
_chemical_formula_sum "Si O2"
_cell_formula_units_Z 14
_cell_length_a 9.820802
_cell_length_b 10.570319
_cell_length_c 8.212976
_cell_angle_alpha 67.639765
_cell_angle_beta 134.778894
_cell_angle_gamma 105.881090
_cell_volume 559.662892
_symmetry_space_group_name_H-M "P -1"
_symmetry_group_IT_number 2
_symmetry_cell_setting 'triclinic'
loop_
_space_group_symop_operation_xyz
x,y,z
-x,-y,-z
loop_
_atom_site_type_symbol
_atom_site_label
_atom_site_fract_x
_atom_site_fract_y
_atom_site_fract_z
Si Si1 0.068140 0.707697 0.886246
Si Si2 0.160507 0.073424 0.820849
Si Si3 0.927976 0.563707 0.168935
Si Si4 0.610344 0.650674 0.095182
Si Si5 0.790300 0.962866 0.477714
Si Si6 0.688908 0.361946 0.394255
Si Si7 0.375390 0.852108 0.270884
O O1 0.061347 0.593159 0.798884
O O2 0.926264 0.830071 0.665141
O O3 0.978815 0.644734 0.007822
O O4 0.282464 0.755959 0.097006
O O5 0.273103 0.214923 0.827981
O O6 0.225083 0.000266 0.742731
O O7 0.928854 0.074807 0.625950
O O8 0.233962 0.983136 0.078329
O O9 0.085160 0.613677 0.407611
O O10 0.725794 0.600170 0.056517
O O11 0.618762 0.520594 0.285465
O O12 0.401357 0.681423 0.832927
O O13 0.584434 0.918795 0.391282
O O14 0.627192 0.247116 0.527814
#
# Coordination Sequence:
#
# PCOD9101677 Si02
#       7
#     2   2   2   2   2   2   2
#     4   9  20  36  61  93 117 152 209 246 293 368
#     4  10  23  39  62  93 120 157 209 245 297 374
#     4  10  20  38  60  87 125 161 194 249 305 354
#     4  11  23  40  60  89 126 161 198 250 305 358
#     4  10  20  40  64  87 120 160 202 255 301 348
#     4  10  23  39  58  89 123 158 205 243 297 368
#     4  10  21  40  63  89 121 159 202 255 302 350
#
# _framework density 25.015059999999998
#
# number of rings (size 3 to 8) (size 9 to 14) (size 15 to 20)
#    0.000    2.000    0.000    2.571    0.000    5.143 
#    0.000   16.429    0.000    0.000    0.000    0.000 
#    0.000    0.000    0.000    0.000    0.000    0.000 
#
# Total GULP energy -78240.865957 kJ/mol
# GULP energy per Si atom -5588.633283 kJ/mol
# Density = 2.495812 g / cm^3
# Si number density = 25.015060 Si / 1000 Ang^3
#
#
#
# Elastic Constant Matrix: (Units=GPa)
#
#
# Indices 1 2 3 4 5 6 
#
# 1 74.7214 20.6812 41.4303 7.9077 10.2945 34.3801
# 2 20.6812 105.3771 54.7825 11.3470 15.9314 31.4333
# 3 41.4303 54.7825 115.6177 -8.3827 -0.8264 26.3433
# 4 7.9077 11.3470 -8.3827 49.3693 14.9986 -0.0695
# 5 10.2945 15.9314 -0.8264 14.9986 21.1966 5.8500
# 6 34.3801 31.4333 26.3433 -0.0695 5.8500 46.5967
#
#
#
# Elastic Compliance Matrix: (Units=1/GPa)
#
#
# Indices 1 2 3 4 5 6 
#
# 1 0.026640 0.006884 -0.009129 -0.004213 -0.010569 -0.017817
# 2 0.006884 0.018171 -0.008938 -0.003112 -0.012177 -0.010760
# 3 -0.009129 -0.008938 0.015854 0.003652 0.008426 0.002750
# 4 -0.004213 -0.003112 0.003652 0.027177 -0.016140 0.005210
# 5 -0.010569 -0.012177 0.008426 -0.016140 0.072631 0.002107
# 6 -0.017817 -0.010760 0.002750 0.005210 0.002107 0.040054
#
#
# Mechanical properties :
#
#
# Convention : Reuss Voigt Hill
#
# Bulk Modulus (GPa) = 26.11041 58.83382 42.47212
# Shear Modulus (GPa) = 21.21721 35.35401 28.28561
#
# Velocity S-wave (km/s) = 2.91551 3.76348 3.36630
# Velocity P-wave (km/s) = 4.66842 6.51578 5.66787
#
# Compressibility (1/GPa) = 0.03829889
#
# Stress axis : x y z
#
# Youngs Moduli (GPa) = 37.53819 55.03302 63.07535
#
# Poissons Ratio (x) = -0.37886 0.57583
# Poissons Ratio (y) = -0.25842 0.56375
# Poissons Ratio (z) = 0.34270 0.49187
#
# Static dielectric constant tensor:
#      x y z
#    x 1.948190 0.003300 -0.012090 
#    y 0.003300 2.054050 0.011760 
#    z -0.012090 0.011760 1.990120 
# 
# From -- ./inp_files/257250.got.cif
#   From: 2010.05.17/outbox.cif.g08.bks.cpg/sg2_129_cif.got.tgz:257250.got - 2010.06.03 11:33:40.
