data_PCOD9101716
_publ_section_title
;
Structure prediction by ZEFSAII (Michael W. Deem and Ramdas Pophale) SiO2 
 PCOD9101716
Probable space group: P -1
;
_chemical_formula_sum "Si O2"
_cell_formula_units_Z 16
_cell_length_a 25.460185
_cell_length_b 8.793046
_cell_length_c 25.291921
_cell_angle_alpha 135.403893
_cell_angle_beta 168.813255
_cell_angle_gamma 44.262978
_cell_volume 764.798894
_symmetry_space_group_name_H-M "P -1"
_symmetry_group_IT_number 2
_symmetry_cell_setting 'triclinic'
loop_
_space_group_symop_operation_xyz
x,y,z
-x,-y,-z
loop_
_atom_site_type_symbol
_atom_site_label
_atom_site_fract_x
_atom_site_fract_y
_atom_site_fract_z
Si Si1 0.405190 0.869267 0.670106
Si Si2 0.585005 0.102459 0.804582
Si Si3 0.110783 0.071388 0.249144
Si Si4 0.833051 0.085108 0.198979
Si Si5 0.618943 0.475750 0.011325
Si Si6 0.762123 0.601380 0.633080
Si Si7 0.935513 0.207477 0.450050
Si Si8 0.817825 0.212060 0.846727
O O1 0.316091 0.631333 0.518348
O O2 0.555312 0.934186 0.781182
O O3 0.119534 0.026325 0.436136
O O4 0.628382 0.902730 0.943855
O O5 0.303991 0.113787 0.498615
O O6 0.642236 0.325209 0.944886
O O7 0.819146 0.043708 0.978279
O O8 0.119039 0.276761 0.268924
O O9 0.211395 0.858580 0.260163
O O10 0.659811 0.300445 0.056104
O O11 0.913360 0.124277 0.347778
O O12 0.837921 0.636449 0.277771
O O13 0.339758 0.633653 0.771651
O O14 0.478120 0.736154 0.406246
O O15 0.994596 0.599730 0.907533
O O16 0.000000 0.000000 0.500000
O O17 0.000000 0.000000 0.000000
#
# Coordination Sequence:
#
# PCOD9101716 Si02
#       8
#     2   2   2   2   2   2   2   2
#     4  11  24  42  63  94 129 164 211 264 313 374
#     4  11  23  40  61  90 123 161 207 256 305 371
#     4  11  21  38  63  89 120 164 209 255 309 372
#     4  11  23  43  67  90 124 175 213 249 313 395
#     4  11  23  43  64  87 125 173 208 246 314 391
#     4  11  22  39  63  90 122 163 208 262 315 371
#     4  12  25  41  64  97 128 157 207 272 313 358
#     4  10  20  38  60  89 122 163 210 254 310 384
#
# _framework density 20.920532999999999
#
# number of rings (size 3 to 8) (size 9 to 14) (size 15 to 20)
#    0.000    1.000    0.000   10.125    0.000    3.000 
#    0.000    3.750    0.000    0.000    0.000    0.000 
#    0.000    0.000    0.000    0.000    0.000    0.000 
#
# Total GULP energy -89405.349528 kJ/mol
# GULP energy per Si atom -5587.834346 kJ/mol
# Density = 2.087292 g / cm^3
# Si number density = 20.920533 Si / 1000 Ang^3
#
#
#
# Elastic Constant Matrix: (Units=GPa)
#
#
# Indices 1 2 3 4 5 6 
#
# 1 118.9649 89.3774 17.7395 15.1601 -4.0367 -10.6426
# 2 89.3774 151.7165 44.5887 32.9747 13.0247 -4.1860
# 3 17.7395 44.5887 126.1923 18.9724 -0.3075 -5.1174
# 4 15.1601 32.9747 18.9724 60.0022 -14.4565 -4.7115
# 5 -4.0367 13.0247 -0.3075 -14.4565 64.3730 3.8960
# 6 -10.6426 -4.1860 -5.1174 -4.7115 3.8960 13.8036
#
#
#
# Elastic Compliance Matrix: (Units=1/GPa)
#
#
# Indices 1 2 3 4 5 6 
#
# 1 0.017387 -0.011357 0.001553 0.003016 0.003431 0.010598
# 2 -0.011357 0.015944 -0.003309 -0.006533 -0.005061 -0.005949
# 3 0.001553 -0.003309 0.009174 -0.001143 0.000366 0.003102
# 4 0.003016 -0.006533 -0.001143 0.021756 0.006050 0.005639
# 5 0.003431 -0.005061 0.000366 0.006050 0.018245 -0.001838
# 6 0.010598 -0.005949 0.003102 0.005639 -0.001838 0.082405
#
#
# Mechanical properties :
#
#
# Convention : Reuss Voigt Hill
#
# Bulk Modulus (GPa) = 61.42327 77.80945 69.61636
# Shear Modulus (GPa) = 25.43713 43.98029 34.70871
#
# Velocity S-wave (km/s) = 3.49075 4.59001 4.07759
# Velocity P-wave (km/s) = 6.75804 8.08483 7.45103
#
# Compressibility (1/GPa) = 0.01628048
#
# Stress axis : x y z
#
# Youngs Moduli (GPa) = 57.51499 62.71781 109.00799
#
# Poissons Ratio (x) = 0.71228 -0.16933
# Poissons Ratio (y) = 0.65319 0.36067
# Poissons Ratio (z) = -0.08934 0.20751
#
# Static dielectric constant tensor:
#      x y z
#    x 1.801820 -0.027720 -0.009200 
#    y -0.027720 1.792320 0.014400 
#    z -0.009200 0.014400 1.729730 
# 
# From -- ./inp_files/357953.got.cif
#   From: 2010.05.17/outbox.cif.g08.bks.cpg/sg2_179_cif.got.tgz:357953.got - 2010.06.03 11:33:40.
