data_PCOD9101739
_publ_section_title
;
Structure prediction by ZEFSAII (Michael W. Deem and Ramdas Pophale) SiO2 
 PCOD9101739
Probable space group: P -1
;
_chemical_formula_sum "Si O2"
_cell_formula_units_Z 15
_cell_length_a 23.344368
_cell_length_b 4.865686
_cell_length_c 8.846319
_cell_angle_alpha 120.825771
_cell_angle_beta 40.810233
_cell_angle_gamma 111.031429
_cell_volume 563.181810
_symmetry_space_group_name_H-M "P -1"
_symmetry_group_IT_number 2
_symmetry_cell_setting 'triclinic'
loop_
_space_group_symop_operation_xyz
x,y,z
-x,-y,-z
loop_
_atom_site_type_symbol
_atom_site_label
_atom_site_fract_x
_atom_site_fract_y
_atom_site_fract_z
Si Si1 0.289452 0.420932 0.983812
Si Si2 0.392188 0.564598 0.520884
Si Si3 0.430641 0.263423 0.889617
Si Si4 0.785521 0.924056 0.518766
Si Si5 0.500000 0.000000 0.000000
Si Si6 0.052990 0.865539 0.598697
Si Si7 0.311840 0.723754 0.426838
Si Si8 0.106210 0.148673 0.267479
O O1 0.346182 0.506785 0.751764
O O2 0.348854 0.226394 0.933620
O O3 0.255741 0.760424 0.222810
O O4 0.204119 0.232400 0.063734
O O5 0.486938 0.706944 0.374827
O O6 0.336152 0.759940 0.561931
O O7 0.418584 0.231268 0.292036
O O8 0.405570 0.618207 0.120472
O O9 0.457557 0.044387 0.914756
O O10 0.889404 0.936280 0.345443
O O11 0.750962 0.000563 0.441632
O O12 0.744515 0.597270 0.560689
O O13 0.061915 0.489232 0.511937
O O14 0.951805 0.956367 0.787716
O O15 0.099245 0.909767 0.354376
#
# Coordination Sequence:
#
# PCOD9101739 Si02
#       8
#     2   2   2   2   1   2   2   2
#     4  10  22  40  57  88 122 144 204 247 306 335
#     4  11  24  40  56  84 116 163 194 254 294 356
#     4  10  22  38  58  80 112 157 197 250 289 352
#     4  10  20  38  60  90 113 154 194 250 284 358
#     4  10  22  38  60  76 110 154 206 234 296 350
#     4   9  16  32  59  84 120 147 194 229 298 349
#     4  10  22  37  61  81 120 154 204 234 295 353
#     4   9  18  33  54  89 117 153 181 246 293 352
#
# _framework density 26.634385000000002
#
# number of rings (size 3 to 8) (size 9 to 14) (size 15 to 20)
#    0.000    2.133    0.000    4.400   11.200    0.533 
#    9.600    0.000    0.000    1.600    0.000    0.000 
#    0.000    0.000    0.000    0.000    0.000    0.000 
#
# Total GULP energy -83899.352131 kJ/mol
# GULP energy per Si atom -5593.290142 kJ/mol
# Density = 2.657376 g / cm^3
# Si number density = 26.634385 Si / 1000 Ang^3
#
#
#
# Elastic Constant Matrix: (Units=GPa)
#
#
# Indices 1 2 3 4 5 6 
#
# 1 229.1298 25.3430 55.6305 -25.9670 -34.7912 -16.2483
# 2 25.3430 91.9385 26.8002 -19.6216 -2.8887 -9.7937
# 3 55.6305 26.8002 63.1269 -21.8357 4.1544 -0.5451
# 4 -25.9670 -19.6216 -21.8357 30.7592 -2.4673 10.4448
# 5 -34.7912 -2.8887 4.1544 -2.4673 38.2382 -7.9315
# 6 -16.2483 -9.7937 -0.5451 10.4448 -7.9315 49.5629
#
#
#
# Elastic Compliance Matrix: (Units=1/GPa)
#
#
# Indices 1 2 3 4 5 6 
#
# 1 0.007822 0.000978 -0.007369 0.001418 0.008871 0.003797
# 2 0.000978 0.013558 -0.004928 0.005450 0.003283 0.002322
# 3 -0.007369 -0.004928 0.029746 0.013471 -0.011030 -0.007666
# 4 0.001418 0.005450 0.013471 0.049779 0.001681 -0.008531
# 5 0.008871 0.003283 -0.011030 0.001681 0.037667 0.009109
# 6 0.003797 0.002322 -0.007666 -0.008531 0.009109 0.025051
#
#
# Mechanical properties :
#
#
# Convention : Reuss Voigt Hill
#
# Bulk Modulus (GPa) = 35.10292 66.63807 50.87049
# Shear Modulus (GPa) = 25.54173 42.14016 33.84095
#
# Velocity S-wave (km/s) = 3.10009 3.98197 3.56838
# Velocity P-wave (km/s) = 5.10120 6.79818 6.00989
#
# Compressibility (1/GPa) = 0.02848766
#
# Stress axis : x y z
#
# Youngs Moduli (GPa) = 127.84141 73.75949 33.61763
#
# Poissons Ratio (x) = -0.07212 0.24772
# Poissons Ratio (y) = -0.12499 0.16567
# Poissons Ratio (z) = 0.94204 0.36350
#
# Static dielectric constant tensor:
#      x y z
#    x 2.072610 0.045410 -0.005940 
#    y 0.045410 2.171790 0.040390 
#    z -0.005940 0.040390 2.042690 
# 
# From -- ./inp_files/122595.got.cif
#   From: 2010.05.17/outbox.cif.g08.bks.cpg/sg2_62_cif.got.tgz:122595.got - 2010.06.03 11:33:40.
