data_PCOD9101318
_publ_section_title
;
Structure prediction by ZEFSAII (Michael W. Deem and Ramdas Pophale) SiO2 
 PCOD9101318
Probable space group: P -1
;
_chemical_formula_sum "Si O2"
_cell_formula_units_Z 12
_cell_length_a 17.367180
_cell_length_b 8.389041
_cell_length_c 4.862082
_cell_angle_alpha 112.737048
_cell_angle_beta 81.982978
_cell_angle_gamma 57.636148
_cell_volume 494.300141
_symmetry_space_group_name_H-M "P -1"
_symmetry_group_IT_number 2
_symmetry_cell_setting 'triclinic'
loop_
_space_group_symop_operation_xyz
x,y,z
-x,-y,-z
loop_
_atom_site_type_symbol
_atom_site_label
_atom_site_fract_x
_atom_site_fract_y
_atom_site_fract_z
Si Si1 0.058572 0.242269 0.851473
Si Si2 0.565504 0.263268 0.969162
Si Si3 0.749443 0.196380 0.770632
Si Si4 0.358670 0.390381 0.320196
Si Si5 0.620190 0.859711 0.351067
Si Si6 0.053292 0.039981 0.228054
O O1 0.174574 0.056894 0.565287
O O2 0.006423 0.168769 0.629007
O O3 0.000000 0.500000 0.000000
O O4 0.060193 0.203230 0.147285
O O5 0.658583 0.243360 0.027484
O O6 0.623109 0.047126 0.594702
O O7 0.500000 0.500000 0.000000
O O8 0.477823 0.285058 0.191369
O O9 0.703945 0.376104 0.663904
O O10 0.832088 0.178708 0.901492
O O11 0.336622 0.348363 0.603756
O O12 0.345056 0.238032 0.035232
O O13 0.500000 0.000000 0.500000
O O14 0.000000 0.000000 0.000000
#
# Coordination Sequence:
#
# PCOD9101318 Si02
#       6
#     2   2   2   2   2   2
#     4  10  22  43  66  91 127 157 211 268 320 374
#     4   9  18  40  58  89 123 165 195 252 300 364
#     4   9  23  39  63  94 123 163 213 249 318 372
#     4  10  21  39  60  87 130 165 204 251 297 367
#     4  10  20  38  58  87 123 168 208 247 298 359
#     4  10  22  43  66  88 125 161 213 259 323 372
#
# _framework density 24.276747
#
# number of rings (size 3 to 8) (size 9 to 14) (size 15 to 20)
#    1.000    1.333    0.000    3.000    2.333    0.000 
#   12.000   11.667    0.000    0.000    0.000    0.000 
#    0.000    0.000    0.000    0.000    0.000    0.000 
#
# Total GULP energy -66842.895887 kJ/mol
# GULP energy per Si atom -5570.241324 kJ/mol
# Density = 2.422149 g / cm^3
# Si number density = 24.276747 Si / 1000 Ang^3
#
#
#
# Elastic Constant Matrix: (Units=GPa)
#
#
# Indices 1 2 3 4 5 6 
#
# 1 97.2801 28.2057 14.4033 -0.0105 22.0475 -29.1341
# 2 28.2057 160.2574 44.4411 8.1347 0.7787 -20.4259
# 3 14.4033 44.4411 88.5437 -7.2822 8.0631 -5.9391
# 4 -0.0105 8.1347 -7.2822 57.6263 2.6829 2.2322
# 5 22.0475 0.7787 8.0631 2.6829 24.7961 -3.6992
# 6 -29.1341 -20.4259 -5.9391 2.2322 -3.6992 31.2342
#
#
#
# Elastic Compliance Matrix: (Units=1/GPa)
#
#
# Indices 1 2 3 4 5 6 
#
# 1 0.018131 -0.001291 -0.000044 0.000272 -0.013949 0.014388
# 2 -0.001291 0.008172 -0.004067 -0.001957 0.003002 0.003862
# 3 -0.000044 -0.004067 0.013935 0.002588 -0.004764 -0.000800
# 4 0.000272 -0.001957 0.002588 0.018198 -0.003323 -0.002228
# 5 -0.013949 0.003002 -0.004764 -0.003323 0.053748 -0.005351
# 6 0.014388 0.003862 -0.000800 -0.002228 -0.005351 0.047335
#
#
# Mechanical properties :
#
#
# Convention : Reuss Voigt Hill
#
# Bulk Modulus (GPa) = 33.97343 57.79794 45.88569
# Shear Modulus (GPa) = 27.75713 40.00006 33.87859
#
# Velocity S-wave (km/s) = 3.38503 4.06355 3.73971
# Velocity P-wave (km/s) = 5.41318 6.77320 6.13102
#
# Compressibility (1/GPa) = 0.02943477
#
# Stress axis : x y z
#
# Youngs Moduli (GPa) = 55.15470 122.36948 71.76079
#
# Poissons Ratio (x) = 0.15801 0.00312
# Poissons Ratio (y) = 0.07122 0.29184
# Poissons Ratio (z) = 0.00240 0.49766
#
# Static dielectric constant tensor:
#      x y z
#    x 1.779790 -0.382420 -0.198010 
#    y -0.382420 1.244830 -0.374250 
#    z -0.198010 -0.374250 1.801440 
# 
# From -- ./inp_files/107614.got.cif
#   From: 2010.05.17/outbox.cif.g08.bks.cpg/sg2_54_cif.got.tgz:107614.got - 2010.06.03 11:33:40.
