data_PCOD9101646
_publ_section_title
;
Structure prediction by ZEFSAII (Michael W. Deem and Ramdas Pophale) SiO2 
 PCOD9101646
Probable space group: P -1
;
_chemical_formula_sum "Si O2"
_cell_formula_units_Z 14
_cell_length_a 8.205192
_cell_length_b 15.680733
_cell_length_c 12.391797
_cell_angle_alpha 70.328957
_cell_angle_beta 124.477129
_cell_angle_gamma 63.902924
_cell_volume 722.044492
_symmetry_space_group_name_H-M "P -1"
_symmetry_group_IT_number 2
_symmetry_cell_setting 'triclinic'
loop_
_space_group_symop_operation_xyz
x,y,z
-x,-y,-z
loop_
_atom_site_type_symbol
_atom_site_label
_atom_site_fract_x
_atom_site_fract_y
_atom_site_fract_z
Si Si1 0.192118 0.043494 0.857063
Si Si2 0.971646 0.453618 0.337303
Si Si3 0.655134 0.722889 0.235932
Si Si4 0.120379 0.381194 0.183046
Si Si5 0.445649 0.571928 0.784842
Si Si6 0.160184 0.871676 0.530056
Si Si7 0.722372 0.373069 0.545834
O O1 0.105066 0.052605 0.696600
O O2 0.872306 0.220295 0.702073
O O3 0.500000 0.000000 0.000000
O O4 0.313166 0.907635 0.019028
O O5 0.696222 0.626937 0.206280
O O6 0.800159 0.418890 0.284224
O O7 0.260903 0.343948 0.584609
O O8 0.102982 0.424966 0.279406
O O9 0.962824 0.677168 0.340824
O O10 0.499869 0.214491 0.362102
O O11 0.000000 0.500000 0.000000
O O12 0.816611 0.421995 0.038671
O O13 0.279946 0.730707 0.685797
O O14 0.468769 0.566462 0.665344
O O15 0.000000 0.000000 0.500000
O O16 0.500000 0.500000 0.500000
#
# Coordination Sequence:
#
# PCOD9101646 Si02
#       7
#     2   2   2   2   2   2   2
#     4   9  19  36  57  87 115 154 199 245 299 347
#     4  10  20  38  60  86 123 156 203 247 300 365
#     4   9  20  34  61  83 118 162 193 243 311 350
#     4  10  22  36  61  85 113 156 204 246 292 360
#     4   9  20  38  58  88 116 160 197 244 303 355
#     4  10  22  38  61  88 121 155 203 251 301 356
#     4   9  18  32  60  90 119 147 202 252 289 354
#
# _framework density 19.389386999999999
#
# number of rings (size 3 to 8) (size 9 to 14) (size 15 to 20)
#    0.000    2.571    0.000    1.286   10.000    1.143 
#    0.000    1.429    0.000    0.000    0.000    0.000 
#    0.000    0.000    0.000    0.000    0.000    0.000 
#
# Total GULP energy -78058.447757 kJ/mol
# GULP energy per Si atom -5575.603411 kJ/mol
# Density = 1.934526 g / cm^3
# Si number density = 19.389387 Si / 1000 Ang^3
#
#
#
# Elastic Constant Matrix: (Units=GPa)
#
#
# Indices 1 2 3 4 5 6 
#
# 1 58.2837 43.0330 24.4334 0.3951 -10.0430 -10.8937
# 2 43.0330 179.1117 63.5290 -7.0610 -10.7033 -16.2051
# 3 24.4334 63.5290 99.4182 -0.2063 -2.6077 -13.3320
# 4 0.3951 -7.0610 -0.2063 20.4077 11.8671 -3.4291
# 5 -10.0430 -10.7033 -2.6077 11.8671 27.5104 5.9897
# 6 -10.8937 -16.2051 -13.3320 -3.4291 5.9897 34.9785
#
#
#
# Elastic Compliance Matrix: (Units=1/GPa)
#
#
# Indices 1 2 3 4 5 6 
#
# 1 0.023377 -0.004260 -0.002516 -0.006933 0.009172 0.002098
# 2 -0.004260 0.008278 -0.004064 0.003428 -0.000499 0.001381
# 3 -0.002516 -0.004064 0.013612 0.000457 -0.002041 0.002916
# 4 -0.006933 0.003428 0.000457 0.073127 -0.035496 0.012850
# 5 0.009172 -0.000499 -0.002041 -0.035496 0.057107 -0.011412
# 6 0.002098 0.001381 0.002916 0.012850 -0.011412 0.034208
#
#
# Mechanical properties :
#
#
# Convention : Reuss Voigt Hill
#
# Bulk Modulus (GPa) = 42.39289 66.53382 54.46336
# Shear Modulus (GPa) = 20.89870 30.30053 25.59962
#
# Velocity S-wave (km/s) = 3.28661 3.95744 3.63752
# Velocity P-wave (km/s) = 6.02610 7.43443 6.76700
#
# Compressibility (1/GPa) = 0.02358886
#
# Stress axis : x y z
#
# Youngs Moduli (GPa) = 42.77773 120.80037 73.46435
#
# Poissons Ratio (x) = 0.51455 0.18482
# Poissons Ratio (y) = 0.18221 0.29854
# Poissons Ratio (z) = 0.10762 0.49090
#
# Static dielectric constant tensor:
#      x y z
#    x 1.736680 0.029180 0.015760 
#    y 0.029180 1.673580 0.011440 
#    z 0.015760 0.011440 1.721220 
# 
# From -- ./inp_files/172194.got.cif
#   From: 2010.05.17/outbox.cif.g08.bks.cpg/sg2_87_cif.got.tgz:172194.got - 2010.06.03 11:33:40.
