data_PCOD9101442
_publ_section_title
;
Structure prediction by ZEFSAII (Michael W. Deem and Ramdas Pophale) SiO2 
 PCOD9101442
Probable space group: P -1
;
_chemical_formula_sum "Si O2"
_cell_formula_units_Z 15
_cell_length_a 7.639939
_cell_length_b 6.740969
_cell_length_c 17.689474
_cell_angle_alpha 63.832111
_cell_angle_beta 44.068736
_cell_angle_gamma 57.653137
_cell_volume 532.821396
_symmetry_space_group_name_H-M "P -1"
_symmetry_group_IT_number 2
_symmetry_cell_setting 'triclinic'
loop_
_space_group_symop_operation_xyz
x,y,z
-x,-y,-z
loop_
_atom_site_type_symbol
_atom_site_label
_atom_site_fract_x
_atom_site_fract_y
_atom_site_fract_z
Si Si1 0.348998 0.552094 0.874762
Si Si2 0.413973 0.518823 0.349782
Si Si3 0.500000 0.500000 0.000000
Si Si4 0.763306 0.775919 0.862306
Si Si5 0.188854 0.086419 0.017324
Si Si6 0.534159 0.133805 0.607891
Si Si7 0.959500 0.784166 0.636965
Si Si8 0.125770 0.283827 0.588908
O O1 0.422734 0.574744 0.760691
O O2 0.276766 0.310766 0.932931
O O3 0.560298 0.495816 0.886575
O O4 0.123161 0.808449 0.921642
O O5 0.551084 0.633781 0.350524
O O6 0.308505 0.336226 0.457598
O O7 0.140035 0.722791 0.369331
O O8 0.192406 0.486995 0.081072
O O9 0.900475 0.802624 0.740240
O O10 0.427040 0.847270 0.956425
O O11 0.804570 0.930149 0.891083
O O12 0.305987 0.115275 0.625621
O O13 0.778625 0.152896 0.476930
O O14 0.687088 0.932924 0.653041
O O15 0.022996 0.526734 0.626477
#
# Coordination Sequence:
#
# PCOD9101442 Si02
#       8
#     2   2   1   2   2   2   2   2
#     4  10  20  38  59  89 114 166 195 256 304 371
#     4  10  20  38  63  88 128 159 208 250 311 373
#     4  10  22  38  58  82 124 148 208 252 302 352
#     4  10  20  38  59  86 119 162 195 262 299 366
#     4   9  21  36  59  86 118 151 216 241 304 371
#     4  10  22  39  63  96 124 165 206 255 307 384
#     4  10  20  38  63  90 126 161 209 252 312 373
#     4  10  22  39  61  95 125 163 203 259 304 379
#
# _framework density 28.152023
#
# number of rings (size 3 to 8) (size 9 to 14) (size 15 to 20)
#    0.000    2.133    0.000    3.200    3.733    0.533 
#    7.200   12.000    8.800    0.000    0.000    0.000 
#    0.000    0.000    0.000    0.000    0.000    0.000 
#
# Total GULP energy -83755.991436 kJ/mol
# GULP energy per Si atom -5583.732762 kJ/mol
# Density = 2.808795 g / cm^3
# Si number density = 28.152023 Si / 1000 Ang^3
#
#
#
# Elastic Constant Matrix: (Units=GPa)
#
#
# Indices 1 2 3 4 5 6 
#
# 1 144.3007 16.6150 18.8395 7.5057 31.5675 -22.6262
# 2 16.6150 91.8315 22.4000 13.0999 -0.3861 -22.1090
# 3 18.8395 22.4000 161.5889 9.0682 34.0675 -5.8694
# 4 7.5057 13.0999 9.0682 29.9955 -0.6313 -5.3677
# 5 31.5675 -0.3861 34.0675 -0.6313 40.4350 -2.6357
# 6 -22.6262 -22.1090 -5.8694 -5.3677 -2.6357 42.2706
#
#
#
# Elastic Compliance Matrix: (Units=1/GPa)
#
#
# Indices 1 2 3 4 5 6 
#
# 1 0.009327 -0.000723 0.000904 -0.001734 -0.007815 0.004033
# 2 -0.000723 0.013531 -0.001899 -0.004011 0.002627 0.006081
# 3 0.000904 -0.001899 0.008045 -0.002009 -0.007541 -0.000118
# 4 -0.001734 -0.004011 -0.002009 0.036487 0.003679 0.001558
# 5 -0.007815 0.002627 -0.007541 0.003679 0.037198 -0.001069
# 6 0.004033 0.006081 -0.000118 0.001558 -0.001069 0.029111
#
#
# Mechanical properties :
#
#
# Convention : Reuss Voigt Hill
#
# Bulk Modulus (GPa) = 36.40763 57.04778 46.72771
# Shear Modulus (GPa) = 34.17850 45.19799 39.68825
#
# Velocity S-wave (km/s) = 3.48813 4.01121 3.75878
# Velocity P-wave (km/s) = 5.40216 6.46230 5.95586
#
# Compressibility (1/GPa) = 0.02746677
#
# Stress axis : x y z
#
# Youngs Moduli (GPa) = 107.21327 73.90536 124.30525
#
# Poissons Ratio (x) = 0.05341 -0.11238
# Poissons Ratio (y) = 0.07748 0.23611
# Poissons Ratio (z) = -0.09693 0.14038
#
# Static dielectric constant tensor:
#      x y z
#    x 2.461920 0.707820 -0.200270 
#    y 0.707820 4.866940 -0.385250 
#    z -0.200270 -0.385250 2.271670 
# 
# From -- ./inp_files/490885.got.cif
#   From: 2010.05.17/outbox.cif.g08.bks.cpg/sg2_246_cif.got.tgz:490885.got - 2010.06.03 11:33:40.
