data_PCOD9101721
_publ_section_title
;
Structure prediction by ZEFSAII (Michael W. Deem and Ramdas Pophale) SiO2 
 PCOD9101721
Probable space group: P -1
;
_chemical_formula_sum "Si O2"
_cell_formula_units_Z 16
_cell_length_a 20.024568
_cell_length_b 8.899669
_cell_length_c 12.122052
_cell_angle_alpha 140.040059
_cell_angle_beta 141.535687
_cell_angle_gamma 42.633129
_cell_volume 811.841290
_symmetry_space_group_name_H-M "P -1"
_symmetry_group_IT_number 2
_symmetry_cell_setting 'triclinic'
loop_
_space_group_symop_operation_xyz
x,y,z
-x,-y,-z
loop_
_atom_site_type_symbol
_atom_site_label
_atom_site_fract_x
_atom_site_fract_y
_atom_site_fract_z
Si Si1 0.353163 0.611336 0.696021
Si Si2 0.771475 0.104427 0.722206
Si Si3 0.106640 0.248661 0.492153
Si Si4 0.405567 0.662899 0.555054
Si Si5 0.218304 0.396478 0.909139
Si Si6 0.105194 0.022469 0.581982
Si Si7 0.432034 0.069155 0.564262
Si Si8 0.450244 0.034557 0.110847
O O1 0.388672 0.534573 0.572289
O O2 0.376766 0.368787 0.663572
O O3 0.222111 0.795813 0.629532
O O4 0.430383 0.776104 0.920910
O O5 0.864839 0.860657 0.654705
O O6 0.671639 0.039486 0.620398
O O7 0.710323 0.237798 0.606013
O O8 0.809089 0.310361 0.949414
O O9 0.084293 0.053951 0.440590
O O10 0.000000 0.500000 0.500000
O O11 0.208972 0.315980 0.724485
O O12 0.500000 0.500000 0.500000
O O13 0.446190 0.895781 0.769962
O O14 0.338260 0.249701 0.040526
O O15 0.130464 0.278091 0.785344
O O16 0.000000 0.000000 0.500000
O O17 0.500000 0.000000 0.500000
O O18 0.517968 0.971447 0.722355
#
# Coordination Sequence:
#
# PCOD9101721 Si02
#       8
#     2   2   2   2   2   2   2   2
#     4  11  21  39  59  90 123 165 207 249 318 372
#     4  11  21  42  64  90 126 170 207 250 314 372
#     4  10  23  42  67  91 120 159 214 264 313 365
#     4  11  19  34  65  88 124 162 199 249 302 375
#     4   9  21  40  68  93 119 164 216 249 310 389
#     4   9  21  42  65  89 121 156 206 271 315 358
#     4  11  26  37  55  95 136 165 199 259 307 363
#     4  10  20  38  60  89 123 167 208 245 302 386
#
# _framework density 19.708286000000001
#
# number of rings (size 3 to 8) (size 9 to 14) (size 15 to 20)
#    0.750    1.000    2.500    2.250    1.750    1.500 
#    2.250    0.625    0.000    0.000    0.000    0.000 
#    0.000    0.000    0.000    0.000    0.000    0.000 
#
# Total GULP energy -89136.697913 kJ/mol
# GULP energy per Si atom -5571.043620 kJ/mol
# Density = 1.966343 g / cm^3
# Si number density = 19.708286 Si / 1000 Ang^3
#
#
#
# Elastic Constant Matrix: (Units=GPa)
#
#
# Indices 1 2 3 4 5 6 
#
# 1 106.3376 23.1263 39.2874 10.1698 -3.9195 -7.3744
# 2 23.1263 91.5958 27.5851 11.0359 -5.3791 -2.5522
# 3 39.2874 27.5851 72.7293 25.2970 12.1473 0.7200
# 4 10.1698 11.0359 25.2970 35.1806 2.4353 -3.6581
# 5 -3.9195 -5.3791 12.1473 2.4353 16.9215 1.2830
# 6 -7.3744 -2.5522 0.7200 -3.6581 1.2830 30.3885
#
#
#
# Elastic Compliance Matrix: (Units=1/GPa)
#
#
# Indices 1 2 3 4 5 6 
#
# 1 0.013349 -0.000130 -0.009779 0.002919 0.009392 0.003415
# 2 -0.000130 0.013460 -0.006517 -0.000021 0.008863 0.000877
# 3 -0.009779 -0.006517 0.031291 -0.016443 -0.024083 -0.004625
# 4 0.002919 -0.000021 -0.016443 0.039552 0.006357 0.005589
# 5 0.009392 0.008863 -0.024083 0.006357 0.080389 0.000966
# 6 0.003415 0.000877 -0.004625 0.005589 0.000966 0.034551
#
#
# Mechanical properties :
#
#
# Convention : Reuss Voigt Hill
#
# Bulk Modulus (GPa) = 39.60627 50.07335 44.83981
# Shear Modulus (GPa) = 19.69568 28.54238 24.11903
#
# Velocity S-wave (km/s) = 3.16470 3.80971 3.50208
# Velocity P-wave (km/s) = 5.78737 6.69434 6.25731
#
# Compressibility (1/GPa) = 0.02524853
#
# Stress axis : x y z
#
# Youngs Moduli (GPa) = 74.91025 74.29159 31.95772
#
# Poissons Ratio (x) = 0.00968 0.31253
# Poissons Ratio (y) = 0.00976 0.20826
# Poissons Ratio (z) = 0.73258 0.48413
#
# Static dielectric constant tensor:
#      x y z
#    x 1.693720 -0.028250 -0.037580 
#    y -0.028250 1.751470 0.038320 
#    z -0.037580 0.038320 1.754170 
# 
# From -- ./inp_files/470212.got.cif
#   From: 2010.05.17/outbox.cif.g08.bks.cpg/sg2_236_cif.got.tgz:470212.got - 2010.06.03 11:33:40.
