data_PCOD9101339
_publ_section_title
;
Structure prediction by ZEFSAII (Michael W. Deem and Ramdas Pophale) SiO2 
 PCOD9101339
Probable space group: P -1
;
_chemical_formula_sum "Si O2"
_cell_formula_units_Z 16
_cell_length_a 5.137580
_cell_length_b 16.026792
_cell_length_c 9.242715
_cell_angle_alpha 75.453891
_cell_angle_beta 92.265483
_cell_angle_gamma 71.703883
_cell_volume 693.575014
_symmetry_space_group_name_H-M "P -1"
_symmetry_group_IT_number 2
_symmetry_cell_setting 'triclinic'
loop_
_space_group_symop_operation_xyz
x,y,z
-x,-y,-z
loop_
_atom_site_type_symbol
_atom_site_label
_atom_site_fract_x
_atom_site_fract_y
_atom_site_fract_z
Si Si1 0.724807 0.585064 0.473052
Si Si2 0.268292 0.672903 0.059379
Si Si3 0.286017 0.260599 0.801777
Si Si4 0.415095 0.799207 0.621821
Si Si5 0.952259 0.309001 0.271968
Si Si6 0.468825 0.915599 0.291176
Si Si7 0.475215 0.511504 0.733203
Si Si8 0.109576 0.978194 0.677229
O O1 0.751869 0.677946 0.372983
O O2 0.621175 0.576486 0.633992
O O3 0.528556 0.559242 0.364072
O O4 0.000000 0.500000 0.500000
O O5 0.522741 0.704651 0.100735
O O6 0.363604 0.561497 0.113525
O O7 0.013325 0.716270 0.143675
O O8 0.162276 0.700681 0.884597
O O9 0.434436 0.155787 0.806692
O O10 0.188885 0.749928 0.607125
O O11 0.452112 0.855259 0.457555
O O12 0.719543 0.733061 0.698368
O O13 0.290837 0.872058 0.715999
O O14 0.819715 0.416523 0.261724
O O15 0.693409 0.964367 0.303949
O O16 0.162613 0.990785 0.242504
O O17 0.000000 0.000000 0.500000
#
# Coordination Sequence:
#
# PCOD9101339 Si02
#       8
#     2   2   2   2   2   2   2   2
#     4  10  20  38  58  89 127 152 188 261 308 345
#     4  11  24  43  57  83 126 168 207 250 286 340
#     4  11  23  39  64  88 121 160 205 249 301 354
#     4  11  23  39  62  94 124 150 194 254 311 357
#     4  12  25  39  62  87 121 168 211 242 284 363
#     4  11  21  37  68  95 121 152 196 244 313 381
#     4  10  23  37  60  87 121 163 205 245 304 353
#     4  10  20  39  61  95 129 151 181 248 323 370
#
# _framework density 23.068881999999999
#
# number of rings (size 3 to 8) (size 9 to 14) (size 15 to 20)
#    0.000    1.250    1.250    6.375    3.500    0.000 
#    0.000    3.125    0.000   15.000    0.000    0.000 
#    0.000    0.000    0.000    0.000    0.000    0.000 
#
# Total GULP energy -89432.625195 kJ/mol
# GULP energy per Si atom -5589.539075 kJ/mol
# Density = 2.301638 g / cm^3
# Si number density = 23.068882 Si / 1000 Ang^3
#
#
#
# Elastic Constant Matrix: (Units=GPa)
#
#
# Indices 1 2 3 4 5 6 
#
# 1 118.9406 42.8166 12.1968 5.0320 -1.5005 -16.1072
# 2 42.8166 138.8786 12.0228 27.2279 -3.4604 -24.5480
# 3 12.1968 12.0228 21.1913 -2.6899 5.8018 1.1897
# 4 5.0320 27.2279 -2.6899 19.8700 -3.8530 -3.1162
# 5 -1.5005 -3.4604 5.8018 -3.8530 18.6212 4.7082
# 6 -16.1072 -24.5480 1.1897 -3.1162 4.7082 52.2732
#
#
#
# Elastic Compliance Matrix: (Units=1/GPa)
#
#
# Indices 1 2 3 4 5 6 
#
# 1 0.010033 -0.002437 -0.004822 0.000749 0.001516 0.001965
# 2 -0.002437 0.012893 -0.008401 -0.017475 0.000077 0.004446
# 3 -0.004822 -0.008401 0.061678 0.017203 -0.016515 -0.004322
# 4 0.000749 -0.017475 0.017203 0.077372 0.008608 -0.004530
# 5 0.001516 0.000077 -0.016515 0.008608 0.061821 -0.004176
# 6 0.001965 0.004446 -0.004322 -0.004530 -0.004176 0.022028
#
#
# Mechanical properties :
#
#
# Convention : Reuss Voigt Hill
#
# Bulk Modulus (GPa) = 18.76743 45.89809 32.33276
# Shear Modulus (GPa) = 16.95447 32.28451 24.61949
#
# Velocity S-wave (km/s) = 2.71394 3.74503 3.27037
# Velocity P-wave (km/s) = 4.23953 6.21607 5.32040
#
# Compressibility (1/GPa) = 0.05328381
#
# Stress axis : x y z
#
# Youngs Moduli (GPa) = 99.67113 77.55995 16.21312
#
# Poissons Ratio (x) = 0.18905 0.07818
# Poissons Ratio (y) = 0.24294 0.13621
# Poissons Ratio (z) = 0.48062 0.65158
#
# Static dielectric constant tensor:
#      x y z
#    x 1.855450 0.010260 0.010450 
#    y 0.010260 1.932390 -0.010280 
#    z 0.010450 -0.010280 1.917920 
# 
# From -- ./inp_files/137606.got.cif
#   From: 2010.05.17/outbox.cif.g08.bks.cpg/sg2_69_cif.got.tgz:137606.got - 2010.06.03 11:33:40.
