data_PCOD9101640
_publ_section_title
;
Structure prediction by ZEFSAII (Michael W. Deem and Ramdas Pophale) SiO2 
 PCOD9101640
Probable space group: P -1
;
_chemical_formula_sum "Si O2"
_cell_formula_units_Z 14
_cell_length_a 13.273924
_cell_length_b 10.338139
_cell_length_c 7.679123
_cell_angle_alpha 71.760502
_cell_angle_beta 137.525641
_cell_angle_gamma 129.170209
_cell_volume 527.620660
_symmetry_space_group_name_H-M "P -1"
_symmetry_group_IT_number 2
_symmetry_cell_setting 'triclinic'
loop_
_space_group_symop_operation_xyz
x,y,z
-x,-y,-z
loop_
_atom_site_type_symbol
_atom_site_label
_atom_site_fract_x
_atom_site_fract_y
_atom_site_fract_z
Si Si1 0.305418 0.344206 0.233371
Si Si2 0.174747 0.139505 0.469436
Si Si3 0.131740 0.705850 0.698021
Si Si4 0.752592 0.623370 0.225162
Si Si5 0.780284 0.063740 0.953243
Si Si6 0.988910 0.388277 0.872640
Si Si7 0.487290 0.790742 0.918848
O O1 0.500000 0.500000 0.500000
O O2 0.230524 0.176771 0.322655
O O3 0.318731 0.333741 0.050014
O O4 0.171139 0.395578 0.084880
O O5 0.236268 0.302625 0.602764
O O6 0.320940 0.115059 0.755129
O O7 0.944977 0.040104 0.210080
O O8 0.194534 0.810436 0.914840
O O9 0.973088 0.717909 0.416859
O O10 0.008924 0.501741 0.687125
O O11 0.323394 0.787426 0.800730
O O12 0.620255 0.415288 0.147549
O O13 0.570322 0.887211 0.799239
O O14 0.827133 0.181618 0.793080
O O15 0.000000 0.500000 0.000000
#
# Coordination Sequence:
#
# PCOD9101640 Si02
#       7
#     2   2   2   2   2   2   2
#     4  11  20  36  61  90 114 153 207 249 287 351
#     4  10  22  40  61  88 124 161 200 248 298 365
#     4  10  20  38  60  86 119 162 203 244 294 368
#     4  11  23  38  63  91 120 158 208 247 295 360
#     4   9  21  36  60  89 127 156 197 249 312 351
#     4   9  18  36  58  84 115 156 197 237 294 356
#     4  12  20  35  62  94 117 161 199 254 304 350
#
# _framework density 26.534213999999999
#
# number of rings (size 3 to 8) (size 9 to 14) (size 15 to 20)
#    0.000    1.714    2.857    2.571    0.000    0.000 
#    0.000    0.714    0.000   17.143    0.000    0.000 
#    0.000    0.000    0.000    0.000    0.000    0.000 
#
# Total GULP energy -78191.506597 kJ/mol
# GULP energy per Si atom -5585.107614 kJ/mol
# Density = 2.647382 g / cm^3
# Si number density = 26.534214 Si / 1000 Ang^3
#
#
#
# Elastic Constant Matrix: (Units=GPa)
#
#
# Indices 1 2 3 4 5 6 
#
# 1 85.5749 51.1809 23.1374 -1.0743 17.4205 21.4970
# 2 51.1809 151.5746 56.4491 9.6049 3.1683 35.4944
# 3 23.1374 56.4491 100.7163 0.2341 11.5903 23.0674
# 4 -1.0743 9.6049 0.2341 38.4228 8.2495 2.0481
# 5 17.4205 3.1683 11.5903 8.2495 51.7966 7.0153
# 6 21.4970 35.4944 23.0674 2.0481 7.0153 52.9110
#
#
#
# Elastic Compliance Matrix: (Units=1/GPa)
#
#
# Indices 1 2 3 4 5 6 
#
# 1 0.016505 -0.005120 0.000340 0.003053 -0.005418 -0.002819
# 2 -0.005120 0.010997 -0.004507 -0.003333 0.003078 -0.003611
# 3 0.000340 -0.004507 0.013287 0.001783 -0.002742 -0.002613
# 4 0.003053 -0.003333 0.001783 0.028162 -0.005691 -0.000117
# 5 -0.005418 0.003078 -0.002742 -0.005691 0.022657 -0.001452
# 6 -0.002819 -0.003611 -0.002613 -0.000117 -0.001452 0.023804
#
#
# Mechanical properties :
#
#
# Convention : Reuss Voigt Hill
#
# Bulk Modulus (GPa) = 45.01305 66.60006 55.80656
# Shear Modulus (GPa) = 35.36304 42.43265 38.89784
#
# Velocity S-wave (km/s) = 3.65462 4.00330 3.83293
# Velocity P-wave (km/s) = 5.89994 6.82076 6.37699
#
# Compressibility (1/GPa) = 0.02221578
#
# Stress axis : x y z
#
# Youngs Moduli (GPa) = 60.58604 90.93273 75.26428
#
# Poissons Ratio (x) = 0.46556 -0.02559
# Poissons Ratio (y) = 0.31019 0.33920
# Poissons Ratio (z) = -0.02060 0.40981
#
# Static dielectric constant tensor:
#      x y z
#    x 2.073470 0.007070 0.025060 
#    y 0.007070 2.235500 -0.023640 
#    z 0.025060 -0.023640 2.099930 
# 
# From -- ./inp_files/312884.got.cif
#   From: 2010.05.17/outbox.cif.g08.bks.cpg/sg2_157_cif.got.tgz:312884.got - 2010.06.03 11:33:40.
