data_PCOD9101081
_publ_section_title
;
Structure prediction by ZEFSAII (Michael W. Deem and Ramdas Pophale) SiO2 
 PCOD9101081
Probable space group: P -1
;
_chemical_formula_sum "Si O2"
_cell_formula_units_Z 12
_cell_length_a 8.457047
_cell_length_b 12.067163
_cell_length_c 9.270247
_cell_angle_alpha 53.467416
_cell_angle_beta 133.276804
_cell_angle_gamma 124.966735
_cell_volume 530.966292
_symmetry_space_group_name_H-M "P -1"
_symmetry_group_IT_number 2
_symmetry_cell_setting 'triclinic'
loop_
_space_group_symop_operation_xyz
x,y,z
-x,-y,-z
loop_
_atom_site_type_symbol
_atom_site_label
_atom_site_fract_x
_atom_site_fract_y
_atom_site_fract_z
Si Si1 0.904670 0.041750 0.258325
Si Si2 0.524911 0.494132 0.741092
Si Si3 0.109185 0.443129 0.327285
Si Si4 0.189395 0.128545 0.948411
Si Si5 0.848438 0.682805 0.984996
Si Si6 0.339324 0.783057 0.859171
O O1 0.710317 0.111099 0.134988
O O2 0.073189 0.173768 0.174322
O O3 0.000000 0.000000 0.500000
O O4 0.829779 0.908473 0.204632
O O5 0.275177 0.474845 0.542455
O O6 0.716862 0.565606 0.685646
O O7 0.598028 0.594057 0.848158
O O8 0.569520 0.341705 0.916627
O O9 0.893777 0.302076 0.298952
O O10 0.006157 0.577915 0.136670
O O11 0.144617 0.269156 0.882125
O O12 0.440616 0.130078 0.158241
O O13 0.000000 0.000000 0.000000
#
# Coordination Sequence:
#
# PCOD9101081 Si02
#       6
#     2   2   2   2   2   2
#     4  11  23  42  69  95 125 178 225 256 311 394
#     4  10  20  37  71  99 127 165 213 276 322 381
#     4  10  20  37  71 101 126 166 212 277 322 379
#     4  10  25  44  63  91 139 176 207 270 324 374
#     4  10  20  46  63  99 136 162 211 274 330 371
#     4  11  21  42  66  94 129 168 223 263 315 387
#
# _framework density 22.600304000000001
#
# number of rings (size 3 to 8) (size 9 to 14) (size 15 to 20)
#    0.000    1.667    3.333    1.500    2.333    2.667 
#    9.000    3.333    0.000    0.000    0.000    0.000 
#    0.000    0.000    0.000    0.000    0.000    0.000 
#
# Total GULP energy -66990.211854 kJ/mol
# GULP energy per Si atom -5582.517655 kJ/mol
# Density = 2.254886 g / cm^3
# Si number density = 22.600304 Si / 1000 Ang^3
#
#
#
# Elastic Constant Matrix: (Units=GPa)
#
#
# Indices 1 2 3 4 5 6 
#
# 1 93.2618 50.7092 24.7813 19.5694 -4.2708 21.1949
# 2 50.7092 153.3621 62.9871 40.4944 1.2425 -5.5861
# 3 24.7813 62.9871 116.4894 25.0323 13.1630 8.9720
# 4 19.5694 40.4944 25.0323 35.6593 9.7701 2.4509
# 5 -4.2708 1.2425 13.1630 9.7701 17.7248 15.6487
# 6 21.1949 -5.5861 8.9720 2.4509 15.6487 46.8247
#
#
#
# Elastic Compliance Matrix: (Units=1/GPa)
#
#
# Indices 1 2 3 4 5 6 
#
# 1 0.022582 -0.004010 -0.001715 -0.014295 0.033153 -0.020703
# 2 -0.004010 0.012429 -0.004400 -0.010185 0.004139 0.003291
# 3 -0.001715 -0.004400 0.012409 0.000029 -0.010579 0.001408
# 4 -0.014295 -0.010185 0.000029 0.060868 -0.054082 0.020138
# 5 0.033153 0.004139 -0.010579 -0.054082 0.156477 -0.061949
# 6 -0.020703 0.003291 0.001408 0.020138 -0.061949 0.050499
#
#
# Mechanical properties :
#
#
# Convention : Reuss Voigt Hill
#
# Bulk Modulus (GPa) = 36.80663 71.11871 53.96267
# Shear Modulus (GPa) = 14.51075 35.01746 24.76410
#
# Velocity S-wave (km/s) = 2.53664 3.94054 3.31379
# Velocity P-wave (km/s) = 4.99005 7.22774 6.21051
#
# Compressibility (1/GPa) = 0.02716902
#
# Stress axis : x y z
#
# Youngs Moduli (GPa) = 44.28397 80.45499 80.58427
#
# Poissons Ratio (x) = 0.32264 0.13823
# Poissons Ratio (y) = 0.17759 0.35457
# Poissons Ratio (z) = 0.07596 0.35400
#
# Static dielectric constant tensor:
#      x y z
#    x 1.924060 0.040210 -0.034410 
#    y 0.040210 1.879450 0.018110 
#    z -0.034410 0.018110 1.840380 
# 
# From -- ./inp_files/171904.got.cif
#   From: 2010.05.17/outbox.cif.g08.bks.cpg/sg2_86_cif.got.tgz:171904.got - 2010.06.03 11:33:40.
