data_PCOD9101615
_publ_section_title
;
Structure prediction by ZEFSAII (Michael W. Deem and Ramdas Pophale) SiO2 
 PCOD9101615
Probable space group: P -1
;
_chemical_formula_sum "Si O2"
_cell_formula_units_Z 10
_cell_length_a 5.629009
_cell_length_b 11.122090
_cell_length_c 16.365800
_cell_angle_alpha 147.633145
_cell_angle_beta 129.854583
_cell_angle_gamma 64.121081
_cell_volume 407.152323
_symmetry_space_group_name_H-M "P -1"
_symmetry_group_IT_number 2
_symmetry_cell_setting 'triclinic'
loop_
_space_group_symop_operation_xyz
x,y,z
-x,-y,-z
loop_
_atom_site_type_symbol
_atom_site_label
_atom_site_fract_x
_atom_site_fract_y
_atom_site_fract_z
Si Si1 0.286839 0.878546 0.496873
Si Si2 0.234875 0.836644 0.791991
Si Si3 0.313633 0.646606 0.197790
Si Si4 0.346412 0.233485 0.289528
Si Si5 0.914677 0.487830 0.290991
O O1 0.269569 0.707988 0.318090
O O2 0.582701 0.100390 0.677194
O O3 0.000000 0.000000 0.500000
O O4 0.189901 0.719389 0.463527
O O5 0.390852 0.862835 0.753099
O O6 0.889828 0.885683 0.758620
O O7 0.185843 0.578031 0.674035
O O8 0.500000 0.000000 0.000000
O O9 0.396858 0.483490 0.809850
O O10 0.000000 0.500000 0.000000
O O11 0.500000 0.500000 0.500000
O O12 0.077489 0.275310 0.186918
#
# Coordination Sequence:
#
# PCOD9101615 Si02
#       5
#     2   2   2   2   2
#     4   9  19  38  58  83 118 156 191 251 292 352
#     4  10  21  39  61  86 121 156 194 249 292 349
#     4  10  20  38  60  85 118 154 200 242 299 352
#     4  10  21  39  62  84 119 156 199 241 297 351
#     4   9  21  35  60  80 123 152 198 238 301 348
#
# _framework density 24.560835000000001
#
# number of rings (size 3 to 8) (size 9 to 14) (size 15 to 20)
#    1.200    1.200    0.000    2.400    0.000    3.200 
#    3.600    4.000    0.000    0.000    0.000    0.000 
#    0.000    0.000    0.000    0.000    0.000    0.000 
#
# Total GULP energy -55678.195113 kJ/mol
# GULP energy per Si atom -5567.819511 kJ/mol
# Density = 2.450493 g / cm^3
# Si number density = 24.560835 Si / 1000 Ang^3
#
#
#
# Elastic Constant Matrix: (Units=GPa)
#
#
# Indices 1 2 3 4 5 6 
#
# 1 172.0487 16.8363 57.1505 -4.0943 14.9966 31.7273
# 2 16.8363 132.2822 12.4372 4.7386 0.1935 7.5604
# 3 57.1505 12.4372 130.1629 -14.3363 18.4222 20.0728
# 4 -4.0943 4.7386 -14.3363 19.0779 -3.3884 4.3519
# 5 14.9966 0.1935 18.4222 -3.3884 33.3221 6.1451
# 6 31.7273 7.5604 20.0728 4.3519 6.1451 32.9403
#
#
#
# Elastic Compliance Matrix: (Units=1/GPa)
#
#
# Indices 1 2 3 4 5 6 
#
# 1 0.007824 -0.000494 -0.002142 0.001394 -0.001067 -0.006102
# 2 -0.000494 0.007815 -0.000764 -0.002395 0.000471 -0.000624
# 3 -0.002142 -0.000764 0.010834 0.008400 -0.003270 -0.004863
# 4 0.001394 -0.002395 0.008400 0.063777 0.004010 -0.015086
# 5 -0.001067 0.000471 -0.003270 0.004010 0.033413 -0.003851
# 6 -0.006102 -0.000624 -0.004863 -0.015086 -0.003851 0.042053
#
#
# Mechanical properties :
#
#
# Convention : Reuss Voigt Hill
#
# Bulk Modulus (GPa) = 50.83361 67.48241 59.15801
# Shear Modulus (GPa) = 27.92130 40.27271 34.09700
#
# Velocity S-wave (km/s) = 3.37534 4.05373 3.72999
# Velocity P-wave (km/s) = 5.99437 7.03175 6.53368
#
# Compressibility (1/GPa) = 0.01967203
#
# Stress axis : x y z
#
# Youngs Moduli (GPa) = 127.81644 127.95780 92.29918
#
# Poissons Ratio (x) = 0.06321 0.19774
# Poissons Ratio (y) = 0.06314 0.07053
# Poissons Ratio (z) = 0.27384 0.09778
#
# Static dielectric constant tensor:
#      x y z
#    x 2.002860 -0.024060 0.078480 
#    y -0.024060 2.065270 -0.067070 
#    z 0.078480 -0.067070 2.010760 
# 
# From -- ./inp_files/113494.got.cif
#   From: 2010.05.17/outbox.cif.g08.bks.cpg/sg2_57_cif.got.tgz:113494.got - 2010.06.03 11:33:40.
