data_PCOD9101103
_publ_section_title
;
Structure prediction by ZEFSAII (Michael W. Deem and Ramdas Pophale) SiO2 
 PCOD9101103
Probable space group: P -1
;
_chemical_formula_sum "Si O2"
_cell_formula_units_Z 15
_cell_length_a 9.494945
_cell_length_b 15.594082
_cell_length_c 14.212600
_cell_angle_alpha 45.886083
_cell_angle_beta 47.751988
_cell_angle_gamma 88.142539
_cell_volume 640.745920
_symmetry_space_group_name_H-M "P -1"
_symmetry_group_IT_number 2
_symmetry_cell_setting 'triclinic'
loop_
_space_group_symop_operation_xyz
x,y,z
-x,-y,-z
loop_
_atom_site_type_symbol
_atom_site_label
_atom_site_fract_x
_atom_site_fract_y
_atom_site_fract_z
Si Si1 0.826265 0.126928 0.526244
Si Si2 0.177580 0.870712 0.130671
Si Si3 0.591176 0.684384 0.430338
Si Si4 0.000000 0.500000 0.500000
Si Si5 0.983968 0.457252 0.148780
Si Si6 0.409941 0.878886 0.726306
Si Si7 0.788851 0.948804 0.839400
Si Si8 0.850698 0.757103 0.063958
O O1 0.047093 0.352667 0.224568
O O2 0.683095 0.002709 0.588027
O O3 0.959995 0.093976 0.560210
O O4 0.521184 0.023021 0.805361
O O5 0.008038 0.652832 0.380757
O O6 0.936415 0.837302 0.208439
O O7 0.226076 0.959612 0.141476
O O8 0.391673 0.698162 0.537867
O O9 0.626595 0.698170 0.291320
O O10 0.354794 0.449630 0.740783
O O11 0.411953 0.714090 0.164524
O O12 0.000000 0.500000 0.000000
O O13 0.227319 0.665248 0.940758
O O14 0.500000 0.000000 0.500000
O O15 0.134785 0.826784 0.934078
O O16 0.972114 0.926396 0.814935
#
# Coordination Sequence:
#
# PCOD9101103 Si02
#       8
#     2   2   2   1   2   2   2   2
#     4  11  23  39  60  96 122 171 207 257 319 380
#     4  11  22  37  62  98 129 171 206 260 317 389
#     4  10  21  37  66  95 124 166 216 261 325 363
#     4  10  20  38  52  86 140 168 200 250 316 380
#     4  11  24  41  65  91 127 163 218 271 310 378
#     4  11  23  42  70  89 122 172 217 262 320 375
#     4  11  24  37  63  93 136 167 208 259 325 386
#     4  10  21  41  63  97 128 165 209 272 315 380
#
# _framework density 23.410215999999998
#
# number of rings (size 3 to 8) (size 9 to 14) (size 15 to 20)
#    0.000    1.333    4.000    2.400    1.867    5.333 
#    0.000    0.667    0.000    1.600    0.000    0.000 
#    0.000    0.000    0.000    0.000    0.000    0.000 
#
# Total GULP energy -83621.542230 kJ/mol
# GULP energy per Si atom -5574.769482 kJ/mol
# Density = 2.335693 g / cm^3
# Si number density = 23.410216 Si / 1000 Ang^3
#
#
#
# Elastic Constant Matrix: (Units=GPa)
#
#
# Indices 1 2 3 4 5 6 
#
# 1 86.8542 30.8305 14.8394 -23.7096 38.5842 -2.4394
# 2 30.8305 97.8503 35.6421 -17.8338 29.1321 6.7486
# 3 14.8394 35.6421 61.5369 -22.5936 32.1358 -2.9471
# 4 -23.7096 -17.8338 -22.5936 40.7266 -11.8333 8.7985
# 5 38.5842 29.1321 32.1358 -11.8333 47.1111 -0.0023
# 6 -2.4394 6.7486 -2.9471 8.7985 -0.0023 29.3273
#
#
#
# Elastic Compliance Matrix: (Units=1/GPa)
#
#
# Indices 1 2 3 4 5 6 
#
# 1 0.024630 -0.003008 0.013247 0.013390 -0.023985 0.000053
# 2 -0.003008 0.014681 -0.006488 0.001585 -0.001791 -0.004756
# 3 0.013247 -0.006488 0.038174 0.017521 -0.028475 0.001172
# 4 0.013390 0.001585 0.017521 0.040915 -0.013622 -0.009766
# 5 -0.023985 -0.001791 -0.028475 -0.013622 0.057980 -0.000353
# 6 0.000053 -0.004756 0.001172 -0.009766 -0.000353 0.038245
#
#
# Mechanical properties :
#
#
# Convention : Reuss Voigt Hill
#
# Bulk Modulus (GPa) = 11.76677 45.42948 28.59812
# Shear Modulus (GPa) = 21.23580 34.42828 27.83204
#
# Velocity S-wave (km/s) = 3.01511 3.83907 3.45176
# Velocity P-wave (km/s) = 4.14227 6.25294 5.30366
#
# Compressibility (1/GPa) = 0.08498511
#
# Stress axis : x y z
#
# Youngs Moduli (GPa) = 40.60141 68.11539 26.19610
#
# Poissons Ratio (x) = 0.20489 -0.34702
# Poissons Ratio (y) = 0.12213 0.16997
# Poissons Ratio (z) = -0.53784 0.44196
#
# Static dielectric constant tensor:
#      x y z
#    x 1.922860 -0.009260 -0.030050 
#    y -0.009260 1.862690 0.031570 
#    z -0.030050 0.031570 1.947110 
# 
# From -- ./inp_files/171413.got.cif
#   From: 2010.05.17/outbox.cif.g08.bks.cpg/sg2_86_cif.got.tgz:171413.got - 2010.06.03 11:33:40.
