data_PCOD9101876
_publ_section_title
;
Structure prediction by ZEFSAII (Michael W. Deem and Ramdas Pophale) SiO2 
 PCOD9101876
Probable space group: P -1
;
_chemical_formula_sum "Si O2"
_cell_formula_units_Z 16
_cell_length_a 15.852564
_cell_length_b 13.949534
_cell_length_c 8.440688
_cell_angle_alpha 32.024685
_cell_angle_beta 54.677356
_cell_angle_gamma 52.794996
_cell_volume 778.804033
_symmetry_space_group_name_H-M "P -1"
_symmetry_group_IT_number 2
_symmetry_cell_setting 'triclinic'
loop_
_space_group_symop_operation_xyz
x,y,z
-x,-y,-z
loop_
_atom_site_type_symbol
_atom_site_label
_atom_site_fract_x
_atom_site_fract_y
_atom_site_fract_z
Si Si1 0.700906 0.633454 0.892121
Si Si2 0.577324 0.993701 0.692847
Si Si3 0.689265 0.240796 0.411009
Si Si4 0.921377 0.026238 0.399969
Si Si5 0.095185 0.342288 0.197094
Si Si6 0.644496 0.901617 0.089682
Si Si7 0.004234 0.748499 0.240080
Si Si8 0.173058 0.389916 0.540423
O O1 0.626706 0.840229 0.722942
O O2 0.798277 0.594729 0.968392
O O3 0.758214 0.630897 0.664828
O O4 0.647480 0.459819 0.187877
O O5 0.636507 0.157967 0.434346
O O6 0.450368 0.082986 0.702832
O O7 0.598249 0.877448 0.999684
O O8 0.816622 0.195091 0.308500
O O9 0.671695 0.102277 0.763972
O O10 0.880820 0.841592 0.679429
O O11 0.978018 0.066420 0.119784
O O12 0.000000 0.000000 0.500000
O O13 0.056244 0.273725 0.502101
O O14 0.000000 0.500000 0.000000
O O15 0.747799 0.736390 0.244885
O O16 0.121245 0.605641 0.334732
O O17 0.932099 0.683072 0.275464
#
# Coordination Sequence:
#
# PCOD9101876 Si02
#       8
#     2   2   2   2   2   2   2   2
#     4  11  21  38  62  86 121 156 200 251 304 362
#     4   9  21  40  65  85 118 159 205 249 303 360
#     4  10  20  38  61  85 120 153 202 248 296 355
#     4  12  22  38  61  88 126 165 202 251 301 362
#     4  11  24  37  59  92 122 166 205 244 306 368
#     4   9  20  41  62  87 120 158 200 256 301 356
#     4  10  23  37  57  91 127 163 202 247 303 367
#     4  10  21  37  60  88 123 157 198 250 304 357
#
# _framework density 20.544321
#
# number of rings (size 3 to 8) (size 9 to 14) (size 15 to 20)
#    0.750    1.000    2.500    1.875    7.000    1.000 
#    0.000    0.625    2.750    0.000    0.000    0.000 
#    0.000    0.000    0.000    0.000    0.000    0.000 
#
# Total GULP energy -89156.977463 kJ/mol
# GULP energy per Si atom -5572.311091 kJ/mol
# Density = 2.049756 g / cm^3
# Si number density = 20.544321 Si / 1000 Ang^3
#
#
#
# Elastic Constant Matrix: (Units=GPa)
#
#
# Indices 1 2 3 4 5 6 
#
# 1 54.4152 15.3202 26.7145 -5.5492 6.2724 -7.9785
# 2 15.3202 74.1871 9.5374 -7.3650 -7.3626 1.0827
# 3 26.7145 9.5374 73.4641 -9.6390 -7.0389 4.6422
# 4 -5.5492 -7.3650 -9.6390 33.4617 3.1212 -6.4087
# 5 6.2724 -7.3626 -7.0389 3.1212 24.6564 -3.4162
# 6 -7.9785 1.0827 4.6422 -6.4087 -3.4162 28.6328
#
#
#
# Elastic Compliance Matrix: (Units=1/GPa)
#
#
# Indices 1 2 3 4 5 6 
#
# 1 0.028067 -0.005320 -0.010725 0.003168 -0.010921 0.009167
# 2 -0.005320 0.015253 0.000832 0.001974 0.005748 -0.001066
# 3 -0.010725 0.000832 0.018697 0.002206 0.007387 -0.004676
# 4 0.003168 0.001974 0.002206 0.033182 -0.002741 0.007550
# 5 -0.010921 0.005748 0.007387 -0.002741 0.047592 0.000606
# 6 0.009167 -0.001066 -0.004676 0.007550 0.000606 0.040040
#
#
# Mechanical properties :
#
#
# Convention : Reuss Voigt Hill
#
# Bulk Modulus (GPa) = 31.65700 33.91229 32.78465
# Shear Modulus (GPa) = 22.34248 27.38313 24.86280
#
# Velocity S-wave (km/s) = 3.30134 3.65482 3.48257
# Velocity P-wave (km/s) = 5.47489 5.86115 5.67131
#
# Compressibility (1/GPa) = 0.03158859
#
# Stress axis : x y z
#
# Youngs Moduli (GPa) = 35.62940 65.56000 53.48446
#
# Poissons Ratio (x) = 0.34880 0.57365
# Poissons Ratio (y) = 0.18956 -0.04448
# Poissons Ratio (z) = 0.38214 -0.05452
#
# Static dielectric constant tensor:
#      x y z
#    x 1.748930 0.002990 -0.012500 
#    y 0.002990 1.791170 0.007140 
#    z -0.012500 0.007140 1.778160 
# 
# From -- ./inp_files/312245.got.cif
#   From: 2010.05.17/outbox.cif.g08.bks.cpg/sg2_157_cif.got.tgz:312245.got - 2010.06.03 11:33:40.
