data_PCOD9101487
_publ_section_title
;
Structure prediction by ZEFSAII (Michael W. Deem and Ramdas Pophale) SiO2 
 PCOD9101487
Probable space group: P -1
;
_chemical_formula_sum "Si O2"
_cell_formula_units_Z 12
_cell_length_a 9.449559
_cell_length_b 10.968388
_cell_length_c 8.077149
_cell_angle_alpha 62.645173
_cell_angle_beta 62.128900
_cell_angle_gamma 37.024770
_cell_volume 439.741533
_symmetry_space_group_name_H-M "P -1"
_symmetry_group_IT_number 2
_symmetry_cell_setting 'triclinic'
loop_
_space_group_symop_operation_xyz
x,y,z
-x,-y,-z
loop_
_atom_site_type_symbol
_atom_site_label
_atom_site_fract_x
_atom_site_fract_y
_atom_site_fract_z
Si Si1 0.676092 0.719885 0.008217
Si Si2 0.135640 0.974413 0.170040
Si Si3 0.175515 0.644606 0.731817
Si Si4 0.003560 0.218181 0.764737
Si Si5 0.414466 0.401214 0.409701
Si Si6 0.532461 0.931135 0.306127
O O1 0.855503 0.477404 0.074062
O O2 0.655449 0.816283 0.131808
O O3 0.417383 0.806145 0.092661
O O4 0.665214 0.830208 0.789674
O O5 0.056492 0.111031 0.287326
O O6 0.049279 0.874287 0.272729
O O7 0.013456 0.135094 0.986694
O O8 0.270525 0.531665 0.574513
O O9 0.378839 0.617922 0.707132
O O10 0.255847 0.133300 0.663493
O O11 0.779882 0.462154 0.714102
O O12 0.516810 0.184626 0.514566
#
# Coordination Sequence:
#
# PCOD9101487 Si02
#       6
#     2   2   2   2   2   2
#     4   9  18  40  62  83 112 156 198 231 278 350
#     4  10  21  38  64  86 111 155 200 234 278 345
#     4  10  21  38  64  86 111 155 200 234 278 345
#     4  10  20  38  59  89 118 149 191 241 291 335
#     4  10  20  38  59  89 118 149 191 241 291 335
#     4   9  19  36  61  80 123 153 180 242 296 331
#
# _framework density 27.288757
#
# number of rings (size 3 to 8) (size 9 to 14) (size 15 to 20)
#    0.000    2.333    1.667    0.500    0.000    1.333 
#    0.000   21.667    0.000    0.000    0.000    0.000 
#    0.000    0.000    0.000    0.000    0.000    0.000 
#
# Total GULP energy -67248.743739 kJ/mol
# GULP energy per Si atom -5604.061978 kJ/mol
# Density = 2.722665 g / cm^3
# Si number density = 27.288757 Si / 1000 Ang^3
#
#
#
# Elastic Constant Matrix: (Units=GPa)
#
#
# Indices 1 2 3 4 5 6 
#
# 1 133.3529 13.3012 38.2711 -16.9290 -27.8822 22.1082
# 2 13.3012 82.4276 47.1265 -29.0202 -6.6997 24.8687
# 3 38.2711 47.1265 89.5812 -35.6355 -15.6982 13.3154
# 4 -16.9290 -29.0202 -35.6355 56.3908 5.5759 -5.3176
# 5 -27.8822 -6.6997 -15.6982 5.5759 44.4114 -13.9202
# 6 22.1082 24.8687 13.3154 -5.3176 -13.9202 40.1122
#
#
#
# Elastic Compliance Matrix: (Units=1/GPa)
#
#
# Indices 1 2 3 4 5 6 
#
# 1 0.010021 0.002648 -0.003916 0.001107 0.003787 -0.004404
# 2 0.002648 0.022653 -0.009468 0.005567 -0.002927 -0.012639
# 3 -0.003916 -0.009468 0.020747 0.007020 0.003607 0.003323
# 4 0.001107 0.005567 0.007020 0.025085 -0.000106 -0.003103
# 5 0.003787 -0.002927 0.003607 -0.000106 0.028361 0.008358
# 6 -0.004404 -0.012639 0.003323 -0.003103 0.008358 0.036579
#
#
# Mechanical properties :
#
#
# Convention : Reuss Voigt Hill
#
# Bulk Modulus (GPa) = 31.29930 55.86214 43.58072
# Shear Modulus (GPa) = 28.47902 41.96043 35.21973
#
# Velocity S-wave (km/s) = 3.23401 3.92554 3.59643
# Velocity P-wave (km/s) = 5.04378 6.40794 5.76634
#
# Compressibility (1/GPa) = 0.03194960
#
# Stress axis : x y z
#
# Youngs Moduli (GPa) = 99.79003 44.14423 48.19864
#
# Poissons Ratio (x) = -0.11688 0.18872
# Poissons Ratio (y) = -0.26422 0.45635
# Poissons Ratio (z) = 0.39073 0.41797
#
# Static dielectric constant tensor:
#      x y z
#    x 2.129410 -0.021980 0.027920 
#    y -0.021980 2.103050 0.001120 
#    z 0.027920 0.001120 2.109900 
# 
# From -- ./inp_files/65250.got.cif
#   From: 2010.05.17/outbox.cif.g08.bks.cpg/sg2_33_cif.got.tgz:65250.got - 2010.06.03 11:33:40.
