data_PCOD9101227
_publ_section_title
;
Structure prediction by ZEFSAII (Michael W. Deem and Ramdas Pophale) SiO2 
 PCOD9101227
Probable space group: P -1
;
_chemical_formula_sum "Si O2"
_cell_formula_units_Z 16
_cell_length_a 8.743707
_cell_length_b 18.135334
_cell_length_c 20.865278
_cell_angle_alpha 19.651777
_cell_angle_beta 137.754232
_cell_angle_gamma 138.093893
_cell_volume 731.673130
_symmetry_space_group_name_H-M "P -1"
_symmetry_group_IT_number 2
_symmetry_cell_setting 'triclinic'
loop_
_space_group_symop_operation_xyz
x,y,z
-x,-y,-z
loop_
_atom_site_type_symbol
_atom_site_label
_atom_site_fract_x
_atom_site_fract_y
_atom_site_fract_z
Si Si1 0.622986 0.398985 0.273079
Si Si2 0.452064 0.647042 0.125519
Si Si3 0.032542 0.220124 0.785669
Si Si4 0.237429 0.406129 0.974866
Si Si5 0.004980 0.316269 0.248190
Si Si6 0.141092 0.073890 0.380401
Si Si7 0.124656 0.991666 0.775400
Si Si8 0.994268 0.680049 0.446199
O O1 0.528900 0.603145 0.111808
O O2 0.774234 0.483855 0.188137
O O3 0.403065 0.206307 0.342331
O O4 0.778439 0.308270 0.448338
O O5 0.689112 0.683195 0.208797
O O6 0.270585 0.411637 0.274780
O O7 0.321704 0.849477 0.936356
O O8 0.921628 0.415241 0.623462
O O9 0.952586 0.196298 0.706897
O O10 0.000000 0.000000 0.000000
O O11 0.111844 0.481632 0.936347
O O12 0.500000 0.500000 0.000000
O O13 0.091857 0.155097 0.130981
O O14 0.007402 0.245334 0.234116
O O15 0.869617 0.114381 0.414492
O O16 0.998357 0.968470 0.361715
O O17 0.188261 0.214542 0.655329
#
# Coordination Sequence:
#
# PCOD9101227 Si02
#       8
#     2   2   2   2   2   2   2   2
#     4  10  21  39  63  93 136 178 219 266 307 387
#     4   9  22  42  63  92 127 169 214 268 328 384
#     4  10  23  50  73  95 122 163 215 283 338 392
#     4  11  22  33  58  93 133 182 221 254 308 366
#     4   9  21  37  56  85 133 180 211 261 313 382
#     4  10  20  38  57  89 136 177 215 254 313 383
#     4  11  23  38  61  97 134 170 215 268 316 391
#     4  10  24  42  69  97 127 161 221 268 330 387
#
# _framework density 21.867687
#
# number of rings (size 3 to 8) (size 9 to 14) (size 15 to 20)
#    0.000    2.000    1.250    0.750    7.000    3.000 
#   11.250    0.625    0.000    0.000    0.000    0.000 
#    0.000    0.000    0.000    0.000    0.000    0.000 
#
# Total GULP energy -89161.332289 kJ/mol
# GULP energy per Si atom -5572.583268 kJ/mol
# Density = 2.181791 g / cm^3
# Si number density = 21.867687 Si / 1000 Ang^3
#
#
#
# Elastic Constant Matrix: (Units=GPa)
#
#
# Indices 1 2 3 4 5 6 
#
# 1 90.8291 30.5252 42.0899 -6.7003 4.6305 -25.7813
# 2 30.5252 62.4069 19.0289 8.8941 5.6246 -22.0156
# 3 42.0899 19.0289 88.3548 -3.5127 1.5345 -27.8630
# 4 -6.7003 8.8941 -3.5127 28.8129 -12.2764 3.3303
# 5 4.6305 5.6246 1.5345 -12.2764 48.4533 -7.0579
# 6 -25.7813 -22.0156 -27.8630 3.3303 -7.0579 41.8925
#
#
#
# Elastic Compliance Matrix: (Units=1/GPa)
#
#
# Indices 1 2 3 4 5 6 
#
# 1 0.016931 -0.006336 -0.005501 0.005324 0.001106 0.003194
# 2 -0.006336 0.024341 0.000345 -0.011658 -0.003814 0.009406
# 3 -0.005501 0.000345 0.016321 0.000192 0.001158 0.007831
# 4 0.005324 -0.011658 0.000192 0.045016 0.011611 -0.004344
# 5 0.001106 -0.003814 0.001158 0.011611 0.024261 0.002611
# 6 0.003194 0.009406 0.007831 -0.004344 0.002611 0.036773
#
#
# Mechanical properties :
#
#
# Convention : Reuss Voigt Hill
#
# Bulk Modulus (GPa) = 28.89368 47.20877 38.05123
# Shear Modulus (GPa) = 25.23147 33.82821 29.52984
#
# Velocity S-wave (km/s) = 3.40048 3.93740 3.67875
# Velocity P-wave (km/s) = 5.35344 6.50431 5.95673
#
# Compressibility (1/GPa) = 0.03460964
#
# Stress axis : x y z
#
# Youngs Moduli (GPa) = 59.06206 41.08254 61.26903
#
# Poissons Ratio (x) = 0.26029 0.33706
# Poissons Ratio (y) = 0.37421 -0.02114
# Poissons Ratio (z) = 0.32492 -0.01417
#
# Static dielectric constant tensor:
#      x y z
#    x 1.888330 0.025660 0.039160 
#    y 0.025660 1.883000 -0.101210 
#    z 0.039160 -0.101210 1.933780 
# 
# From -- ./inp_files/591191.got.cif
#   From: 2010.05.17/outbox.cif.g08.bks.cpg/sg2_296_cif.got.tgz:591191.got - 2010.06.03 11:33:40.
