data_PCOD9101122
_publ_section_title
;
Structure prediction by ZEFSAII (Michael W. Deem and Ramdas Pophale) SiO2 
 PCOD9101122
Probable space group: P -1
;
_chemical_formula_sum "Si O2"
_cell_formula_units_Z 16
_cell_length_a 22.460346
_cell_length_b 15.586035
_cell_length_c 18.292684
_cell_angle_alpha 20.978926
_cell_angle_beta 161.407750
_cell_angle_gamma 149.787551
_cell_volume 718.717014
_symmetry_space_group_name_H-M "P -1"
_symmetry_group_IT_number 2
_symmetry_cell_setting 'triclinic'
loop_
_space_group_symop_operation_xyz
x,y,z
-x,-y,-z
loop_
_atom_site_type_symbol
_atom_site_label
_atom_site_fract_x
_atom_site_fract_y
_atom_site_fract_z
Si Si1 0.220396 0.120340 0.221710
Si Si2 0.419948 0.842568 0.217698
Si Si3 0.792796 0.055309 0.254874
Si Si4 0.827683 0.524444 0.723837
Si Si5 0.709452 0.475934 0.930927
Si Si6 0.599733 0.086768 0.618636
Si Si7 0.043935 0.211921 0.782403
Si Si8 0.633621 0.595333 0.302738
O O1 0.161234 0.382770 0.981747
O O2 0.448532 0.072439 0.518092
O O3 0.137773 0.139437 0.028604
O O4 0.141142 0.910800 0.338481
O O5 0.269727 0.705219 0.191696
O O6 0.617471 0.679262 0.602311
O O7 0.363699 0.826728 0.080034
O O8 0.393585 0.129447 0.976421
O O9 0.730403 0.803296 0.406069
O O10 0.802161 0.233994 0.190278
O O11 0.000000 0.000000 0.500000
O O12 0.824512 0.538541 0.620307
O O13 0.000000 0.500000 0.000000
O O14 0.542221 0.412150 0.839578
O O15 0.628021 0.367578 0.424124
O O16 0.500000 0.000000 0.500000
O O17 0.801604 0.910607 0.999228
O O18 0.000000 0.500000 0.500000
#
# Coordination Sequence:
#
# PCOD9101122 Si02
#       8
#     2   2   2   2   2   2   2   2
#     4   9  21  41  60  88 127 156 201 259 301 364
#     4  10  21  38  61  81 115 159 201 244 302 361
#     4  11  22  37  58  83 118 156 197 252 300 352
#     4  10  20  38  55  83 118 152 198 246 294 354
#     4  10  22  39  58  87 118 156 203 250 303 363
#     4   9  19  40  66  88 123 161 198 251 310 368
#     4  10  21  40  63  92 123 159 203 249 310 371
#     4   9  21  38  60  87 116 155 205 250 297 366
#
# _framework density 22.261890999999999
#
# number of rings (size 3 to 8) (size 9 to 14) (size 15 to 20)
#    0.000    2.250    1.250    0.375    0.000   11.000 
#    2.250    8.750    0.000    0.000    0.000    0.000 
#    0.000    0.000    0.000    0.000    0.000    0.000 
#
# Total GULP energy -89221.269177 kJ/mol
# GULP energy per Si atom -5576.329324 kJ/mol
# Density = 2.221122 g / cm^3
# Si number density = 22.261891 Si / 1000 Ang^3
#
#
#
# Elastic Constant Matrix: (Units=GPa)
#
#
# Indices 1 2 3 4 5 6 
#
# 1 53.1676 37.3765 30.9672 -19.1637 14.8233 0.9514
# 2 37.3765 164.1341 35.4277 -44.9514 15.0616 4.7091
# 3 30.9672 35.4277 67.2595 -32.7328 0.3249 18.0715
# 4 -19.1637 -44.9514 -32.7328 48.4908 -7.0600 -3.8590
# 5 14.8233 15.0616 0.3249 -7.0600 34.2643 -7.4761
# 6 0.9514 4.7091 18.0715 -3.8590 -7.4761 42.5083
#
#
#
# Elastic Compliance Matrix: (Units=1/GPa)
#
#
# Indices 1 2 3 4 5 6 
#
# 1 0.032776 -0.003822 -0.015140 -0.002251 -0.011988 0.003813
# 2 -0.003822 0.008823 0.000686 0.006934 -0.000960 -0.000723
# 3 -0.015140 0.000686 0.032497 0.016755 0.007037 -0.010794
# 4 -0.002251 0.006934 0.016755 0.037886 0.004797 -0.003558
# 5 -0.011988 -0.000960 0.007037 0.004797 0.036645 0.004263
# 6 0.003813 -0.000723 -0.010794 -0.003558 0.004263 0.028535
#
#
# Mechanical properties :
#
#
# Convention : Reuss Voigt Hill
#
# Bulk Modulus (GPa) = 26.63546 54.67824 40.65685
# Shear Modulus (GPa) = 22.10163 37.10534 29.60348
#
# Velocity S-wave (km/s) = 3.15429 4.08703 3.65058
# Velocity P-wave (km/s) = 5.02560 6.84737 6.00596
#
# Compressibility (1/GPa) = 0.03754393
#
# Stress axis : x y z
#
# Youngs Moduli (GPa) = 30.51042 113.34395 30.77191
#
# Poissons Ratio (x) = 0.43317 0.46588
# Poissons Ratio (y) = 0.11660 -0.02110
# Poissons Ratio (z) = 0.46192 -0.07772
#
# Static dielectric constant tensor:
#      x y z
#    x 1.878570 0.013140 0.016290 
#    y 0.013140 1.860850 0.050650 
#    z 0.016290 0.050650 1.836280 
# 
# From -- ./inp_files/328348.got.cif
#   From: 2010.05.17/outbox.cif.g08.bks.cpg/sg2_165_cif.got.tgz:328348.got - 2010.06.03 11:33:40.
