data_PCOD9101263
_publ_section_title
;
Structure prediction by ZEFSAII (Michael W. Deem and Ramdas Pophale) SiO2 
 PCOD9101263
Probable space group: P -1
;
_chemical_formula_sum "Si O2"
_cell_formula_units_Z 14
_cell_length_a 20.091577
_cell_length_b 6.222221
_cell_length_c 8.071294
_cell_angle_alpha 65.326241
_cell_angle_beta 40.176341
_cell_angle_gamma 65.949546
_cell_volume 584.740273
_symmetry_space_group_name_H-M "P -1"
_symmetry_group_IT_number 2
_symmetry_cell_setting 'triclinic'
loop_
_space_group_symop_operation_xyz
x,y,z
-x,-y,-z
loop_
_atom_site_type_symbol
_atom_site_label
_atom_site_fract_x
_atom_site_fract_y
_atom_site_fract_z
Si Si1 0.913041 0.747239 0.848219
Si Si2 0.235600 0.588102 0.829226
Si Si3 0.751650 0.188385 0.936533
Si Si4 0.757622 0.912073 0.525844
Si Si5 0.410686 0.849866 0.989518
Si Si6 0.079160 0.990890 0.574385
Si Si7 0.634720 0.648563 0.609311
O O1 0.989193 0.827301 0.815923
O O2 0.809593 0.945659 0.987042
O O3 0.958869 0.811178 0.559676
O O4 0.872460 0.496631 0.994743
O O5 0.244814 0.842031 0.649489
O O6 0.329150 0.407480 0.628466
O O7 0.243018 0.606307 0.006676
O O8 0.637886 0.163818 0.096121
O O9 0.824313 0.187308 0.635816
O O10 0.663657 0.951214 0.827942
O O11 0.868147 0.882227 0.419688
O O12 0.729369 0.714363 0.518335
O O13 0.394578 0.598136 0.184473
O O14 0.533934 0.851516 0.753165
#
# Coordination Sequence:
#
# PCOD9101263 Si02
#       7
#     2   2   2   2   2   2   2
#     4   9  19  39  57  83 111 140 187 234 262 327
#     4  11  22  34  55  83 119 145 175 227 286 314
#     4   9  19  36  57  82 109 142 186 227 269 327
#     4  10  20  38  58  83 110 147 182 229 271 327
#     4   9  20  37  60  82 104 150 193 216 276 320
#     4   8  19  39  61  78 107 147 191 222 270 318
#     4  10  21  37  56  83 115 143 182 233 265 336
#
# _framework density 23.942253000000001
#
# number of rings (size 3 to 8) (size 9 to 14) (size 15 to 20)
#    0.857    1.714    0.000    1.286    2.000    1.714 
#    0.000    5.714    0.000    0.000    0.000    0.000 
#    0.000    0.000    0.000    0.000    0.000    0.000 
#
# Total GULP energy -78101.276969 kJ/mol
# GULP energy per Si atom -5578.662641 kJ/mol
# Density = 2.388776 g / cm^3
# Si number density = 23.942253 Si / 1000 Ang^3
#
#
#
# Elastic Constant Matrix: (Units=GPa)
#
#
# Indices 1 2 3 4 5 6 
#
# 1 73.0901 4.5583 16.1528 10.2681 -25.7835 27.0294
# 2 4.5583 52.2251 19.5158 -2.9576 6.6552 20.6249
# 3 16.1528 19.5158 43.9094 -9.5461 3.6745 11.2729
# 4 10.2681 -2.9576 -9.5461 23.3747 11.1522 1.6108
# 5 -25.7835 6.6552 3.6745 11.1522 13.7606 -1.8904
# 6 27.0294 20.6249 11.2729 1.6108 -1.8904 39.1890
#
#
#
# Elastic Compliance Matrix: (Units=1/GPa)
#
#
# Indices 1 2 3 4 5 6 
#
# 1 -0.007143 0.005375 0.011537 0.029735 -0.043789 -0.004556
# 2 0.005375 0.029549 -0.010672 -0.000211 -0.003444 -0.016347
# 3 0.011537 -0.010672 0.019259 -0.013195 0.031530 -0.005818
# 4 0.029735 -0.000211 -0.013195 -0.003566 0.060371 -0.013544
# 5 -0.043789 -0.003444 0.031530 0.060371 -0.062661 0.017441
# 6 -0.004556 -0.016347 -0.005818 -0.013544 0.017441 0.040334
#
#
# Mechanical properties :
#
#
# Convention : Reuss Voigt Hill
#
# Bulk Modulus (GPa) = 18.46805 27.74203 23.10504
# Shear Modulus (GPa) = 234.29747 23.86471 129.08109
#
# Velocity S-wave (km/s) = 9.90312 3.16058 7.35055
# Velocity P-wave (km/s) = 11.76830 4.99312 9.03947
#
# Compressibility (1/GPa) = 0.05414756
#
# Stress axis : x y z
#
# Youngs Moduli (GPa) = -139.99906 33.84175 51.92253
#
# Poissons Ratio (x) = -0.18191 -0.59904
# Poissons Ratio (y) = 0.75255 0.55410
# Poissons Ratio (z) = 1.61519 0.36115
#
# Static dielectric constant tensor:
#      x y z
#    x 1.941350 0.003960 0.019410 
#    y 0.003960 1.917170 0.022350 
#    z 0.019410 0.022350 1.973850 
# 
# From -- ./inp_files/107303.got.cif
#   From: 2010.05.17/outbox.cif.g08.bks.cpg/sg2_54_cif.got.tgz:107303.got - 2010.06.03 11:33:40.
