data_PCOD9101238
_publ_section_title
;
Structure prediction by ZEFSAII (Michael W. Deem and Ramdas Pophale) SiO2 
 PCOD9101238
Probable space group: P -1
;
_chemical_formula_sum "Si O2"
_cell_formula_units_Z 16
_cell_length_a 7.028574
_cell_length_b 30.168817
_cell_length_c 15.927333
_cell_angle_alpha 153.056753
_cell_angle_beta 144.616679
_cell_angle_gamma 32.681416
_cell_volume 796.632783
_symmetry_space_group_name_H-M "P -1"
_symmetry_group_IT_number 2
_symmetry_cell_setting 'triclinic'
loop_
_space_group_symop_operation_xyz
x,y,z
-x,-y,-z
loop_
_atom_site_type_symbol
_atom_site_label
_atom_site_fract_x
_atom_site_fract_y
_atom_site_fract_z
Si Si1 0.819261 0.287061 0.413850
Si Si2 0.739421 0.479706 0.937383
Si Si3 0.122094 0.678344 0.138396
Si Si4 0.140160 0.273159 0.055770
Si Si5 0.349583 0.856555 0.579231
Si Si6 0.407618 0.046830 0.835445
Si Si7 0.163481 0.892508 0.765674
Si Si8 0.657730 0.497646 0.323430
O O1 0.510892 0.274188 0.225164
O O2 0.817898 0.222091 0.388774
O O3 0.684646 0.414840 0.599927
O O4 0.217567 0.222250 0.408796
O O5 0.955193 0.380505 0.909569
O O6 0.445045 0.460947 0.740275
O O7 0.514805 0.587309 0.092801
O O8 0.000000 0.500000 0.000000
O O9 0.144623 0.786536 0.357670
O O10 0.878795 0.703229 0.009939
O O11 0.798240 0.369001 0.142010
O O12 0.146086 0.157926 0.883901
O O13 0.261279 0.889278 0.699034
O O14 0.257304 0.962226 0.667304
O O15 0.564767 0.079869 0.031293
O O16 0.758664 0.983019 0.794899
O O17 0.000000 0.500000 0.500000
#
# Coordination Sequence:
#
# PCOD9101238 Si02
#       8
#     2   2   2   2   2   2   2   2
#     4   9  18  34  58  84 111 144 186 233 277 322
#     4  10  20  38  58  77 111 149 181 220 275 336
#     4  10  22  36  54  82 111 145 184 224 272 332
#     4   9  19  37  54  78 120 153 180 225 276 327
#     4  11  20  33  59  86 108 143 191 232 271 324
#     4   9  19  35  55  79 112 149 185 229 276 320
#     4   9  18  34  56  82 109 143 188 236 277 319
#     4   9  17  33  59  84 108 141 180 227 276 319
#
# _framework density 20.084537999999998
#
# number of rings (size 3 to 8) (size 9 to 14) (size 15 to 20)
#    0.000    2.500    0.000    2.625    0.000    1.500 
#    0.000   10.625    0.000   19.500    0.000    0.000 
#    0.000    0.000    0.000    0.000    0.000    0.000 
#
# Total GULP energy -89181.161414 kJ/mol
# GULP energy per Si atom -5573.822588 kJ/mol
# Density = 2.003882 g / cm^3
# Si number density = 20.084538 Si / 1000 Ang^3
#
#
#
# Elastic Constant Matrix: (Units=GPa)
#
#
# Indices 1 2 3 4 5 6 
#
# 1 94.9069 34.8409 31.9085 7.0831 -5.9787 25.6769
# 2 34.8409 106.7947 37.4200 20.9088 -5.8535 26.1514
# 3 31.9085 37.4200 66.2496 19.1768 -10.8533 12.9196
# 4 7.0831 20.9088 19.1768 25.2144 -1.1916 1.6679
# 5 -5.9787 -5.8535 -10.8533 -1.1916 21.0456 3.0245
# 6 25.6769 26.1514 12.9196 1.6679 3.0245 25.2003
#
#
#
# Elastic Compliance Matrix: (Units=1/GPa)
#
#
# Indices 1 2 3 4 5 6 
#
# 1 0.016295 0.000185 -0.004093 -0.000386 0.004738 -0.015241
# 2 0.000185 0.016353 -0.002352 -0.010535 0.005071 -0.015864
# 3 -0.004093 -0.002352 0.026378 -0.015916 0.011933 -0.007291
# 4 -0.000386 -0.010535 -0.015916 0.059008 -0.010324 0.016819
# 5 0.004738 0.005071 0.011933 -0.010324 0.059092 -0.022617
# 6 -0.015241 -0.015864 -0.007291 0.016819 -0.022617 0.077013
#
#
# Mechanical properties :
#
#
# Convention : Reuss Voigt Hill
#
# Bulk Modulus (GPa) = 21.50212 52.92112 37.21162
# Shear Modulus (GPa) = 17.72037 25.21085 21.46561
#
# Velocity S-wave (km/s) = 2.97356 3.54678 3.27274
# Velocity P-wave (km/s) = 4.74536 6.57109 5.73139
#
# Compressibility (1/GPa) = 0.04650705
#
# Stress axis : x y z
#
# Youngs Moduli (GPa) = 61.36723 61.15227 37.91041
#
# Poissons Ratio (x) = -0.01133 0.15517
# Poissons Ratio (y) = -0.01137 0.08916
# Poissons Ratio (z) = 0.25117 0.14382
#
# Static dielectric constant tensor:
#      x y z
#    x 1.683320 -0.001980 0.009210 
#    y -0.001980 1.736350 0.000840 
#    z 0.009210 0.000840 1.744630 
# 
# From -- ./inp_files/453520.got.cif
#   From: 2010.05.17/outbox.cif.g08.bks.cpg/sg2_227_cif.got.tgz:453520.got - 2010.06.03 11:33:40.
