data_PCOD9101109
_publ_section_title
;
Structure prediction by ZEFSAII (Michael W. Deem and Ramdas Pophale) SiO2 
 PCOD9101109
Probable space group: P -1
;
_chemical_formula_sum "Si O2"
_cell_formula_units_Z 16
_cell_length_a 8.740437
_cell_length_b 8.188499
_cell_length_c 17.021736
_cell_angle_alpha 120.403151
_cell_angle_beta 79.879542
_cell_angle_gamma 131.594907
_cell_volume 761.162536
_symmetry_space_group_name_H-M "P -1"
_symmetry_group_IT_number 2
_symmetry_cell_setting 'triclinic'
loop_
_space_group_symop_operation_xyz
x,y,z
-x,-y,-z
loop_
_atom_site_type_symbol
_atom_site_label
_atom_site_fract_x
_atom_site_fract_y
_atom_site_fract_z
Si Si1 0.662255 0.347433 0.125528
Si Si2 0.278213 0.607961 0.164098
Si Si3 0.278127 0.263217 0.198318
Si Si4 0.815590 0.688538 0.446730
Si Si5 0.317453 0.353287 0.391512
Si Si6 0.964147 0.252580 0.709351
Si Si7 0.564816 0.865004 0.069941
Si Si8 0.107785 0.191345 0.963600
O O1 0.465359 0.266492 0.173237
O O2 0.865514 0.625244 0.206018
O O3 0.691434 0.148951 0.093516
O O4 0.593800 0.310598 0.031770
O O5 0.322223 0.460018 0.176726
O O6 0.160245 0.659137 0.240368
O O7 0.475656 0.855852 0.160127
O O8 0.150881 0.430223 0.055349
O O9 0.264719 0.348379 0.304920
O O10 0.062688 0.974424 0.128748
O O11 0.574025 0.559280 0.421466
O O12 0.785676 0.602209 0.519681
O O13 0.898486 0.623909 0.353268
O O14 0.000000 0.000000 0.500000
O O15 0.206992 0.058407 0.348369
O O16 0.691535 0.779096 0.058125
O O17 0.000000 0.000000 0.000000
#
# Coordination Sequence:
#
# PCOD9101109 Si02
#       8
#     2   2   2   2   2   2   2   2
#     4  11  22  36  60  88 122 165 224 260 286 356
#     4  11  24  37  55  87 132 173 201 250 310 362
#     4  11  22  38  60  90 124 163 212 254 302 371
#     4   9  20  42  71  93 123 147 198 259 318 368
#     4  10  21  41  69  97 115 158 202 255 312 371
#     4  11  23  39  63  95 125 160 204 257 312 363
#     4  11  23  38  56  83 128 179 216 255 298 345
#     4  10  20  38  54  79 127 174 205 249 306 350
#
# _framework density 21.020478000000001
#
# number of rings (size 3 to 8) (size 9 to 14) (size 15 to 20)
#    0.000    1.500    3.750    2.625    3.500    0.500 
#    0.000    0.625    0.000    6.750    0.000    0.000 
#    0.000    0.000    0.000    0.000    0.000    0.000 
#
# Total GULP energy -89114.491725 kJ/mol
# GULP energy per Si atom -5569.655733 kJ/mol
# Density = 2.097263 g / cm^3
# Si number density = 21.020478 Si / 1000 Ang^3
#
#
#
# Elastic Constant Matrix: (Units=GPa)
#
#
# Indices 1 2 3 4 5 6 
#
# 1 65.8631 31.8629 18.9774 3.5264 -17.2844 14.8448
# 2 31.8629 86.2636 43.5845 -18.3019 -5.8781 12.0218
# 3 18.9774 43.5845 101.3204 -23.1193 0.5298 16.0433
# 4 3.5264 -18.3019 -23.1193 47.9120 13.6679 -4.7003
# 5 -17.2844 -5.8781 0.5298 13.6679 32.4524 -3.7771
# 6 14.8448 12.0218 16.0433 -4.7003 -3.7771 20.2065
#
#
#
# Elastic Compliance Matrix: (Units=1/GPa)
#
#
# Indices 1 2 3 4 5 6 
#
# 1 0.028591 -0.009042 -0.002401 -0.013047 0.017556 -0.013472
# 2 -0.009042 0.018413 -0.004725 0.006629 -0.004172 0.000201
# 3 -0.002401 -0.004725 0.014989 0.006633 -0.005976 -0.006900
# 4 -0.013047 0.006629 0.006633 0.033563 -0.019463 0.004544
# 5 0.017556 -0.004172 -0.005976 -0.019463 0.047552 -0.001310
# 6 -0.013472 0.000201 -0.006900 0.004544 -0.001310 0.065557
#
#
# Mechanical properties :
#
#
# Convention : Reuss Voigt Hill
#
# Bulk Modulus (GPa) = 33.71735 49.14408 41.43072
# Shear Modulus (GPa) = 19.92933 30.71567 25.32250
#
# Velocity S-wave (km/s) = 3.08245 3.82675 3.47458
# Velocity P-wave (km/s) = 5.36132 6.55402 5.98744
#
# Compressibility (1/GPa) = 0.02965832
#
# Stress axis : x y z
#
# Youngs Moduli (GPa) = 34.97573 54.30850 66.71522
#
# Poissons Ratio (x) = 0.49104 0.16021
# Poissons Ratio (y) = 0.31624 0.31520
# Poissons Ratio (z) = 0.08399 0.25659
#
# Static dielectric constant tensor:
#      x y z
#    x 1.722990 0.091280 0.029090 
#    y 0.091280 1.820850 0.028450 
#    z 0.029090 0.028450 1.826710 
# 
# From -- ./inp_files/556391.got.cif
#   From: 2010.05.17/outbox.cif.g08.bks.cpg/sg2_279_cif.got.tgz:556391.got - 2010.06.03 11:33:40.
