data_PCOD9101322
_publ_section_title
;
Structure prediction by ZEFSAII (Michael W. Deem and Ramdas Pophale) SiO2 
 PCOD9101322
Probable space group: P -1
;
_chemical_formula_sum "Si O2"
_cell_formula_units_Z 14
_cell_length_a 10.503680
_cell_length_b 14.396832
_cell_length_c 11.346548
_cell_angle_alpha 115.711470
_cell_angle_beta 54.907157
_cell_angle_gamma 151.263048
_cell_volume 664.138961
_symmetry_space_group_name_H-M "P -1"
_symmetry_group_IT_number 2
_symmetry_cell_setting 'triclinic'
loop_
_space_group_symop_operation_xyz
x,y,z
-x,-y,-z
loop_
_atom_site_type_symbol
_atom_site_label
_atom_site_fract_x
_atom_site_fract_y
_atom_site_fract_z
Si Si1 0.184324 0.580403 0.758054
Si Si2 0.186156 0.999965 0.397650
Si Si3 0.061442 0.152539 0.013192
Si Si4 0.769145 0.606233 0.495794
Si Si5 0.201829 0.895352 0.087430
Si Si6 0.351025 0.429212 0.193296
Si Si7 0.723102 0.448539 0.052479
O O1 0.134023 0.443923 0.646342
O O2 0.306322 0.632002 0.855749
O O3 0.462182 0.788138 0.658276
O O4 0.881646 0.471984 0.879468
O O5 0.137558 0.923412 0.253197
O O6 0.034382 0.837371 0.479509
O O7 0.000000 0.000000 0.500000
O O8 0.386591 0.357753 0.892416
O O9 0.820732 0.046369 0.983350
O O10 0.067642 0.248195 0.161092
O O11 0.000000 0.000000 0.000000
O O12 0.500000 0.500000 0.500000
O O13 0.682434 0.544798 0.644184
O O14 0.955573 0.669230 0.081142
O O15 0.500000 0.000000 0.000000
O O16 0.444837 0.360908 0.120086
#
# Coordination Sequence:
#
# PCOD9101322 Si02
#       7
#     2   2   2   2   2   2   2
#     4  11  22  33  56  95 126 164 203 261 324 364
#     4  12  23  34  59  96 128 161 208 269 318 373
#     4  10  24  39  65  94 123 172 212 258 319 379
#     4  12  21  37  59  91 129 165 210 264 318 375
#     4  11  22  41  65  98 127 162 219 270 309 378
#     4  10  22  42  61  88 127 163 214 261 308 386
#     4  10  20  38  58  87 133 162 205 262 318 364
#
# _framework density 21.079924999999999
#
# number of rings (size 3 to 8) (size 9 to 14) (size 15 to 20)
#    0.000    1.143    5.714    0.857    4.000    0.000 
#    0.000    0.000    0.000   10.286    0.000    0.000 
#    0.000    0.000    0.000    0.000    0.000    0.000 
#
# Total GULP energy -78174.427609 kJ/mol
# GULP energy per Si atom -5583.887686 kJ/mol
# Density = 2.103195 g / cm^3
# Si number density = 21.079925 Si / 1000 Ang^3
#
#
#
# Elastic Constant Matrix: (Units=GPa)
#
#
# Indices 1 2 3 4 5 6 
#
# 1 61.7992 2.1686 20.3485 2.0353 5.4240 -8.5877
# 2 2.1686 79.3885 13.2572 -6.2492 -0.5819 -26.1430
# 3 20.3485 13.2572 138.4162 22.3516 -11.6695 -11.1340
# 4 2.0353 -6.2492 22.3516 37.5980 -9.2044 2.8695
# 5 5.4240 -0.5819 -11.6695 -9.2044 35.8047 2.3661
# 6 -8.5877 -26.1430 -11.1340 2.8695 2.3661 25.9207
#
#
#
# Elastic Compliance Matrix: (Units=1/GPa)
#
#
# Indices 1 2 3 4 5 6 
#
# 1 0.018443 0.002456 -0.002550 -0.000735 -0.004300 0.007966
# 2 0.002456 0.019361 -0.001030 0.001889 -0.001216 0.019800
# 3 -0.002550 -0.001030 0.008848 -0.005027 0.001808 0.002308
# 4 -0.000735 0.001889 -0.005027 0.032022 0.007045 -0.004686
# 5 -0.004300 -0.001216 0.001808 0.007045 0.031326 -0.005514
# 6 0.007966 0.019800 0.002308 -0.004686 -0.005514 0.063202
#
#
# Mechanical properties :
#
#
# Convention : Reuss Voigt Hill
#
# Bulk Modulus (GPa) = 22.52012 39.01694 30.76853
# Shear Modulus (GPa) = 26.28092 36.11996 31.20044
#
# Velocity S-wave (km/s) = 3.53473 4.14391 3.85138
# Velocity P-wave (km/s) = 5.23121 6.43779 5.86561
#
# Compressibility (1/GPa) = 0.04440474
#
# Stress axis : x y z
#
# Youngs Moduli (GPa) = 54.21988 51.64922 113.02089
#
# Poissons Ratio (x) = -0.12684 0.28816
# Poissons Ratio (y) = -0.13316 0.11644
# Poissons Ratio (z) = 0.13824 0.05321
#
# Static dielectric constant tensor:
#      x y z
#    x 1.940510 0.094690 0.007930 
#    y 0.094690 1.842280 0.001960 
#    z 0.007930 0.001960 1.724650 
# 
# From -- ./inp_files/431633.got.cif
#   From: 2010.05.17/outbox.cif.g08.bks.cpg/sg2_216_cif.got.tgz:431633.got - 2010.06.03 11:33:40.
