data_PCOD9101575
_publ_section_title
;
Structure prediction by ZEFSAII (Michael W. Deem and Ramdas Pophale) SiO2 
 PCOD9101575
Probable space group: P -1
;
_chemical_formula_sum "Si O2"
_cell_formula_units_Z 16
_cell_length_a 8.035574
_cell_length_b 16.261726
_cell_length_c 9.165077
_cell_angle_alpha 147.371540
_cell_angle_beta 68.535505
_cell_angle_gamma 110.186394
_cell_volume 599.331729
_symmetry_space_group_name_H-M "P -1"
_symmetry_group_IT_number 2
_symmetry_cell_setting 'triclinic'
loop_
_space_group_symop_operation_xyz
x,y,z
-x,-y,-z
loop_
_atom_site_type_symbol
_atom_site_label
_atom_site_fract_x
_atom_site_fract_y
_atom_site_fract_z
Si Si1 0.949105 0.051340 0.257007
Si Si2 0.245099 0.299471 0.508756
Si Si3 0.429621 0.092731 0.907713
Si Si4 0.582039 0.669969 0.966878
Si Si5 0.506935 0.779377 0.454717
Si Si6 0.953552 0.446520 0.099171
Si Si7 0.997500 0.787353 0.052914
Si Si8 0.773237 0.382578 0.507442
O O1 0.736113 0.011365 0.268143
O O2 0.047028 0.217810 0.471941
O O3 0.027216 0.953802 0.218598
O O4 0.000000 0.000000 0.000000
O O5 0.338001 0.307554 0.647075
O O6 0.224160 0.461220 0.680360
O O7 0.353639 0.182115 0.202893
O O8 0.495494 0.228564 0.982635
O O9 0.560424 0.960521 0.699273
O O10 0.473378 0.696010 0.187461
O O11 0.629065 0.496664 0.665783
O O12 0.783347 0.750100 0.051735
O O13 0.336373 0.753874 0.576903
O O14 0.940548 0.270842 0.895838
O O15 0.103901 0.524918 0.275705
O O16 0.000000 0.500000 0.000000
O O17 0.101370 0.680604 0.749416
#
# Coordination Sequence:
#
# PCOD9101575 Si02
#       8
#     2   2   2   2   2   2   2   2
#     4   9  18  36  63  89 112 149 203 249 286 341
#     4  11  21  38  59  87 120 156 198 245 292 354
#     4  10  20  38  60  83 113 158 200 240 291 355
#     4  10  21  38  59  86 118 154 195 245 298 351
#     4  12  24  38  57  89 125 156 190 244 304 350
#     4  11  22  39  62  91 121 156 199 251 299 349
#     4  10  20  39  66  91 114 156 207 246 290 357
#     4  11  21  40  64  86 115 159 201 240 294 361
#
# _framework density 26.696399
#
# number of rings (size 3 to 8) (size 9 to 14) (size 15 to 20)
#    0.000    1.500    0.000    9.375    0.000    0.000 
#    0.000   13.125    0.000    0.000    0.000    0.000 
#    0.000    0.000    0.000    0.000    0.000    0.000 
#
# Total GULP energy -89524.521872 kJ/mol
# GULP energy per Si atom -5595.282617 kJ/mol
# Density = 2.663564 g / cm^3
# Si number density = 26.696399 Si / 1000 Ang^3
#
#
#
# Elastic Constant Matrix: (Units=GPa)
#
#
# Indices 1 2 3 4 5 6 
#
# 1 67.7072 22.3689 -3.3579 2.9940 -9.7255 -3.1127
# 2 22.3689 169.2901 41.2315 20.8563 -4.4936 -29.0776
# 3 -3.3579 41.2315 98.3305 10.5438 -9.9572 -7.2099
# 4 2.9940 20.8563 10.5438 61.4269 -8.9714 -18.0142
# 5 -9.7255 -4.4936 -9.9572 -8.9714 23.9222 3.9290
# 6 -3.1127 -29.0776 -7.2099 -18.0142 3.9290 29.3542
#
#
#
# Elastic Compliance Matrix: (Units=1/GPa)
#
#
# Indices 1 2 3 4 5 6 
#
# 1 0.016873 -0.002882 0.002424 0.000520 0.007717 -0.001185
# 2 -0.002882 0.008298 -0.003243 -0.000336 -0.002274 0.007216
# 3 0.002424 -0.003243 0.012145 -0.000634 0.005371 -0.001081
# 4 0.000520 -0.000336 -0.000634 0.020688 0.005755 0.011492
# 5 0.007717 -0.002274 0.005371 0.005755 0.049432 -0.003200
# 6 -0.001185 0.007216 -0.001081 0.011492 -0.003200 0.048304
#
#
# Mechanical properties :
#
#
# Convention : Reuss Voigt Hill
#
# Bulk Modulus (GPa) = 33.43103 50.64588 42.03845
# Shear Modulus (GPa) = 28.88260 41.27967 35.08114
#
# Velocity S-wave (km/s) = 3.29278 3.93652 3.62895
# Velocity P-wave (km/s) = 5.19677 6.29872 5.77409
#
# Compressibility (1/GPa) = 0.02991233
#
# Stress axis : x y z
#
# Youngs Moduli (GPa) = 59.26647 120.50724 82.33770
#
# Poissons Ratio (x) = 0.34736 -0.19956
# Poissons Ratio (y) = 0.17083 0.26704
# Poissons Ratio (z) = -0.14364 0.39083
#
# Static dielectric constant tensor:
#      x y z
#    x 2.126040 -0.023510 -0.014780 
#    y -0.023510 2.105750 -0.000740 
#    z -0.014780 -0.000740 2.150060 
# 
# From -- ./inp_files/209181.got.cif
#   From: 2010.05.17/outbox.cif.g08.bks.cpg/sg2_105_cif.got.tgz:209181.got - 2010.06.03 11:33:40.
