data_PCOD9101955
_publ_section_title
;
Structure prediction by ZEFSAII (Michael W. Deem and Ramdas Pophale) SiO2 
 PCOD9101955
Probable space group: P -1
;
_chemical_formula_sum "Si O2"
_cell_formula_units_Z 16
_cell_length_a 17.515138
_cell_length_b 14.066447
_cell_length_c 7.341751
_cell_angle_alpha 116.863752
_cell_angle_beta 115.311746
_cell_angle_gamma 23.219641
_cell_volume 635.796196
_symmetry_space_group_name_H-M "P -1"
_symmetry_group_IT_number 2
_symmetry_cell_setting 'triclinic'
loop_
_space_group_symop_operation_xyz
x,y,z
-x,-y,-z
loop_
_atom_site_type_symbol
_atom_site_label
_atom_site_fract_x
_atom_site_fract_y
_atom_site_fract_z
Si Si1 0.200940 0.351643 0.212085
Si Si2 0.193791 0.987570 0.817687
Si Si3 0.438142 0.498292 0.733718
Si Si4 0.652914 0.733778 0.378275
Si Si5 0.778963 0.396867 0.682243
Si Si6 0.216336 0.762049 0.099092
Si Si7 0.010480 0.608055 0.859474
Si Si8 0.525780 0.143119 0.023976
O O1 0.251020 0.390807 0.434697
O O2 0.108219 0.366078 0.263884
O O3 0.372734 0.086718 0.067962
O O4 0.061978 0.537521 0.065740
O O5 0.004081 0.163653 0.667742
O O6 0.104724 0.148751 0.046291
O O7 0.327716 0.734084 0.771229
O O8 0.329056 0.928545 0.830057
O O9 0.650781 0.488030 0.477272
O O10 0.668685 0.259000 0.748491
O O11 0.360293 0.562272 0.911228
O O12 0.813872 0.586382 0.268641
O O13 0.538583 0.774692 0.182508
O O14 0.500000 0.000000 0.500000
O O15 0.784155 0.310415 0.786032
O O16 0.660541 0.631403 0.845968
O O17 0.000000 0.000000 0.000000
#
# Coordination Sequence:
#
# PCOD9101955 Si02
#       8
#     2   2   2   2   2   2   2   2
#     4   9  21  40  66  91 127 168 215 267 330 386
#     4  11  22  40  66  95 130 171 219 265 318 388
#     4  11  25  43  67  97 130 175 218 263 328 393
#     4  10  20  38  61  88 125 171 210 266 332 379
#     4  12  23  44  67  92 136 178 209 269 332 379
#     4  11  24  42  68  94 125 169 220 272 321 385
#     4  10  20  40  65  95 126 166 217 273 320 388
#     4  10  22  39  63  95 129 168 216 267 317 387
#
# _framework density 25.165296000000001
#
# number of rings (size 3 to 8) (size 9 to 14) (size 15 to 20)
#    0.000    1.500    3.750    1.125    0.000    2.000 
#    2.250    2.500   11.000    0.000    0.000    0.000 
#    0.000    0.000    0.000    0.000    0.000    0.000 
#
# Total GULP energy -89373.136931 kJ/mol
# GULP energy per Si atom -5585.821058 kJ/mol
# Density = 2.510802 g / cm^3
# Si number density = 25.165296 Si / 1000 Ang^3
#
#
#
# Elastic Constant Matrix: (Units=GPa)
#
#
# Indices 1 2 3 4 5 6 
#
# 1 102.3363 35.7030 24.3398 -4.7295 21.6997 -27.1479
# 2 35.7030 113.2574 17.9049 -4.7357 16.9245 -30.8272
# 3 24.3398 17.9049 124.2361 -24.2079 24.6314 -12.7387
# 4 -4.7295 -4.7357 -24.2079 45.3847 -10.5240 6.2932
# 5 21.6997 16.9245 24.6314 -10.5240 34.5673 0.4986
# 6 -27.1479 -30.8272 -12.7387 6.2932 0.4986 53.4748
#
#
#
# Elastic Compliance Matrix: (Units=1/GPa)
#
#
# Indices 1 2 3 4 5 6 
#
# 1 0.013711 -0.001365 -0.000570 -0.001789 -0.008168 0.006325
# 2 -0.001365 0.011697 0.000085 -0.000974 -0.005318 0.006235
# 3 -0.000570 0.000085 0.010233 0.003802 -0.005844 0.001805
# 4 -0.001789 -0.000974 0.003802 0.025864 0.006817 -0.003671
# 5 -0.008168 -0.005318 -0.005844 0.006817 0.043042 -0.009808
# 6 0.006325 0.006235 0.001805 -0.003671 -0.009808 0.026459
#
#
# Mechanical properties :
#
#
# Convention : Reuss Voigt Hill
#
# Bulk Modulus (GPa) = 31.30630 55.08058 43.19344
# Shear Modulus (GPa) = 34.39940 44.14418 39.27179
#
# Velocity S-wave (km/s) = 3.70122 4.19282 3.95467
# Velocity P-wave (km/s) = 5.54371 6.73608 6.16877
#
# Compressibility (1/GPa) = 0.03194246
#
# Stress axis : x y z
#
# Youngs Moduli (GPa) = 72.93629 85.49136 97.72119
#
# Poissons Ratio (x) = 0.11666 0.05570
# Poissons Ratio (y) = 0.09953 -0.00835
# Poissons Ratio (z) = 0.04157 -0.00730
#
# Static dielectric constant tensor:
#      x y z
#    x 2.123230 0.021850 0.042030 
#    y 0.021850 2.062110 -0.076980 
#    z 0.042030 -0.076980 2.018770 
# 
# From -- ./inp_files/348077.got.cif
#   From: 2010.05.17/outbox.cif.g08.bks.cpg/sg2_175_cif.got.tgz:348077.got - 2010.06.03 11:33:40.
