data_PCOD9101789
_publ_section_title
;
Structure prediction by ZEFSAII (Michael W. Deem and Ramdas Pophale) SiO2 
 PCOD9101789
Probable space group: P -1
;
_chemical_formula_sum "Si O2"
_cell_formula_units_Z 14
_cell_length_a 8.206795
_cell_length_b 9.094275
_cell_length_c 10.983932
_cell_angle_alpha 68.525609
_cell_angle_beta 83.184186
_cell_angle_gamma 130.148076
_cell_volume 505.448296
_symmetry_space_group_name_H-M "P -1"
_symmetry_group_IT_number 2
_symmetry_cell_setting 'triclinic'
loop_
_space_group_symop_operation_xyz
x,y,z
-x,-y,-z
loop_
_atom_site_type_symbol
_atom_site_label
_atom_site_fract_x
_atom_site_fract_y
_atom_site_fract_z
Si Si1 0.026829 0.610070 0.093372
Si Si2 0.336471 0.928121 0.419256
Si Si3 0.734253 0.478790 0.452100
Si Si4 0.465974 0.434138 0.722312
Si Si5 0.028242 0.111251 0.104856
Si Si6 0.733877 0.030267 0.833099
Si Si7 0.968395 0.726776 0.696444
O O1 0.250444 0.855188 0.078675
O O2 0.987929 0.429653 0.238470
O O3 0.000000 0.500000 0.000000
O O4 0.897661 0.682409 0.042480
O O5 0.250516 0.691253 0.464935
O O6 0.443372 0.066425 0.238286
O O7 0.120482 0.876239 0.516287
O O8 0.500000 0.000000 0.500000
O O9 0.598032 0.458435 0.583056
O O10 0.591198 0.426604 0.356463
O O11 0.001890 0.739299 0.321123
O O12 0.680045 0.559585 0.762114
O O13 0.213571 0.153647 0.842672
O O14 0.941301 0.114235 0.242679
O O15 0.244294 0.139633 0.093657
#
# Coordination Sequence:
#
# PCOD9101789 Si02
#       7
#     2   2   2   2   2   2   2
#     4  10  22  42  68  93 129 177 224 271 319 388
#     4  12  24  37  64 101 134 167 219 270 328 402
#     4  10  20  38  60  93 130 167 213 262 332 391
#     4  10  21  38  63  93 133 173 207 267 327 389
#     4  10  24  40  64 100 129 176 225 262 321 399
#     4  11  21  41  68  91 135 174 213 277 332 378
#     4  11  22  41  66  93 137 169 216 268 333 384
#
# _framework density 27.698184999999999
#
# number of rings (size 3 to 8) (size 9 to 14) (size 15 to 20)
#    0.000    1.429    2.857    2.571    2.000    1.143 
#    0.000    2.857    0.000    8.571    0.000    0.000 
#    0.000    0.000    0.000    0.000    0.000    0.000 
#
# Total GULP energy -78119.465650 kJ/mol
# GULP energy per Si atom -5579.961832 kJ/mol
# Density = 2.763514 g / cm^3
# Si number density = 27.698185 Si / 1000 Ang^3
#
#
#
# Elastic Constant Matrix: (Units=GPa)
#
#
# Indices 1 2 3 4 5 6 
#
# 1 82.8803 61.5688 47.6693 -1.9081 29.0634 1.8447
# 2 61.5688 108.4445 44.5338 20.5238 22.4652 -23.5895
# 3 47.6693 44.5338 110.6840 24.0293 25.7770 -0.1594
# 4 -1.9081 20.5238 24.0293 56.1520 0.9136 -6.8708
# 5 29.0634 22.4652 25.7770 0.9136 49.8692 3.6421
# 6 1.8447 -23.5895 -0.1594 -6.8708 3.6421 48.6895
#
#
#
# Elastic Compliance Matrix: (Units=1/GPa)
#
#
# Indices 1 2 3 4 5 6 
#
# 1 0.031700 -0.017110 -0.007337 0.009641 -0.006591 -0.007661
# 2 -0.017110 0.022905 0.000069 -0.007651 -0.001027 0.010743
# 3 -0.007337 0.000069 0.014240 -0.006359 -0.002976 -0.000317
# 4 0.009641 -0.007651 -0.006359 0.023541 0.000744 -0.000827
# 5 -0.006591 -0.001027 -0.002976 0.000744 0.026034 -0.002100
# 6 -0.007661 0.010743 -0.000317 -0.000827 -0.002100 0.026073
#
#
# Mechanical properties :
#
#
# Convention : Reuss Voigt Hill
#
# Bulk Modulus (GPa) = 49.78110 67.72804 58.75457
# Shear Modulus (GPa) = 25.00693 40.82460 32.91577
#
# Velocity S-wave (km/s) = 3.00798 3.84332 3.45102
# Velocity P-wave (km/s) = 5.48413 6.64831 6.09408
#
# Compressibility (1/GPa) = 0.02008795
#
# Stress axis : x y z
#
# Youngs Moduli (GPa) = 31.54594 43.65934 70.22447
#
# Poissons Ratio (x) = 0.74701 0.51525
# Poissons Ratio (y) = 0.53975 -0.00484
# Poissons Ratio (z) = 0.23146 -0.00301
#
# Static dielectric constant tensor:
#      x y z
#    x 2.276210 0.124570 0.028630 
#    y 0.124570 2.172270 0.083640 
#    z 0.028630 0.083640 2.181070 
# 
# From -- ./inp_files/274832.got.cif
#   From: 2010.05.17/outbox.cif.g08.bks.cpg/sg2_138_cif.got.tgz:274832.got - 2010.06.03 11:33:40.
