data_PCOD9101432
_publ_section_title
;
Structure prediction by ZEFSAII (Michael W. Deem and Ramdas Pophale) SiO2 
 PCOD9101432
Probable space group: P -1
;
_chemical_formula_sum "Si O2"
_cell_formula_units_Z 16
_cell_length_a 11.226552
_cell_length_b 5.919770
_cell_length_c 22.665862
_cell_angle_alpha 56.936840
_cell_angle_beta 147.295385
_cell_angle_gamma 120.418630
_cell_volume 678.373211
_symmetry_space_group_name_H-M "P -1"
_symmetry_group_IT_number 2
_symmetry_cell_setting 'triclinic'
loop_
_space_group_symop_operation_xyz
x,y,z
-x,-y,-z
loop_
_atom_site_type_symbol
_atom_site_label
_atom_site_fract_x
_atom_site_fract_y
_atom_site_fract_z
Si Si1 0.587957 0.835927 0.447384
Si Si2 0.093555 0.311407 0.487487
Si Si3 0.654379 0.436036 0.335130
Si Si4 0.983807 0.860280 0.827035
Si Si5 0.198782 0.414233 0.837048
Si Si6 0.801469 0.687447 0.892307
Si Si7 0.772602 0.643994 0.659096
Si Si8 0.681381 0.593872 0.978027
O O1 0.775782 0.663094 0.522304
O O2 0.650812 0.852183 0.539672
O O3 0.362879 0.647525 0.367948
O O4 0.613874 0.124860 0.385637
O O5 0.273466 0.386588 0.602980
O O6 0.877836 0.468684 0.383933
O O7 0.000000 0.000000 0.500000
O O8 0.429792 0.477698 0.201616
O O9 0.880903 0.895145 0.843931
O O10 0.793379 0.714945 0.726370
O O11 0.075984 0.143735 0.796971
O O12 0.184132 0.668599 0.938850
O O13 0.417698 0.522948 0.878078
O O14 0.025065 0.629701 0.745149
O O15 0.267424 0.321014 0.945224
O O16 0.759739 0.782878 0.928046
O O17 0.000000 0.500000 0.000000
#
# Coordination Sequence:
#
# PCOD9101432 Si02
#       8
#     2   2   2   2   2   2   2   2
#     4  10  21  38  57  88 118 157 201 249 297 359
#     4   9  20  38  59  85 120 158 198 248 298 357
#     4  10  20  38  63  86 123 161 197 248 309 360
#     4  10  20  38  59  85 118 159 197 250 301 359
#     4  10  20  38  61  82 119 158 195 251 304 357
#     4  10  21  38  62  91 120 154 203 249 301 367
#     4  10  22  36  58  87 120 153 204 249 298 357
#     4   9  21  38  57  86 118 151 201 249 298 363
#
# _framework density 23.585837000000001
#
# number of rings (size 3 to 8) (size 9 to 14) (size 15 to 20)
#    0.000    2.250    0.000    1.875    1.750    1.500 
#    4.500   10.625    0.000    0.000    0.000    0.000 
#    0.000    0.000    0.000    0.000    0.000    0.000 
#
# Total GULP energy -89351.468676 kJ/mol
# GULP energy per Si atom -5584.466792 kJ/mol
# Density = 2.353215 g / cm^3
# Si number density = 23.585837 Si / 1000 Ang^3
#
#
#
# Elastic Constant Matrix: (Units=GPa)
#
#
# Indices 1 2 3 4 5 6 
#
# 1 134.4744 11.9151 38.1894 3.3048 8.3872 8.7486
# 2 11.9151 37.1793 14.8019 15.4464 2.2118 3.1340
# 3 38.1894 14.8019 110.7117 13.1012 3.6425 8.9306
# 4 3.3048 15.4464 13.1012 24.7120 4.8792 4.4067
# 5 8.3872 2.2118 3.6425 4.8792 29.3303 8.9534
# 6 8.7486 3.1340 8.9306 4.4067 8.9534 17.2841
#
#
#
# Elastic Compliance Matrix: (Units=1/GPa)
#
#
# Indices 1 2 3 4 5 6 
#
# 1 0.008613 -0.002451 -0.002705 0.002554 -0.001663 -0.002307
# 2 -0.002451 0.037638 -0.001562 -0.022743 0.001815 0.000081
# 3 -0.002705 -0.001562 0.010904 -0.004056 0.001320 -0.003632
# 4 0.002554 -0.022743 -0.004056 0.058945 -0.006217 -0.006881
# 5 -0.001663 0.001815 0.001320 -0.006217 0.041421 -0.020042
# 6 -0.002307 0.000081 -0.003632 -0.006881 -0.020042 0.073023
#
#
# Mechanical properties :
#
#
# Convention : Reuss Voigt Hill
#
# Bulk Modulus (GPa) = 22.87291 45.79756 34.33523
# Shear Modulus (GPa) = 19.33855 28.76254 24.05054
#
# Velocity S-wave (km/s) = 2.86653 3.49590 3.19674
# Velocity P-wave (km/s) = 4.54696 5.97952 5.31175
#
# Compressibility (1/GPa) = 0.04371985
#
# Stress axis : x y z
#
# Youngs Moduli (GPa) = 116.10817 26.56899 91.71240
#
# Poissons Ratio (x) = 0.06512 0.24804
# Poissons Ratio (y) = 0.28458 0.14322
# Poissons Ratio (z) = 0.31402 0.04149
#
# Static dielectric constant tensor:
#      x y z
#    x 1.939770 -0.037080 -0.022880 
#    y -0.037080 1.849730 -0.015920 
#    z -0.022880 -0.015920 1.971690 
# 
# From -- ./inp_files/609154.got.cif
#   From: 2010.05.17/outbox.cif.g08.bks.cpg/sg2_305_cif.got.tgz:609154.got - 2010.06.03 11:33:40.
