data_PCOD9101253
_publ_section_title
;
Structure prediction by ZEFSAII (Michael W. Deem and Ramdas Pophale) SiO2 
 PCOD9101253
Probable space group: P -1
;
_chemical_formula_sum "Si O2"
_cell_formula_units_Z 15
_cell_length_a 11.523872
_cell_length_b 8.189638
_cell_length_c 19.528087
_cell_angle_alpha 56.622889
_cell_angle_beta 143.690508
_cell_angle_gamma 140.631650
_cell_volume 679.091215
_symmetry_space_group_name_H-M "P -1"
_symmetry_group_IT_number 2
_symmetry_cell_setting 'triclinic'
loop_
_space_group_symop_operation_xyz
x,y,z
-x,-y,-z
loop_
_atom_site_type_symbol
_atom_site_label
_atom_site_fract_x
_atom_site_fract_y
_atom_site_fract_z
Si Si1 0.506380 0.792842 0.585004
Si Si2 0.773843 0.507782 0.889703
Si Si3 0.816170 0.653332 0.729541
Si Si4 0.000000 0.500000 0.500000
Si Si5 0.341516 0.625802 0.768044
Si Si6 0.162287 0.008883 0.164713
Si Si7 0.154893 0.576920 0.835191
Si Si8 0.606669 0.795633 0.099288
O O1 0.625452 0.708407 0.609923
O O2 0.227805 0.565314 0.540266
O O3 0.500000 0.000000 0.500000
O O4 0.704072 0.937303 0.710186
O O5 0.689631 0.478412 0.777977
O O6 0.534827 0.290075 0.874645
O O7 0.885326 0.790394 0.904937
O O8 0.000000 0.500000 0.000000
O O9 0.907037 0.548207 0.744301
O O10 0.100648 0.927155 0.823979
O O11 0.837862 0.479537 0.360526
O O12 0.223765 0.653869 0.771294
O O13 0.369291 0.419906 0.852556
O O14 0.624933 0.889885 0.816684
O O15 0.928718 0.700810 0.121949
O O16 0.415988 0.775448 0.959509
#
# Coordination Sequence:
#
# PCOD9101253 Si02
#       8
#     2   2   2   1   2   2   2   2
#     4  10  20  40  68  86 113 159 214 262 305 374
#     4  10  20  38  58  81 118 169 208 248 294 367
#     4  11  24  39  60  95 127 166 211 254 311 377
#     4  10  20  42  68  88 112 158 216 262 314 372
#     4  10  22  39  64  90 120 164 214 261 307 372
#     4   9  22  38  57  89 123 159 211 253 310 368
#     4  12  23  38  59  94 136 164 201 259 316 369
#     4  11  23  40  61  89 129 177 211 244 308 378
#
# _framework density 22.088342999999998
#
# number of rings (size 3 to 8) (size 9 to 14) (size 15 to 20)
#    0.000    1.600    1.333    4.800    0.000    4.267 
#    0.000    2.667    0.000    5.600    0.000    0.000 
#    0.000    0.000    0.000    0.000    0.000    0.000 
#
# Total GULP energy -83570.010584 kJ/mol
# GULP energy per Si atom -5571.334039 kJ/mol
# Density = 2.203807 g / cm^3
# Si number density = 22.088343 Si / 1000 Ang^3
#
#
#
# Elastic Constant Matrix: (Units=GPa)
#
#
# Indices 1 2 3 4 5 6 
#
# 1 184.6931 28.5418 41.3523 -20.0471 20.7348 26.7598
# 2 28.5418 68.3309 17.6410 -6.6524 3.6482 8.1499
# 3 41.3523 17.6410 100.9379 -27.2452 23.8991 -4.1850
# 4 -20.0471 -6.6524 -27.2452 28.5173 5.7751 2.6349
# 5 20.7348 3.6482 23.8991 5.7751 37.2200 -2.1911
# 6 26.7598 8.1499 -4.1850 2.6349 -2.1911 19.9182
#
#
#
# Elastic Compliance Matrix: (Units=1/GPa)
#
#
# Indices 1 2 3 4 5 6 
#
# 1 0.009506 -0.000932 -0.000078 0.009231 -0.007437 -0.014445
# 2 -0.000932 0.016526 -0.002236 0.001700 -0.000296 -0.006238
# 3 -0.000078 -0.002236 0.019958 0.021650 -0.015876 0.000602
# 4 0.009231 0.001700 0.021650 0.070991 -0.031486 -0.021404
# 5 -0.007437 -0.000296 -0.015876 -0.031486 0.047068 0.016120
# 6 -0.014445 -0.006238 0.000602 -0.021404 0.016120 0.076895
#
#
# Mechanical properties :
#
#
# Convention : Reuss Voigt Hill
#
# Bulk Modulus (GPa) = 25.31782 58.78137 42.04959
# Shear Modulus (GPa) = 19.18636 34.89290 27.03963
#
# Velocity S-wave (km/s) = 2.95043 3.97885 3.50259
# Velocity P-wave (km/s) = 4.80559 6.91217 5.95280
#
# Compressibility (1/GPa) = 0.03949787
#
# Stress axis : x y z
#
# Youngs Moduli (GPa) = 105.20106 60.50896 50.10600
#
# Poissons Ratio (x) = 0.05638 0.00390
# Poissons Ratio (y) = 0.09802 0.11206
# Poissons Ratio (z) = 0.00818 0.13532
#
# Static dielectric constant tensor:
#      x y z
#    x 1.882670 -0.038310 0.033700 
#    y -0.038310 1.846900 -0.007920 
#    z 0.033700 -0.007920 1.802930 
# 
# From -- ./inp_files/258144.got.cif
#   From: 2010.05.17/outbox.cif.g08.bks.cpg/sg2_130_cif.got.tgz:258144.got - 2010.06.03 11:33:40.
