data_PCOD9101524
_publ_section_title
;
Structure prediction by ZEFSAII (Michael W. Deem and Ramdas Pophale) SiO2 
 PCOD9101524
Probable space group: P -1
;
_chemical_formula_sum "Si O2"
_cell_formula_units_Z 16
_cell_length_a 23.641173
_cell_length_b 8.959698
_cell_length_c 10.641665
_cell_angle_alpha 41.934613
_cell_angle_beta 155.489607
_cell_angle_gamma 134.087162
_cell_volume 623.479477
_symmetry_space_group_name_H-M "P -1"
_symmetry_group_IT_number 2
_symmetry_cell_setting 'triclinic'
loop_
_space_group_symop_operation_xyz
x,y,z
-x,-y,-z
loop_
_atom_site_type_symbol
_atom_site_label
_atom_site_fract_x
_atom_site_fract_y
_atom_site_fract_z
Si Si1 0.691795 0.166693 0.295752
Si Si2 0.646167 0.810012 0.998479
Si Si3 0.345361 0.679905 0.399366
Si Si4 0.907155 0.233762 0.023784
Si Si5 0.772035 0.659159 0.817191
Si Si6 0.274408 0.214036 0.085514
Si Si7 0.033812 0.561157 0.249208
Si Si8 0.525215 0.981380 0.858573
O O1 0.826175 0.327775 0.480914
O O2 0.741348 0.914666 0.567459
O O3 0.580223 0.177938 0.174043
O O4 0.602750 0.162751 0.992004
O O5 0.675120 0.072050 0.853032
O O6 0.644643 0.843721 0.123712
O O7 0.492282 0.705182 0.740323
O O8 0.715768 0.696150 0.093443
O O9 0.229595 0.638253 0.298351
O O10 0.330269 0.506627 0.364535
O O11 0.977427 0.309028 0.988512
O O12 0.846166 0.982706 0.036496
O O13 0.001159 0.307427 0.287221
O O14 0.755165 0.637854 0.946226
O O15 0.918116 0.605533 0.089315
O O16 0.421408 0.108260 0.477970
#
# Coordination Sequence:
#
# PCOD9101524 Si02
#       8
#     2   2   2   2   2   2   2   2
#     4  10  20  30  47  76 105 129 148 199 252 289
#     4  10  16  32  54  68  90 135 167 199 229 284
#     4   9  16  29  49  74  95 118 166 204 235 275
#     4   9  16  27  50  72  93 121 168 199 228 280
#     4  10  20  29  46  79 102 119 157 209 247 274
#     4  10  17  31  50  79  92 125 165 205 241 267
#     4  10  17  30  49  71  96 132 162 196 236 286
#     4  10  17  32  51  70 101 129 161 191 238 308
#
# _framework density 25.662433
#
# number of rings (size 3 to 8) (size 9 to 14) (size 15 to 20)
#    0.000    2.250    6.250    0.375    0.000    0.500 
#    0.000    0.625    0.000    7.500    0.000    0.000 
#    0.000    0.000    0.000    0.000    0.000    0.000 
#
# Total GULP energy -89292.393021 kJ/mol
# GULP energy per Si atom -5580.774564 kJ/mol
# Density = 2.560402 g / cm^3
# Si number density = 25.662433 Si / 1000 Ang^3
#
#
#
# Elastic Constant Matrix: (Units=GPa)
#
#
# Indices 1 2 3 4 5 6 
#
# 1 175.7361 24.4655 29.7209 8.8504 5.3568 -46.4775
# 2 24.4655 94.5510 35.4111 13.2420 -15.8019 -16.3638
# 3 29.7209 35.4111 95.4079 26.0733 4.0123 0.8820
# 4 8.8504 13.2420 26.0733 37.4348 2.8652 1.6944
# 5 5.3568 -15.8019 4.0123 2.8652 17.2092 10.1671
# 6 -46.4775 -16.3638 0.8820 1.6944 10.1671 39.4101
#
#
#
# Elastic Compliance Matrix: (Units=1/GPa)
#
#
# Indices 1 2 3 4 5 6 
#
# 1 0.010878 -0.001410 -0.002428 -0.000068 -0.013415 0.015762
# 2 -0.001410 0.016403 -0.005561 -0.002919 0.016629 0.001108
# 3 -0.002428 -0.005561 0.015667 -0.007858 -0.004284 -0.004080
# 4 -0.000068 -0.002919 -0.007858 0.033728 -0.005811 -0.001068
# 5 -0.013415 0.016629 -0.004284 -0.005811 0.099793 -0.034316
# 6 0.015762 0.001108 -0.004080 -0.001068 -0.034316 0.053413
#
#
# Mechanical properties :
#
#
# Convention : Reuss Voigt Hill
#
# Bulk Modulus (GPa) = 41.40666 60.54334 50.97500
# Shear Modulus (GPa) = 19.47559 37.21732 28.34646
#
# Velocity S-wave (km/s) = 2.75783 3.81237 3.32714
# Velocity P-wave (km/s) = 5.12942 6.55914 5.88784
#
# Compressibility (1/GPa) = 0.02415070
#
# Stress axis : x y z
#
# Youngs Moduli (GPa) = 91.92655 60.96269 63.82781
#
# Poissons Ratio (x) = 0.08595 0.15499
# Poissons Ratio (y) = 0.12961 0.35494
# Poissons Ratio (z) = 0.22322 0.33901
#
# Static dielectric constant tensor:
#      x y z
#    x 2.102950 -0.009040 0.001360 
#    y -0.009040 2.044260 -0.072320 
#    z 0.001360 -0.072320 2.081500 
# 
# From -- ./inp_files/473876.got.cif
#   From: 2010.05.17/outbox.cif.g08.bks.cpg/sg2_237_cif.got.tgz:473876.got - 2010.06.03 11:33:40.
