data_PCOD9101532
_publ_section_title
;
Structure prediction by ZEFSAII (Michael W. Deem and Ramdas Pophale) SiO2 
 PCOD9101532
Probable space group: P -1
;
_chemical_formula_sum "Si O2"
_cell_formula_units_Z 14
_cell_length_a 5.173373
_cell_length_b 17.419751
_cell_length_c 8.957637
_cell_angle_alpha 128.516059
_cell_angle_beta 94.319482
_cell_angle_gamma 100.947704
_cell_volume 600.113506
_symmetry_space_group_name_H-M "P -1"
_symmetry_group_IT_number 2
_symmetry_cell_setting 'triclinic'
loop_
_space_group_symop_operation_xyz
x,y,z
-x,-y,-z
loop_
_atom_site_type_symbol
_atom_site_label
_atom_site_fract_x
_atom_site_fract_y
_atom_site_fract_z
Si Si1 0.567086 0.645789 0.058130
Si Si2 0.003132 0.454010 0.193055
Si Si3 0.270398 0.221819 0.488881
Si Si4 0.721179 0.172661 0.262742
Si Si5 0.421648 0.206794 0.021276
Si Si6 0.082507 0.990401 0.819387
Si Si7 0.360496 0.589859 0.583849
O O1 0.661414 0.692523 0.279124
O O2 0.267651 0.560642 0.936569
O O3 0.531118 0.742782 0.078214
O O4 0.799929 0.604931 0.942913
O O5 0.860027 0.412784 0.297482
O O6 0.201266 0.564207 0.389372
O O7 0.528455 0.220564 0.405210
O O8 0.030815 0.232244 0.384509
O O9 0.137193 0.101396 0.388226
O O10 0.650260 0.174207 0.087447
O O11 0.679144 0.061618 0.203477
O O12 0.410416 0.304497 0.238381
O O13 0.174539 0.102223 0.887778
O O14 0.000000 0.000000 0.000000
O O15 0.500000 0.500000 0.500000
#
# Coordination Sequence:
#
# PCOD9101532 Si02
#       7
#     2   2   2   2   2   2   2
#     4  11  23  39  64  95 123 170 199 259 319 365
#     4  10  20  39  59  89 131 158 198 257 321 355
#     4  10  23  41  62  87 134 164 201 250 318 370
#     4  10  22  41  60  89 123 168 204 252 294 378
#     4  11  21  38  68  94 121 161 218 254 307 362
#     4  10  22  40  64  91 129 164 209 253 305 368
#     4  10  20  38  59  99 124 158 203 271 307 359
#
# _framework density 23.32892
#
# number of rings (size 3 to 8) (size 9 to 14) (size 15 to 20)
#    0.857    0.857    4.286    1.286    0.000    5.143 
#    0.000    0.714    0.000    5.143    0.000    0.000 
#    0.000    0.000    0.000    0.000    0.000    0.000 
#
# Total GULP energy -77959.444717 kJ/mol
# GULP energy per Si atom -5568.531765 kJ/mol
# Density = 2.327582 g / cm^3
# Si number density = 23.328920 Si / 1000 Ang^3
#
#
#
# Elastic Constant Matrix: (Units=GPa)
#
#
# Indices 1 2 3 4 5 6 
#
# 1 156.0159 9.0953 47.1451 5.2588 -6.8653 -2.9061
# 2 9.0953 69.2496 -8.1913 25.1732 0.1788 -2.0642
# 3 47.1451 -8.1913 114.0943 18.0980 9.0449 6.4704
# 4 5.2588 25.1732 18.0980 29.3026 3.0133 -2.2124
# 5 -6.8653 0.1788 9.0449 3.0133 37.5707 7.7208
# 6 -2.9061 -2.0642 6.4704 -2.2124 7.7208 14.2347
#
#
#
# Elastic Compliance Matrix: (Units=1/GPa)
#
#
# Indices 1 2 3 4 5 6 
#
# 1 0.007887 -0.002835 -0.004350 0.003760 0.001607 0.002889
# 2 -0.002835 0.024906 0.007262 -0.025787 0.000632 -0.004619
# 3 -0.004350 0.007262 0.013930 -0.014488 -0.001453 -0.007631
# 4 0.003760 -0.025787 -0.014488 0.066229 -0.004358 0.016271
# 5 0.001607 0.000632 -0.001453 -0.004358 0.030976 -0.016399
# 6 0.002889 -0.004619 -0.007631 0.016271 -0.016399 0.085063
#
#
# Mechanical properties :
#
#
# Convention : Reuss Voigt Hill
#
# Bulk Modulus (GPa) = 21.33305 48.38425 34.85865
# Shear Modulus (GPa) = 20.45281 35.64231 28.04756
#
# Velocity S-wave (km/s) = 2.96415 3.91297 3.47113
# Velocity P-wave (km/s) = 4.56938 6.41874 5.57133
#
# Compressibility (1/GPa) = 0.04687562
#
# Stress axis : x y z
#
# Youngs Moduli (GPa) = 126.78638 40.15032 71.78908
#
# Poissons Ratio (x) = 0.11384 0.31231
# Poissons Ratio (y) = 0.35949 -0.52133
# Poissons Ratio (z) = 0.55157 -0.29157
#
# Static dielectric constant tensor:
#      x y z
#    x 1.920260 -0.023350 0.042750 
#    y -0.023350 2.082610 0.055150 
#    z 0.042750 0.055150 1.884910 
# 
# From -- ./inp_files/140360.got.cif
#   From: 2010.05.17/outbox.cif.g08.bks.cpg/sg2_71_cif.got.tgz:140360.got - 2010.06.03 11:33:40.
