data_PCOD9101170
_publ_section_title
;
Structure prediction by ZEFSAII (Michael W. Deem and Ramdas Pophale) SiO2 
 PCOD9101170
Probable space group: P -1
;
_chemical_formula_sum "Si O2"
_cell_formula_units_Z 15
_cell_length_a 9.729296
_cell_length_b 17.127942
_cell_length_c 18.547741
_cell_angle_alpha 22.555415
_cell_angle_beta 28.592290
_cell_angle_gamma 34.327818
_cell_volume 565.504036
_symmetry_space_group_name_H-M "P -1"
_symmetry_group_IT_number 2
_symmetry_cell_setting 'triclinic'
loop_
_space_group_symop_operation_xyz
x,y,z
-x,-y,-z
loop_
_atom_site_type_symbol
_atom_site_label
_atom_site_fract_x
_atom_site_fract_y
_atom_site_fract_z
Si Si1 0.533618 0.926141 0.670891
Si Si2 0.725703 0.160917 0.503162
Si Si3 0.504805 0.459720 0.882612
Si Si4 0.000000 0.500000 0.000000
Si Si5 0.904026 0.942594 0.909274
Si Si6 0.141686 0.477399 0.627961
Si Si7 0.254256 0.630028 0.302670
Si Si8 0.163432 0.887308 0.350956
O O1 0.249075 0.937761 0.744906
O O2 0.830377 0.931055 0.488611
O O3 0.492568 0.097098 0.607247
O O4 0.551802 0.711046 0.887913
O O5 0.660341 0.109708 0.659121
O O6 0.000000 0.000000 0.500000
O O7 0.855740 0.367462 0.242851
O O8 0.216757 0.598546 0.878541
O O9 0.809202 0.532978 0.705161
O O10 0.540620 0.356443 0.873385
O O11 0.771108 0.967515 0.869310
O O12 0.849016 0.737385 0.152468
O O13 0.824041 0.144671 0.821988
O O14 0.206231 0.657909 0.497055
O O15 0.335747 0.496474 0.450716
O O16 0.000000 0.500000 0.500000
#
# Coordination Sequence:
#
# PCOD9101170 Si02
#       8
#     2   2   2   1   2   2   2   2
#     4  10  21  39  58  94 123 156 198 253 295 367
#     4  10  22  39  55  86 126 154 204 237 295 363
#     4  10  21  38  60  93 119 152 204 250 296 356
#     4  12  22  38  60  88 120 166 190 244 314 350
#     4  10  21  37  64  89 120 162 198 241 318 340
#     4   9  21  38  61  91 123 156 204 248 294 363
#     4   9  20  38  59  91 122 152 204 258 286 352
#     4  10  20  38  56  92 129 155 194 254 295 364
#
# _framework density 26.525009000000001
#
# number of rings (size 3 to 8) (size 9 to 14) (size 15 to 20)
#    0.000    2.133    2.667    0.400    5.600    9.067 
#    0.000    0.000    0.000    6.400    0.000    0.000 
#    0.000    0.000    0.000    0.000    0.000    0.000 
#
# Total GULP energy -83652.887585 kJ/mol
# GULP energy per Si atom -5576.859172 kJ/mol
# Density = 2.646464 g / cm^3
# Si number density = 26.525009 Si / 1000 Ang^3
#
#
#
# Elastic Constant Matrix: (Units=GPa)
#
#
# Indices 1 2 3 4 5 6 
#
# 1 125.4078 23.2191 54.9236 3.2264 21.8379 10.5216
# 2 23.2191 71.9697 41.1429 13.5082 14.0228 6.4772
# 3 54.9236 41.1429 146.7706 7.5551 28.9261 0.2219
# 4 3.2264 13.5082 7.5551 39.4543 -1.2359 3.6589
# 5 21.8379 14.0228 28.9261 -1.2359 46.7972 9.5968
# 6 10.5216 6.4772 0.2219 3.6589 9.5968 39.2157
#
#
#
# Elastic Compliance Matrix: (Units=1/GPa)
#
#
# Indices 1 2 3 4 5 6 
#
# 1 0.010024 -0.000919 -0.003094 0.000211 -0.002067 -0.002034
# 2 -0.000919 0.018060 -0.003989 -0.005263 -0.002317 -0.001656
# 3 -0.003094 -0.003989 0.009908 -0.000634 -0.004009 0.002473
# 4 0.000211 -0.005263 -0.000634 0.027583 0.003115 -0.002520
# 5 -0.002067 -0.002317 -0.004009 0.003115 0.026796 -0.005888
# 6 -0.002034 -0.001656 0.002473 -0.002520 -0.005888 0.027981
#
#
# Mechanical properties :
#
#
# Convention : Reuss Voigt Hill
#
# Bulk Modulus (GPa) = 45.47709 64.74659 55.11184
# Shear Modulus (GPa) = 34.79820 40.08428 37.44124
#
# Velocity S-wave (km/s) = 3.62595 3.89162 3.76113
# Velocity P-wave (km/s) = 5.89171 6.68248 6.29951
#
# Compressibility (1/GPa) = 0.02198910
#
# Stress axis : x y z
#
# Youngs Moduli (GPa) = 99.75640 55.37190 100.92554
#
# Poissons Ratio (x) = 0.05090 0.31226
# Poissons Ratio (y) = 0.09169 0.40254
# Poissons Ratio (z) = 0.30864 0.22085
#
# Static dielectric constant tensor:
#      x y z
#    x 2.225070 -0.044480 0.019490 
#    y -0.044480 2.125540 -0.002510 
#    z 0.019490 -0.002510 2.090960 
# 
# From -- ./inp_files/504886.got.cif
#   From: 2010.05.17/outbox.cif.g08.bks.cpg/sg2_253_cif.got.tgz:504886.got - 2010.06.03 11:33:40.
