data_PCOD9101092
_publ_section_title
;
Structure prediction by ZEFSAII (Michael W. Deem and Ramdas Pophale) SiO2 
 PCOD9101092
Probable space group: P -1
;
_chemical_formula_sum "Si O2"
_cell_formula_units_Z 15
_cell_length_a 9.885596
_cell_length_b 9.618969
_cell_length_c 12.286918
_cell_angle_alpha 81.770968
_cell_angle_beta 111.108549
_cell_angle_gamma 44.435209
_cell_volume 602.972651
_symmetry_space_group_name_H-M "P -1"
_symmetry_group_IT_number 2
_symmetry_cell_setting 'triclinic'
loop_
_space_group_symop_operation_xyz
x,y,z
-x,-y,-z
loop_
_atom_site_type_symbol
_atom_site_label
_atom_site_fract_x
_atom_site_fract_y
_atom_site_fract_z
Si Si1 0.968495 0.880648 0.943594
Si Si2 0.349872 0.069424 0.651162
Si Si3 0.388722 0.893540 0.382532
Si Si4 0.799817 0.351748 0.186391
Si Si5 0.500000 0.500000 0.500000
Si Si6 0.314612 0.252031 0.848729
Si Si7 0.901790 0.496937 0.864741
Si Si8 0.064067 0.025770 0.626803
O O1 0.184178 0.678758 0.935676
O O2 0.709916 0.072881 0.772630
O O3 0.001436 0.736824 0.060456
O O4 0.000000 0.000000 0.000000
O O5 0.420645 0.127749 0.573524
O O6 0.327335 0.182834 0.739556
O O7 0.128831 0.131882 0.597766
O O8 0.598466 0.766965 0.749371
O O9 0.526911 0.650128 0.501814
O O10 0.105243 0.143139 0.327997
O O11 0.635011 0.620704 0.141323
O O12 0.742909 0.243872 0.231816
O O13 0.815596 0.229974 0.609801
O O14 0.038744 0.450481 0.804996
O O15 0.500000 0.000000 0.000000
O O16 0.000000 0.500000 0.000000
O O17 0.000000 0.000000 0.500000
#
# Coordination Sequence:
#
# PCOD9101092 Si02
#       8
#     2   2   2   2   1   2   2   2
#     4  10  20  37  72  99 141 193 220 271 364 424
#     4  12  25  43  73 108 134 187 240 288 361 426
#     4   9  20  44  71  98 141 179 235 289 345 414
#     4   9  21  46  64 100 145 177 233 292 347 424
#     4  10  24  50  72  94 136 186 238 300 350 416
#     4  12  22  38  72 100 141 186 224 278 346 435
#     4  12  20  44  64 105 150 179 223 285 346 431
#     4  11  28  50  71  99 139 185 245 308 356 408
#
# _framework density 24.876750000000001
#
# number of rings (size 3 to 8) (size 9 to 14) (size 15 to 20)
#    0.800    0.533    5.333    0.000    3.733    2.667 
#    2.400    2.667    0.000    0.000    0.000    0.000 
#    0.000    0.000    0.000    0.000    0.000    0.000 
#
# Total GULP energy -83519.626318 kJ/mol
# GULP energy per Si atom -5567.975088 kJ/mol
# Density = 2.482013 g / cm^3
# Si number density = 24.876750 Si / 1000 Ang^3
#
#
#
# Elastic Constant Matrix: (Units=GPa)
#
#
# Indices 1 2 3 4 5 6 
#
# 1 141.5576 35.8892 13.1067 11.8685 -6.0860 32.3128
# 2 35.8892 138.3580 30.8092 0.1509 -5.4256 29.4247
# 3 13.1067 30.8092 27.4514 -1.3279 -2.0619 2.3480
# 4 11.8685 0.1509 -1.3279 35.1180 3.5595 -9.6715
# 5 -6.0860 -5.4256 -2.0619 3.5595 29.4905 -5.2101
# 6 32.3128 29.4247 2.3480 -9.6715 -5.2101 59.9030
#
#
#
# Elastic Compliance Matrix: (Units=1/GPa)
#
#
# Indices 1 2 3 4 5 6 
#
# 1 0.009159 -0.000395 -0.003620 -0.004806 0.001212 -0.005275
# 2 -0.000395 0.011049 -0.011836 -0.001784 0.000456 -0.004998
# 3 -0.003620 -0.011836 0.051201 0.004919 0.001238 0.006661
# 4 -0.004806 -0.001784 0.004919 0.032930 -0.003486 0.008289
# 5 0.001212 0.000456 0.001238 -0.003486 0.035026 0.001557
# 6 -0.005275 -0.004998 0.006661 0.008289 0.001557 0.023207
#
#
# Mechanical properties :
#
#
# Convention : Reuss Voigt Hill
#
# Bulk Modulus (GPa) = 25.18442 51.88637 38.53539
# Shear Modulus (GPa) = 24.09549 40.07309 32.08429
#
# Velocity S-wave (km/s) = 3.11560 4.01791 3.59518
# Velocity P-wave (km/s) = 4.80503 6.51364 5.72345
#
# Compressibility (1/GPa) = 0.03970709
#
# Stress axis : x y z
#
# Youngs Moduli (GPa) = 109.18530 90.50963 19.53084
#
# Poissons Ratio (x) = 0.03576 0.07069
# Poissons Ratio (y) = 0.04314 0.23116
# Poissons Ratio (z) = 0.39521 1.07126
#
# Static dielectric constant tensor:
#      x y z
#    x 2.028960 -0.011070 -0.046840 
#    y -0.011070 1.913810 -0.026680 
#    z -0.046840 -0.026680 2.073110 
# 
# From -- ./inp_files/492814.got.cif
#   From: 2010.05.17/outbox.cif.g08.bks.cpg/sg2_247_cif.got.tgz:492814.got - 2010.06.03 11:33:40.
