data_PCOD9101872
_publ_section_title
;
Structure prediction by ZEFSAII (Michael W. Deem and Ramdas Pophale) SiO2 
 PCOD9101872
Probable space group: P -1
;
_chemical_formula_sum "Si O2"
_cell_formula_units_Z 10
_cell_length_a 9.826069
_cell_length_b 9.194508
_cell_length_c 13.559128
_cell_angle_alpha 82.307206
_cell_angle_beta 33.780191
_cell_angle_gamma 59.948266
_cell_volume 477.409518
_symmetry_space_group_name_H-M "P -1"
_symmetry_group_IT_number 2
_symmetry_cell_setting 'triclinic'
loop_
_space_group_symop_operation_xyz
x,y,z
-x,-y,-z
loop_
_atom_site_type_symbol
_atom_site_label
_atom_site_fract_x
_atom_site_fract_y
_atom_site_fract_z
Si Si1 0.389683 0.769132 0.775585
Si Si2 0.014340 0.798991 0.705411
Si Si3 0.301246 0.357245 0.609409
Si Si4 0.968720 0.674048 0.048739
Si Si5 0.536273 0.930071 0.819246
O O1 0.564203 0.740614 0.570797
O O2 0.596138 0.750928 0.743982
O O3 0.308376 0.630460 0.833243
O O4 0.000000 0.000000 0.000000
O O5 0.077774 0.600741 0.711737
O O6 0.365874 0.736237 0.518201
O O7 0.136082 0.136486 0.319592
O O8 0.735288 0.976811 0.935969
O O9 0.106777 0.315122 0.791243
O O10 0.652846 0.886188 0.162751
O O11 0.000000 0.500000 0.000000
#
# Coordination Sequence:
#
# PCOD9101872 Si02
#       5
#     2   2   2   2   2
#     4  10  21  39  57  88 120 152 186 249 287 337
#     4  10  20  38  61  85 116 160 188 236 291 351
#     4  11  20  37  65  85 112 158 200 226 293 350
#     4  11  20  37  64  89 112 156 195 239 284 350
#     4  10  21  39  60  84 123 150 190 243 293 329
#
# _framework density 20.946376999999998
#
# number of rings (size 3 to 8) (size 9 to 14) (size 15 to 20)
#    0.000    1.600    6.000    1.200    0.000    4.800 
#    0.000    1.000    0.000    0.000    0.000    0.000 
#    0.000    0.000    0.000    0.000    0.000    0.000 
#
# Total GULP energy -55840.003457 kJ/mol
# GULP energy per Si atom -5584.000346 kJ/mol
# Density = 2.089870 g / cm^3
# Si number density = 20.946377 Si / 1000 Ang^3
#
#
#
# Elastic Constant Matrix: (Units=GPa)
#
#
# Indices 1 2 3 4 5 6 
#
# 1 126.2822 27.9782 29.9288 5.4648 24.0671 13.8850
# 2 27.9782 51.4112 6.0593 -3.7426 2.6476 11.0266
# 3 29.9288 6.0593 76.1124 -3.8838 33.0461 -0.4301
# 4 5.4648 -3.7426 -3.8838 27.0640 -5.6462 8.7153
# 5 24.0671 2.6476 33.0461 -5.6462 26.4078 7.2248
# 6 13.8850 11.0266 -0.4301 8.7153 7.2248 27.2042
#
#
#
# Elastic Compliance Matrix: (Units=1/GPa)
#
#
# Indices 1 2 3 4 5 6 
#
# 1 0.011857 -0.007164 0.002200 -0.007326 -0.015309 0.003300
# 2 -0.007164 0.028348 -0.008806 0.015011 0.023091 -0.018915
# 3 0.002200 -0.008806 0.037311 -0.015869 -0.057613 0.023421
# 4 -0.007326 0.015011 -0.015869 0.058945 0.046918 -0.033941
# 5 -0.015309 0.023091 -0.057613 0.046918 0.147104 -0.056555
# 6 0.003300 -0.018915 0.023421 -0.033941 -0.056555 0.069005
#
#
# Mechanical properties :
#
#
# Convention : Reuss Voigt Hill
#
# Bulk Modulus (GPa) = 20.01017 42.41537 31.21277
# Shear Modulus (GPa) = 12.60175 28.79117 20.69646
#
# Velocity S-wave (km/s) = 2.45545 3.71147 3.14677
# Velocity P-wave (km/s) = 4.19676 6.21773 5.30438
#
# Compressibility (1/GPa) = 0.04997459
#
# Stress axis : x y z
#
# Youngs Moduli (GPa) = 84.34169 35.27566 26.80162
#
# Poissons Ratio (x) = 0.25272 -0.05896
# Poissons Ratio (y) = 0.60425 0.23602
# Poissons Ratio (z) = -0.18554 0.31065
#
# Static dielectric constant tensor:
#      x y z
#    x 1.783940 0.022360 0.001870 
#    y 0.022360 1.793030 0.023600 
#    z 0.001870 0.023600 1.778190 
# 
# From -- ./inp_files/318223.got.cif
#   From: 2010.05.17/outbox.cif.g08.bks.cpg/sg2_160_cif.got.tgz:318223.got - 2010.06.03 11:33:40.
