data_PCOD9102899
_publ_section_title
;
Structure prediction by ZEFSAII (Michael W. Deem and Ramdas Pophale) SiO2 
 PCOD9102899
Probable space group: P -1
;
_chemical_formula_sum "Si O2"
_cell_formula_units_Z 16
_cell_length_a 22.499890
_cell_length_b 5.750183
_cell_length_c 16.942221
_cell_angle_alpha 113.375583
_cell_angle_beta 21.487849
_cell_angle_gamma 112.298439
_cell_volume 736.679626
_symmetry_space_group_name_H-M "P -1"
_symmetry_group_IT_number 2
_symmetry_cell_setting 'triclinic'
loop_
_space_group_symop_operation_xyz
x,y,z
-x,-y,-z
loop_
_atom_site_type_symbol
_atom_site_label
_atom_site_fract_x
_atom_site_fract_y
_atom_site_fract_z
Si Si1 0.263476 0.998024 0.800439
Si Si2 0.815127 0.224611 0.489094
Si Si3 0.880618 0.520212 0.927542
Si Si4 0.628996 0.120858 0.173171
Si Si5 0.586453 0.279720 0.917389
Si Si6 0.485899 0.613254 0.218773
Si Si7 0.627230 0.486697 0.478222
Si Si8 0.930880 0.741351 0.201096
O O1 0.301705 0.974464 0.842521
O O2 0.373529 0.797049 0.593760
O O3 0.077803 0.899560 0.000393
O O4 0.250759 0.296836 0.845466
O O5 0.749749 0.233590 0.660008
O O6 0.683287 0.361036 0.615733
O O7 0.993934 0.343842 0.268970
O O8 0.822054 0.940991 0.408930
O O9 0.986971 0.424559 0.855736
O O10 0.776422 0.299738 0.984025
O O11 0.477776 0.298071 0.402352
O O12 0.572828 0.889677 0.156322
O O13 0.500000 0.500000 0.000000
O O14 0.592026 0.414910 0.013589
O O15 0.500000 0.000000 0.000000
O O16 0.442363 0.531680 0.349842
O O17 0.813074 0.587376 0.267893
#
# Coordination Sequence:
#
# PCOD9102899 Si02
#       8
#     2   2   2   2   2   2   2   2
#     4  10  24  40  58  92 128 180 215 272 332 402
#     4  10  20  41  66  94 127 171 215 269 340 398
#     4  10  22  42  62  89 131 177 215 267 334 400
#     4  11  24  41  61  90 134 173 219 270 334 393
#     4  10  23  40  69 105 139 168 220 280 341 400
#     4  11  23  38  65  99 126 169 218 278 329 398
#     4  12  22  38  65  91 129 168 229 274 329 390
#     4  10  20  38  64  92 126 165 220 275 331 391
#
# _framework density 21.719075
#
# number of rings (size 3 to 8) (size 9 to 14) (size 15 to 20)
#    0.000    1.500    2.500    2.250    3.500    4.500 
#    0.000    0.625    0.000   10.500    0.000    0.000 
#    0.000    0.000    0.000    0.000    0.000    0.000 
#
# Total GULP energy -89363.520812 kJ/mol
# GULP energy per Si atom -5585.220051 kJ/mol
# Density = 2.166964 g / cm^3
# Si number density = 21.719075 Si / 1000 Ang^3
#
#
#
# Elastic Constant Matrix: (Units=GPa)
#
#
# Indices 1 2 3 4 5 6 
#
# 1 31.8271 4.4467 13.9888 -1.0483 -1.7184 6.3911
# 2 4.4467 110.9809 31.5039 -10.5516 0.1924 22.8305
# 3 13.9888 31.5039 74.0100 -2.8566 3.7004 19.4776
# 4 -1.0483 -10.5516 -2.8566 44.6808 6.8979 -6.5192
# 5 -1.7184 0.1924 3.7004 6.8979 41.0610 8.8059
# 6 6.3911 22.8305 19.4776 -6.5192 8.8059 38.6760
#
#
#
# Elastic Compliance Matrix: (Units=1/GPa)
#
#
# Indices 1 2 3 4 5 6 
#
# 1 0.034942 0.001155 -0.006186 -0.000352 0.002946 -0.004071
# 2 0.001155 0.011164 -0.003670 0.001536 0.001126 -0.004930
# 3 -0.006186 -0.003670 0.017756 -0.000638 -0.000502 -0.005747
# 4 -0.000352 0.001536 -0.000638 0.024155 -0.005028 0.004689
# 5 0.002946 0.001126 -0.000502 -0.005028 0.027058 -0.007907
# 6 -0.004071 -0.004930 -0.005747 0.004689 -0.007907 0.034924
#
#
# Mechanical properties :
#
#
# Convention : Reuss Voigt Hill
#
# Bulk Modulus (GPa) = 21.52361 35.18851 28.35606
# Shear Modulus (GPa) = 27.33920 36.00879 31.67400
#
# Velocity S-wave (km/s) = 3.55176 4.07619 3.82298
# Velocity P-wave (km/s) = 5.17218 6.19602 5.70710
#
# Compressibility (1/GPa) = 0.04646060
#
# Stress axis : x y z
#
# Youngs Moduli (GPa) = 28.61875 89.57005 56.31918
#
# Poissons Ratio (x) = -0.10343 0.34837
# Poissons Ratio (y) = -0.03305 0.20670
# Poissons Ratio (z) = 0.17702 0.32873
#
# Static dielectric constant tensor:
#      x y z
#    x 1.779590 -0.029110 0.003980 
#    y -0.029110 1.853970 -0.021040 
#    z 0.003980 -0.021040 1.823090 
# 
# From -- ./inp_files/37625.got.cif
#   From: 2010.05.17/outbox.cif.g08.bks.cpg/sg2_19_cif.got.tgz:37625.got - 2010.06.03 11:33:40.
