data_PCOD9102183
_publ_section_title
;
Structure prediction by ZEFSAII (Michael W. Deem and Ramdas Pophale) SiO2 
 PCOD9102183
Probable space group: P -1
;
_chemical_formula_sum "Si O2"
_cell_formula_units_Z 15
_cell_length_a 7.741238
_cell_length_b 9.559529
_cell_length_c 13.539168
_cell_angle_alpha 63.139248
_cell_angle_beta 113.687062
_cell_angle_gamma 132.329475
_cell_volume 653.537801
_symmetry_space_group_name_H-M "P -1"
_symmetry_group_IT_number 2
_symmetry_cell_setting 'triclinic'
loop_
_space_group_symop_operation_xyz
x,y,z
-x,-y,-z
loop_
_atom_site_type_symbol
_atom_site_label
_atom_site_fract_x
_atom_site_fract_y
_atom_site_fract_z
Si Si1 0.945579 0.654372 0.424114
Si Si2 0.620340 0.330722 0.767586
Si Si3 0.427875 0.509252 0.780192
Si Si4 0.513674 0.077238 0.126578
Si Si5 0.865464 0.522588 0.096563
Si Si6 0.500000 0.500000 0.500000
Si Si7 0.081410 0.936070 0.945364
Si Si8 0.236104 0.045058 0.271278
O O1 0.797480 0.591735 0.309368
O O2 0.770863 0.627103 0.476994
O O3 0.000000 0.500000 0.500000
O O4 0.171557 0.877171 0.386571
O O5 0.553917 0.408682 0.819747
O O6 0.458187 0.094675 0.803564
O O7 0.575598 0.413878 0.634661
O O8 0.890968 0.406020 0.815924
O O9 0.326660 0.492198 0.870397
O O10 0.605037 0.737139 0.717734
O O11 0.343694 0.026481 0.011164
O O12 0.739790 0.302610 0.099579
O O13 0.377027 0.052616 0.205318
O O14 0.939682 0.701004 0.985035
O O15 0.001201 0.994355 0.814184
O O16 0.000000 0.000000 0.000000
#
# Coordination Sequence:
#
# PCOD9102183 Si02
#       8
#     2   2   2   2   2   1   2   2
#     4  11  22  40  62  85 119 154 193 248 298 347
#     4  10  21  40  59  87 121 152 200 249 293 350
#     4  10  22  37  61  91 118 155 199 240 293 352
#     4   9  19  36  61  89 121 161 197 235 295 352
#     4  10  20  38  62  87 122 159 194 242 289 346
#     4  10  22  38  62  86 112 156 198 238 300 352
#     4   9  18  34  61  91 118 157 200 235 288 353
#     4  10  21  37  62  92 119 154 200 244 291 351
#
# _framework density 22.952000000000002
#
# number of rings (size 3 to 8) (size 9 to 14) (size 15 to 20)
#    0.000    2.133    0.000    4.000    0.000    8.533 
#    0.000   10.000    0.000   45.600    0.000    0.000 
#    0.000    0.000    0.000    0.000    0.000    0.000 
#
# Total GULP energy -83630.585397 kJ/mol
# GULP energy per Si atom -5575.372360 kJ/mol
# Density = 2.289976 g / cm^3
# Si number density = 22.952000 Si / 1000 Ang^3
#
#
#
# Elastic Constant Matrix: (Units=GPa)
#
#
# Indices 1 2 3 4 5 6 
#
# 1 114.0514 34.1637 29.0844 -21.8208 -0.4388 -18.7319
# 2 34.1637 168.7785 45.9167 -48.0893 1.7227 -3.6281
# 3 29.0844 45.9167 107.9909 -46.7901 10.7551 1.0492
# 4 -21.8208 -48.0893 -46.7901 38.0130 0.1476 4.3661
# 5 -0.4388 1.7227 10.7551 0.1476 34.0438 1.3621
# 6 -18.7319 -3.6281 1.0492 4.3661 1.3621 21.0492
#
#
#
# Elastic Compliance Matrix: (Units=1/GPa)
#
#
# Indices 1 2 3 4 5 6 
#
# 1 0.011552 -0.001152 -0.002180 0.001354 0.000495 0.009878
# 2 -0.001152 0.009818 0.003318 0.016165 -0.001520 -0.002753
# 3 -0.002180 0.003318 0.023559 0.032997 -0.007425 -0.008906
# 4 0.001354 0.016165 0.032997 0.089984 -0.010990 -0.015607
# 5 0.000495 -0.001520 -0.007425 -0.010990 0.031820 0.000769
# 6 0.009878 -0.002753 -0.008906 -0.015607 0.000769 0.059455
#
#
# Mechanical properties :
#
#
# Convention : Reuss Voigt Hill
#
# Bulk Modulus (GPa) = 22.27154 67.68338 44.97746
# Shear Modulus (GPa) = 20.73106 37.39827 29.06467
#
# Velocity S-wave (km/s) = 3.00865 4.04098 3.56241
# Velocity P-wave (km/s) = 4.66839 7.16420 6.04647
#
# Compressibility (1/GPa) = 0.04490035
#
# Stress axis : x y z
#
# Youngs Moduli (GPa) = 86.56261 101.85827 42.44619
#
# Poissons Ratio (x) = 0.11737 0.09253
# Poissons Ratio (y) = 0.09974 -0.14083
# Poissons Ratio (z) = 0.18871 -0.33795
#
# Static dielectric constant tensor:
#      x y z
#    x 2.102490 0.396640 -0.130550 
#    y 0.396640 2.760260 -0.204260 
#    z -0.130550 -0.204260 1.880940 
# 
# From -- ./inp_files/490648.got.cif
#   From: 2010.05.17/outbox.cif.g08.bks.cpg/sg2_246_cif.got.tgz:490648.got - 2010.06.03 11:33:40.
