data_PCOD9102242
_publ_section_title
;
Structure prediction by ZEFSAII (Michael W. Deem and Ramdas Pophale) SiO2 
 PCOD9102242
Probable space group: P -1
;
_chemical_formula_sum "Si O2"
_cell_formula_units_Z 14
_cell_length_a 19.067564
_cell_length_b 8.073071
_cell_length_c 17.789368
_cell_angle_alpha 146.845064
_cell_angle_beta 29.785068
_cell_angle_gamma 150.460258
_cell_volume 631.839033
_symmetry_space_group_name_H-M "P -1"
_symmetry_group_IT_number 2
_symmetry_cell_setting 'triclinic'
loop_
_space_group_symop_operation_xyz
x,y,z
-x,-y,-z
loop_
_atom_site_type_symbol
_atom_site_label
_atom_site_fract_x
_atom_site_fract_y
_atom_site_fract_z
Si Si1 0.082606 0.303447 0.884315
Si Si2 0.682880 0.149067 0.823668
Si Si3 0.811994 0.681605 0.554151
Si Si4 0.588973 0.413971 0.243149
Si Si5 0.758483 0.836377 0.099265
Si Si6 0.957778 0.373498 0.405839
Si Si7 0.372271 0.710846 0.568305
O O1 0.270818 0.588299 0.840344
O O2 0.088482 0.027370 0.717034
O O3 0.000000 0.500000 0.000000
O O4 0.951849 0.062220 0.980993
O O5 0.863995 0.375322 0.703793
O O6 0.695505 0.840987 0.739417
O O7 0.536805 0.941951 0.820747
O O8 0.673778 0.451173 0.991896
O O9 0.818053 0.419224 0.510228
O O10 0.772679 0.545823 0.452826
O O11 0.000000 0.000000 0.500000
O O12 0.708408 0.724694 0.190001
O O13 0.468873 0.524306 0.436661
O O14 0.684101 0.086282 0.247453
O O15 0.000000 0.500000 0.500000
O O16 0.500000 0.000000 0.500000
#
# Coordination Sequence:
#
# PCOD9102242 Si02
#       7
#     2   2   2   2   2   2   2
#     4  11  25  41  57  85 121 159 199 238 289 352
#     4   9  20  37  61  92 117 146 197 249 293 341
#     4   9  18  34  57  85 114 147 190 236 284 343
#     4  10  20  39  62  87 116 152 194 246 295 345
#     4  10  20  38  62  89 119 150 191 243 296 348
#     4  10  21  39  58  83 123 164 195 232 290 357
#     4   9  18  34  58  87 113 144 188 238 288 338
#
# _framework density 22.157540999999998
#
# number of rings (size 3 to 8) (size 9 to 14) (size 15 to 20)
#    0.000    2.286    0.000    2.571    0.000    6.857 
#    0.000   11.429    0.000    0.000    0.000    0.000 
#    0.000    0.000    0.000    0.000    0.000    0.000 
#
# Total GULP energy -78039.412240 kJ/mol
# GULP energy per Si atom -5574.243731 kJ/mol
# Density = 2.210711 g / cm^3
# Si number density = 22.157541 Si / 1000 Ang^3
#
#
#
# Elastic Constant Matrix: (Units=GPa)
#
#
# Indices 1 2 3 4 5 6 
#
# 1 110.1048 28.4405 69.4638 9.6025 -39.7357 24.2667
# 2 28.4405 72.1511 42.9368 13.8451 -26.3169 31.9047
# 3 69.4638 42.9368 181.0709 20.4941 -25.7247 26.4628
# 4 9.6025 13.8451 20.4941 28.7834 -10.2296 -1.9597
# 5 -39.7357 -26.3169 -25.7247 -10.2296 29.7231 -18.0212
# 6 24.2667 31.9047 26.4628 -1.9597 -18.0212 33.4753
#
#
#
# Elastic Compliance Matrix: (Units=1/GPa)
#
#
# Indices 1 2 3 4 5 6 
#
# 1 0.022211 0.004333 -0.006037 0.006156 0.031576 0.001900
# 2 0.004333 0.031721 -0.002282 -0.012645 0.011820 -0.025947
# 3 -0.006037 -0.002282 0.008688 -0.006070 -0.007524 -0.004723
# 4 0.006156 -0.012645 -0.006070 0.056156 0.030598 0.032147
# 5 0.031576 0.011820 -0.007524 0.030598 0.110340 0.032985
# 6 0.001900 -0.025947 -0.004723 0.032147 0.032985 0.076597
#
#
# Mechanical properties :
#
#
# Convention : Reuss Voigt Hill
#
# Bulk Modulus (GPa) = 18.29856 71.66767 44.98311
# Shear Modulus (GPa) = 15.06473 33.22872 24.14673
#
# Velocity S-wave (km/s) = 2.61030 3.87674 3.30475
# Velocity P-wave (km/s) = 4.16668 7.24249 5.90825
#
# Compressibility (1/GPa) = 0.05464912
#
# Stress axis : x y z
#
# Youngs Moduli (GPa) = 45.02201 31.52499 115.10164
#
# Poissons Ratio (x) = -0.13659 0.69484
# Poissons Ratio (y) = -0.19508 0.26262
# Poissons Ratio (z) = 0.27179 0.07193
#
# Static dielectric constant tensor:
#      x y z
#    x 1.923520 -0.056080 0.003030 
#    y -0.056080 1.837800 0.009960 
#    z 0.003030 0.009960 1.872860 
# 
# From -- ./inp_files/559590.got.cif
#   From: 2010.05.17/outbox.cif.g08.bks.cpg/sg2_280_cif.got.tgz:559590.got - 2010.06.03 11:33:40.
