data_PCOD9102025
_publ_section_title
;
Structure prediction by ZEFSAII (Michael W. Deem and Ramdas Pophale) SiO2 
 PCOD9102025
Probable space group: P -1
;
_chemical_formula_sum "Si O2"
_cell_formula_units_Z 16
_cell_length_a 14.879507
_cell_length_b 9.134629
_cell_length_c 14.718582
_cell_angle_alpha 75.241481
_cell_angle_beta 142.370626
_cell_angle_gamma 130.540274
_cell_volume 768.765956
_symmetry_space_group_name_H-M "P -1"
_symmetry_group_IT_number 2
_symmetry_cell_setting 'triclinic'
loop_
_space_group_symop_operation_xyz
x,y,z
-x,-y,-z
loop_
_atom_site_type_symbol
_atom_site_label
_atom_site_fract_x
_atom_site_fract_y
_atom_site_fract_z
Si Si1 0.262342 0.778577 0.302379
Si Si2 0.294868 0.130812 0.885044
Si Si3 0.474214 0.481935 0.135130
Si Si4 0.850536 0.268246 0.087060
Si Si5 0.395326 0.694887 0.243976
Si Si6 0.995595 0.118340 0.898604
Si Si7 0.827605 0.709026 0.743521
Si Si8 0.242955 0.252476 0.505898
O O1 0.328542 0.749154 0.266633
O O2 0.087181 0.536943 0.257001
O O3 0.132114 0.833770 0.179494
O O4 0.500000 0.000000 0.500000
O O5 0.433058 0.307948 0.884349
O O6 0.281776 0.938596 0.914708
O O7 0.407789 0.296632 0.039492
O O8 0.030136 0.969028 0.682143
O O9 0.654049 0.595377 0.343103
O O10 0.240929 0.342495 0.019490
O O11 0.942410 0.207897 0.101264
O O12 0.702689 0.282802 0.920146
O O13 0.643144 0.824791 0.399417
O O14 0.281559 0.451962 0.230428
O O15 0.863832 0.916263 0.750011
O O16 0.302690 0.399570 0.440297
O O17 0.000000 0.000000 0.000000
#
# Coordination Sequence:
#
# PCOD9102025 Si02
#       8
#     2   2   2   2   2   2   2   2
#     4  11  24  36  59  93 135 172 204 261 332 389
#     4  10  24  45  68  95 131 171 229 280 315 388
#     4  11  23  42  71  98 126 172 229 276 325 379
#     4  10  20  42  60  88 132 175 211 268 331 381
#     4  11  22  40  60  95 141 172 205 270 337 390
#     4  12  22  38  64 101 125 169 223 261 325 399
#     4  10  20  38  61  91 138 169 218 271 316 393
#     4  11  21  39  67  95 127 169 225 267 323 389
#
# _framework density 20.812577000000001
#
# number of rings (size 3 to 8) (size 9 to 14) (size 15 to 20)
#    0.000    1.250    2.500    6.000    0.000    5.000 
#    0.000    2.500    0.000    3.000    0.000    0.000 
#    0.000    0.000    0.000    0.000    0.000    0.000 
#
# Total GULP energy -89149.999887 kJ/mol
# GULP energy per Si atom -5571.874993 kJ/mol
# Density = 2.076521 g / cm^3
# Si number density = 20.812577 Si / 1000 Ang^3
#
#
#
# Elastic Constant Matrix: (Units=GPa)
#
#
# Indices 1 2 3 4 5 6 
#
# 1 69.6445 42.7802 42.3750 -4.0978 -0.6114 -0.8668
# 2 42.7802 168.1234 78.3916 3.6685 5.7690 7.9831
# 3 42.3750 78.3916 131.9683 -6.3126 -7.3817 8.7191
# 4 -4.0978 3.6685 -6.3126 35.6522 -4.4889 3.7664
# 5 -0.6114 5.7690 -7.3817 -4.4889 37.7441 -2.9809
# 6 -0.8668 7.9831 8.7191 3.7664 -2.9809 42.4039
#
#
#
# Elastic Compliance Matrix: (Units=1/GPa)
#
#
# Indices 1 2 3 4 5 6 
#
# 1 0.018916 -0.002891 -0.004384 0.001541 0.000209 0.001710
# 2 -0.002891 0.009030 -0.004645 -0.002338 -0.002675 -0.000784
# 3 -0.004384 -0.004645 0.012168 0.002715 0.003205 -0.001733
# 4 0.001541 -0.002338 0.002715 0.029740 0.004258 -0.002429
# 5 0.000209 -0.002675 0.003205 0.004258 0.028154 0.001450
# 6 0.001710 -0.000784 -0.001733 -0.002429 0.001450 0.024439
#
#
# Mechanical properties :
#
#
# Convention : Reuss Voigt Hill
#
# Bulk Modulus (GPa) = 61.45103 77.42554 69.43828
# Shear Modulus (GPa) = 32.95716 36.90600 34.93158
#
# Velocity S-wave (km/s) = 3.98367 4.21557 4.10126
# Velocity P-wave (km/s) = 7.12387 7.80876 7.47416
#
# Compressibility (1/GPa) = 0.01627312
#
# Stress axis : x y z
#
# Youngs Moduli (GPa) = 52.86584 110.74664 82.18136
#
# Poissons Ratio (x) = 0.32018 0.36029
# Poissons Ratio (y) = 0.15284 0.38174
# Poissons Ratio (z) = 0.23177 0.51443
#
# Static dielectric constant tensor:
#      x y z
#    x 1.777170 -0.017590 -0.116000 
#    y -0.017590 1.777520 0.061770 
#    z -0.116000 0.061770 1.841200 
# 
# From -- ./inp_files/382946.got.cif
#   From: 2010.05.17/outbox.cif.g08.bks.cpg/sg2_192_cif.got.tgz:382946.got - 2010.06.03 11:33:40.
