data_PCOD9102539
_publ_section_title
;
Structure prediction by ZEFSAII (Michael W. Deem and Ramdas Pophale) SiO2 
 PCOD9102539
Probable space group: P -1
;
_chemical_formula_sum "Si O2"
_cell_formula_units_Z 16
_cell_length_a 18.181377
_cell_length_b 5.979649
_cell_length_c 8.811935
_cell_angle_alpha 123.234213
_cell_angle_beta 64.161201
_cell_angle_gamma 111.976182
_cell_volume 709.456017
_symmetry_space_group_name_H-M "P -1"
_symmetry_group_IT_number 2
_symmetry_cell_setting 'triclinic'
loop_
_space_group_symop_operation_xyz
x,y,z
-x,-y,-z
loop_
_atom_site_type_symbol
_atom_site_label
_atom_site_fract_x
_atom_site_fract_y
_atom_site_fract_z
Si Si1 0.045522 0.799593 0.491892
Si Si2 0.767058 0.209344 0.211710
Si Si3 0.447621 0.197443 0.428802
Si Si4 0.683199 0.643218 0.953336
Si Si5 0.185524 0.596014 0.095042
Si Si6 0.479321 0.266035 0.759553
Si Si7 0.340707 0.403662 0.379236
Si Si8 0.091083 0.012969 0.855081
O O1 0.119350 0.732671 0.295758
O O2 0.000000 0.500000 0.500000
O O3 0.081011 0.979077 0.671787
O O4 0.000000 0.000000 0.500000
O O5 0.714410 0.406199 0.416937
O O6 0.854196 0.204489 0.216200
O O7 0.786230 0.287205 0.049801
O O8 0.715387 0.906444 0.124972
O O9 0.500000 0.500000 0.500000
O O10 0.435004 0.142325 0.597722
O O11 0.366380 0.194652 0.401069
O O12 0.504423 0.985164 0.245724
O O13 0.735425 0.420675 0.877159
O O14 0.699149 0.706677 0.784777
O O15 0.584940 0.568575 0.046671
O O16 0.139884 0.294242 0.980331
O O17 0.569153 0.431024 0.694000
O O18 0.000000 0.000000 0.000000
#
# Coordination Sequence:
#
# PCOD9102539 Si02
#       8
#     2   2   2   2   2   2   2   2
#     4  12  27  46  79 112 147 185 240 297 353 431
#     4  11  25  42  66  97 138 182 228 288 349 423
#     4   9  18  33  58  86 119 163 218 272 343 402
#     4  11  24  41  63  97 136 174 234 288 349 418
#     4  11  26  45  70 101 141 185 228 291 357 426
#     4  10  20  38  63  89 129 175 229 286 343 419
#     4  11  23  40  64  92 130 176 232 286 350 415
#     4  11  24  46  73 102 140 181 233 284 356 425
#
# _framework density 22.552489999999999
#
# number of rings (size 3 to 8) (size 9 to 14) (size 15 to 20)
#    0.000    1.250    1.250    4.875    3.500    5.500 
#    0.000    0.000    0.000    0.000    0.000    0.000 
#    0.000    0.000    0.000    0.000    0.000    0.000 
#
# Total GULP energy -89280.928380 kJ/mol
# GULP energy per Si atom -5580.058024 kJ/mol
# Density = 2.250116 g / cm^3
# Si number density = 22.552490 Si / 1000 Ang^3
#
#
#
# Elastic Constant Matrix: (Units=GPa)
#
#
# Indices 1 2 3 4 5 6 
#
# 1 175.7516 47.6578 100.0097 -0.3130 -17.5459 -49.5106
# 2 47.6578 49.8093 19.9257 1.7355 -26.0328 -14.8184
# 3 100.0097 19.9257 181.2679 -3.8009 -20.9391 -22.9687
# 4 -0.3130 1.7355 -3.8009 26.5201 2.4911 0.0268
# 5 -17.5459 -26.0328 -20.9391 2.4911 53.7113 -3.6914
# 6 -49.5106 -14.8184 -22.9687 0.0268 -3.6914 47.7378
#
#
#
# Elastic Compliance Matrix: (Units=1/GPa)
#
#
# Indices 1 2 3 4 5 6 
#
# 1 0.013534 -0.009023 -0.005585 0.000087 -0.001554 0.008428
# 2 -0.009023 0.038248 0.003411 -0.003767 0.017474 0.005509
# 3 -0.005585 0.003411 0.008547 0.000645 0.003105 -0.000381
# 4 0.000087 -0.003767 0.000645 0.038367 -0.003398 -0.001053
# 5 -0.001554 0.017474 0.003105 -0.003398 0.028464 0.007509
# 6 0.008428 0.005509 -0.000381 -0.001053 0.007509 0.031797
#
#
# Mechanical properties :
#
#
# Convention : Reuss Voigt Hill
#
# Bulk Modulus (GPa) = 26.36031 82.44612 54.40322
# Shear Modulus (GPa) = 25.77388 41.54291 33.65840
#
# Velocity S-wave (km/s) = 3.38426 4.29657 3.86741
# Velocity P-wave (km/s) = 5.19468 7.82629 6.64212
#
# Compressibility (1/GPa) = 0.03793582
#
# Stress axis : x y z
#
# Youngs Moduli (GPa) = 73.88858 26.14516 117.00221
#
# Poissons Ratio (x) = 0.23591 0.65344
# Poissons Ratio (y) = 0.66669 -0.39914
# Poissons Ratio (z) = 0.41266 -0.08919
#
# Static dielectric constant tensor:
#      x y z
#    x 1.890360 -0.007170 0.012750 
#    y -0.007170 1.936290 0.032550 
#    z 0.012750 0.032550 1.833080 
# 
# From -- ./inp_files/324091.got.cif
#   From: 2010.05.17/outbox.cif.g08.bks.cpg/sg2_163_cif.got.tgz:324091.got - 2010.06.03 11:33:40.
