data_PCOD9102547
_publ_section_title
;
Structure prediction by ZEFSAII (Michael W. Deem and Ramdas Pophale) SiO2 
 PCOD9102547
Probable space group: P -1
;
_chemical_formula_sum "Si O2"
_cell_formula_units_Z 15
_cell_length_a 11.132424
_cell_length_b 10.029606
_cell_length_c 13.827436
_cell_angle_alpha 42.132253
_cell_angle_beta 148.861140
_cell_angle_gamma 130.037097
_cell_volume 535.416363
_symmetry_space_group_name_H-M "P -1"
_symmetry_group_IT_number 2
_symmetry_cell_setting 'triclinic'
loop_
_space_group_symop_operation_xyz
x,y,z
-x,-y,-z
loop_
_atom_site_type_symbol
_atom_site_label
_atom_site_fract_x
_atom_site_fract_y
_atom_site_fract_z
Si Si1 0.898290 0.328778 0.088594
Si Si2 0.959798 0.122923 0.616552
Si Si3 0.732148 0.999771 0.358258
Si Si4 0.002363 0.575307 0.211322
Si Si5 0.783189 0.912666 0.774605
Si Si6 0.500000 0.500000 0.000000
Si Si7 0.445068 0.291848 0.877005
Si Si8 0.461175 0.785424 0.446152
O O1 0.971645 0.107513 0.231272
O O2 0.965772 0.391883 0.210755
O O3 0.621580 0.332109 0.890934
O O4 0.000000 0.500000 0.000000
O O5 0.763222 0.161538 0.381022
O O6 0.872615 0.107991 0.672931
O O7 0.184205 0.255561 0.685025
O O8 0.607872 0.816194 0.430833
O O9 0.554003 0.093220 0.109653
O O10 0.000000 0.000000 0.500000
O O11 0.782832 0.575715 0.131686
O O12 0.267285 0.611441 0.408046
O O13 0.975766 0.768368 0.020236
O O14 0.621475 0.795630 0.648050
O O15 0.660889 0.002196 0.735170
O O16 0.465398 0.456945 0.884255
#
# Coordination Sequence:
#
# PCOD9102547 Si02
#       8
#     2   2   2   2   2   1   2   2
#     4  11  23  38  60  92 129 163 215 257 307 385
#     4  11  22  42  67  93 123 171 214 259 324 376
#     4  11  23  38  65  98 127 163 220 262 303 391
#     4  11  21  40  61  85 129 165 200 264 317 367
#     4  10  20  38  63  90 121 156 211 264 305 382
#     4  10  24  42  66  98 124 166 214 262 320 384
#     4  11  23  43  68  91 128 169 209 267 322 377
#     4  10  22  37  61  94 119 161 210 259 317 371
#
# _framework density 28.015582999999999
#
# number of rings (size 3 to 8) (size 9 to 14) (size 15 to 20)
#    0.000    1.333    2.667    3.200    0.000    0.000 
#    0.000   10.667    0.000    0.000    0.000    0.000 
#    0.000    0.000    0.000    0.000    0.000    0.000 
#
# Total GULP energy -83719.296266 kJ/mol
# GULP energy per Si atom -5581.286418 kJ/mol
# Density = 2.795182 g / cm^3
# Si number density = 28.015583 Si / 1000 Ang^3
#
#
#
# Elastic Constant Matrix: (Units=GPa)
#
#
# Indices 1 2 3 4 5 6 
#
# 1 163.9405 31.9045 10.6483 7.3207 19.0051 37.9817
# 2 31.9045 93.0979 38.9888 28.3809 0.9016 24.2633
# 3 10.6483 38.9888 83.9312 29.2216 1.3991 22.1181
# 4 7.3207 28.3809 29.2216 60.7004 19.3373 12.8519
# 5 19.0051 0.9016 1.3991 19.3373 31.7812 2.5681
# 6 37.9817 24.2633 22.1181 12.8519 2.5681 63.2915
#
#
#
# Elastic Compliance Matrix: (Units=1/GPa)
#
#
# Indices 1 2 3 4 5 6 
#
# 1 0.008218 -0.002709 0.000429 0.003019 -0.006338 -0.004399
# 2 -0.002709 0.015871 -0.004453 -0.006254 0.005320 -0.001849
# 3 0.000429 -0.004453 0.017019 -0.006534 0.003363 -0.003308
# 4 0.003019 -0.006254 -0.006534 0.028544 -0.018532 -0.002175
# 5 -0.006338 0.005320 0.003363 -0.018532 0.046032 0.002484
# 6 -0.004399 -0.001849 -0.003308 -0.002175 0.002484 0.020646
#
#
# Mechanical properties :
#
#
# Convention : Reuss Voigt Hill
#
# Bulk Modulus (GPa) = 36.17462 56.00587 46.09024
# Shear Modulus (GPa) = 31.44465 48.44980 39.94723
#
# Velocity S-wave (km/s) = 3.35386 4.16310 3.78020
# Velocity P-wave (km/s) = 5.28566 6.56833 5.96159
#
# Compressibility (1/GPa) = 0.02764369
#
# Stress axis : x y z
#
# Youngs Moduli (GPa) = 121.68111 63.00655 58.75704
#
# Poissons Ratio (x) = 0.17066 -0.02524
# Poissons Ratio (y) = 0.32959 0.26167
# Poissons Ratio (z) = -0.05226 0.28059
#
# Static dielectric constant tensor:
#      x y z
#    x 2.318670 -0.035500 0.065690 
#    y -0.035500 2.385940 -0.148690 
#    z 0.065690 -0.148690 2.307910 
# 
# From -- ./inp_files/402172.got.cif
#   From: 2010.05.17/outbox.cif.g08.bks.cpg/sg2_202_cif.got.tgz:402172.got - 2010.06.03 11:33:40.
