data_PCOD9102803
_publ_section_title
;
Structure prediction by ZEFSAII (Michael W. Deem and Ramdas Pophale) SiO2 
 PCOD9102803
Probable space group: P -1
;
_chemical_formula_sum "Si O2"
_cell_formula_units_Z 16
_cell_length_a 11.767138
_cell_length_b 22.156842
_cell_length_c 16.352106
_cell_angle_alpha 152.499638
_cell_angle_beta 152.602819
_cell_angle_gamma 27.347405
_cell_volume 797.638802
_symmetry_space_group_name_H-M "P -1"
_symmetry_group_IT_number 2
_symmetry_cell_setting 'triclinic'
loop_
_space_group_symop_operation_xyz
x,y,z
-x,-y,-z
loop_
_atom_site_type_symbol
_atom_site_label
_atom_site_fract_x
_atom_site_fract_y
_atom_site_fract_z
Si Si1 0.698003 0.814974 0.316145
Si Si2 0.722850 0.671114 0.714225
Si Si3 0.785772 0.887134 0.281095
Si Si4 0.399032 0.782009 0.479089
Si Si5 0.789045 0.087751 0.765686
Si Si6 0.310339 0.655330 0.108584
Si Si7 0.776820 0.393869 0.498499
Si Si8 0.619546 0.154134 0.142441
O O1 0.738888 0.815679 0.246878
O O2 0.392349 0.848013 0.191104
O O3 0.943124 0.672086 0.346235
O O4 0.737653 0.953914 0.539755
O O5 0.641209 0.717842 0.624663
O O6 0.786838 0.500943 0.564060
O O7 0.467087 0.777828 0.739958
O O8 0.992969 0.681892 0.931337
O O9 0.111355 0.829763 0.402835
O O10 0.636953 0.066399 0.402956
O O11 0.648335 0.842820 0.065958
O O12 0.407967 0.670890 0.280394
O O13 0.678331 0.217023 0.784653
O O14 0.124008 0.011291 0.894010
O O15 0.500000 0.500000 0.000000
O O16 0.500000 0.500000 0.500000
O O17 0.724873 0.254312 0.278879
#
# Coordination Sequence:
#
# PCOD9102803 Si02
#       8
#     2   2   2   2   2   2   2   2
#     4  10  20  38  64  88 128 166 210 271 316 373
#     4  11  23  43  64  94 135 169 215 264 325 381
#     4  11  21  39  65 102 127 157 225 270 318 379
#     4  11  24  40  67  98 130 169 210 272 319 384
#     4  10  21  39  61  89 124 173 212 259 325 374
#     4  12  25  43  65  95 133 173 216 256 326 397
#     4   9  19  38  59  87 124 169 209 259 317 373
#     4  10  21  38  66  95 125 170 215 273 317 376
#
# _framework density 20.059204999999999
#
# number of rings (size 3 to 8) (size 9 to 14) (size 15 to 20)
#    0.000    1.500    2.500    3.750    1.750    2.000 
#    4.500    1.875    0.000    0.000    0.000    0.000 
#    0.000    0.000    0.000    0.000    0.000    0.000 
#
# Total GULP energy -89296.406805 kJ/mol
# GULP energy per Si atom -5581.025425 kJ/mol
# Density = 2.001355 g / cm^3
# Si number density = 20.059205 Si / 1000 Ang^3
#
#
#
# Elastic Constant Matrix: (Units=GPa)
#
#
# Indices 1 2 3 4 5 6 
#
# 1 73.7781 37.2255 11.9784 -3.1720 -6.1033 0.6162
# 2 37.2255 110.7089 18.2406 0.9607 -12.8064 -1.4642
# 3 11.9784 18.2406 75.1272 -9.3877 -15.3503 2.2972
# 4 -3.1720 0.9607 -9.3877 25.7085 -0.6877 2.5805
# 5 -6.1033 -12.8064 -15.3503 -0.6877 24.1413 -0.8668
# 6 0.6162 -1.4642 2.2972 2.5805 -0.8668 23.4312
#
#
#
# Elastic Compliance Matrix: (Units=1/GPa)
#
#
# Indices 1 2 3 4 5 6 
#
# 1 0.016564 -0.005358 -0.000896 0.002026 0.000802 -0.000876
# 2 -0.005358 0.011546 -0.001401 -0.001633 0.003880 0.001323
# 3 -0.000896 -0.001401 0.016656 0.006490 0.009732 -0.002052
# 4 0.002026 -0.001633 0.006490 0.042235 0.004787 -0.005266
# 5 0.000802 0.003880 0.009732 0.004787 0.050030 0.000591
# 6 -0.000876 0.001323 -0.002052 -0.005266 0.000591 0.043587
#
#
# Mechanical properties :
#
#
# Convention : Reuss Voigt Hill
#
# Bulk Modulus (GPa) = 33.94965 43.83367 38.89166
# Shear Modulus (GPa) = 24.30175 27.46751 25.88463
#
# Velocity S-wave (km/s) = 3.48444 3.70445 3.59613
# Velocity P-wave (km/s) = 5.75759 6.34010 6.05585
#
# Compressibility (1/GPa) = 0.02945539
#
# Stress axis : x y z
#
# Youngs Moduli (GPa) = 60.37180 86.61197 60.03847
#
# Poissons Ratio (x) = 0.46410 0.05381
# Poissons Ratio (y) = 0.32350 0.08409
# Poissons Ratio (z) = 0.05411 0.12130
#
# Static dielectric constant tensor:
#      x y z
#    x 1.724770 -0.002740 0.026230 
#    y -0.002740 1.735030 0.012550 
#    z 0.026230 0.012550 1.708760 
# 
# From -- ./inp_files/427713.got.cif
#   From: 2010.05.17/outbox.cif.g08.bks.cpg/sg2_214_cif.got.tgz:427713.got - 2010.06.03 11:33:40.
