data_PCOD9102737
_publ_section_title
;
Structure prediction by ZEFSAII (Michael W. Deem and Ramdas Pophale) SiO2 
 PCOD9102737
Probable space group: P -1
;
_chemical_formula_sum "Si O2"
_cell_formula_units_Z 16
_cell_length_a 14.188711
_cell_length_b 12.345325
_cell_length_c 8.814289
_cell_angle_alpha 32.474087
_cell_angle_beta 127.927967
_cell_angle_gamma 124.788671
_cell_volume 648.934971
_symmetry_space_group_name_H-M "P -1"
_symmetry_group_IT_number 2
_symmetry_cell_setting 'triclinic'
loop_
_space_group_symop_operation_xyz
x,y,z
-x,-y,-z
loop_
_atom_site_type_symbol
_atom_site_label
_atom_site_fract_x
_atom_site_fract_y
_atom_site_fract_z
Si Si1 0.461434 0.168506 0.561895
Si Si2 0.952803 0.189212 0.146248
Si Si3 0.305124 0.928252 0.943985
Si Si4 0.651312 0.676324 0.303769
Si Si5 0.390017 0.583032 0.148476
Si Si6 0.098724 0.868130 0.191651
Si Si7 0.714959 0.788254 0.914248
Si Si8 0.846909 0.514548 0.135026
O O1 0.600963 0.155098 0.748733
O O2 0.431066 0.380006 0.353264
O O3 0.409694 0.177062 0.331550
O O4 0.378207 0.999957 0.779100
O O5 0.820013 0.205533 0.059972
O O6 0.921613 0.149558 0.985652
O O7 0.000000 0.000000 0.500000
O O8 0.060129 0.373875 0.026592
O O9 0.277741 0.139184 0.748926
O O10 0.513862 0.731017 0.086078
O O11 0.640327 0.482318 0.631728
O O12 0.698961 0.652390 0.210874
O O13 0.269231 0.611019 0.909657
O O14 0.089670 0.646169 0.516802
O O15 0.221997 0.998356 0.212414
O O16 0.000000 0.000000 0.000000
O O17 0.795705 0.682643 0.995815
#
# Coordination Sequence:
#
# PCOD9102737 Si02
#       8
#     2   2   2   2   2   2   2   2
#     4   9  21  40  62 101 134 182 215 287 353 404
#     4  12  24  45  72  99 142 190 232 285 342 415
#     4  10  21  39  66  96 138 178 230 275 350 407
#     4  10  20  38  64 103 132 175 223 289 335 419
#     4   9  21  42  65  96 141 173 226 282 349 410
#     4  12  27  47  69 103 139 185 235 287 343 410
#     4  11  23  42  73  99 140 175 234 286 352 406
#     4  11  26  47  72  98 143 185 227 287 353 404
#
# _framework density 24.655783
#
# number of rings (size 3 to 8) (size 9 to 14) (size 15 to 20)
#    0.000    1.500    2.500    2.625    1.750    4.500 
#    0.000    1.875    0.000    0.000    0.000    0.000 
#    0.000    0.000    0.000    0.000    0.000    0.000 
#
# Total GULP energy -89521.899660 kJ/mol
# GULP energy per Si atom -5595.118729 kJ/mol
# Density = 2.459967 g / cm^3
# Si number density = 24.655783 Si / 1000 Ang^3
#
#
#
# Elastic Constant Matrix: (Units=GPa)
#
#
# Indices 1 2 3 4 5 6 
#
# 1 65.7769 7.2114 9.0972 -2.4909 7.0810 19.2722
# 2 7.2114 82.3608 19.4016 11.1414 3.3111 16.9486
# 3 9.0972 19.4016 124.0393 11.3746 5.1551 13.5104
# 4 -2.4909 11.1414 11.3746 35.8761 6.2267 -5.9850
# 5 7.0810 3.3111 5.1551 6.2267 37.2096 3.0528
# 6 19.2722 16.9486 13.5104 -5.9850 3.0528 37.8436
#
#
#
# Elastic Compliance Matrix: (Units=1/GPa)
#
#
# Indices 1 2 3 4 5 6 
#
# 1 0.018161 0.000438 -0.000314 0.000184 -0.002737 -0.009083
# 2 0.000438 0.014562 -0.001034 -0.005421 0.000266 -0.007255
# 3 -0.000314 -0.001034 0.008855 -0.002946 -0.000338 -0.002977
# 4 0.000184 -0.005421 -0.002946 0.032948 -0.005399 0.009032
# 5 -0.002737 0.000266 -0.000338 -0.005399 0.028466 -0.001755
# 6 -0.009083 -0.007255 -0.002977 0.009032 -0.001755 0.036932
#
#
# Mechanical properties :
#
#
# Convention : Reuss Voigt Hill
#
# Bulk Modulus (GPa) = 25.15170 38.17750 31.66460
# Shear Modulus (GPa) = 32.25856 37.95031 35.10444
#
# Velocity S-wave (km/s) = 3.62105 3.92753 3.77740
# Velocity P-wave (km/s) = 5.26364 6.00709 5.64761
#
# Compressibility (1/GPa) = 0.03975874
#
# Stress axis : x y z
#
# Youngs Moduli (GPa) = 55.06248 68.67031 112.92817
#
# Poissons Ratio (x) = -0.03008 0.03550
# Poissons Ratio (y) = -0.02412 0.11673
# Poissons Ratio (z) = 0.01731 0.07098
#
# Static dielectric constant tensor:
#      x y z
#    x 1.916820 -0.010060 0.036430 
#    y -0.010060 2.013090 -0.033430 
#    z 0.036430 -0.033430 1.921420 
# 
# From -- ./inp_files/314415.got.cif
#   From: 2010.05.17/outbox.cif.g08.bks.cpg/sg2_158_cif.got.tgz:314415.got - 2010.06.03 11:33:40.
