data_PCOD9102407
_publ_section_title
;
Structure prediction by ZEFSAII (Michael W. Deem and Ramdas Pophale) SiO2 
 PCOD9102407
Probable space group: P -1
;
_chemical_formula_sum "Si O2"
_cell_formula_units_Z 15
_cell_length_a 12.011195
_cell_length_b 11.737086
_cell_length_c 12.390407
_cell_angle_alpha 49.313128
_cell_angle_beta 49.138809
_cell_angle_gamma 34.055938
_cell_volume 714.457741
_symmetry_space_group_name_H-M "P -1"
_symmetry_group_IT_number 2
_symmetry_cell_setting 'triclinic'
loop_
_space_group_symop_operation_xyz
x,y,z
-x,-y,-z
loop_
_atom_site_type_symbol
_atom_site_label
_atom_site_fract_x
_atom_site_fract_y
_atom_site_fract_z
Si Si1 0.862349 0.484388 0.528843
Si Si2 0.543641 0.474576 0.818302
Si Si3 0.897223 0.561987 0.142471
Si Si4 0.757457 0.141598 0.069970
Si Si5 0.348348 0.115886 0.731666
Si Si6 0.174935 0.177168 0.348107
Si Si7 0.651374 0.435124 0.346800
Si Si8 0.000000 0.000000 0.500000
O O1 0.714165 0.483997 0.691587
O O2 0.728306 0.686358 0.410650
O O3 0.000000 0.500000 0.500000
O O4 0.017272 0.272607 0.489790
O O5 0.353364 0.675969 0.883110
O O6 0.465401 0.489682 0.739225
O O7 0.648490 0.266537 0.948907
O O8 0.770430 0.787557 0.137724
O O9 0.737502 0.538651 0.251529
O O10 0.081806 0.385537 0.215000
O O11 0.000000 0.500000 0.000000
O O12 0.712815 0.999003 0.210047
O O13 0.000000 0.000000 0.000000
O O14 0.592458 0.957400 0.685528
O O15 0.141724 0.052447 0.376233
O O16 0.500000 0.500000 0.500000
O O17 0.843850 0.185222 0.392368
#
# Coordination Sequence:
#
# PCOD9102407 Si02
#       8
#     2   2   2   2   2   2   2   1
#     4  11  23  41  66  95 128 166 219 277 325 379
#     4  11  25  44  69  98 136 176 221 280 333 394
#     4  10  24  41  62  94 133 169 213 274 328 388
#     4  11  27  45  65  97 136 180 226 274 333 396
#     4  11  24  43  67  94 130 175 225 264 330 402
#     4  10  22  40  65  93 130 163 211 270 322 392
#     4  11  23  42  67  96 133 171 219 275 334 394
#     4  10  20  38  62  96 126 162 210 262 324 388
#
# _framework density 20.994942000000002
#
# number of rings (size 3 to 8) (size 9 to 14) (size 15 to 20)
#    0.000    1.333    0.000    5.600    3.733    9.067 
#    4.800    0.000    0.000    0.000    0.000    0.000 
#    0.000    0.000    0.000    0.000    0.000    0.000 
#
# Total GULP energy -83588.892576 kJ/mol
# GULP energy per Si atom -5572.592838 kJ/mol
# Density = 2.094716 g / cm^3
# Si number density = 20.994942 Si / 1000 Ang^3
#
#
#
# Elastic Constant Matrix: (Units=GPa)
#
#
# Indices 1 2 3 4 5 6 
#
# 1 72.0189 29.9387 1.6896 1.2996 4.2764 -30.4506
# 2 29.9387 92.6123 18.1946 10.7814 -3.3737 -19.7696
# 3 1.6896 18.1946 55.3913 15.8691 5.6140 -5.0325
# 4 1.2996 10.7814 15.8691 27.9653 0.6281 -10.7536
# 5 4.2764 -3.3737 5.6140 0.6281 40.4129 3.4571
# 6 -30.4506 -19.7696 -5.0325 -10.7536 3.4571 29.9820
#
#
#
# Elastic Compliance Matrix: (Units=1/GPa)
#
#
# Indices 1 2 3 4 5 6 
#
# 1 0.029675 -0.004459 0.000545 0.012718 -0.006575 0.032609
# 2 -0.004459 0.013946 -0.003830 -0.001830 0.001928 0.003146
# 3 0.000545 -0.003830 0.022956 -0.012341 -0.003188 -0.002178
# 4 0.012718 -0.001830 -0.012341 0.054279 -0.003149 0.029470
# 5 -0.006575 0.001928 -0.003188 -0.003149 0.026964 -0.010181
# 6 0.032609 0.003146 -0.002178 0.029470 -0.010181 0.079925
#
#
# Mechanical properties :
#
#
# Convention : Reuss Voigt Hill
#
# Bulk Modulus (GPa) = 19.57402 35.51870 27.54636
# Shear Modulus (GPa) = 19.21134 31.01868 25.11501
#
# Velocity S-wave (km/s) = 3.02825 3.84791 3.46242
# Velocity P-wave (km/s) = 4.64441 6.05775 5.39754
#
# Compressibility (1/GPa) = 0.05108812
#
# Stress axis : x y z
#
# Youngs Moduli (GPa) = 33.69864 71.70287 43.56204
#
# Poissons Ratio (x) = 0.31973 -0.02374
# Poissons Ratio (y) = 0.15026 0.16686
# Poissons Ratio (z) = -0.01837 0.27465
#
# Static dielectric constant tensor:
#      x y z
#    x 1.730410 0.019780 0.025950 
#    y 0.019780 1.749110 -0.009500 
#    z 0.025950 -0.009500 1.744680 
# 
# From -- ./inp_files/60400.got.cif
#   From: 2010.05.17/outbox.cif.g08.bks.cpg/sg2_31_cif.got.tgz:60400.got - 2010.06.03 11:33:40.
