data_PCOD9102435
_publ_section_title
;
Structure prediction by ZEFSAII (Michael W. Deem and Ramdas Pophale) SiO2 
 PCOD9102435
Probable space group: P -1
;
_chemical_formula_sum "Si O2"
_cell_formula_units_Z 16
_cell_length_a 10.856675
_cell_length_b 11.872493
_cell_length_c 6.804590
_cell_angle_alpha 62.981628
_cell_angle_beta 104.907749
_cell_angle_gamma 85.293876
_cell_volume 734.627237
_symmetry_space_group_name_H-M "P -1"
_symmetry_group_IT_number 2
_symmetry_cell_setting 'triclinic'
loop_
_space_group_symop_operation_xyz
x,y,z
-x,-y,-z
loop_
_atom_site_type_symbol
_atom_site_label
_atom_site_fract_x
_atom_site_fract_y
_atom_site_fract_z
Si Si1 0.693458 0.774333 0.901357
Si Si2 0.882773 0.103912 0.269238
Si Si3 0.230685 0.671771 0.179898
Si Si4 0.848569 0.277649 0.457116
Si Si5 0.384445 0.097118 0.625867
Si Si6 0.538913 0.193726 0.943690
Si Si7 0.151695 0.488125 0.022389
Si Si8 0.851017 0.864171 0.235071
O O1 0.622872 0.874870 0.628129
O O2 0.585097 0.737909 0.029727
O O3 0.777699 0.650753 0.922026
O O4 0.785668 0.838454 0.026098
O O5 0.806948 0.171521 0.379916
O O6 0.842989 0.016001 0.150512
O O7 0.896332 0.230175 0.051661
O O8 0.000000 0.000000 0.500000
O O9 0.225360 0.690158 0.394734
O O10 0.353011 0.723282 0.104761
O O11 0.223639 0.531455 0.208419
O O12 0.837320 0.407474 0.224211
O O13 0.001711 0.217827 0.616873
O O14 0.242551 0.165005 0.606342
O O15 0.410521 0.946178 0.818043
O O16 0.488840 0.157380 0.739347
O O17 0.000000 0.500000 0.000000
#
# Coordination Sequence:
#
# PCOD9102435 Si02
#       8
#     2   2   2   2   2   2   2   2
#     4  11  24  40  69  93 129 181 213 266 329 374
#     4   9  20  38  58  94 133 161 214 264 317 390
#     4  11  23  42  65  95 133 173 216 270 320 391
#     4  10  23  40  66  94 129 179 206 268 339 374
#     4  10  21  41  65  94 129 170 212 278 318 385
#     4  10  23  43  62  97 130 165 228 263 321 394
#     4  11  25  45  66  96 132 169 225 268 316 397
#     4  10  20  38  62  99 130 162 217 259 323 399
#
# _framework density 21.779754000000001
#
# number of rings (size 3 to 8) (size 9 to 14) (size 15 to 20)
#    0.000    1.750    1.250    1.875    0.000   11.500 
#    0.000    1.250    0.000    0.000    0.000    0.000 
#    0.000    0.000    0.000    0.000    0.000    0.000 
#
# Total GULP energy -89286.944285 kJ/mol
# GULP energy per Si atom -5580.434018 kJ/mol
# Density = 2.173018 g / cm^3
# Si number density = 21.779754 Si / 1000 Ang^3
#
#
#
# Elastic Constant Matrix: (Units=GPa)
#
#
# Indices 1 2 3 4 5 6 
#
# 1 91.8528 48.4176 8.3783 14.0070 -1.4502 3.9052
# 2 48.4176 165.2136 43.5324 32.0992 -4.9531 -1.2533
# 3 8.3783 43.5324 84.1420 26.2983 -6.3353 -3.4986
# 4 14.0070 32.0992 26.2983 32.0484 -5.3668 1.8921
# 5 -1.4502 -4.9531 -6.3353 -5.3668 19.8090 2.0706
# 6 3.9052 -1.2533 -3.4986 1.8921 2.0706 32.3426
#
#
#
# Elastic Compliance Matrix: (Units=1/GPa)
#
#
# Indices 1 2 3 4 5 6 
#
# 1 0.013237 -0.003652 0.001546 -0.003352 -0.000215 -0.001363
# 2 -0.003652 0.008809 -0.002547 -0.005252 -0.000390 0.000839
# 3 0.001546 -0.002547 0.016980 -0.011943 0.001446 0.002158
# 4 -0.003352 -0.005252 -0.011943 0.049416 0.008483 -0.004525
# 5 -0.000215 -0.000390 0.001446 0.008483 0.053522 -0.003755
# 6 -0.001363 0.000839 0.002158 -0.004525 -0.003755 0.031855
#
#
# Mechanical properties :
#
#
# Convention : Reuss Voigt Hill
#
# Bulk Modulus (GPa) = 33.64760 60.20722 46.92741
# Shear Modulus (GPa) = 25.90259 32.89866 29.40062
#
# Velocity S-wave (km/s) = 3.45236 3.89075 3.67809
# Velocity P-wave (km/s) = 5.60127 6.92009 6.29531
#
# Compressibility (1/GPa) = 0.02971980
#
# Stress axis : x y z
#
# Youngs Moduli (GPa) = 75.54734 113.51717 58.89328
#
# Poissons Ratio (x) = 0.41458 -0.09106
# Poissons Ratio (y) = 0.27591 0.15000
# Poissons Ratio (z) = -0.11681 0.28913
#
# Static dielectric constant tensor:
#      x y z
#    x 1.873660 0.011910 0.033500 
#    y 0.011910 1.805260 0.008260 
#    z 0.033500 0.008260 1.789220 
# 
# From -- ./inp_files/68647.got.cif
#   From: 2010.05.17/outbox.cif.g08.bks.cpg/sg2_35_cif.got.tgz:68647.got - 2010.06.03 11:33:40.
