data_PCOD9102179
_publ_section_title
;
Structure prediction by ZEFSAII (Michael W. Deem and Ramdas Pophale) SiO2 
 PCOD9102179
Probable space group: P -1
;
_chemical_formula_sum "Si O2"
_cell_formula_units_Z 16
_cell_length_a 14.033010
_cell_length_b 7.980918
_cell_length_c 15.155274
_cell_angle_alpha 61.560857
_cell_angle_beta 30.320724
_cell_angle_gamma 75.011510
_cell_volume 707.646352
_symmetry_space_group_name_H-M "P -1"
_symmetry_group_IT_number 2
_symmetry_cell_setting 'triclinic'
loop_
_space_group_symop_operation_xyz
x,y,z
-x,-y,-z
loop_
_atom_site_type_symbol
_atom_site_label
_atom_site_fract_x
_atom_site_fract_y
_atom_site_fract_z
Si Si1 0.988429 0.924603 0.886776
Si Si2 0.822300 0.297807 0.939225
Si Si3 0.139001 0.159332 0.545529
Si Si4 0.213978 0.570296 0.491540
Si Si5 0.825239 0.056027 0.677767
Si Si6 0.472738 0.269692 0.100628
Si Si7 0.439144 0.328503 0.666969
Si Si8 0.649784 0.058038 0.284592
O O1 0.138747 0.923600 0.844618
O O2 0.916988 0.118905 0.907393
O O3 0.788510 0.727657 0.100600
O O4 0.108794 0.978855 0.684955
O O5 0.008957 0.503539 0.730030
O O6 0.679731 0.269552 0.976107
O O7 0.690959 0.260873 0.142818
O O8 0.198934 0.374754 0.493358
O O9 0.308743 0.181400 0.331383
O O10 0.924985 0.111475 0.679584
O O11 0.211300 0.753939 0.386235
O O12 0.402586 0.621946 0.392826
O O13 0.620217 0.867201 0.875737
O O14 0.000000 0.000000 0.500000
O O15 0.500000 0.500000 0.000000
O O16 0.500000 0.500000 0.500000
O O17 0.432133 0.125260 0.672681
O O18 0.500000 0.000000 0.500000
#
# Coordination Sequence:
#
# PCOD9102179 Si02
#       8
#     2   2   2   2   2   2   2   2
#     4  10  21  39  62  89 121 161 203 249 303 363
#     4  10  20  38  62  87 121 163 199 248 307 360
#     4  10  22  40  61  89 124 161 205 256 302 363
#     4  11  22  40  63  91 122 162 207 254 305 363
#     4  10  21  38  60  88 122 160 201 250 305 361
#     4  11  23  41  63  91 125 163 204 255 310 363
#     4  11  22  40  63  89 121 160 203 253 306 363
#     4  11  22  40  63  90 122 160 202 253 307 366
#
# _framework density 22.610164000000001
#
# number of rings (size 3 to 8) (size 9 to 14) (size 15 to 20)
#    0.000    1.500    0.000    7.875    0.000    3.000 
#    0.000   10.000    0.000    0.000    0.000    0.000 
#    0.000    0.000    0.000    0.000    0.000    0.000 
#
# Total GULP energy -89442.474838 kJ/mol
# GULP energy per Si atom -5590.154677 kJ/mol
# Density = 2.255870 g / cm^3
# Si number density = 22.610164 Si / 1000 Ang^3
#
#
#
# Elastic Constant Matrix: (Units=GPa)
#
#
# Indices 1 2 3 4 5 6 
#
# 1 181.2235 30.4140 28.7447 -14.3075 -50.5031 7.3265
# 2 30.4140 33.3330 15.5804 -10.2400 -14.7199 11.4480
# 3 28.7447 15.5804 103.1210 -11.2586 -14.7420 11.5947
# 4 -14.3075 -10.2400 -11.2586 36.2971 5.9598 0.5838
# 5 -50.5031 -14.7199 -14.7420 5.9598 51.4891 -1.6820
# 6 7.3265 11.4480 11.5947 0.5838 -1.6820 36.3600
#
#
#
# Elastic Compliance Matrix: (Units=1/GPa)
#
#
# Indices 1 2 3 4 5 6 
#
# 1 0.008203 -0.004058 -0.000656 0.000798 0.006610 0.000127
# 2 -0.004058 0.044902 -0.002262 0.009465 0.006707 -0.012440
# 3 -0.000656 -0.002262 0.010984 0.002306 0.001502 -0.002626
# 4 0.000798 0.009465 0.002306 0.031257 0.000389 -0.004360
# 5 0.006610 0.006707 0.001502 0.000389 0.028122 -0.002628
# 6 0.000127 -0.012440 -0.002626 -0.004360 -0.002628 0.032180
#
#
# Mechanical properties :
#
#
# Convention : Reuss Voigt Hill
#
# Bulk Modulus (GPa) = 19.94494 51.90620 35.92557
# Shear Modulus (GPa) = 26.83690 41.02512 33.93101
#
# Velocity S-wave (km/s) = 3.44894 4.26426 3.87809
# Velocity P-wave (km/s) = 4.96997 6.87402 5.99803
#
# Compressibility (1/GPa) = 0.05013803
#
# Stress axis : x y z
#
# Youngs Moduli (GPa) = 121.90762 22.27061 91.04461
#
# Poissons Ratio (x) = 0.09036 0.05970
# Poissons Ratio (y) = 0.49465 0.20596
# Poissons Ratio (z) = 0.07993 0.05038
#
# Static dielectric constant tensor:
#      x y z
#    x 1.821680 0.035220 0.036130 
#    y 0.035220 1.877450 0.049060 
#    z 0.036130 0.049060 1.951760 
# 
# From -- ./inp_files/514072.got.cif
#   From: 2010.05.17/outbox.cif.g08.bks.cpg/sg2_258_cif.got.tgz:514072.got - 2010.06.03 11:33:40.
