data_PCOD9102945
_publ_section_title
;
Structure prediction by ZEFSAII (Michael W. Deem and Ramdas Pophale) SiO2 
 PCOD9102945
Probable space group: P -1
;
_chemical_formula_sum "Si O2"
_cell_formula_units_Z 16
_cell_length_a 5.517150
_cell_length_b 29.065669
_cell_length_c 9.968399
_cell_angle_alpha 39.705485
_cell_angle_beta 42.653898
_cell_angle_gamma 63.858614
_cell_volume 662.346880
_symmetry_space_group_name_H-M "P -1"
_symmetry_group_IT_number 2
_symmetry_cell_setting 'triclinic'
loop_
_space_group_symop_operation_xyz
x,y,z
-x,-y,-z
loop_
_atom_site_type_symbol
_atom_site_label
_atom_site_fract_x
_atom_site_fract_y
_atom_site_fract_z
Si Si1 0.214237 0.068422 0.355974
Si Si2 0.380059 0.171801 0.839984
Si Si3 0.491561 0.119313 0.392269
Si Si4 0.502053 0.077928 0.753521
Si Si5 0.539701 0.283359 0.958023
Si Si6 0.405335 0.314962 0.632057
Si Si7 0.562176 0.522921 0.769719
Si Si8 0.447174 0.564711 0.277376
O O1 0.359731 0.057251 0.467704
O O2 0.901133 0.106281 0.452138
O O3 0.504421 0.126497 0.013239
O O4 0.000000 0.000000 0.500000
O O5 0.442626 0.135774 0.756254
O O6 0.541480 0.260437 0.597905
O O7 0.931778 0.149816 0.098925
O O8 0.287634 0.077694 0.702458
O O9 0.373520 0.196687 0.262795
O O10 0.500000 0.000000 0.000000
O O11 0.472638 0.288709 0.813660
O O12 0.389105 0.349444 0.934090
O O13 0.972723 0.302196 0.789957
O O14 0.580755 0.404516 0.357649
O O15 0.416951 0.454437 0.879544
O O16 0.001609 0.550294 0.494748
O O17 0.500000 0.500000 0.000000
O O18 0.500000 0.500000 0.500000
#
# Coordination Sequence:
#
# PCOD9102945 Si02
#       8
#     2   2   2   2   2   2   2   2
#     4  11  22  42  63  91 121 164 207 264 322 388
#     4  10  22  42  64  87 130 165 216 263 330 380
#     4  10  24  41  66  89 125 172 213 266 327 391
#     4  11  24  42  61  97 125 157 213 270 323 395
#     4  10  20  40  68  92 130 176 224 266 328 393
#     4  10  20  40  66  93 130 179 216 272 328 389
#     4  10  22  38  62  97 134 171 224 269 327 389
#     4  10  20  38  64  93 131 177 216 272 328 382
#
# _framework density 24.156525999999999
#
# number of rings (size 3 to 8) (size 9 to 14) (size 15 to 20)
#    0.000    1.750    3.750    0.000    0.000    5.000 
#    0.000    2.500    0.000    0.000    0.000    0.000 
#    0.000    0.000    0.000    0.000    0.000    0.000 
#
# Total GULP energy -89120.380555 kJ/mol
# GULP energy per Si atom -5570.023785 kJ/mol
# Density = 2.410154 g / cm^3
# Si number density = 24.156526 Si / 1000 Ang^3
#
#
#
# Elastic Constant Matrix: (Units=GPa)
#
#
# Indices 1 2 3 4 5 6 
#
# 1 58.9871 52.2678 40.0299 9.1081 19.6680 13.0081
# 2 52.2678 264.3612 74.7222 0.3832 28.7910 36.7663
# 3 40.0299 74.7222 87.0856 12.1396 27.3842 5.2964
# 4 9.1081 0.3832 12.1396 34.3461 4.5070 15.5471
# 5 19.6680 28.7910 27.3842 4.5070 48.6183 11.1326
# 6 13.0081 36.7663 5.2964 15.5471 11.1326 33.0724
#
#
#
# Elastic Compliance Matrix: (Units=1/GPa)
#
#
# Indices 1 2 3 4 5 6 
#
# 1 0.027504 -0.001360 -0.010036 -0.000398 -0.003155 -0.006450
# 2 -0.001360 0.007025 -0.006234 0.006808 0.001561 -0.010002
# 3 -0.010036 -0.006234 0.024903 -0.011907 -0.008701 0.015416
# 4 -0.000398 0.006808 -0.011907 0.045674 0.005178 -0.028720
# 5 -0.003155 0.001561 -0.008701 0.005178 0.027839 -0.010906
# 6 -0.006450 -0.010002 0.015416 -0.028720 -0.010906 0.058596
#
#
# Mechanical properties :
#
#
# Convention : Reuss Voigt Hill
#
# Bulk Modulus (GPa) = 41.36894 82.71931 62.04412
# Shear Modulus (GPa) = 21.28941 39.43495 30.36218
#
# Velocity S-wave (km/s) = 2.97191 4.04477 3.54912
# Velocity P-wave (km/s) = 5.37949 7.49206 6.52188
#
# Compressibility (1/GPa) = 0.02417273
#
# Stress axis : x y z
#
# Youngs Moduli (GPa) = 36.35802 142.35198 40.15512
#
# Poissons Ratio (x) = 0.19361 0.40299
# Poissons Ratio (y) = 0.04945 0.25032
# Poissons Ratio (z) = 0.36489 0.88740
#
# Static dielectric constant tensor:
#      x y z
#    x 3.163880 -0.025950 0.240350 
#    y -0.025950 1.950660 -0.026180 
#    z 0.240350 -0.026180 1.911150 
# 
# From -- ./inp_files/143099.got.cif
#   From: 2010.05.17/outbox.cif.g08.bks.cpg/sg2_72_cif.got.tgz:143099.got - 2010.06.03 11:33:40.
