data_PCOD9102254
_publ_section_title
;
Structure prediction by ZEFSAII (Michael W. Deem and Ramdas Pophale) SiO2 
 PCOD9102254
Probable space group: P -1
;
_chemical_formula_sum "Si O2"
_cell_formula_units_Z 15
_cell_length_a 22.776112
_cell_length_b 9.932320
_cell_length_c 17.698615
_cell_angle_alpha 141.540262
_cell_angle_beta 164.705533
_cell_angle_gamma 36.363221
_cell_volume 625.666041
_symmetry_space_group_name_H-M "P -1"
_symmetry_group_IT_number 2
_symmetry_cell_setting 'triclinic'
loop_
_space_group_symop_operation_xyz
x,y,z
-x,-y,-z
loop_
_atom_site_type_symbol
_atom_site_label
_atom_site_fract_x
_atom_site_fract_y
_atom_site_fract_z
Si Si1 0.603417 0.360048 0.995394
Si Si2 0.887715 0.851588 0.153598
Si Si3 0.471503 0.716808 0.613449
Si Si4 0.286549 0.134390 0.223600
Si Si5 0.000000 0.500000 0.500000
Si Si6 0.340129 0.570366 0.541971
Si Si7 0.270269 0.107755 0.415335
Si Si8 0.868963 0.286739 0.095935
O O1 0.734783 0.498736 0.171772
O O2 0.800335 0.125171 0.161649
O O3 0.500000 0.500000 0.000000
O O4 0.403980 0.293960 0.674248
O O5 0.164204 0.743400 0.456055
O O6 0.721841 0.756695 0.959011
O O7 0.818616 0.787781 0.955658
O O8 0.500000 0.500000 0.500000
O O9 0.333931 0.690593 0.505790
O O10 0.336877 0.935180 0.493103
O O11 0.244140 0.353186 0.319178
O O12 0.569569 0.035484 0.516809
O O13 0.177178 0.939470 0.026613
O O14 0.022726 0.378707 0.387151
O O15 0.614803 0.469284 0.852545
O O16 0.997479 0.224968 0.145626
#
# Coordination Sequence:
#
# PCOD9102254 Si02
#       8
#     2   2   2   2   1   2   2   2
#     4  10  20  39  68  89 109 157 221 259 297 369
#     4  10  22  38  65  93 124 164 206 252 312 379
#     4  10  20  38  62  89 123 171 200 243 311 377
#     4  10  21  40  61  94 128 169 207 246 311 380
#     4  12  22  42  68  86 116 170 214 262 310 362
#     4  12  24  38  60  99 136 158 205 258 313 371
#     4  10  21  38  64  91 120 163 216 244 307 382
#     4  12  25  38  64  93 125 169 212 263 308 362
#
# _framework density 23.974450999999998
#
# number of rings (size 3 to 8) (size 9 to 14) (size 15 to 20)
#    0.000    1.600    6.667    1.600    1.867    1.600 
#    0.000    0.667    0.000    2.400    0.000    0.000 
#    0.000    0.000    0.000    0.000    0.000    0.000 
#
# Total GULP energy -83554.471023 kJ/mol
# GULP energy per Si atom -5570.298068 kJ/mol
# Density = 2.391988 g / cm^3
# Si number density = 23.974451 Si / 1000 Ang^3
#
#
#
# Elastic Constant Matrix: (Units=GPa)
#
#
# Indices 1 2 3 4 5 6 
#
# 1 46.9754 14.5865 8.1816 -2.0057 16.5871 -14.2008
# 2 14.5865 22.1309 20.3696 -45.5989 -18.5277 -18.8748
# 3 8.1816 20.3696 98.7599 -20.8449 21.8954 -5.4707
# 4 -2.0057 -45.5989 -20.8449 26.0295 -22.2239 9.5799
# 5 16.5871 -18.5277 21.8954 -22.2239 40.1861 -5.4049
# 6 -14.2008 -18.8748 -5.4707 9.5799 -5.4049 43.7029
#
#
#
# Elastic Compliance Matrix: (Units=1/GPa)
#
#
# Indices 1 2 3 4 5 6 
#
# 1 0.022903 0.005739 -0.000853 0.006944 -0.001411 0.008117
# 2 0.005739 -0.003224 -0.000516 -0.017714 -0.013010 0.002682
# 3 -0.000853 -0.000516 0.012327 0.006556 -0.003081 -0.000775
# 4 0.006944 -0.017714 0.006556 0.004794 -0.012925 -0.007223
# 5 -0.001411 -0.013010 -0.003081 -0.012925 0.013739 -0.001930
# 6 0.008117 0.002682 -0.000775 -0.007223 -0.001930 0.027925
#
#
# Mechanical properties :
#
#
# Convention : Reuss Voigt Hill
#
# Bulk Modulus (GPa) = 24.54327 28.23796 26.39062
# Shear Modulus (GPa) = 60.01965 30.29893 45.15929
#
# Velocity S-wave (km/s) = 5.00891 3.55885 4.34480
# Velocity P-wave (km/s) = 6.61149 5.35642 6.01676
#
# Compressibility (1/GPa) = 0.04074437
#
# Stress axis : x y z
#
# Youngs Moduli (GPa) = 43.66298 -310.15961 81.12566
#
# Poissons Ratio (x) = 1.78007 0.06921
# Poissons Ratio (y) = -0.25059 0.04190
# Poissons Ratio (z) = 0.03725 -0.16019
#
# Static dielectric constant tensor:
#      x y z
#    x 2.075960 0.011900 -0.022490 
#    y 0.011900 1.956230 -0.039380 
#    z -0.022490 -0.039380 1.951070 
# 
# From -- ./inp_files/474018.got.cif
#   From: 2010.05.17/outbox.cif.g08.bks.cpg/sg2_238_cif.got.tgz:474018.got - 2010.06.03 11:33:40.
