data_PCOD9102758
_publ_section_title
;
Structure prediction by ZEFSAII (Michael W. Deem and Ramdas Pophale) SiO2 
 PCOD9102758
Probable space group: P -1
;
_chemical_formula_sum "Si O2"
_cell_formula_units_Z 14
_cell_length_a 16.405008
_cell_length_b 8.876615
_cell_length_c 11.947820
_cell_angle_alpha 51.924899
_cell_angle_beta 127.987162
_cell_angle_gamma 149.023948
_cell_volume 688.569363
_symmetry_space_group_name_H-M "P -1"
_symmetry_group_IT_number 2
_symmetry_cell_setting 'triclinic'
loop_
_space_group_symop_operation_xyz
x,y,z
-x,-y,-z
loop_
_atom_site_type_symbol
_atom_site_label
_atom_site_fract_x
_atom_site_fract_y
_atom_site_fract_z
Si Si1 0.130009 0.077597 0.825845
Si Si2 0.563232 0.498226 0.241773
Si Si3 0.265541 0.618460 0.583639
Si Si4 0.856570 0.170201 0.580327
Si Si5 0.192288 0.975432 0.142881
Si Si6 0.348931 0.385680 0.483011
Si Si7 0.827595 0.497489 0.694056
O O1 0.303734 0.239945 0.854735
O O2 0.162224 0.349162 0.709460
O O3 0.104699 0.982819 0.975215
O O4 0.989195 0.797682 0.755747
O O5 0.573122 0.279536 0.338650
O O6 0.380784 0.305098 0.162455
O O7 0.632951 0.634813 0.361327
O O8 0.285218 0.868702 0.509987
O O9 0.170374 0.467422 0.454601
O O10 0.000000 0.500000 0.500000
O O11 0.880118 0.130666 0.744659
O O12 0.802738 0.932912 0.557914
O O13 0.190270 0.755548 0.193889
O O14 0.500000 0.500000 0.500000
O O15 0.315945 0.565022 0.358326
#
# Coordination Sequence:
#
# PCOD9102758 Si02
#       7
#     2   2   2   2   2   2   2
#     4  10  20  38  64  85 114 150 198 238 284 337
#     4   9  21  37  61  82 115 150 196 234 285 336
#     4   8  20  35  63  80 113 147 202 227 286 329
#     4  11  23  37  59  87 118 150 194 239 290 339
#     4  11  22  38  61  86 118 153 192 235 291 344
#     4  11  22  37  61  86 118 149 196 240 286 336
#     4  10  21  36  60  88 113 151 199 238 277 339
#
# _framework density 20.33201
#
# number of rings (size 3 to 8) (size 9 to 14) (size 15 to 20)
#    0.857    1.143    1.429    2.143    6.000    1.714 
#    0.000    2.857    0.000    1.714    0.000    0.000 
#    0.000    0.000    0.000    0.000    0.000    0.000 
#
# Total GULP energy -78036.672612 kJ/mol
# GULP energy per Si atom -5574.048044 kJ/mol
# Density = 2.028573 g / cm^3
# Si number density = 20.332010 Si / 1000 Ang^3
#
#
#
# Elastic Constant Matrix: (Units=GPa)
#
#
# Indices 1 2 3 4 5 6 
#
# 1 61.8158 13.1985 12.5215 -3.6466 -7.2883 -6.2781
# 2 13.1985 63.4374 17.9413 6.2863 -5.4586 -10.5318
# 3 12.5215 17.9413 102.2855 -5.4350 -8.6438 -11.0148
# 4 -3.6466 6.2863 -5.4350 20.7643 0.9145 0.1379
# 5 -7.2883 -5.4586 -8.6438 0.9145 23.0452 -3.5085
# 6 -6.2781 -10.5318 -11.0148 0.1379 -3.5085 40.5552
#
#
#
# Elastic Compliance Matrix: (Units=1/GPa)
#
#
# Indices 1 2 3 4 5 6 
#
# 1 0.018012 -0.003101 -0.000825 0.003659 0.004837 0.002165
# 2 -0.003101 0.018799 -0.002574 -0.007086 0.003400 0.004021
# 3 -0.000825 -0.002574 0.011076 0.003361 0.003532 0.002506
# 4 0.003659 -0.007086 0.003361 0.051894 -0.001420 -0.000660
# 5 0.004837 0.003400 0.003532 -0.001420 0.048138 0.006760
# 6 0.002165 0.004021 0.002506 -0.000660 0.006760 0.027305
#
#
# Mechanical properties :
#
#
# Convention : Reuss Voigt Hill
#
# Bulk Modulus (GPa) = 28.66355 34.98459 31.82407
# Shear Modulus (GPa) = 25.01826 29.13145 27.07486
#
# Velocity S-wave (km/s) = 3.51163 3.78932 3.65312
# Velocity P-wave (km/s) = 5.52906 6.03236 5.78618
#
# Compressibility (1/GPa) = 0.03488751
#
# Stress axis : x y z
#
# Youngs Moduli (GPa) = 55.51748 53.19414 90.28536
#
# Poissons Ratio (x) = 0.16497 0.07446
# Poissons Ratio (y) = 0.17217 0.23239
# Poissons Ratio (z) = 0.04579 0.13692
#
# Static dielectric constant tensor:
#      x y z
#    x 1.820420 0.029450 0.027490 
#    y 0.029450 1.728210 0.005880 
#    z 0.027490 0.005880 1.720190 
# 
# From -- ./inp_files/461025.got.cif
#   From: 2010.05.17/outbox.cif.g08.bks.cpg/sg2_231_cif.got.tgz:461025.got - 2010.06.03 11:33:40.
