data_PCOD9102772
_publ_section_title
;
Structure prediction by ZEFSAII (Michael W. Deem and Ramdas Pophale) SiO2 
 PCOD9102772
Probable space group: P -1
;
_chemical_formula_sum "Si O2"
_cell_formula_units_Z 16
_cell_length_a 7.101176
_cell_length_b 12.441081
_cell_length_c 12.725237
_cell_angle_alpha 125.497851
_cell_angle_beta 132.543363
_cell_angle_gamma 51.226828
_cell_volume 621.095602
_symmetry_space_group_name_H-M "P -1"
_symmetry_group_IT_number 2
_symmetry_cell_setting 'triclinic'
loop_
_space_group_symop_operation_xyz
x,y,z
-x,-y,-z
loop_
_atom_site_type_symbol
_atom_site_label
_atom_site_fract_x
_atom_site_fract_y
_atom_site_fract_z
Si Si1 0.790965 0.983898 0.827178
Si Si2 0.573440 0.877549 0.050279
Si Si3 0.681865 0.099244 0.630668
Si Si4 0.198787 0.647388 0.150964
Si Si5 0.618372 0.245305 0.256656
Si Si6 0.170349 0.511145 0.470936
Si Si7 0.041108 0.475141 0.173986
Si Si8 0.554370 0.189580 0.411606
O O1 0.505595 0.083015 0.836117
O O2 0.847131 0.031696 0.761240
O O3 0.726756 0.842307 0.708837
O O4 0.000000 0.000000 0.000000
O O5 0.895724 0.778089 0.111986
O O6 0.378177 0.797834 0.886852
O O7 0.500000 0.000000 0.000000
O O8 0.739548 0.112297 0.536707
O O9 0.591954 0.270840 0.720982
O O10 0.500000 0.000000 0.500000
O O11 0.174250 0.555274 0.189467
O O12 0.202551 0.550637 0.995609
O O13 0.748805 0.357756 0.394421
O O14 0.286324 0.318898 0.191175
O O15 0.708659 0.138928 0.329556
O O16 0.008392 0.536953 0.313398
O O17 0.441622 0.362241 0.477175
O O18 0.000000 0.500000 0.500000
#
# Coordination Sequence:
#
# PCOD9102772 Si02
#       8
#     2   2   2   2   2   2   2   2
#     4  11  24  39  64  88 123 167 200 253 312 365
#     4  11  22  38  62  93 119 160 214 251 298 367
#     4  10  22  38  59  89 124 165 199 246 315 364
#     4  10  20  39  65  88 123 159 210 260 296 375
#     4  10  20  38  64  86 123 160 206 250 301 375
#     4  11  23  35  59  91 120 158 203 257 306 359
#     4   9  20  38  64  90 114 166 205 248 315 356
#     4  10  21  42  60  84 125 164 203 244 309 371
#
# _framework density 25.760930999999999
#
# number of rings (size 3 to 8) (size 9 to 14) (size 15 to 20)
#    0.000    1.750    1.250    3.750    5.250    1.000 
#    0.000    2.500    0.000    6.000    0.000    0.000 
#    0.000    0.000    0.000    0.000    0.000    0.000 
#
# Total GULP energy -89167.813807 kJ/mol
# GULP energy per Si atom -5572.988363 kJ/mol
# Density = 2.570230 g / cm^3
# Si number density = 25.760931 Si / 1000 Ang^3
#
#
#
# Elastic Constant Matrix: (Units=GPa)
#
#
# Indices 1 2 3 4 5 6 
#
# 1 75.6976 19.3688 41.4016 -7.6134 -19.7355 14.3885
# 2 19.3688 90.6020 29.5693 -22.8174 -2.0777 25.4068
# 3 41.4016 29.5693 199.5086 -1.7659 -6.5536 28.9137
# 4 -7.6134 -22.8174 -1.7659 50.4916 19.3623 0.6900
# 5 -19.7355 -2.0777 -6.5536 19.3623 38.5772 0.8847
# 6 14.3885 25.4068 28.9137 0.6900 0.8847 43.8967
#
#
#
# Elastic Compliance Matrix: (Units=1/GPa)
#
#
# Indices 1 2 3 4 5 6 
#
# 1 0.018248 -0.002557 -0.002681 -0.002274 0.009950 -0.002900
# 2 -0.002557 0.016235 -0.000784 0.008892 -0.004845 -0.008084
# 3 -0.002681 -0.000784 0.006062 -0.000479 -0.000083 -0.002651
# 4 -0.002274 0.008892 -0.000479 0.029446 -0.015448 -0.004237
# 5 0.009950 -0.004845 -0.000083 -0.015448 0.038512 -0.000936
# 6 -0.002900 -0.008084 -0.002651 -0.004237 -0.000936 0.030242
#
#
# Mechanical properties :
#
#
# Convention : Reuss Voigt Hill
#
# Bulk Modulus (GPa) = 35.08752 60.72084 47.90418
# Shear Modulus (GPa) = 31.19360 44.95768 38.07564
#
# Velocity S-wave (km/s) = 3.48356 4.18208 3.84870
# Velocity P-wave (km/s) = 5.46171 6.85141 6.19564
#
# Compressibility (1/GPa) = 0.02850016
#
# Stress axis : x y z
#
# Youngs Moduli (GPa) = 54.80181 61.59461 164.95886
#
# Poissons Ratio (x) = 0.15751 0.44220
# Poissons Ratio (y) = 0.14014 0.12940
# Poissons Ratio (z) = 0.14691 0.04832
#
# Static dielectric constant tensor:
#      x y z
#    x 2.190270 -0.010220 0.020540 
#    y -0.010220 2.165950 0.030110 
#    z 0.020540 0.030110 2.168220 
# 
# From -- ./inp_files/260230.got.cif
#   From: 2010.05.17/outbox.cif.g08.bks.cpg/sg2_131_cif.got.tgz:260230.got - 2010.06.03 11:33:40.
