data_PCOD9102033
_publ_section_title
;
Structure prediction by ZEFSAII (Michael W. Deem and Ramdas Pophale) SiO2 
 PCOD9102033
Probable space group: P -1
;
_chemical_formula_sum "Si O2"
_cell_formula_units_Z 16
_cell_length_a 7.743352
_cell_length_b 10.940630
_cell_length_c 9.785879
_cell_angle_alpha 66.457241
_cell_angle_beta 76.419026
_cell_angle_gamma 70.507994
_cell_volume 711.504214
_symmetry_space_group_name_H-M "P -1"
_symmetry_group_IT_number 2
_symmetry_cell_setting 'triclinic'
loop_
_space_group_symop_operation_xyz
x,y,z
-x,-y,-z
loop_
_atom_site_type_symbol
_atom_site_label
_atom_site_fract_x
_atom_site_fract_y
_atom_site_fract_z
Si Si1 0.634760 0.357667 0.906839
Si Si2 0.530150 0.672612 0.764482
Si Si3 0.701526 0.327780 0.467077
Si Si4 0.634035 0.624678 0.276906
Si Si5 0.675851 0.906719 0.209005
Si Si6 0.356850 0.051195 0.380984
Si Si7 0.029508 0.077455 0.612354
Si Si8 0.831001 0.062793 0.904533
O O1 0.656200 0.512792 0.813500
O O2 0.437318 0.371716 0.865491
O O3 0.773276 0.228751 0.862965
O O4 0.610146 0.320122 0.085480
O O5 0.407857 0.701272 0.635397
O O6 0.641399 0.788380 0.709871
O O7 0.747298 0.472541 0.364387
O O8 0.549754 0.348175 0.606243
O O9 0.887464 0.218253 0.525289
O O10 0.723576 0.747719 0.229461
O O11 0.817599 0.913208 0.302828
O O12 0.467572 0.958346 0.280380
O O13 0.682445 0.001969 0.034957
O O14 0.165334 0.027326 0.480309
O O15 0.500000 0.000000 0.500000
O O16 0.900770 0.012010 0.763434
O O17 0.000000 0.000000 0.000000
#
# Coordination Sequence:
#
# PCOD9102033 Si02
#       8
#     2   2   2   2   2   2   2   2
#     4  10  20  40  66  84 118 160 216 239 302 360
#     4  10  21  39  66  88 115 171 203 250 297 370
#     4  10  20  38  61  92 127 151 208 251 310 364
#     4  10  21  38  63  93 118 164 203 253 300 374
#     4  10  21  39  62  88 126 160 204 249 305 367
#     4  10  20  39  59  88 127 158 201 246 308 366
#     4  10  21  38  61  91 126 158 198 259 307 356
#     4  10  20  39  60  88 125 158 203 252 300 362
#
# _framework density 22.487570000000002
#
# number of rings (size 3 to 8) (size 9 to 14) (size 15 to 20)
#    0.000    2.000    2.500    1.500    0.000    1.000 
#    4.500    6.875    2.750    2.250    0.000    0.000 
#    0.000    0.000    0.000    0.000    0.000    0.000 
#
# Total GULP energy -89238.873665 kJ/mol
# GULP energy per Si atom -5577.429604 kJ/mol
# Density = 2.243639 g / cm^3
# Si number density = 22.487570 Si / 1000 Ang^3
#
#
#
# Elastic Constant Matrix: (Units=GPa)
#
#
# Indices 1 2 3 4 5 6 
#
# 1 50.7321 6.3681 25.4767 -3.3126 -5.4148 -22.1291
# 2 6.3681 91.0839 47.6177 -22.7516 -10.4157 6.7402
# 3 25.4767 47.6177 129.9045 11.7455 8.3646 -12.5942
# 4 -3.3126 -22.7516 11.7455 38.5556 3.0004 -0.7556
# 5 -5.4148 -10.4157 8.3646 3.0004 30.1195 -3.2300
# 6 -22.1291 6.7402 -12.5942 -0.7556 -3.2300 39.2501
#
#
#
# Elastic Compliance Matrix: (Units=1/GPa)
#
#
# Indices 1 2 3 4 5 6 
#
# 1 0.030996 0.002713 -0.006687 0.005872 0.009472 0.015757
# 2 0.002713 0.021823 -0.010984 0.015663 0.009021 -0.004699
# 3 -0.006687 -0.010984 0.014715 -0.010894 -0.007789 0.001987
# 4 0.005872 0.015663 -0.010894 0.038543 0.005478 -0.001682
# 5 0.009472 0.009021 -0.007789 0.005478 0.040145 0.004701
# 6 0.015757 -0.004699 0.001987 -0.001682 0.004701 0.036160
#
#
# Mechanical properties :
#
#
# Convention : Reuss Voigt Hill
#
# Bulk Modulus (GPa) = 26.58290 47.84950 37.21620
# Shear Modulus (GPa) = 22.23822 34.40224 28.32023
#
# Velocity S-wave (km/s) = 3.14811 3.91555 3.55261
# Velocity P-wave (km/s) = 5.00609 6.46270 5.78046
#
# Compressibility (1/GPa) = 0.03761817
#
# Stress axis : x y z
#
# Youngs Moduli (GPa) = 32.26207 45.82263 67.95882
#
# Poissons Ratio (x) = -0.12430 0.45441
# Poissons Ratio (y) = -0.08751 0.74647
# Poissons Ratio (z) = 0.21572 0.50332
#
# Static dielectric constant tensor:
#      x y z
#    x 1.888480 0.056680 -0.056720 
#    y 0.056680 1.890280 0.018390 
#    z -0.056720 0.018390 1.925090 
# 
# From -- ./inp_files/184932.got.cif
#   From: 2010.05.17/outbox.cif.g08.bks.cpg/sg2_93_cif.got.tgz:184932.got - 2010.06.03 11:33:40.
