data_PCOD9102324
_publ_section_title
;
Structure prediction by ZEFSAII (Michael W. Deem and Ramdas Pophale) SiO2 
 PCOD9102324
Probable space group: P -1
;
_chemical_formula_sum "Si O2"
_cell_formula_units_Z 16
_cell_length_a 12.028713
_cell_length_b 8.690991
_cell_length_c 14.756510
_cell_angle_alpha 102.169764
_cell_angle_beta 130.021540
_cell_angle_gamma 117.591951
_cell_volume 693.179120
_symmetry_space_group_name_H-M "P -1"
_symmetry_group_IT_number 2
_symmetry_cell_setting 'triclinic'
loop_
_space_group_symop_operation_xyz
x,y,z
-x,-y,-z
loop_
_atom_site_type_symbol
_atom_site_label
_atom_site_fract_x
_atom_site_fract_y
_atom_site_fract_z
Si Si1 0.723220 0.230868 0.080968
Si Si2 0.129075 0.888562 0.001868
Si Si3 0.989093 0.160686 0.471561
Si Si4 0.618860 0.019753 0.696213
Si Si5 0.594533 0.339669 0.629323
Si Si6 0.502091 0.651649 0.085728
Si Si7 0.497957 0.512129 0.740046
Si Si8 0.120518 0.632781 0.480143
O O1 0.961289 0.425093 0.290889
O O2 0.734745 0.114431 0.993499
O O3 0.686328 0.375458 0.041541
O O4 0.500000 0.000000 0.000000
O O5 0.151102 0.837649 0.108594
O O6 0.268867 0.175097 0.110904
O O7 0.855973 0.647604 0.793232
O O8 0.259328 0.416467 0.607813
O O9 0.916738 0.212504 0.521025
O O10 0.000000 0.000000 0.500000
O O11 0.767356 0.964639 0.261091
O O12 0.544292 0.831745 0.555546
O O13 0.395309 0.833718 0.626694
O O14 0.640744 0.212293 0.688439
O O15 0.458794 0.349319 0.621255
O O16 0.470108 0.555504 0.157822
O O17 0.500000 0.500000 0.000000
O O18 0.000000 0.500000 0.500000
#
# Coordination Sequence:
#
# PCOD9102324 Si02
#       8
#     2   2   2   2   2   2   2   2
#     4  12  23  39  67 102 137 176 228 289 347 409
#     4  12  24  45  68 102 136 178 237 284 346 410
#     4  10  20  38  62  91 131 173 219 267 335 403
#     4  11  24  45  73  99 136 180 236 286 346 410
#     4  11  25  47  68  99 139 186 236 282 339 416
#     4  11  23  41  64 103 139 178 231 282 353 411
#     4  11  24  44  67  96 142 183 226 286 343 415
#     4  12  23  41  68 100 135 172 221 289 346 405
#
# _framework density 23.082056999999999
#
# number of rings (size 3 to 8) (size 9 to 14) (size 15 to 20)
#    0.000    0.750    1.250    9.000    0.000    0.500 
#    4.500    0.000    0.000    0.000    0.000    0.000 
#    0.000    0.000    0.000    0.000    0.000    0.000 
#
# Total GULP energy -89499.480071 kJ/mol
# GULP energy per Si atom -5593.717504 kJ/mol
# Density = 2.302952 g / cm^3
# Si number density = 23.082057 Si / 1000 Ang^3
#
#
#
# Elastic Constant Matrix: (Units=GPa)
#
#
# Indices 1 2 3 4 5 6 
#
# 1 108.6123 8.2895 15.9545 -0.3037 -41.2847 1.0124
# 2 8.2895 64.3024 0.5360 5.3248 -14.2161 -2.5878
# 3 15.9545 0.5360 112.0625 4.1182 -24.9212 8.0848
# 4 -0.3037 5.3248 4.1182 37.8769 0.5712 -4.0637
# 5 -41.2847 -14.2161 -24.9212 0.5712 44.8128 5.5526
# 6 1.0124 -2.5878 8.0848 -4.0637 5.5526 24.5059
#
#
#
# Elastic Compliance Matrix: (Units=1/GPa)
#
#
# Indices 1 2 3 4 5 6 
#
# 1 0.014859 0.001440 0.001757 -0.001024 0.015728 -0.004775
# 2 0.001440 0.017289 0.001645 -0.002828 0.007890 -0.001033
# 3 0.001757 0.001645 0.011220 -0.002224 0.009158 -0.006044
# 4 -0.001024 -0.002828 -0.002224 0.027742 -0.004177 0.006024
# 5 0.015728 0.007890 0.009158 -0.004177 0.046188 -0.013996
# 6 -0.004775 -0.001033 -0.006044 0.006024 -0.013996 0.047059
#
#
# Mechanical properties :
#
#
# Convention : Reuss Voigt Hill
#
# Bulk Modulus (GPa) = 18.84910 37.17082 28.00996
# Shear Modulus (GPa) = 29.00973 38.78559 33.89766
#
# Velocity S-wave (km/s) = 3.54900 4.10364 3.83635
# Velocity P-wave (km/s) = 4.99777 6.21223 5.63780
#
# Compressibility (1/GPa) = 0.05305294
#
# Stress axis : x y z
#
# Youngs Moduli (GPa) = 67.29915 57.83971 89.12751
#
# Poissons Ratio (x) = -0.08326 -0.15663
# Poissons Ratio (y) = -0.09688 -0.14666
# Poissons Ratio (z) = -0.11827 -0.09517
#
# Static dielectric constant tensor:
#      x y z
#    x 1.909530 -0.028110 0.042020 
#    y -0.028110 1.957250 0.037840 
#    z 0.042020 0.037840 1.899640 
# 
# From -- ./inp_files/273847.got.cif
#   From: 2010.05.17/outbox.cif.g08.bks.cpg/sg2_137_cif.got.tgz:273847.got - 2010.06.03 11:33:40.
