data_PCOD9102908
_publ_section_title
;
Structure prediction by ZEFSAII (Michael W. Deem and Ramdas Pophale) SiO2 
 PCOD9102908
Probable space group: P -1
;
_chemical_formula_sum "Si O2"
_cell_formula_units_Z 16
_cell_length_a 8.130882
_cell_length_b 12.425072
_cell_length_c 13.673001
_cell_angle_alpha 103.891351
_cell_angle_beta 125.379472
_cell_angle_gamma 116.235862
_cell_volume 742.346493
_symmetry_space_group_name_H-M "P -1"
_symmetry_group_IT_number 2
_symmetry_cell_setting 'triclinic'
loop_
_space_group_symop_operation_xyz
x,y,z
-x,-y,-z
loop_
_atom_site_type_symbol
_atom_site_label
_atom_site_fract_x
_atom_site_fract_y
_atom_site_fract_z
Si Si1 0.079658 0.509784 0.281014
Si Si2 0.706012 0.657858 0.905036
Si Si3 0.302870 0.074430 0.787467
Si Si4 0.294267 0.147399 0.358052
Si Si5 0.523723 0.203747 0.100618
Si Si6 0.664799 0.613311 0.677893
Si Si7 0.369623 0.993834 0.187232
Si Si8 0.259362 0.557312 0.031679
O O1 0.866331 0.380112 0.265584
O O2 0.382478 0.690386 0.453938
O O3 0.155799 0.423743 0.237446
O O4 0.886824 0.504601 0.139691
O O5 0.650986 0.751541 0.959468
O O6 0.513339 0.581677 0.721810
O O7 0.646296 0.525235 0.917817
O O8 0.054795 0.804615 0.029921
O O9 0.039264 0.038685 0.328703
O O10 0.470295 0.247052 0.836565
O O11 0.371983 0.994272 0.728519
O O12 0.463565 0.118515 0.958373
O O13 0.197708 0.215347 0.273412
O O14 0.343015 0.059791 0.288411
O O15 0.417387 0.093715 0.133136
O O16 0.500000 0.500000 0.500000
O O17 0.000000 0.500000 0.000000
#
# Coordination Sequence:
#
# PCOD9102908 Si02
#       8
#     2   2   2   2   2   2   2   2
#     4  10  23  42  64  92 133 174 212 268 319 385
#     4  12  21  40  69  94 126 171 220 266 314 381
#     4  11  23  40  67  96 126 175 216 265 322 381
#     4  11  23  43  63  99 138 165 210 270 334 380
#     4  11  22  39  66  99 125 168 220 267 325 378
#     4  10  20  38  64  92 129 168 201 267 327 376
#     4  12  22  39  68  99 134 163 215 272 323 391
#     4  11  22  43  70  90 125 175 232 259 306 388
#
# _framework density 21.553277000000001
#
# number of rings (size 3 to 8) (size 9 to 14) (size 15 to 20)
#    0.000    1.000    5.000    3.000    0.000    2.500 
#    4.500    1.250    0.000    0.000    0.000    0.000 
#    0.000    0.000    0.000    0.000    0.000    0.000 
#
# Total GULP energy -89276.724342 kJ/mol
# GULP energy per Si atom -5579.795271 kJ/mol
# Density = 2.150422 g / cm^3
# Si number density = 21.553277 Si / 1000 Ang^3
#
#
#
# Elastic Constant Matrix: (Units=GPa)
#
#
# Indices 1 2 3 4 5 6 
#
# 1 116.1522 44.0769 25.7488 25.7062 -13.4123 -5.1020
# 2 44.0769 145.7438 27.7036 2.6895 6.2731 -5.4905
# 3 25.7488 27.7036 64.8845 21.3155 -3.1850 1.6541
# 4 25.7062 2.6895 21.3155 30.6036 1.7079 4.7736
# 5 -13.4123 6.2731 -3.1850 1.7079 22.0651 11.5010
# 6 -5.1020 -5.4905 1.6541 4.7736 11.5010 37.0175
#
#
#
# Elastic Compliance Matrix: (Units=1/GPa)
#
#
# Indices 1 2 3 4 5 6 
#
# 1 0.014401 -0.004888 0.001266 -0.013086 0.011732 -0.000754
# 2 -0.004888 0.009592 -0.004822 0.006666 -0.008311 0.002687
# 3 0.001266 -0.004822 0.022886 -0.016729 0.007672 -0.001790
# 4 -0.013086 0.006666 -0.016729 0.055983 -0.015273 -0.002542
# 5 0.011732 -0.008311 0.007672 -0.015273 0.066888 -0.018770
# 6 -0.000754 0.002687 -0.001790 -0.002542 -0.018770 0.033548
#
#
# Mechanical properties :
#
#
# Convention : Reuss Voigt Hill
#
# Bulk Modulus (GPa) = 33.34241 57.98213 45.66227
# Shear Modulus (GPa) = 21.72177 33.22066 27.47121
#
# Velocity S-wave (km/s) = 3.17806 3.93023 3.57399
# Velocity P-wave (km/s) = 5.38239 6.89607 6.18571
#
# Compressibility (1/GPa) = 0.02999183
#
# Stress axis : x y z
#
# Youngs Moduli (GPa) = 69.43801 104.25209 43.69404
#
# Poissons Ratio (x) = 0.50958 -0.05532
# Poissons Ratio (y) = 0.33941 0.21070
# Poissons Ratio (z) = -0.08791 0.50272
#
# Static dielectric constant tensor:
#      x y z
#    x 1.872500 0.030260 0.015560 
#    y 0.030260 1.766650 0.004760 
#    z 0.015560 0.004760 1.837110 
# 
# From -- ./inp_files/392652.got.cif
#   From: 2010.05.17/outbox.cif.g08.bks.cpg/sg2_197_cif.got.tgz:392652.got - 2010.06.03 11:33:40.
