data_PCOD9102740
_publ_section_title
;
Structure prediction by ZEFSAII (Michael W. Deem and Ramdas Pophale) SiO2 
 PCOD9102740
Probable space group: P -1
;
_chemical_formula_sum "Si O2"
_cell_formula_units_Z 15
_cell_length_a 12.159559
_cell_length_b 4.970664
_cell_length_c 16.050859
_cell_angle_alpha 75.845147
_cell_angle_beta 36.845929
_cell_angle_gamma 72.690053
_cell_volume 555.370822
_symmetry_space_group_name_H-M "P -1"
_symmetry_group_IT_number 2
_symmetry_cell_setting 'triclinic'
loop_
_space_group_symop_operation_xyz
x,y,z
-x,-y,-z
loop_
_atom_site_type_symbol
_atom_site_label
_atom_site_fract_x
_atom_site_fract_y
_atom_site_fract_z
Si Si1 0.483866 0.609502 0.813163
Si Si2 0.676480 0.308850 0.269584
Si Si3 0.029615 0.439342 0.820675
Si Si4 0.289419 0.665247 0.523561
Si Si5 0.793130 0.012674 0.934293
Si Si6 0.500000 0.000000 0.500000
Si Si7 0.216318 0.854307 0.264862
Si Si8 0.169014 0.150558 0.436677
O O1 0.347256 0.614271 0.817544
O O2 0.584882 0.332461 0.820003
O O3 0.662890 0.699222 0.652791
O O4 0.391216 0.843347 0.916993
O O5 0.833271 0.463925 0.200179
O O6 0.470703 0.416007 0.430535
O O7 0.664927 0.986870 0.323896
O O8 0.123686 0.529360 0.671884
O O9 0.952133 0.151888 0.874728
O O10 0.844005 0.677379 0.928915
O O11 0.350459 0.886819 0.534451
O O12 0.230073 0.838196 0.463505
O O13 0.789584 0.091468 0.833246
O O14 0.031335 0.728244 0.412411
O O15 0.182347 0.112864 0.331577
#
# Coordination Sequence:
#
# PCOD9102740 Si02
#       8
#     2   2   2   2   2   1   2   2
#     4  12  27  46  74 105 150 193 247 301 373 442
#     4  11  25  41  74 108 146 190 243 310 369 436
#     4  11  28  47  74 108 150 198 247 297 371 441
#     4  11  22  40  72 107 144 183 247 310 369 430
#     4  12  30  49  76 106 154 202 244 300 366 449
#     4  10  20  38  64 104 136 182 228 300 368 422
#     4  11  26  47  72 110 142 196 246 310 366 435
#     4  11  24  44  76 109 142 186 251 314 369 427
#
# _framework density 27.008984999999999
#
# number of rings (size 3 to 8) (size 9 to 14) (size 15 to 20)
#    0.000    0.800    4.000    2.400   13.067    1.600 
#    0.000    0.000    0.000    0.000    0.000    0.000 
#    0.000    0.000    0.000    0.000    0.000    0.000 
#
# Total GULP energy -83780.423364 kJ/mol
# GULP energy per Si atom -5585.361558 kJ/mol
# Density = 2.694751 g / cm^3
# Si number density = 27.008985 Si / 1000 Ang^3
#
#
#
# Elastic Constant Matrix: (Units=GPa)
#
#
# Indices 1 2 3 4 5 6 
#
# 1 118.4393 1.1328 32.0053 -5.6994 18.6126 -8.2677
# 2 1.1328 49.0978 5.8075 7.5604 5.7244 19.0201
# 3 32.0053 5.8075 114.4166 12.2625 12.8887 -13.5894
# 4 -5.6994 7.5604 12.2625 50.6104 5.4652 -4.0404
# 5 18.6126 5.7244 12.8887 5.4652 35.8291 -0.9079
# 6 -8.2677 19.0201 -13.5894 -4.0404 -0.9079 23.1400
#
#
#
# Elastic Compliance Matrix: (Units=1/GPa)
#
#
# Indices 1 2 3 4 5 6 
#
# 1 0.010133 -0.001309 -0.002086 0.002640 -0.004612 0.003751
# 2 -0.001309 0.035154 -0.004280 -0.006662 -0.003221 -0.033166
# 3 -0.002086 -0.004280 0.010937 -0.001348 -0.001736 0.008893
# 4 0.002640 -0.006662 -0.001348 0.022455 -0.003008 0.009430
# 5 -0.004612 -0.003221 -0.001736 -0.003008 0.031922 0.000707
# 6 0.003751 -0.033166 0.008893 0.009430 0.000707 0.078713
#
#
# Mechanical properties :
#
#
# Convention : Reuss Voigt Hill
#
# Bulk Modulus (GPa) = 24.46625 39.98277 32.22451
# Shear Modulus (GPa) = 22.90544 38.11646 30.51095
#
# Velocity S-wave (km/s) = 2.91532 3.76074 3.36469
# Velocity P-wave (km/s) = 4.51778 5.80458 5.20113
#
# Compressibility (1/GPa) = 0.04087264
#
# Stress axis : x y z
#
# Youngs Moduli (GPa) = 98.68781 28.44666 91.43361
#
# Poissons Ratio (x) = 0.03724 0.19071
# Poissons Ratio (y) = 0.12919 0.39138
# Poissons Ratio (z) = 0.20584 0.12177
#
# Static dielectric constant tensor:
#      x y z
#    x 2.095190 0.058830 -0.068900 
#    y 0.058830 1.696720 0.050120 
#    z -0.068900 0.050120 2.122850 
# 
# From -- ./inp_files/479878.got.cif
#   From: 2010.05.17/outbox.cif.g08.bks.cpg/sg2_240_cif.got.tgz:479878.got - 2010.06.03 11:33:40.
