data_PCOD9102707
_publ_section_title
;
Structure prediction by ZEFSAII (Michael W. Deem and Ramdas Pophale) SiO2 
 PCOD9102707
Probable space group: P -1
;
_chemical_formula_sum "Si O2"
_cell_formula_units_Z 16
_cell_length_a 21.789816
_cell_length_b 5.574104
_cell_length_c 8.275034
_cell_angle_alpha 87.303851
_cell_angle_beta 133.586304
_cell_angle_gamma 113.107785
_cell_volume 630.783895
_symmetry_space_group_name_H-M "P -1"
_symmetry_group_IT_number 2
_symmetry_cell_setting 'triclinic'
loop_
_space_group_symop_operation_xyz
x,y,z
-x,-y,-z
loop_
_atom_site_type_symbol
_atom_site_label
_atom_site_fract_x
_atom_site_fract_y
_atom_site_fract_z
Si Si1 0.104607 0.031009 0.418637
Si Si2 0.634652 0.508506 0.448629
Si Si3 0.107987 0.721705 0.738854
Si Si4 0.928643 0.493757 0.007567
Si Si5 0.720059 0.427794 0.272396
Si Si6 0.707986 0.329761 0.905528
Si Si7 0.756442 0.078607 0.545372
Si Si8 0.465328 0.210443 0.355822
O O1 0.161283 0.362300 0.520411
O O2 0.134705 0.950478 0.645561
O O3 0.164715 0.991771 0.383452
O O4 0.991036 0.805480 0.185336
O O5 0.665751 0.472904 0.324911
O O6 0.519793 0.312765 0.279542
O O7 0.677550 0.838363 0.520321
O O8 0.681421 0.435615 0.691331
O O9 0.091205 0.753120 0.895112
O O10 0.180326 0.597801 0.884010
O O11 0.000000 0.500000 0.500000
O O12 0.820396 0.370356 0.744354
O O13 0.000000 0.500000 0.000000
O O14 0.683443 0.432951 0.025928
O O15 0.706812 0.130727 0.299912
O O16 0.649070 0.995651 0.827885
O O17 0.500000 0.500000 0.500000
O O18 0.500000 0.000000 0.500000
#
# Coordination Sequence:
#
# PCOD9102707 Si02
#       8
#     2   2   2   2   2   2   2   2
#     4   9  20  38  56  94 134 174 234 295 346 432
#     4  10  25  44  70 105 143 190 243 306 369 441
#     4  10  20  38  63  97 136 177 236 295 361 438
#     4   9  19  34  59  88 128 183 228 286 368 420
#     4  11  23  41  69 102 141 183 247 296 367 446
#     4  11  24  45  74 104 142 197 239 303 383 438
#     4  10  20  39  64  93 136 181 231 300 355 432
#     4  10  25  47  75 114 152 193 254 312 368 458
#
# _framework density 25.365265999999998
#
# number of rings (size 3 to 8) (size 9 to 14) (size 15 to 20)
#    0.000    2.000    1.250    0.750    7.000    2.000 
#    0.000    9.375    0.000    0.000    0.000    0.000 
#    0.000    0.000    0.000    0.000    0.000    0.000 
#
# Total GULP energy -89130.339983 kJ/mol
# GULP energy per Si atom -5570.646249 kJ/mol
# Density = 2.530753 g / cm^3
# Si number density = 25.365266 Si / 1000 Ang^3
#
#
#
# Elastic Constant Matrix: (Units=GPa)
#
#
# Indices 1 2 3 4 5 6 
#
# 1 97.1946 16.5014 17.1858 2.8941 -24.6905 22.6758
# 2 16.5014 110.7838 21.3113 2.9313 -16.6029 29.9637
# 3 17.1858 21.3113 66.9232 -6.1253 -26.1897 5.5557
# 4 2.8941 2.9313 -6.1253 37.1178 11.9782 -2.6804
# 5 -24.6905 -16.6029 -26.1897 11.9782 40.0157 -8.0290
# 6 22.6758 29.9637 5.5557 -2.6804 -8.0290 38.2039
#
#
#
# Elastic Compliance Matrix: (Units=1/GPa)
#
#
# Indices 1 2 3 4 5 6 
#
# 1 0.014476 0.001657 -0.000428 -0.004877 0.009143 -0.008250
# 2 0.001657 0.012594 -0.002498 -0.003430 0.003638 -0.009974
# 3 -0.000428 -0.002498 0.020620 -0.000319 0.012662 0.001854
# 4 -0.004877 -0.003430 -0.000319 0.032184 -0.013251 0.005105
# 5 0.009143 0.003638 0.012662 -0.013251 0.044034 -0.001797
# 6 -0.008250 -0.009974 0.001854 0.005105 -0.001797 0.038605
#
#
# Mechanical properties :
#
#
# Convention : Reuss Voigt Hill
#
# Bulk Modulus (GPa) = 22.14803 42.76650 32.45727
# Shear Modulus (GPa) = 27.76183 37.72770 32.74477
#
# Velocity S-wave (km/s) = 3.31189 3.86084 3.59685
# Velocity P-wave (km/s) = 4.83481 6.06396 5.48393
#
# Compressibility (1/GPa) = 0.04515074
#
# Stress axis : x y z
#
# Youngs Moduli (GPa) = 69.08141 79.40287 48.49625
#
# Poissons Ratio (x) = -0.13156 0.02077
# Poissons Ratio (y) = -0.11446 0.12115
# Poissons Ratio (z) = 0.02958 0.19836
#
# Static dielectric constant tensor:
#      x y z
#    x 2.089360 -0.004010 -0.094370 
#    y -0.004010 2.209970 -0.353330 
#    z -0.094370 -0.353330 3.027650 
# 
# From -- ./inp_files/355915.got.cif
#   From: 2010.05.17/outbox.cif.g08.bks.cpg/sg2_178_cif.got.tgz:355915.got - 2010.06.03 11:33:40.
