data_PCOD9102936
_publ_section_title
;
Structure prediction by ZEFSAII (Michael W. Deem and Ramdas Pophale) SiO2 
 PCOD9102936
Probable space group: P -1
;
_chemical_formula_sum "Si O2"
_cell_formula_units_Z 16
_cell_length_a 9.613918
_cell_length_b 17.584136
_cell_length_c 12.205420
_cell_angle_alpha 36.581461
_cell_angle_beta 44.513753
_cell_angle_gamma 71.351009
_cell_volume 686.336952
_symmetry_space_group_name_H-M "P -1"
_symmetry_group_IT_number 2
_symmetry_cell_setting 'triclinic'
loop_
_space_group_symop_operation_xyz
x,y,z
-x,-y,-z
loop_
_atom_site_type_symbol
_atom_site_label
_atom_site_fract_x
_atom_site_fract_y
_atom_site_fract_z
Si Si1 0.436010 0.463220 0.749324
Si Si2 0.700670 0.969286 0.799823
Si Si3 0.227375 0.141916 0.557790
Si Si4 0.838308 0.740611 0.047476
Si Si5 0.516883 0.791625 0.899444
Si Si6 0.772475 0.133705 0.143607
Si Si7 0.126856 0.780687 0.405230
Si Si8 0.631661 0.455223 0.065940
O O1 0.603105 0.612483 0.403543
O O2 0.189211 0.336441 0.965268
O O3 0.411804 0.516965 0.818120
O O4 0.542469 0.362322 0.827226
O O5 0.688405 0.946842 0.701578
O O6 0.833594 0.138669 0.590036
O O7 0.820939 0.886067 0.874856
O O8 0.405802 0.857905 0.122945
O O9 0.337486 0.185876 0.320236
O O10 0.468443 0.266694 0.352345
O O11 0.009065 0.161563 0.657040
O O12 0.130819 0.962996 0.845068
O O13 0.062146 0.771689 0.955079
O O14 0.269116 0.771620 0.028993
O O15 0.500000 0.000000 0.500000
O O16 0.929821 0.587594 0.732484
O O17 0.500000 0.500000 0.000000
#
# Coordination Sequence:
#
# PCOD9102936 Si02
#       8
#     2   2   2   2   2   2   2   2
#     4  10  21  41  66  95 121 172 206 258 325 365
#     4  10  22  40  64  94 125 165 214 258 314 376
#     4  10  20  41  63  91 129 162 207 265 312 373
#     4  10  22  42  63  90 134 160 210 268 311 373
#     4  10  21  40  65  93 120 166 216 253 311 375
#     4  10  22  40  61  94 123 164 210 262 308 367
#     4  10  20  39  65  88 126 166 208 256 314 379
#     4  10  20  38  64  93 124 164 209 255 317 375
#
# _framework density 23.312165
#
# number of rings (size 3 to 8) (size 9 to 14) (size 15 to 20)
#    0.000    2.000    3.750    0.000    0.000    5.000 
#   18.000    1.875    0.000    0.000    0.000    0.000 
#    0.000    0.000    0.000    0.000    0.000    0.000 
#
# Total GULP energy -89349.618735 kJ/mol
# GULP energy per Si atom -5584.351171 kJ/mol
# Density = 2.325911 g / cm^3
# Si number density = 23.312165 Si / 1000 Ang^3
#
#
#
# Elastic Constant Matrix: (Units=GPa)
#
#
# Indices 1 2 3 4 5 6 
#
# 1 127.7450 40.6692 29.0024 -15.7466 -18.3793 13.3685
# 2 40.6692 87.9141 33.8432 -10.6088 -9.0209 30.8409
# 3 29.0024 33.8432 58.3545 4.3211 -28.0633 17.3789
# 4 -15.7466 -10.6088 4.3211 22.6595 7.8665 -17.0890
# 5 -18.3793 -9.0209 -28.0633 7.8665 38.7941 -4.6549
# 6 13.3685 30.8409 17.3789 -17.0890 -4.6549 35.0164
#
#
#
# Elastic Compliance Matrix: (Units=1/GPa)
#
#
# Indices 1 2 3 4 5 6 
#
# 1 0.013160 -0.003808 -0.018572 0.030880 -0.011822 0.021046
# 2 -0.003808 0.020491 -0.008966 0.001257 -0.005248 -0.012228
# 3 -0.018572 -0.008966 0.120142 -0.153438 0.094303 -0.106986
# 4 0.030880 0.001257 -0.153438 0.277537 -0.130592 0.181342
# 5 -0.011822 -0.005248 0.094303 -0.130592 0.103133 -0.087691
# 6 0.021046 -0.012228 -0.106986 0.181342 -0.087691 0.161234
#
#
# Mechanical properties :
#
#
# Convention : Reuss Voigt Hill
#
# Bulk Modulus (GPa) = 10.97682 53.44923 32.21303
# Shear Modulus (GPa) = 6.33909 30.66059 18.49984
#
# Velocity S-wave (km/s) = 1.65079 3.63053 2.82009
# Velocity P-wave (km/s) = 2.89004 6.36802 4.94490
#
# Compressibility (1/GPa) = 0.09110103
#
# Stress axis : x y z
#
# Youngs Moduli (GPa) = 75.98786 48.80229 8.32346
#
# Poissons Ratio (x) = 0.18586 0.15458
# Poissons Ratio (y) = 0.28939 0.07463
# Poissons Ratio (z) = 1.41121 0.43757
#
# Static dielectric constant tensor:
#      x y z
#    x 1.923110 -0.009580 -0.007380 
#    y -0.009580 1.938190 -0.025720 
#    z -0.007380 -0.025720 1.922560 
# 
# From -- ./inp_files/257403.got.cif
#   From: 2010.05.17/outbox.cif.g08.bks.cpg/sg2_129_cif.got.tgz:257403.got - 2010.06.03 11:33:40.
