data_PCOD9102666
_publ_section_title
;
Structure prediction by ZEFSAII (Michael W. Deem and Ramdas Pophale) SiO2 
 PCOD9102666
Probable space group: P -1
;
_chemical_formula_sum "Si O2"
_cell_formula_units_Z 16
_cell_length_a 9.273451
_cell_length_b 24.289449
_cell_length_c 5.554203
_cell_angle_alpha 127.129738
_cell_angle_beta 124.076984
_cell_angle_gamma 40.354945
_cell_volume 633.551639
_symmetry_space_group_name_H-M "P -1"
_symmetry_group_IT_number 2
_symmetry_cell_setting 'triclinic'
loop_
_space_group_symop_operation_xyz
x,y,z
-x,-y,-z
loop_
_atom_site_type_symbol
_atom_site_label
_atom_site_fract_x
_atom_site_fract_y
_atom_site_fract_z
Si Si1 0.028657 0.281632 0.688192
Si Si2 0.224419 0.657700 0.906022
Si Si3 0.023760 0.952206 0.146167
Si Si4 0.489282 0.291819 0.584040
Si Si5 0.683630 0.919903 0.639327
Si Si6 0.290919 0.471144 0.102137
Si Si7 0.165597 0.425805 0.262426
Si Si8 0.515006 0.826121 0.406479
O O1 0.874918 0.318846 0.397262
O O2 0.262937 0.254324 0.739723
O O3 0.129446 0.178636 0.566000
O O4 0.919531 0.332680 0.975446
O O5 0.477563 0.559557 0.869219
O O6 0.280611 0.723902 0.200312
O O7 0.285553 0.862347 0.156763
O O8 0.000000 0.000000 0.500000
O O9 0.836026 0.940755 0.948598
O O10 0.000000 0.000000 0.000000
O O11 0.376173 0.334632 0.338017
O O12 0.492167 0.211962 0.448896
O O13 0.323353 0.379790 0.835538
O O14 0.551223 0.899743 0.638147
O O15 0.500000 0.000000 0.500000
O O16 0.275742 0.466803 0.359099
O O17 0.042076 0.559525 0.032484
O O18 0.000000 0.500000 0.500000
#
# Coordination Sequence:
#
# PCOD9102666 Si02
#       8
#     2   2   2   2   2   2   2   2
#     4  10  23  40  62  92 134 176 222 284 347 400
#     4  10  20  38  63  94 132 175 226 282 340 411
#     4  12  26  48  74 105 138 185 237 292 356 426
#     4   9  19  35  60  94 130 173 226 279 347 410
#     4  10  23  47  71 100 140 180 235 291 354 417
#     4   8  18  30  60  96 129 174 232 276 340 410
#     4   9  15  32  56  97 133 173 228 281 334 411
#     4  10  24  45  66 102 137 182 229 292 351 422
#
# _framework density 25.254453999999999
#
# number of rings (size 3 to 8) (size 9 to 14) (size 15 to 20)
#    1.500    0.750    1.250    1.500    0.000    4.500 
#    4.500    0.000    0.000    1.500    0.000    0.000 
#    0.000    0.000    0.000    0.000    0.000    0.000 
#
# Total GULP energy -89101.857989 kJ/mol
# GULP energy per Si atom -5568.866124 kJ/mol
# Density = 2.519697 g / cm^3
# Si number density = 25.254454 Si / 1000 Ang^3
#
#
#
# Elastic Constant Matrix: (Units=GPa)
#
#
# Indices 1 2 3 4 5 6 
#
# 1 146.2693 52.6005 54.8193 -19.2785 6.0127 -1.1046
# 2 52.6005 100.1536 56.9315 -38.4561 2.5243 -5.9114
# 3 54.8193 56.9315 115.5014 -25.0099 20.5163 4.5161
# 4 -19.2785 -38.4561 -25.0099 42.4278 -0.4561 1.0507
# 5 6.0127 2.5243 20.5163 -0.4561 49.9107 5.6704
# 6 -1.1046 -5.9114 4.5161 1.0507 5.6704 62.1388
#
#
#
# Elastic Compliance Matrix: (Units=1/GPa)
#
#
# Indices 1 2 3 4 5 6 
#
# 1 0.009007 -0.003394 -0.002776 -0.000618 0.000219 0.000030
# 2 -0.003394 0.020319 -0.005886 0.013376 0.001705 0.001919
# 3 -0.002776 -0.005886 0.014200 0.001750 -0.005052 -0.001210
# 4 -0.000618 0.013376 0.001750 0.036417 -0.001058 0.000615
# 5 0.000219 0.001705 -0.005052 -0.001058 0.022157 -0.001471
# 6 0.000030 0.001919 -0.001210 0.000615 -0.001471 0.016488
#
#
# Mechanical properties :
#
#
# Convention : Reuss Voigt Hill
#
# Bulk Modulus (GPa) = 51.50691 76.73633 64.12162
# Shear Modulus (GPa) = 33.51801 44.06701 38.79251
#
# Velocity S-wave (km/s) = 3.64704 4.18176 3.92352
# Velocity P-wave (km/s) = 6.17851 7.33262 6.78017
#
# Compressibility (1/GPa) = 0.01941487
#
# Stress axis : x y z
#
# Youngs Moduli (GPa) = 111.02075 49.21391 70.42045
#
# Poissons Ratio (x) = 0.16701 0.19550
# Poissons Ratio (y) = 0.37676 0.41452
# Poissons Ratio (z) = 0.30821 0.28969
#
# Static dielectric constant tensor:
#      x y z
#    x 2.094860 0.002690 -0.012820 
#    y 0.002690 2.187320 0.095910 
#    z -0.012820 0.095910 2.288350 
# 
# From -- ./inp_files/56221.got.cif
#   From: 2010.05.17/outbox.cif.g08.bks.cpg/sg2_29_cif.got.tgz:56221.got - 2010.06.03 11:33:40.
