data_PCOD9102177
_publ_section_title
;
Structure prediction by ZEFSAII (Michael W. Deem and Ramdas Pophale) SiO2 
 PCOD9102177
Probable space group: P -1
;
_chemical_formula_sum "Si O2"
_cell_formula_units_Z 14
_cell_length_a 13.716119
_cell_length_b 7.392166
_cell_length_c 15.517361
_cell_angle_alpha 78.012280
_cell_angle_beta 27.848853
_cell_angle_gamma 60.735065
_cell_volume 535.067820
_symmetry_space_group_name_H-M "P -1"
_symmetry_group_IT_number 2
_symmetry_cell_setting 'triclinic'
loop_
_space_group_symop_operation_xyz
x,y,z
-x,-y,-z
loop_
_atom_site_type_symbol
_atom_site_label
_atom_site_fract_x
_atom_site_fract_y
_atom_site_fract_z
Si Si1 0.065407 0.731082 0.918610
Si Si2 0.360020 0.035147 0.014033
Si Si3 0.763628 0.297906 0.874478
Si Si4 0.477040 0.790616 0.646788
Si Si5 0.035982 0.459043 0.824809
Si Si6 0.153640 0.139298 0.449403
Si Si7 0.358331 0.606162 0.308855
O O1 0.249002 0.807227 0.767968
O O2 0.146098 0.553287 0.794686
O O3 0.098214 0.605444 0.996556
O O4 0.730164 0.966640 0.155517
O O5 0.618767 0.853796 0.764154
O O6 0.174575 0.311565 0.097048
O O7 0.500000 0.000000 0.000000
O O8 0.187069 0.948727 0.155321
O O9 0.025253 0.248198 0.632977
O O10 0.500000 0.500000 0.000000
O O11 0.647073 0.411237 0.048034
O O12 0.700032 0.761915 0.415781
O O13 0.634668 0.543615 0.604870
O O14 0.899184 0.284660 0.565590
O O15 0.298208 0.851640 0.360557
#
# Coordination Sequence:
#
# PCOD9102177 Si02
#       7
#     2   2   2   2   2   2   2
#     4  10  24  41  62  91 117 156 208 247 297 357
#     4  12  23  38  64  93 121 161 201 239 301 364
#     4  10  22  38  56  84 122 158 199 241 285 352
#     4  11  21  40  65  88 118 156 200 253 305 347
#     4  11  23  42  63  88 124 157 198 252 297 353
#     4  10  21  39  58  86 126 163 197 241 298 356
#     4  10  20  38  62  87 121 160 199 247 297 356
#
# _framework density 26.164908
#
# number of rings (size 3 to 8) (size 9 to 14) (size 15 to 20)
#    0.000    1.429    0.000    6.857    0.000    2.286 
#    0.000   15.714    0.000    1.714    0.000    0.000 
#    0.000    0.000    0.000    0.000    0.000    0.000 
#
# Total GULP energy -78480.991784 kJ/mol
# GULP energy per Si atom -5605.785127 kJ/mol
# Density = 2.610536 g / cm^3
# Si number density = 26.164908 Si / 1000 Ang^3
#
#
#
# Elastic Constant Matrix: (Units=GPa)
#
#
# Indices 1 2 3 4 5 6 
#
# 1 98.7544 15.0575 14.0653 2.7026 15.1967 -15.1801
# 2 15.0575 115.8567 -1.0551 19.2702 -3.6889 -25.7743
# 3 14.0653 -1.0551 158.6448 -10.9014 15.5178 -14.8581
# 4 2.7026 19.2702 -10.9014 39.4218 0.8945 -4.2784
# 5 15.1967 -3.6889 15.5178 0.8945 21.6250 1.6671
# 6 -15.1801 -25.7743 -14.8581 -4.2784 1.6671 40.7864
#
#
#
# Elastic Compliance Matrix: (Units=1/GPa)
#
#
# Indices 1 2 3 4 5 6 
#
# 1 0.012367 -0.000967 0.000269 0.000403 -0.009413 0.004517
# 2 -0.000967 0.010942 0.000200 -0.004618 0.002126 0.006056
# 3 0.000269 0.000200 0.007328 0.002408 -0.005774 0.003385
# 4 0.000403 -0.004618 0.002408 0.028492 -0.004075 0.001264
# 5 -0.009413 0.002126 -0.005774 -0.004075 0.058077 -0.007065
# 6 0.004517 0.006056 0.003385 0.001264 -0.007065 0.031681
#
#
# Mechanical properties :
#
#
# Convention : Reuss Voigt Hill
#
# Bulk Modulus (GPa) = 33.73621 47.71016 40.72319
# Shear Modulus (GPa) = 31.29633 43.37919 37.33776
#
# Velocity S-wave (km/s) = 3.46225 4.07617 3.78169
# Velocity P-wave (km/s) = 5.37629 6.35826 5.88779
#
# Compressibility (1/GPa) = 0.02964174
#
# Stress axis : x y z
#
# Youngs Moduli (GPa) = 80.85958 91.39111 136.45974
#
# Poissons Ratio (x) = 0.08835 -0.03665
# Poissons Ratio (y) = 0.07817 -0.02735
# Poissons Ratio (z) = -0.02172 -0.01832
#
# Static dielectric constant tensor:
#      x y z
#    x 2.824800 0.941200 0.095550 
#    y 0.941200 3.132590 0.157690 
#    z 0.095550 0.157690 2.070020 
# 
# From -- ./inp_files/505767.got.cif
#   From: 2010.05.17/outbox.cif.g08.bks.cpg/sg2_253_cif.got.tgz:505767.got - 2010.06.03 11:33:40.
