data_PCOD9102680
_publ_section_title
;
Structure prediction by ZEFSAII (Michael W. Deem and Ramdas Pophale) SiO2 
 PCOD9102680
Probable space group: P -1
;
_chemical_formula_sum "Si O2"
_cell_formula_units_Z 16
_cell_length_a 8.615520
_cell_length_b 19.446854
_cell_length_c 24.643499
_cell_angle_alpha 23.519619
_cell_angle_beta 47.659654
_cell_angle_gamma 32.405977
_cell_volume 779.228075
_symmetry_space_group_name_H-M "P -1"
_symmetry_group_IT_number 2
_symmetry_cell_setting 'triclinic'
loop_
_space_group_symop_operation_xyz
x,y,z
-x,-y,-z
loop_
_atom_site_type_symbol
_atom_site_label
_atom_site_fract_x
_atom_site_fract_y
_atom_site_fract_z
Si Si1 0.700948 0.043478 0.910827
Si Si2 0.513296 0.238733 0.172866
Si Si3 0.414668 0.503194 0.108188
Si Si4 0.529600 0.469682 0.365775
Si Si5 0.718889 0.019668 0.455039
Si Si6 0.541946 0.828983 0.472224
Si Si7 0.199267 0.457439 0.534243
Si Si8 0.294630 0.807379 0.317039
O O1 0.600003 0.263535 0.815106
O O2 0.634369 0.141114 0.793242
O O3 0.500000 0.000000 0.000000
O O4 0.084173 0.763394 0.027847
O O5 0.330633 0.429028 0.130915
O O6 0.438283 0.085940 0.289859
O O7 0.447542 0.410376 0.014678
O O8 0.903089 0.017651 0.256930
O O9 0.637738 0.249852 0.278097
O O10 0.530584 0.298345 0.452443
O O11 0.290438 0.575288 0.395909
O O12 0.906195 0.259246 0.444402
O O13 0.627724 0.089054 0.489448
O O14 0.500000 0.000000 0.500000
O O15 0.938148 0.602368 0.539604
O O16 0.550025 0.181350 0.677008
O O17 0.000000 0.500000 0.500000
O O18 0.500000 0.500000 0.500000
#
# Coordination Sequence:
#
# PCOD9102680 Si02
#       8
#     2   2   2   2   2   2   2   2
#     4  11  24  38  62  94 131 166 213 267 326 384
#     4  10  20  38  63  95 127 170 211 271 327 385
#     4  10  22  38  60  94 133 162 213 273 324 375
#     4  11  24  44  66  96 133 172 220 272 324 392
#     4  12  24  40  69  99 126 173 229 267 318 392
#     4  11  23  40  68  97 131 171 219 272 332 385
#     4  10  21  36  63  97 128 159 213 272 318 368
#     4  11  19  35  65  94 121 160 224 266 305 380
#
# _framework density 20.533142000000002
#
# number of rings (size 3 to 8) (size 9 to 14) (size 15 to 20)
#    0.000    1.250    3.750    2.625    3.500    0.000 
#    0.000    1.250    5.500    0.000    0.000    0.000 
#    0.000    0.000    0.000    0.000    0.000    0.000 
#
# Total GULP energy -89075.505390 kJ/mol
# GULP energy per Si atom -5567.219087 kJ/mol
# Density = 2.048641 g / cm^3
# Si number density = 20.533142 Si / 1000 Ang^3
#
#
#
# Elastic Constant Matrix: (Units=GPa)
#
#
# Indices 1 2 3 4 5 6 
#
# 1 65.7770 4.9847 24.4936 3.1873 -25.2388 -7.0007
# 2 4.9847 70.1583 44.3140 0.4500 -3.5420 -16.2780
# 3 24.4936 44.3140 108.4805 -6.3858 -26.5432 2.0504
# 4 3.1873 0.4500 -6.3858 37.1051 -2.2523 1.8411
# 5 -25.2388 -3.5420 -26.5432 -2.2523 35.2717 -0.3924
# 6 -7.0007 -16.2780 2.0504 1.8411 -0.3924 24.9711
#
#
#
# Elastic Compliance Matrix: (Units=1/GPa)
#
#
# Indices 1 2 3 4 5 6 
#
# 1 0.022651 0.003383 -0.003381 -0.002178 0.013966 0.009213
# 2 0.003383 0.027092 -0.013747 -0.004295 -0.005256 0.019972
# 3 -0.003381 -0.013747 0.018654 0.004877 0.010420 -0.011637
# 4 -0.002178 -0.004295 0.004877 0.028528 0.003437 -0.005860
# 5 0.013966 -0.005256 0.010420 0.003437 0.045879 0.000101
# 6 0.009213 0.019972 -0.011637 -0.005860 0.000101 0.057038
#
#
# Mechanical properties :
#
#
# Convention : Reuss Voigt Hill
#
# Bulk Modulus (GPa) = 24.44622 43.55557 34.00090
# Shear Modulus (GPa) = 20.74954 30.84449 25.79702
#
# Velocity S-wave (km/s) = 3.18235 3.88000 3.54836
# Velocity P-wave (km/s) = 5.04328 6.42891 5.77779
#
# Compressibility (1/GPa) = 0.04090612
#
# Stress axis : x y z
#
# Youngs Moduli (GPa) = 44.14878 36.91059 53.60757
#
# Poissons Ratio (x) = -0.12487 0.18126
# Poissons Ratio (y) = -0.14936 0.73697
# Poissons Ratio (z) = 0.14928 0.50743
#
# Static dielectric constant tensor:
#      x y z
#    x 1.909880 0.053490 -0.057370 
#    y 0.053490 1.760640 -0.014400 
#    z -0.057370 -0.014400 1.763850 
# 
# From -- ./inp_files/617542.got.cif
#   From: 2010.05.17/outbox.cif.g08.bks.cpg/sg2_309_cif.got.tgz:617542.got - 2010.06.03 11:33:40.
