data_PCOD9102712
_publ_section_title
;
Structure prediction by ZEFSAII (Michael W. Deem and Ramdas Pophale) SiO2 
 PCOD9102712
Probable space group: P -1
;
_chemical_formula_sum "Si O2"
_cell_formula_units_Z 13
_cell_length_a 11.001474
_cell_length_b 11.379714
_cell_length_c 14.268307
_cell_angle_alpha 31.435416
_cell_angle_beta 52.215675
_cell_angle_gamma 73.404952
_cell_volume 602.197399
_symmetry_space_group_name_H-M "P -1"
_symmetry_group_IT_number 2
_symmetry_cell_setting 'triclinic'
loop_
_space_group_symop_operation_xyz
x,y,z
-x,-y,-z
loop_
_atom_site_type_symbol
_atom_site_label
_atom_site_fract_x
_atom_site_fract_y
_atom_site_fract_z
Si Si1 0.208435 0.696216 0.812527
Si Si2 0.214590 0.194508 0.555645
Si Si3 0.500000 0.000000 0.000000
Si Si4 0.792808 0.860656 0.969805
Si Si5 0.489325 0.744334 0.494342
Si Si6 0.449061 0.768708 0.973635
Si Si7 0.193830 0.217798 0.209236
O O1 0.368417 0.771522 0.611544
O O2 0.230065 0.963810 0.657841
O O3 0.229008 0.514242 0.002688
O O4 0.000000 0.500000 0.000000
O O5 0.361240 0.300096 0.500101
O O6 0.281584 0.448222 0.281917
O O7 0.000470 0.045110 0.788141
O O8 0.317319 0.003324 0.054318
O O9 0.496756 0.113858 0.027128
O O10 0.820385 0.832384 0.863496
O O11 0.665736 0.547170 0.282958
O O12 0.585880 0.026477 0.201078
O O13 0.631949 0.787376 0.835901
O O14 0.000000 0.000000 0.500000
#
# Coordination Sequence:
#
# PCOD9102712 Si02
#       7
#     2   2   1   2   2   2   2
#     4  11  20  39  63  92 146 174 206 270 324 393
#     4  12  23  43  65 103 133 174 221 271 327 397
#     4  10  22  52  70  90 132 180 216 286 332 378
#     4  10  23  44  70  91 136 171 220 277 329 387
#     4  11  23  44  63 103 131 177 219 267 333 397
#     4  11  25  42  70  96 133 175 226 272 328 390
#     4  10  20  38  63  98 130 178 214 258 330 395
#
# _framework density 21.587606999999998
#
# number of rings (size 3 to 8) (size 9 to 14) (size 15 to 20)
#    0.000    1.231    7.692    1.385    0.000    3.077 
#    2.769    0.769    0.000    0.000    0.000    0.000 
#    0.000    0.000    0.000    0.000    0.000    0.000 
#
# Total GULP energy -72367.604089 kJ/mol
# GULP energy per Si atom -5566.738776 kJ/mol
# Density = 2.153847 g / cm^3
# Si number density = 21.587607 Si / 1000 Ang^3
#
#
#
# Elastic Constant Matrix: (Units=GPa)
#
#
# Indices 1 2 3 4 5 6 
#
# 1 86.1724 15.2327 48.4184 -0.4127 -6.6665 -39.4541
# 2 15.2327 52.6365 28.4328 13.4273 -7.2435 -29.4689
# 3 48.4184 28.4328 139.1856 -20.5276 4.8764 -16.6735
# 4 -0.4127 13.4273 -20.5276 -3.1339 -3.6492 -3.5142
# 5 -6.6665 -7.2435 4.8764 -3.6492 35.5046 4.0677
# 6 -39.4541 -29.4689 -16.6735 -3.5142 4.0677 38.9924
#
#
#
# Elastic Compliance Matrix: (Units=1/GPa)
#
#
# Indices 1 2 3 4 5 6 
#
# 1 0.030592 0.010172 -0.005065 0.022713 0.006514 0.037844
# 2 0.010172 0.022841 0.001589 0.042654 0.007146 0.031333
# 3 -0.005065 0.001589 0.005345 -0.020393 -0.003096 -0.003153
# 4 0.022713 0.042654 -0.020393 -0.057509 0.005185 0.040774
# 5 0.006514 0.007146 -0.003096 0.005185 0.030898 0.007912
# 6 0.037844 0.031333 -0.003153 0.040774 0.007912 0.089119
#
#
# Mechanical properties :
#
#
# Convention : Reuss Voigt Hill
#
# Bulk Modulus (GPa) = 13.85597 51.35138 32.60367
# Shear Modulus (GPa) = 37.89338 26.66664 32.28001
#
# Velocity S-wave (km/s) = 4.19421 3.51846 3.87111
# Velocity P-wave (km/s) = 5.46696 6.35178 5.92591
#
# Compressibility (1/GPa) = 0.07217107
#
# Stress axis : x y z
#
# Youngs Moduli (GPa) = 32.68845 43.78184 187.09153
#
# Poissons Ratio (x) = -0.44537 0.94763
# Poissons Ratio (y) = -0.33252 -0.29737
# Poissons Ratio (z) = 0.16557 -0.06959
#
# Static dielectric constant tensor:
#      x y z
#    x 1.827010 0.039330 0.007910 
#    y 0.039330 1.759010 -0.029570 
#    z 0.007910 -0.029570 1.815590 
# 
# From -- ./inp_files/384809.got.cif
#   From: 2010.05.17/outbox.cif.g08.bks.cpg/sg2_193_cif.got.tgz:384809.got - 2010.06.03 11:33:40.
