data_PCOD9102978
_publ_section_title
;
Structure prediction by ZEFSAII (Michael W. Deem and Ramdas Pophale) SiO2 
 PCOD9102978
Probable space group: P -1
;
_chemical_formula_sum "Si O2"
_cell_formula_units_Z 16
_cell_length_a 26.674917
_cell_length_b 17.402374
_cell_length_c 6.733374
_cell_angle_alpha 42.485569
_cell_angle_beta 44.819424
_cell_angle_gamma 19.096361
_cell_volume 689.562075
_symmetry_space_group_name_H-M "P -1"
_symmetry_group_IT_number 2
_symmetry_cell_setting 'triclinic'
loop_
_space_group_symop_operation_xyz
x,y,z
-x,-y,-z
loop_
_atom_site_type_symbol
_atom_site_label
_atom_site_fract_x
_atom_site_fract_y
_atom_site_fract_z
Si Si1 0.273362 0.904770 0.247963
Si Si2 0.607249 0.160921 0.568052
Si Si3 0.091288 0.914134 0.214058
Si Si4 0.246992 0.321190 0.552845
Si Si5 0.828580 0.745709 0.431694
Si Si6 0.542080 0.760846 0.860435
Si Si7 0.442258 0.455812 0.086730
Si Si8 0.987718 0.189014 0.612775
O O1 0.289513 0.926295 0.387810
O O2 0.446860 0.634286 0.205090
O O3 0.155911 0.967150 0.468730
O O4 0.207226 0.097765 0.918837
O O5 0.713161 0.922771 0.602902
O O6 0.535628 0.331941 0.263289
O O7 0.460916 0.319841 0.794037
O O8 0.261660 0.725026 0.120644
O O9 0.099275 0.788915 0.295447
O O10 0.000000 0.000000 0.500000
O O11 0.002417 0.130695 0.912440
O O12 0.200612 0.328713 0.464134
O O13 0.335694 0.314882 0.305942
O O14 0.096842 0.569640 0.623027
O O15 0.373482 0.056570 0.787207
O O16 0.000000 0.500000 0.500000
O O17 0.550619 0.680085 0.783627
#
# Coordination Sequence:
#
# PCOD9102978 Si02
#       8
#     2   2   2   2   2   2   2   2
#     4  10  23  44  67  98 133 178 218 265 336 394
#     4  10  20  38  64  94 134 176 213 266 322 389
#     4  11  27  48  69  96 127 172 229 285 332 381
#     4  11  21  40  63  98 137 170 216 261 328 396
#     4  11  23  37  58  98 141 174 213 258 322 401
#     4  10  21  39  63  96 133 174 214 267 330 391
#     4  10  21  45  68  95 131 170 228 276 320 398
#     4  11  26  45  69  95 136 176 218 278 335 387
#
# _framework density 23.203130999999999
#
# number of rings (size 3 to 8) (size 9 to 14) (size 15 to 20)
#    0.000    1.500    5.000    0.750    3.500    6.000 
#    0.000    1.250    0.000    0.000    0.000    0.000 
#    0.000    0.000    0.000    0.000    0.000    0.000 
#
# Total GULP energy -89326.323095 kJ/mol
# GULP energy per Si atom -5582.895193 kJ/mol
# Density = 2.315032 g / cm^3
# Si number density = 23.203131 Si / 1000 Ang^3
#
#
#
# Elastic Constant Matrix: (Units=GPa)
#
#
# Indices 1 2 3 4 5 6 
#
# 1 101.6900 28.8183 21.6779 3.1052 9.2716 -7.8983
# 2 28.8183 118.1150 26.2199 5.4231 10.8614 -10.1300
# 3 21.6779 26.2199 96.3035 5.6840 15.7382 -8.4640
# 4 3.1052 5.4231 5.6840 30.3522 -5.7247 -7.9328
# 5 9.2716 10.8614 15.7382 -5.7247 36.5444 2.0756
# 6 -7.8983 -10.1300 -8.4640 -7.9328 2.0756 43.8836
#
#
#
# Elastic Compliance Matrix: (Units=1/GPa)
#
#
# Indices 1 2 3 4 5 6 
#
# 1 0.011002 -0.002071 -0.001506 -0.000473 -0.001670 0.001205
# 2 -0.002071 0.009693 -0.001666 -0.001197 -0.001906 0.001417
# 3 -0.001506 -0.001666 0.012241 -0.002361 -0.004850 0.001508
# 4 -0.000473 -0.001197 -0.002361 0.036369 0.006882 0.005432
# 5 -0.001670 -0.001906 -0.004850 0.006882 0.031630 -0.001928
# 6 0.001205 0.001417 0.001508 0.005432 -0.001928 0.024695
#
#
# Mechanical properties :
#
#
# Convention : Reuss Voigt Hill
#
# Bulk Modulus (GPa) = 44.54456 52.17117 48.35787
# Shear Modulus (GPa) = 34.81869 38.11553 36.46711
#
# Velocity S-wave (km/s) = 3.87796 4.05741 3.96870
# Velocity P-wave (km/s) = 6.26824 6.66959 6.47203
#
# Compressibility (1/GPa) = 0.02244943
#
# Stress axis : x y z
#
# Youngs Moduli (GPa) = 90.89131 103.16340 81.69308
#
# Poissons Ratio (x) = 0.21370 0.12302
# Poissons Ratio (y) = 0.18828 0.13612
# Poissons Ratio (z) = 0.13687 0.17189
#
# Static dielectric constant tensor:
#      x y z
#    x 1.858380 0.022900 -0.021870 
#    y 0.022900 1.938770 -0.025770 
#    z -0.021870 -0.025770 1.870850 
# 
# From -- ./inp_files/127480.got.cif
#   From: 2010.05.17/outbox.cif.g08.bks.cpg/sg2_64_cif.got.tgz:127480.got - 2010.06.03 11:33:40.
