data_PCOD9102086
_publ_section_title
;
Structure prediction by ZEFSAII (Michael W. Deem and Ramdas Pophale) SiO2 
 PCOD9102086
Probable space group: P -1
;
_chemical_formula_sum "Si O2"
_cell_formula_units_Z 12
_cell_length_a 7.607546
_cell_length_b 7.536894
_cell_length_c 13.529969
_cell_angle_alpha 123.102054
_cell_angle_beta 135.439111
_cell_angle_gamma 55.485504
_cell_volume 434.700913
_symmetry_space_group_name_H-M "P -1"
_symmetry_group_IT_number 2
_symmetry_cell_setting 'triclinic'
loop_
_space_group_symop_operation_xyz
x,y,z
-x,-y,-z
loop_
_atom_site_type_symbol
_atom_site_label
_atom_site_fract_x
_atom_site_fract_y
_atom_site_fract_z
Si Si1 0.659992 0.568761 0.963022
Si Si2 0.579109 0.296803 0.309448
Si Si3 0.170578 0.439016 0.719048
Si Si4 0.065339 0.138960 0.745345
Si Si5 0.917589 0.793648 0.863824
Si Si6 0.511351 0.753464 0.400832
O O1 0.559212 0.624919 0.828437
O O2 0.456850 0.436415 0.875548
O O3 0.937117 0.400949 0.058960
O O4 0.694033 0.800037 0.086431
O O5 0.845375 0.111552 0.332752
O O6 0.390507 0.178244 0.251819
O O7 0.589053 0.528678 0.430613
O O8 0.264830 0.332378 0.619178
O O9 0.019813 0.695116 0.766324
O O10 0.030140 0.291931 0.680049
O O11 0.804714 0.203333 0.726869
O O12 0.000000 0.000000 0.000000
O O13 0.500000 0.000000 0.500000
#
# Coordination Sequence:
#
# PCOD9102086 Si02
#       6
#     2   2   2   2   2   2
#     4  10  20  38  61  98 137 169 206 263 332 404
#     4  11  22  40  65  96 131 176 212 266 340 388
#     4  10  22  41  65  98 132 173 214 267 336 393
#     4  11  22  43  66  95 137 168 218 276 329 394
#     4  11  20  36  65 101 140 171 207 261 335 412
#     4  11  26  47  67  90 129 179 234 278 313 376
#
# _framework density 27.605186
#
# number of rings (size 3 to 8) (size 9 to 14) (size 15 to 20)
#    0.000    1.333    3.333    5.000    2.333    2.667 
#    6.000    0.833    0.000    0.000    0.000    0.000 
#    0.000    0.000    0.000    0.000    0.000    0.000 
#
# Total GULP energy -66950.042004 kJ/mol
# GULP energy per Si atom -5579.170167 kJ/mol
# Density = 2.754236 g / cm^3
# Si number density = 27.605186 Si / 1000 Ang^3
#
#
#
# Elastic Constant Matrix: (Units=GPa)
#
#
# Indices 1 2 3 4 5 6 
#
# 1 139.7296 36.9152 49.5130 18.8633 -5.3161 -24.9957
# 2 36.9152 137.8414 51.7340 46.3793 -8.5757 -23.9756
# 3 49.5130 51.7340 142.2402 55.3794 11.0453 -3.7677
# 4 18.8633 46.3793 55.3794 65.8006 -2.0510 -10.0167
# 5 -5.3161 -8.5757 11.0453 -2.0510 30.6474 7.6407
# 6 -24.9957 -23.9756 -3.7677 -10.0167 7.6407 40.7753
#
#
#
# Elastic Compliance Matrix: (Units=1/GPa)
#
#
# Indices 1 2 3 4 5 6 
#
# 1 0.009391 -0.000736 -0.003666 0.001741 0.001585 0.005116
# 2 -0.000736 0.010655 -0.001630 -0.005256 0.002097 0.003979
# 3 -0.003666 -0.001630 0.012861 -0.009294 -0.005536 -0.003263
# 4 0.001741 -0.005256 -0.009294 0.026797 0.003201 0.003101
# 5 0.001585 0.002097 -0.005536 0.003201 0.036801 -0.004416
# 6 0.005116 0.003979 -0.003263 0.003101 -0.004416 0.031288
#
#
# Mechanical properties :
#
#
# Convention : Reuss Voigt Hill
#
# Bulk Modulus (GPa) = 47.98177 77.34839 62.66508
# Shear Modulus (GPa) = 34.05880 46.22127 40.14004
#
# Velocity S-wave (km/s) = 3.51634 4.09634 3.81737
# Velocity P-wave (km/s) = 5.82283 7.10308 6.49458
#
# Compressibility (1/GPa) = 0.02084125
#
# Stress axis : x y z
#
# Youngs Moduli (GPa) = 106.48724 93.85581 77.75252
#
# Poissons Ratio (x) = 0.06909 0.28508
# Poissons Ratio (y) = 0.07839 0.12675
# Poissons Ratio (z) = 0.39043 0.15300
#
# Static dielectric constant tensor:
#      x y z
#    x 2.349170 -0.007390 -0.070640 
#    y -0.007390 2.177190 0.028280 
#    z -0.070640 0.028280 2.274920 
# 
# From -- ./inp_files/397949.got.cif
#   From: 2010.05.17/outbox.cif.g08.bks.cpg/sg2_199_cif.got.tgz:397949.got - 2010.06.03 11:33:40.
