data_PCOD9102933
_publ_section_title
;
Structure prediction by ZEFSAII (Michael W. Deem and Ramdas Pophale) SiO2 
 PCOD9102933
Probable space group: P -1
;
_chemical_formula_sum "Si O2"
_cell_formula_units_Z 16
_cell_length_a 29.220061
_cell_length_b 8.229199
_cell_length_c 14.777251
_cell_angle_alpha 51.363394
_cell_angle_beta 20.969367
_cell_angle_gamma 40.247888
_cell_volume 759.273914
_symmetry_space_group_name_H-M "P -1"
_symmetry_group_IT_number 2
_symmetry_cell_setting 'triclinic'
loop_
_space_group_symop_operation_xyz
x,y,z
-x,-y,-z
loop_
_atom_site_type_symbol
_atom_site_label
_atom_site_fract_x
_atom_site_fract_y
_atom_site_fract_z
Si Si1 0.636659 0.025233 0.454191
Si Si2 0.095302 0.923411 0.072136
Si Si3 0.213070 0.592338 0.627732
Si Si4 0.160256 0.804952 0.209326
Si Si5 0.405278 0.201216 0.976922
Si Si6 0.060601 0.628044 0.085748
Si Si7 0.331391 0.907907 0.325561
Si Si8 0.350440 0.991527 0.765116
O O1 0.710277 0.714240 0.424030
O O2 0.602077 0.131186 0.379953
O O3 0.472663 0.186971 0.759448
O O4 0.774847 0.046661 0.220665
O O5 0.119472 0.867136 0.154911
O O6 0.107467 0.705533 0.063279
O O7 0.914098 0.211723 0.284943
O O8 0.337836 0.654779 0.386819
O O9 0.115201 0.683856 0.872494
O O10 0.234465 0.502467 0.199598
O O11 0.000000 0.000000 0.500000
O O12 0.303886 0.827728 0.959221
O O13 0.544809 0.143424 0.807655
O O14 0.381179 0.984943 0.117665
O O15 0.174000 0.301686 0.986523
O O16 0.859573 0.827023 0.389275
O O17 0.500000 0.000000 0.500000
#
# Coordination Sequence:
#
# PCOD9102933 Si02
#       8
#     2   2   2   2   2   2   2   2
#     4  10  22  36  60  93 122 158 204 253 304 361
#     4  10  21  38  66  93 121 163 206 251 300 378
#     4  10  20  38  64  93 124 155 206 256 308 354
#     4  11  26  45  62  88 127 170 206 254 317 370
#     4  11  24  40  63  87 126 164 208 251 310 369
#     4  10  20  40  67  92 127 157 209 253 310 360
#     4  10  22  40  61  91 120 167 206 257 302 365
#     4  10  24  40  63  94 126 164 205 257 305 371
#
# _framework density 21.072762999999998
#
# number of rings (size 3 to 8) (size 9 to 14) (size 15 to 20)
#    0.000    1.750    0.000    4.125    7.000    5.500 
#    4.500    3.125    0.000    0.000    0.000    0.000 
#    0.000    0.000    0.000    0.000    0.000    0.000 
#
# Total GULP energy -89266.342571 kJ/mol
# GULP energy per Si atom -5579.146411 kJ/mol
# Density = 2.102480 g / cm^3
# Si number density = 21.072763 Si / 1000 Ang^3
#
#
#
# Elastic Constant Matrix: (Units=GPa)
#
#
# Indices 1 2 3 4 5 6 
#
# 1 59.4564 1.8659 32.5011 0.7947 5.0384 -2.8598
# 2 1.8659 38.4368 8.5083 -7.5665 11.1039 -3.6359
# 3 32.5011 8.5083 78.1590 -3.7282 14.9579 -3.4843
# 4 0.7947 -7.5665 -3.7282 35.4676 4.0308 7.0584
# 5 5.0384 11.1039 14.9579 4.0308 27.0480 4.2955
# 6 -2.8598 -3.6359 -3.4843 7.0584 4.2955 11.2534
#
#
#
# Elastic Compliance Matrix: (Units=1/GPa)
#
#
# Indices 1 2 3 4 5 6 
#
# 1 0.022047 0.000870 -0.009230 -0.002161 0.000284 0.004274
# 2 0.000870 0.033410 0.000181 0.006362 -0.017086 0.013603
# 3 -0.009230 0.000181 0.018921 0.002176 -0.010106 0.006064
# 4 -0.002161 0.006362 0.002176 0.033837 -0.005781 -0.016837
# 5 0.000284 -0.017086 -0.010106 -0.005781 0.054471 -0.025743
# 6 0.004274 0.013603 0.006064 -0.016837 -0.025743 0.116608
#
#
# Mechanical properties :
#
#
# Convention : Reuss Voigt Hill
#
# Bulk Modulus (GPa) = 17.23532 29.08919 23.16225
# Shear Modulus (GPa) = 15.87346 23.63225 19.75285
#
# Velocity S-wave (km/s) = 2.74755 3.35245 3.06496
# Velocity P-wave (km/s) = 4.27342 5.36837 4.85188
#
# Compressibility (1/GPa) = 0.05802040
#
# Stress axis : x y z
#
# Youngs Moduli (GPa) = 45.35691 29.93158 52.85182
#
# Poissons Ratio (x) = -0.02603 0.48780
# Poissons Ratio (y) = -0.03944 -0.00958
# Poissons Ratio (z) = 0.41862 -0.00543
#
# Static dielectric constant tensor:
#      x y z
#    x 1.810520 -0.033660 -0.036110 
#    y -0.033660 1.810530 -0.013400 
#    z -0.036110 -0.013400 1.780540 
# 
# From -- ./inp_files/274358.got.cif
#   From: 2010.05.17/outbox.cif.g08.bks.cpg/sg2_138_cif.got.tgz:274358.got - 2010.06.03 11:33:40.
