data_PCOD9102412
_publ_section_title
;
Structure prediction by ZEFSAII (Michael W. Deem and Ramdas Pophale) SiO2 
 PCOD9102412
Probable space group: P -1
;
_chemical_formula_sum "Si O2"
_cell_formula_units_Z 13
_cell_length_a 11.568366
_cell_length_b 12.152368
_cell_length_c 4.942617
_cell_angle_alpha 56.937101
_cell_angle_beta 63.912577
_cell_angle_gamma 56.246659
_cell_volume 474.775845
_symmetry_space_group_name_H-M "P -1"
_symmetry_group_IT_number 2
_symmetry_cell_setting 'triclinic'
loop_
_space_group_symop_operation_xyz
x,y,z
-x,-y,-z
loop_
_atom_site_type_symbol
_atom_site_label
_atom_site_fract_x
_atom_site_fract_y
_atom_site_fract_z
Si Si1 0.781966 0.633313 0.446092
Si Si2 0.120777 0.155028 0.657632
Si Si3 0.492391 0.741818 0.744387
Si Si4 0.059666 0.754927 0.782094
Si Si5 0.380716 0.664179 0.450131
Si Si6 0.000000 0.500000 0.000000
Si Si7 0.618867 0.891285 0.830486
O O1 0.848666 0.697724 0.529610
O O2 0.651126 0.608987 0.741342
O O3 0.714065 0.764600 0.115647
O O4 0.875224 0.502746 0.336360
O O5 0.272142 0.054762 0.503674
O O6 0.005152 0.174742 0.528678
O O7 0.048430 0.138602 0.027689
O O8 0.444190 0.745253 0.482099
O O9 0.543571 0.845974 0.723735
O O10 0.375641 0.725682 0.073333
O O11 0.226549 0.701686 0.676877
O O12 0.026798 0.613550 0.019677
O O13 0.500000 0.500000 0.500000
O O14 0.500000 0.000000 0.000000
#
# Coordination Sequence:
#
# PCOD9102412 Si02
#       7
#     2   2   2   2   2   1   2
#     4  10  21  40  63 100 134 166 218 279 343 395
#     4  10  21  40  60  98 122 166 213 272 340 390
#     4  11  24  43  64  98 137 172 235 264 335 403
#     4  11  23  38  63  93 137 168 215 268 332 402
#     4  12  25  43  64  98 139 192 219 267 329 416
#     4  10  20  38  62  96 128 166 208 276 332 404
#     4  11  23  44  73 100 132 173 227 295 339 387
#
# _framework density 27.381342
#
# number of rings (size 3 to 8) (size 9 to 14) (size 15 to 20)
#    0.000    1.231    4.615    2.308    0.000    6.154 
#    2.769    0.000    0.000    5.538    0.000    0.000 
#    0.000    0.000    0.000    0.000    0.000    0.000 
#
# Total GULP energy -72434.909581 kJ/mol
# GULP energy per Si atom -5571.916122 kJ/mol
# Density = 2.731902 g / cm^3
# Si number density = 27.381342 Si / 1000 Ang^3
#
#
#
# Elastic Constant Matrix: (Units=GPa)
#
#
# Indices 1 2 3 4 5 6 
#
# 1 145.8125 58.0821 37.3078 24.4136 4.0998 -12.8879
# 2 58.0821 120.1967 53.7160 47.6374 5.8641 -8.3180
# 3 37.3078 53.7160 118.3858 55.1805 9.8775 2.1013
# 4 24.4136 47.6374 55.1805 69.5782 -2.4341 -1.3669
# 5 4.0998 5.8641 9.8775 -2.4341 53.4179 17.8027
# 6 -12.8879 -8.3180 2.1013 -1.3669 17.8027 42.8250
#
#
#
# Elastic Compliance Matrix: (Units=1/GPa)
#
#
# Indices 1 2 3 4 5 6 
#
# 1 0.008799 -0.003651 -0.001311 0.000471 -0.000793 0.002348
# 2 -0.003651 0.013843 -0.001865 -0.006741 -0.001962 0.002282
# 3 -0.001311 -0.001865 0.014556 -0.009912 -0.002603 -0.000705
# 4 0.000471 -0.006741 -0.009912 0.026802 0.004295 -0.001611
# 5 -0.000793 -0.001962 -0.002603 0.004295 0.022975 -0.009906
# 6 0.002348 0.002282 -0.000705 -0.001611 -0.009906 0.028602
#
#
# Mechanical properties :
#
#
# Convention : Reuss Voigt Hill
#
# Bulk Modulus (GPa) = 42.47498 75.84522 59.16010
# Shear Modulus (GPa) = 36.47509 48.85014 42.66261
#
# Velocity S-wave (km/s) = 3.65377 4.22840 3.95155
# Velocity P-wave (km/s) = 5.77461 7.18324 6.51710
#
# Compressibility (1/GPa) = 0.02354327
#
# Stress axis : x y z
#
# Youngs Moduli (GPa) = 113.64863 72.23834 68.69979
#
# Poissons Ratio (x) = 0.26377 0.09007
# Poissons Ratio (y) = 0.41498 0.12813
# Poissons Ratio (z) = 0.14900 0.13473
#
# Static dielectric constant tensor:
#      x y z
#    x 2.156540 -0.144920 -0.008880 
#    y -0.144920 2.258090 -0.092080 
#    z -0.008880 -0.092080 2.139840 
# 
# From -- ./inp_files/75398.got.cif
#   From: 2010.05.17/outbox.cif.g08.bks.cpg/sg2_38_cif.got.tgz:75398.got - 2010.06.03 11:33:40.
