data_PCOD9102469
_publ_section_title
;
Structure prediction by ZEFSAII (Michael W. Deem and Ramdas Pophale) SiO2 
 PCOD9102469
Probable space group: P -1
;
_chemical_formula_sum "Si O2"
_cell_formula_units_Z 16
_cell_length_a 5.256445
_cell_length_b 18.488758
_cell_length_c 8.712468
_cell_angle_alpha 116.325940
_cell_angle_beta 99.395671
_cell_angle_gamma 114.485420
_cell_volume 625.019970
_symmetry_space_group_name_H-M "P -1"
_symmetry_group_IT_number 2
_symmetry_cell_setting 'triclinic'
loop_
_space_group_symop_operation_xyz
x,y,z
-x,-y,-z
loop_
_atom_site_type_symbol
_atom_site_label
_atom_site_fract_x
_atom_site_fract_y
_atom_site_fract_z
Si Si1 0.639791 0.424106 0.354310
Si Si2 0.813334 0.891835 0.562727
Si Si3 0.949147 0.264969 0.937764
Si Si4 0.349704 0.419561 0.646456
Si Si5 0.197284 0.719929 0.736763
Si Si6 0.571702 0.947385 0.328402
Si Si7 0.541302 0.695767 0.224201
Si Si8 0.629469 0.939419 0.886996
O O1 0.499344 0.423594 0.502775
O O2 0.598204 0.475011 0.250197
O O3 0.603462 0.322981 0.235978
O O4 0.000000 0.500000 0.500000
O O5 0.740202 0.903147 0.391378
O O6 0.708798 0.781559 0.451560
O O7 0.620046 0.913697 0.680542
O O8 0.174810 0.973629 0.687106
O O9 0.742620 0.149076 0.841569
O O10 0.748519 0.302047 0.868189
O O11 0.213717 0.281821 0.864311
O O12 0.018068 0.305409 0.156478
O O13 0.503882 0.396000 0.775488
O O14 0.994227 0.333049 0.488207
O O15 0.428302 0.833602 0.842445
O O16 0.500000 0.000000 0.500000
O O17 0.500000 0.000000 0.000000
O O18 0.000000 0.000000 0.000000
#
# Coordination Sequence:
#
# PCOD9102469 Si02
#       8
#     2   2   2   2   2   2   2   2
#     4   9  21  44  75 107 133 180 238 289 364 431
#     4  10  23  39  62  90 130 185 243 288 339 411
#     4  11  26  42  65 101 142 187 231 292 359 415
#     4  10  23  44  78 103 136 181 243 294 354 433
#     4  11  26  44  74 100 150 185 236 298 363 417
#     4  10  20  38  63  85 129 184 241 285 337 412
#     4  11  25  43  70 101 137 183 240 288 350 423
#     4  12  30  43  65 104 147 189 240 294 353 415
#
# _framework density 25.599184999999999
#
# number of rings (size 3 to 8) (size 9 to 14) (size 15 to 20)
#    0.000    1.500    1.250    1.500   15.750    0.000 
#    0.000    1.250    0.000    0.000    0.000    0.000 
#    0.000    0.000    0.000    0.000    0.000    0.000 
#
# Total GULP energy -89353.945664 kJ/mol
# GULP energy per Si atom -5584.621604 kJ/mol
# Density = 2.554092 g / cm^3
# Si number density = 25.599185 Si / 1000 Ang^3
#
#
#
# Elastic Constant Matrix: (Units=GPa)
#
#
# Indices 1 2 3 4 5 6 
#
# 1 129.4255 36.4297 32.2399 -2.3413 -31.6741 -8.0845
# 2 36.4297 130.9642 28.7614 11.3372 -10.4759 -7.9631
# 3 32.2399 28.7614 90.8867 -12.2376 -14.0259 -4.8876
# 4 -2.3413 11.3372 -12.2376 32.5597 -1.5374 -7.0650
# 5 -31.6741 -10.4759 -14.0259 -1.5374 44.8354 1.0942
# 6 -8.0845 -7.9631 -4.8876 -7.0650 1.0942 38.2746
#
#
#
# Elastic Compliance Matrix: (Units=1/GPa)
#
#
# Indices 1 2 3 4 5 6 
#
# 1 0.010422 -0.002022 -0.001799 0.001431 0.006337 0.001634
# 2 -0.002022 0.009185 -0.002805 -0.004340 -0.000317 0.000334
# 3 -0.001799 -0.002805 0.013930 0.006632 0.002611 0.001965
# 4 0.001431 -0.004340 0.006632 0.036463 0.003154 0.006887
# 5 0.006337 -0.000317 0.002611 0.003154 0.027597 0.001399
# 6 0.001634 0.000334 0.001965 0.006887 0.001399 0.028024
#
#
# Mechanical properties :
#
#
# Convention : Reuss Voigt Hill
#
# Bulk Modulus (GPa) = 49.29335 60.68204 54.98770
# Shear Modulus (GPa) = 34.33267 40.05697 37.19482
#
# Velocity S-wave (km/s) = 3.66616 3.96002 3.81592
# Velocity P-wave (km/s) = 6.10071 6.68320 6.39858
#
# Compressibility (1/GPa) = 0.02028671
#
# Stress axis : x y z
#
# Youngs Moduli (GPa) = 95.94708 108.87717 71.78751
#
# Poissons Ratio (x) = 0.22012 0.12913
# Poissons Ratio (y) = 0.19398 0.20134
# Poissons Ratio (z) = 0.17259 0.30536
#
# Static dielectric constant tensor:
#      x y z
#    x 2.181330 -0.021340 0.148800 
#    y -0.021340 2.081150 0.026790 
#    z 0.148800 0.026790 2.167410 
# 
# From -- ./inp_files/139247.got.cif
#   From: 2010.05.17/outbox.cif.g08.bks.cpg/sg2_70_cif.got.tgz:139247.got - 2010.06.03 11:33:40.
