data_PCOD9102316
_publ_section_title
;
Structure prediction by ZEFSAII (Michael W. Deem and Ramdas Pophale) SiO2 
 PCOD9102316
Probable space group: P -1
;
_chemical_formula_sum "Si O2"
_cell_formula_units_Z 16
_cell_length_a 13.140933
_cell_length_b 11.254130
_cell_length_c 14.115170
_cell_angle_alpha 37.523690
_cell_angle_beta 132.771317
_cell_angle_gamma 147.411095
_cell_volume 684.448130
_symmetry_space_group_name_H-M "P -1"
_symmetry_group_IT_number 2
_symmetry_cell_setting 'triclinic'
loop_
_space_group_symop_operation_xyz
x,y,z
-x,-y,-z
loop_
_atom_site_type_symbol
_atom_site_label
_atom_site_fract_x
_atom_site_fract_y
_atom_site_fract_z
Si Si1 0.086445 0.284706 0.411284
Si Si2 0.482260 0.633014 0.491859
Si Si3 0.245551 0.797804 0.644139
Si Si4 0.121007 0.425089 0.138266
Si Si5 0.583322 0.508694 0.817074
Si Si6 0.998713 0.228510 0.877202
Si Si7 0.137603 0.063980 0.836770
Si Si8 0.835637 0.082515 0.680003
O O1 0.261098 0.429972 0.500271
O O2 0.172407 0.461883 0.257762
O O3 0.924812 0.256503 0.374609
O O4 0.000000 0.000000 0.500000
O O5 0.500000 0.500000 0.500000
O O6 0.595045 0.637805 0.644080
O O7 0.570911 0.933710 0.359488
O O8 0.199462 0.527573 0.803313
O O9 0.229790 0.838126 0.496524
O O10 0.296154 0.566903 0.086735
O O11 0.972983 0.113113 0.214150
O O12 0.000000 0.500000 0.000000
O O13 0.363087 0.275596 0.845003
O O14 0.692913 0.760077 0.797295
O O15 0.864127 0.193815 0.732895
O O16 0.924556 0.152631 0.984928
O O17 0.000000 0.000000 0.000000
O O18 0.039357 0.178706 0.723720
#
# Coordination Sequence:
#
# PCOD9102316 Si02
#       8
#     2   2   2   2   2   2   2   2
#     4  12  21  37  64  94 130 167 205 257 318 377
#     4  11  20  37  63  99 126 165 208 259 320 370
#     4  11  22  38  65  97 127 160 214 267 311 387
#     4  11  23  37  54  87 130 169 207 249 309 380
#     4  10  20  38  62  91 125 166 212 262 315 384
#     4  10  22  43  65  87 124 173 215 264 324 371
#     4  10  21  39  60  86 123 169 213 256 317 382
#     4   9  20  40  65  90 118 156 215 270 326 364
#
# _framework density 23.376495999999999
#
# number of rings (size 3 to 8) (size 9 to 14) (size 15 to 20)
#    0.000    1.500    2.500    4.125    0.000    1.000 
#    0.000   11.250    0.000    9.000    0.000    0.000 
#    0.000    0.000    0.000    0.000    0.000    0.000 
#
# Total GULP energy -89322.372496 kJ/mol
# GULP energy per Si atom -5582.648281 kJ/mol
# Density = 2.332329 g / cm^3
# Si number density = 23.376496 Si / 1000 Ang^3
#
#
#
# Elastic Constant Matrix: (Units=GPa)
#
#
# Indices 1 2 3 4 5 6 
#
# 1 24.1345 24.8747 5.5268 -1.9261 3.9404 11.6088
# 2 24.8747 132.8666 20.0437 -11.0347 -4.5967 6.5513
# 3 5.5268 20.0437 74.0183 -12.3584 -8.2274 -10.4992
# 4 -1.9261 -11.0347 -12.3584 34.7694 -7.8793 -3.5216
# 5 3.9404 -4.5967 -8.2274 -7.8793 34.3811 6.1448
# 6 11.6088 6.5513 -10.4992 -3.5216 6.1448 47.3976
#
#
#
# Elastic Compliance Matrix: (Units=1/GPa)
#
#
# Indices 1 2 3 4 5 6 
#
# 1 0.061490 -0.010719 -0.005519 -0.005311 -0.008499 -0.014094
# 2 -0.010719 0.009980 -0.000964 0.002967 0.002854 0.000883
# 3 -0.005519 -0.000964 0.016638 0.006986 0.005190 0.005017
# 4 -0.005311 0.002967 0.006986 0.034517 0.009923 0.003716
# 5 -0.008499 0.002854 0.005190 0.009923 0.034109 -0.000848
# 6 -0.014094 0.000883 0.005017 0.003716 -0.000848 0.025925
#
#
# Mechanical properties :
#
#
# Convention : Reuss Voigt Hill
#
# Bulk Modulus (GPa) = 18.62116 36.87886 27.75001
# Shear Modulus (GPa) = 21.27966 35.34791 28.31379
#
# Velocity S-wave (km/s) = 3.02039 3.89281 3.48402
# Velocity P-wave (km/s) = 4.48851 6.00130 5.29917
#
# Compressibility (1/GPa) = 0.05370234
#
# Stress axis : x y z
#
# Youngs Moduli (GPa) = 16.26293 100.19733 60.10203
#
# Poissons Ratio (x) = 1.07406 0.33172
# Poissons Ratio (y) = 0.17433 0.05796
# Poissons Ratio (z) = 0.08976 0.09662
#
# Static dielectric constant tensor:
#      x y z
#    x 1.943760 -0.049760 -0.005510 
#    y -0.049760 1.914110 -0.007810 
#    z -0.005510 -0.007810 1.979510 
# 
# From -- ./inp_files/531647.got.cif
#   From: 2010.05.17/outbox.cif.g08.bks.cpg/sg2_266_cif.got.tgz:531647.got - 2010.06.03 11:33:40.
