data_PCOD9102951
_publ_section_title
;
Structure prediction by ZEFSAII (Michael W. Deem and Ramdas Pophale) SiO2 
 PCOD9102951
Probable space group: P -1
;
_chemical_formula_sum "Si O2"
_cell_formula_units_Z 16
_cell_length_a 15.382060
_cell_length_b 17.170630
_cell_length_c 8.915385
_cell_angle_alpha 142.790926
_cell_angle_beta 40.553522
_cell_angle_gamma 147.223294
_cell_volume 741.070555
_symmetry_space_group_name_H-M "P -1"
_symmetry_group_IT_number 2
_symmetry_cell_setting 'triclinic'
loop_
_space_group_symop_operation_xyz
x,y,z
-x,-y,-z
loop_
_atom_site_type_symbol
_atom_site_label
_atom_site_fract_x
_atom_site_fract_y
_atom_site_fract_z
Si Si1 0.666332 0.384276 0.801861
Si Si2 0.861986 0.714626 0.561588
Si Si3 0.794163 0.206598 0.839910
Si Si4 0.659165 0.870876 0.567102
Si Si5 0.329057 0.872463 0.438489
Si Si6 0.672360 0.629703 0.383211
Si Si7 0.280684 0.604953 0.590797
Si Si8 0.267276 0.118075 0.852466
O O1 0.730608 0.295726 0.670550
O O2 0.746957 0.428346 0.599591
O O3 0.463341 0.258428 0.852849
O O4 0.697588 0.532080 0.078980
O O5 0.815131 0.707972 0.440658
O O6 0.730790 0.540281 0.540136
O O7 0.037179 0.744230 0.383659
O O8 0.845540 0.839668 0.859193
O O9 0.663372 0.147144 0.781632
O O10 0.729947 0.052193 0.790510
O O11 0.828718 0.354093 0.115132
O O12 0.674103 0.768869 0.513907
O O13 0.464830 0.768536 0.624342
O O14 0.743285 0.882183 0.314586
O O15 0.500000 0.000000 0.500000
O O16 0.232703 0.952908 0.700876
O O17 0.500000 0.500000 0.500000
#
# Coordination Sequence:
#
# PCOD9102951 Si02
#       8
#     2   2   2   2   2   2   2   2
#     4  10  20  38  64  94 117 160 218 260 296 360
#     4  12  24  39  63  92 131 166 203 257 317 369
#     4  11  25  42  61  93 130 167 202 255 321 366
#     4  10  22  39  64  91 120 163 212 258 303 367
#     4   9  20  38  64  90 122 159 206 254 301 370
#     4  12  22  38  64  95 121 164 210 261 303 370
#     4  11  22  41  65  91 127 167 211 255 304 373
#     4   9  19  38  61  93 123 159 205 256 315 362
#
# _framework density 21.590385999999999
#
# number of rings (size 3 to 8) (size 9 to 14) (size 15 to 20)
#    0.000    1.500    2.500    3.000    0.000    5.500 
#    0.000    3.750    0.000    0.000    0.000    0.000 
#    0.000    0.000    0.000    0.000    0.000    0.000 
#
# Total GULP energy -89382.378270 kJ/mol
# GULP energy per Si atom -5586.398642 kJ/mol
# Density = 2.154125 g / cm^3
# Si number density = 21.590386 Si / 1000 Ang^3
#
#
#
# Elastic Constant Matrix: (Units=GPa)
#
#
# Indices 1 2 3 4 5 6 
#
# 1 93.4364 23.5317 42.1056 4.9019 10.5440 -31.8446
# 2 23.5317 47.4867 17.1177 12.5762 -5.6443 -26.6680
# 3 42.1056 17.1177 151.7155 7.2751 4.4792 -20.8935
# 4 4.9019 12.5762 7.2751 32.3361 -2.5947 -13.5221
# 5 10.5440 -5.6443 4.4792 -2.5947 23.1843 4.5684
# 6 -31.8446 -26.6680 -20.8935 -13.5221 4.5684 41.9571
#
#
#
# Elastic Compliance Matrix: (Units=1/GPa)
#
#
# Indices 1 2 3 4 5 6 
#
# 1 0.018027 -0.002994 -0.002779 0.003513 -0.010494 0.012670
# 2 -0.002994 0.034363 -0.000641 -0.005213 0.005933 0.016924
# 3 -0.002779 -0.000641 0.007644 -0.000616 -0.000667 0.001164
# 4 0.003513 -0.005213 -0.000616 0.037138 -0.000779 0.011100
# 5 -0.010494 0.005933 -0.000667 -0.000779 0.051436 -0.010378
# 6 0.012670 0.016924 0.001164 0.011100 -0.010378 0.049494
#
#
# Mechanical properties :
#
#
# Convention : Reuss Voigt Hill
#
# Bulk Modulus (GPa) = 21.18298 50.90541 36.04420
# Shear Modulus (GPa) = 22.05897 33.48774 27.77335
#
# Velocity S-wave (km/s) = 3.19988 3.94261 3.59050
# Velocity P-wave (km/s) = 4.84612 6.65992 5.82406
#
# Compressibility (1/GPa) = 0.04720771
#
# Stress axis : x y z
#
# Youngs Moduli (GPa) = 55.47310 29.10094 130.81418
#
# Poissons Ratio (x) = 0.08711 0.36353
# Poissons Ratio (y) = 0.16606 0.08383
# Poissons Ratio (z) = 0.15416 0.01865
#
# Static dielectric constant tensor:
#      x y z
#    x 1.792030 0.035440 -0.013060 
#    y 0.035440 1.792630 -0.019150 
#    z -0.013060 -0.019150 1.781780 
# 
# From -- ./inp_files/277799.got.cif
#   From: 2010.05.17/outbox.cif.g08.bks.cpg/sg2_139_cif.got.tgz:277799.got - 2010.06.03 11:33:40.
