data_PCOD9102020
_publ_section_title
;
Structure prediction by ZEFSAII (Michael W. Deem and Ramdas Pophale) SiO2 
 PCOD9102020
Probable space group: P -1
;
_chemical_formula_sum "Si O2"
_cell_formula_units_Z 16
_cell_length_a 8.218669
_cell_length_b 9.808984
_cell_length_c 8.937151
_cell_angle_alpha 75.521360
_cell_angle_beta 76.543820
_cell_angle_gamma 80.670651
_cell_volume 674.307238
_symmetry_space_group_name_H-M "P -1"
_symmetry_group_IT_number 2
_symmetry_cell_setting 'triclinic'
loop_
_space_group_symop_operation_xyz
x,y,z
-x,-y,-z
loop_
_atom_site_type_symbol
_atom_site_label
_atom_site_fract_x
_atom_site_fract_y
_atom_site_fract_z
Si Si1 0.615806 0.229580 0.655778
Si Si2 0.634462 0.780917 0.529784
Si Si3 0.024109 0.461216 0.834274
Si Si4 0.816851 0.476589 0.602870
Si Si5 0.746461 0.081068 0.941281
Si Si6 0.633759 0.545329 0.175692
Si Si7 0.127390 0.143121 0.797032
Si Si8 0.521717 0.712980 0.877486
O O1 0.543193 0.185394 0.526642
O O2 0.772454 0.323065 0.605642
O O3 0.649480 0.100363 0.799740
O O4 0.476827 0.350008 0.719182
O O5 0.693170 0.612324 0.547107
O O6 0.774996 0.852606 0.383575
O O7 0.607646 0.802058 0.707224
O O8 0.201006 0.525382 0.752942
O O9 0.087360 0.299515 0.828264
O O10 0.853839 0.487601 0.769563
O O11 0.000000 0.500000 0.000000
O O12 0.000000 0.500000 0.500000
O O13 0.942226 0.090259 0.852669
O O14 0.643920 0.204840 0.029807
O O15 0.755062 0.945957 0.083381
O O16 0.542585 0.418350 0.162140
O O17 0.644688 0.649868 0.001192
#
# Coordination Sequence:
#
# PCOD9102020 Si02
#       8
#     2   2   2   2   2   2   2   2
#     4  11  21  39  62  90 126 169 206 251 318 372
#     4  12  23  38  64  98 128 159 210 267 315 366
#     4  12  23  37  62  95 120 158 208 257 308 368
#     4  12  22  37  59  93 132 161 196 258 327 371
#     4  10  23  44  68  81 125 178 211 250 307 384
#     4  10  20  38  61  91 131 160 206 252 314 376
#     4  11  23  44  64  90 125 167 215 252 315 377
#     4  10  22  38  65  95 127 165 207 261 311 366
#
# _framework density 23.728055999999999
#
# number of rings (size 3 to 8) (size 9 to 14) (size 15 to 20)
#    0.000    1.000    5.000    1.875    3.500    1.000 
#    0.000    0.000    2.750    1.500    0.000    0.000 
#    0.000    0.000    0.000    0.000    0.000    0.000 
#
# Total GULP energy -89265.861981 kJ/mol
# GULP energy per Si atom -5579.116374 kJ/mol
# Density = 2.367405 g / cm^3
# Si number density = 23.728056 Si / 1000 Ang^3
#
#
#
# Elastic Constant Matrix: (Units=GPa)
#
#
# Indices 1 2 3 4 5 6 
#
# 1 91.8736 11.3102 43.0719 -7.1454 4.9274 -11.1669
# 2 11.3102 31.2962 30.8626 -8.5876 9.3285 -12.4717
# 3 43.0719 30.8626 155.0218 -16.1800 -3.5410 -5.4178
# 4 -7.1454 -8.5876 -16.1800 32.2421 -11.1473 10.2883
# 5 4.9274 9.3285 -3.5410 -11.1473 45.0445 -4.6674
# 6 -11.1669 -12.4717 -5.4178 10.2883 -4.6674 24.1407
#
#
#
# Elastic Compliance Matrix: (Units=1/GPa)
#
#
# Indices 1 2 3 4 5 6 
#
# 1 0.013319 0.001921 -0.004029 -0.001235 -0.001811 0.006425
# 2 0.001921 0.054834 -0.011026 -0.002281 -0.010332 0.025717
# 3 -0.004029 -0.011026 0.010121 0.004718 0.004011 -0.006523
# 4 -0.001235 -0.002281 0.004718 0.040971 0.009426 -0.016330
# 5 -0.001811 -0.010332 0.004011 0.009426 0.026759 -0.004119
# 6 0.006425 0.025717 -0.006523 -0.016330 -0.004119 0.062381
#
#
# Mechanical properties :
#
#
# Convention : Reuss Voigt Hill
#
# Bulk Modulus (GPa) = 19.22805 49.85344 34.54075
# Shear Modulus (GPa) = 19.84222 33.14857 26.49539
#
# Velocity S-wave (km/s) = 2.89491 3.74173 3.34522
# Velocity P-wave (km/s) = 4.39262 6.30264 5.43224
#
# Compressibility (1/GPa) = 0.05200735
#
# Stress axis : x y z
#
# Youngs Moduli (GPa) = 75.08153 18.23696 98.80245
#
# Poissons Ratio (x) = -0.03504 0.39805
# Poissons Ratio (y) = -0.14425 1.08937
# Poissons Ratio (z) = 0.30249 0.20108
#
# Static dielectric constant tensor:
#      x y z
#    x 2.185820 0.012270 0.000200 
#    y 0.012270 1.864710 -0.022310 
#    z 0.000200 -0.022310 2.112190 
# 
# From -- ./inp_files/185848.got.cif
#   From: 2010.05.17/outbox.cif.g08.bks.cpg/sg2_93_cif.got.tgz:185848.got - 2010.06.03 11:33:40.
