data_PCOD9102377
_publ_section_title
;
Structure prediction by ZEFSAII (Michael W. Deem and Ramdas Pophale) SiO2 
 PCOD9102377
Probable space group: P -1
;
_chemical_formula_sum "Si O2"
_cell_formula_units_Z 11
_cell_length_a 8.646968
_cell_length_b 11.391381
_cell_length_c 12.171504
_cell_angle_alpha 33.817238
_cell_angle_beta 134.464807
_cell_angle_gamma 138.930356
_cell_volume 429.265283
_symmetry_space_group_name_H-M "P -1"
_symmetry_group_IT_number 2
_symmetry_cell_setting 'triclinic'
loop_
_space_group_symop_operation_xyz
x,y,z
-x,-y,-z
loop_
_atom_site_type_symbol
_atom_site_label
_atom_site_fract_x
_atom_site_fract_y
_atom_site_fract_z
Si Si1 0.549816 0.269639 0.788786
Si Si2 0.455219 0.086765 0.661539
Si Si3 0.260547 0.203080 0.901770
Si Si4 0.848472 0.247354 0.568670
Si Si5 0.500000 0.500000 0.000000
Si Si6 0.089418 0.640278 0.741937
O O1 0.411869 0.331454 0.768913
O O2 0.829603 0.444729 0.793429
O O3 0.455999 0.257030 0.626614
O O4 0.500000 0.000000 0.000000
O O5 0.195337 0.872034 0.689142
O O6 0.575295 0.166072 0.538588
O O7 0.644975 0.990249 0.873489
O O8 0.986885 0.102254 0.800240
O O9 0.319154 0.374925 0.900806
O O10 0.886332 0.266078 0.443608
O O11 0.000000 0.500000 0.500000
O O12 0.713407 0.460922 0.073758
#
# Coordination Sequence:
#
# PCOD9102377 Si02
#       6
#     2   2   2   2   1   2
#     4  10  22  41  62  90 128 162 203 251 308 365
#     4  10  22  41  64  91 124 164 205 250 305 365
#     4  10  22  38  66  90 124 165 202 249 311 365
#     4  12  21  40  65  91 127 159 205 260 303 356
#     4  10  20  38  62  94 116 160 210 248 302 360
#     4  11  23  40  64  92 126 160 208 254 302 365
#
# _framework density 25.625177999999998
#
# number of rings (size 3 to 8) (size 9 to 14) (size 15 to 20)
#    0.000    1.455    3.636    1.091    0.000   11.636 
#    0.000    0.909    0.000    0.000    0.000    0.000 
#    0.000    0.000    0.000    0.000    0.000    0.000 
#
# Total GULP energy -61255.061281 kJ/mol
# GULP energy per Si atom -5568.641935 kJ/mol
# Density = 2.556685 g / cm^3
# Si number density = 25.625178 Si / 1000 Ang^3
#
#
#
# Elastic Constant Matrix: (Units=GPa)
#
#
# Indices 1 2 3 4 5 6 
#
# 1 124.5203 70.8269 2.7110 -1.6008 -26.8754 1.0276
# 2 70.8269 162.5656 8.8135 -0.7196 -14.1322 30.1279
# 3 2.7110 8.8135 61.0713 -4.0571 -3.2408 10.5481
# 4 -1.6008 -0.7196 -4.0571 25.4606 5.3441 -4.1362
# 5 -26.8754 -14.1322 -3.2408 5.3441 40.3735 -4.3524
# 6 1.0276 30.1279 10.5481 -4.1362 -4.3524 44.3143
#
#
#
# Elastic Compliance Matrix: (Units=1/GPa)
#
#
# Indices 1 2 3 4 5 6 
#
# 1 0.012770 -0.005752 -0.000122 -0.000139 0.006961 0.004314
# 2 -0.005752 0.009815 -0.000122 -0.000983 -0.000995 -0.006700
# 3 -0.000122 -0.000122 0.017212 0.001996 0.000587 -0.003767
# 4 -0.000139 -0.000983 0.001996 0.041254 -0.005358 0.003521
# 5 0.006961 -0.000995 0.000587 -0.005358 0.030116 0.002833
# 6 0.004314 -0.006700 -0.003767 0.003521 0.002833 0.028525
#
#
# Mechanical properties :
#
#
# Convention : Reuss Voigt Hill
#
# Bulk Modulus (GPa) = 35.96480 56.98446 46.47463
# Shear Modulus (GPa) = 31.06508 39.75008 35.40758
#
# Velocity S-wave (km/s) = 3.48557 3.94282 3.72122
# Velocity P-wave (km/s) = 5.50130 6.55848 6.05302
#
# Compressibility (1/GPa) = 0.02780496
#
# Stress axis : x y z
#
# Youngs Moduli (GPa) = 78.30632 101.88563 58.09980
#
# Poissons Ratio (x) = 0.58607 0.00707
# Poissons Ratio (y) = 0.45044 0.00709
# Poissons Ratio (z) = 0.00953 0.01243
#
# Static dielectric constant tensor:
#      x y z
#    x 2.024820 -0.005430 -0.048600 
#    y -0.005430 1.979000 -0.052190 
#    z -0.048600 -0.052190 2.211010 
# 
# From -- ./inp_files/147599.got.cif
#   From: 2010.05.17/outbox.cif.g08.bks.cpg/sg2_74_cif.got.tgz:147599.got - 2010.06.03 11:33:40.
