data_PCOD9102974
_publ_section_title
;
Structure prediction by ZEFSAII (Michael W. Deem and Ramdas Pophale) SiO2 
 PCOD9102974
Probable space group: P -1
;
_chemical_formula_sum "Si O2"
_cell_formula_units_Z 15
_cell_length_a 27.304919
_cell_length_b 26.915195
_cell_length_c 14.580767
_cell_angle_alpha 16.996167
_cell_angle_beta 160.475303
_cell_angle_gamma 169.181239
_cell_volume 586.953404
_symmetry_space_group_name_H-M "P -1"
_symmetry_group_IT_number 2
_symmetry_cell_setting 'triclinic'
loop_
_space_group_symop_operation_xyz
x,y,z
-x,-y,-z
loop_
_atom_site_type_symbol
_atom_site_label
_atom_site_fract_x
_atom_site_fract_y
_atom_site_fract_z
Si Si1 0.239995 0.856231 0.774602
Si Si2 0.650153 0.588061 0.476562
Si Si3 0.000000 0.500000 0.500000
Si Si4 0.180610 0.998470 0.593661
Si Si5 0.508722 0.792071 0.963171
Si Si6 0.256962 0.158997 0.132653
Si Si7 0.699452 0.198571 0.716128
Si Si8 0.160392 0.861520 0.324718
O O1 0.199848 0.973004 0.567378
O O2 0.266278 0.975859 0.513299
O O3 0.000000 0.500000 0.000000
O O4 0.500000 0.000000 0.000000
O O5 0.639745 0.756012 0.212102
O O6 0.612083 0.404683 0.809410
O O7 0.907894 0.796765 0.507462
O O8 0.399680 0.340024 0.407439
O O9 0.900342 0.245507 0.698974
O O10 0.726904 0.348271 0.258216
O O11 0.248023 0.885839 0.963289
O O12 0.745016 0.146935 0.787794
O O13 0.232605 0.106484 0.072044
O O14 0.500000 0.500000 0.000000
O O15 0.000000 0.000000 0.000000
O O16 0.893650 0.539646 0.468556
O O17 0.407141 0.980200 0.574936
#
# Coordination Sequence:
#
# PCOD9102974 Si02
#       8
#     2   2   1   2   2   2   2   2
#     4  12  25  45  74 105 135 181 248 306 357 433
#     4  10  22  38  61  91 138 179 218 282 361 428
#     4  10  22  40  66  96 128 174 236 290 336 414
#     4  11  21  38  64  97 130 173 230 292 355 423
#     4   9  21  38  61  95 135 184 229 281 354 428
#     4  12  27  49  73 103 148 194 234 295 378 445
#     4  10  20  38  64  94 132 174 224 284 346 409
#     4  11  23  42  66  96 133 179 231 284 348 422
#
# _framework density 25.555690999999999
#
# number of rings (size 3 to 8) (size 9 to 14) (size 15 to 20)
#    0.000    1.333    0.000    6.400    0.000   10.133 
#    0.000    2.667    0.000    0.000    0.000    0.000 
#    0.000    0.000    0.000    0.000    0.000    0.000 
#
# Total GULP energy -83830.893467 kJ/mol
# GULP energy per Si atom -5588.726231 kJ/mol
# Density = 2.549752 g / cm^3
# Si number density = 25.555691 Si / 1000 Ang^3
#
#
#
# Elastic Constant Matrix: (Units=GPa)
#
#
# Indices 1 2 3 4 5 6 
#
# 1 166.4215 56.8142 20.7003 5.9478 26.3348 -26.1706
# 2 56.8142 220.1387 40.6189 24.7613 13.3471 -12.6557
# 3 20.7003 40.6189 88.6379 0.2668 -9.1903 -2.2555
# 4 5.9478 24.7613 0.2668 56.2934 7.6810 11.3113
# 5 26.3348 13.3471 -9.1903 7.6810 54.9050 -0.7527
# 6 -26.1706 -12.6557 -2.2555 11.3113 -0.7527 43.0277
#
#
#
# Elastic Compliance Matrix: (Units=1/GPa)
#
#
# Indices 1 2 3 4 5 6 
#
# 1 0.007916 -0.001198 -0.001557 -0.000716 -0.003604 0.004506
# 2 -0.001198 0.005715 -0.002380 -0.002561 -0.000835 0.001486
# 3 -0.001557 -0.002380 0.013053 0.000921 0.003366 -0.001146
# 4 -0.000716 -0.002561 0.000921 0.020533 -0.001843 -0.006570
# 5 -0.003604 -0.000835 0.003366 -0.001843 0.020947 -0.001410
# 6 0.004506 0.001486 -0.001146 -0.006570 -0.001410 0.028061
#
#
# Mechanical properties :
#
#
# Convention : Reuss Voigt Hill
#
# Bulk Modulus (GPa) = 60.92051 79.05165 69.98608
# Shear Modulus (GPa) = 44.65641 54.64954 49.65298
#
# Velocity S-wave (km/s) = 4.18475 4.62935 4.41265
# Velocity P-wave (km/s) = 6.87310 7.71847 7.30802
#
# Compressibility (1/GPa) = 0.01641483
#
# Stress axis : x y z
#
# Youngs Moduli (GPa) = 126.32914 174.97966 76.60948
#
# Poissons Ratio (x) = 0.20956 0.11926
# Poissons Ratio (y) = 0.15129 0.18235
# Poissons Ratio (z) = 0.19666 0.41649
#
# Static dielectric constant tensor:
#      x y z
#    x 1.894420 -0.084670 0.034850 
#    y -0.084670 1.857330 -0.027450 
#    z 0.034850 -0.027450 2.014160 
# 
# From -- ./inp_files/544580.got.cif
#   From: 2010.05.17/outbox.cif.g08.bks.cpg/sg2_273_cif.got.tgz:544580.got - 2010.06.03 11:33:40.
