data_PCOD9102234
_publ_section_title
;
Structure prediction by ZEFSAII (Michael W. Deem and Ramdas Pophale) SiO2 
 PCOD9102234
Probable space group: P -1
;
_chemical_formula_sum "Si O2"
_cell_formula_units_Z 12
_cell_length_a 5.000323
_cell_length_b 16.121176
_cell_length_c 7.056287
_cell_angle_alpha 116.343056
_cell_angle_beta 82.864009
_cell_angle_gamma 71.496947
_cell_volume 459.283002
_symmetry_space_group_name_H-M "P -1"
_symmetry_group_IT_number 2
_symmetry_cell_setting 'triclinic'
loop_
_space_group_symop_operation_xyz
x,y,z
-x,-y,-z
loop_
_atom_site_type_symbol
_atom_site_label
_atom_site_fract_x
_atom_site_fract_y
_atom_site_fract_z
Si Si1 0.492463 0.598320 0.985512
Si Si2 0.146189 0.012953 0.192181
Si Si3 0.134553 0.527764 0.704342
Si Si4 0.342467 0.690136 0.469292
Si Si5 0.301670 0.196868 0.391149
Si Si6 0.414036 0.904205 0.393371
O O1 0.304276 0.600296 0.814761
O O2 0.834529 0.574512 0.900751
O O3 0.500000 0.500000 0.000000
O O4 0.350115 0.691020 0.238388
O O5 0.879798 0.069277 0.425467
O O6 0.305015 0.089233 0.222238
O O7 0.343748 0.908300 0.181218
O O8 0.000000 0.000000 0.000000
O O9 0.399321 0.417964 0.614287
O O10 0.000000 0.500000 0.500000
O O11 0.434618 0.771433 0.645679
O O12 0.003468 0.715279 0.565583
O O13 0.328807 0.185988 0.608094
O O14 0.500000 0.000000 0.500000
#
# Coordination Sequence:
#
# PCOD9102234 Si02
#       6
#     2   2   2   2   2   2
#     4  10  20  38  62  89 109 167 211 234 301 382
#     4  10  21  41  67  93 123 168 214 252 309 383
#     4  11  22  39  63  90 125 159 208 257 304 367
#     4  11  21  38  63  86 123 165 203 258 306 366
#     4  11  21  38  61  90 124 162 204 260 318 354
#     4   9  20  39  65  90 122 163 214 243 315 375
#
# _framework density 26.127683000000001
#
# number of rings (size 3 to 8) (size 9 to 14) (size 15 to 20)
#    0.000    1.667    1.667    5.500    0.000    2.667 
#    0.000    5.000    7.333    0.000    0.000    0.000 
#    0.000    0.000    0.000    0.000    0.000    0.000 
#
# Total GULP energy -66941.969538 kJ/mol
# GULP energy per Si atom -5578.497462 kJ/mol
# Density = 2.606821 g / cm^3
# Si number density = 26.127683 Si / 1000 Ang^3
#
#
#
# Elastic Constant Matrix: (Units=GPa)
#
#
# Indices 1 2 3 4 5 6 
#
# 1 173.3332 32.8226 34.6995 3.4283 26.2585 -6.9017
# 2 32.8226 37.2295 16.3982 4.5957 25.1790 -16.9274
# 3 34.6995 16.3982 110.5772 -0.7634 41.2146 -0.5668
# 4 3.4283 4.5957 -0.7634 32.6354 -7.7442 16.8457
# 5 26.2585 25.1790 41.2146 -7.7442 66.0288 -3.2851
# 6 -6.9017 -16.9274 -0.5668 16.8457 -3.2851 62.0381
#
#
#
# Elastic Compliance Matrix: (Units=1/GPa)
#
#
# Indices 1 2 3 4 5 6 
#
# 1 0.007197 -0.006981 -0.001525 0.001092 0.000812 -0.001371
# 2 -0.006981 0.060441 0.001809 -0.024101 -0.023181 0.021048
# 3 -0.001525 0.001809 0.012185 -0.001967 -0.007892 0.000551
# 4 0.001092 -0.024101 -0.001967 0.046838 0.014561 -0.018420
# 5 0.000812 -0.023181 -0.007892 0.014561 0.029864 -0.008679
# 6 -0.001371 0.021048 0.000551 -0.018420 -0.008679 0.026257
#
#
# Mechanical properties :
#
#
# Convention : Reuss Voigt Hill
#
# Bulk Modulus (GPa) = 15.05383 54.33116 34.69250
# Shear Modulus (GPa) = 22.90228 47.95510 35.42869
#
# Velocity S-wave (km/s) = 2.96387 4.28882 3.68636
# Velocity P-wave (km/s) = 4.18173 6.73535 5.60588
#
# Compressibility (1/GPa) = 0.06642829
#
# Stress axis : x y z
#
# Youngs Moduli (GPa) = 138.94050 16.54504 82.07067
#
# Poissons Ratio (x) = 0.11550 0.12519
# Poissons Ratio (y) = 0.96993 -0.14845
# Poissons Ratio (z) = 0.21193 -0.02993
#
# Static dielectric constant tensor:
#      x y z
#    x 2.057530 -0.003860 0.017510 
#    y -0.003860 2.230990 -0.033490 
#    z 0.017510 -0.033490 2.160940 
# 
# From -- ./inp_files/6830.got.cif
#   From: 2010.05.17/outbox.cif.g08.bks.cpg/sg2_4_cif.got.tgz:6830.got - 2010.06.03 11:33:40.
