data_PCOD9102194
_publ_section_title
;
Structure prediction by ZEFSAII (Michael W. Deem and Ramdas Pophale) SiO2 
 PCOD9102194
Probable space group: P -1
;
_chemical_formula_sum "Si O2"
_cell_formula_units_Z 14
_cell_length_a 24.834330
_cell_length_b 19.826062
_cell_length_c 9.484650
_cell_angle_alpha 24.917699
_cell_angle_beta 154.136142
_cell_angle_gamma 161.471080
_cell_volume 596.789159
_symmetry_space_group_name_H-M "P -1"
_symmetry_group_IT_number 2
_symmetry_cell_setting 'triclinic'
loop_
_space_group_symop_operation_xyz
x,y,z
-x,-y,-z
loop_
_atom_site_type_symbol
_atom_site_label
_atom_site_fract_x
_atom_site_fract_y
_atom_site_fract_z
Si Si1 0.018814 0.600217 0.003923
Si Si2 0.354017 0.106324 0.163138
Si Si3 0.746896 0.522898 0.695720
Si Si4 0.401552 0.388114 0.170401
Si Si5 0.185073 0.629486 0.610312
Si Si6 0.768863 0.873684 0.461658
Si Si7 0.892095 0.959389 0.087318
O O1 0.129649 0.590928 0.390187
O O2 0.832770 0.473495 0.884675
O O3 0.000000 0.500000 0.000000
O O4 0.124387 0.866519 0.731876
O O5 0.338881 0.906243 0.471412
O O6 0.529369 0.364543 0.134020
O O7 0.297972 0.147258 0.811427
O O8 0.206230 0.992559 0.153068
O O9 0.556116 0.420866 0.406240
O O10 0.876063 0.794767 0.469141
O O11 0.750391 0.462579 0.976813
O O12 0.376435 0.302645 0.431245
O O13 0.223085 0.194658 0.028585
O O14 0.000000 0.500000 0.500000
O O15 0.903139 0.848037 0.830633
#
# Coordination Sequence:
#
# PCOD9102194 Si02
#       7
#     2   2   2   2   2   2   2
#     4   9  19  38  60  87 119 153 198 246 291 352
#     4  10  20  38  62  88 117 151 197 249 296 353
#     4   9  19  38  59  83 116 154 192 240 294 348
#     4  11  22  39  59  90 124 154 195 250 300 345
#     4   9  19  37  61  88 117 155 199 238 292 361
#     4  10  21  38  60  87 118 157 201 243 294 358
#     4  10  21  40  62  87 118 158 201 244 290 353
#
# _framework density 23.458870999999998
#
# number of rings (size 3 to 8) (size 9 to 14) (size 15 to 20)
#    0.000    2.286    0.000    3.857    0.000    4.571 
#    0.000   20.714    0.000    1.714    0.000    0.000 
#    0.000    0.000    0.000    0.000    0.000    0.000 
#
# Total GULP energy -78197.292796 kJ/mol
# GULP energy per Si atom -5585.520914 kJ/mol
# Density = 2.340548 g / cm^3
# Si number density = 23.458871 Si / 1000 Ang^3
#
#
#
# Elastic Constant Matrix: (Units=GPa)
#
#
# Indices 1 2 3 4 5 6 
#
# 1 94.5544 35.1947 -0.4137 0.7795 -9.3607 -17.4761
# 2 35.1947 76.3289 21.9116 1.1134 -3.8085 -16.1525
# 3 -0.4137 21.9116 68.7828 5.0706 -8.7489 -9.3069
# 4 0.7795 1.1134 5.0706 13.1421 -3.3864 -2.6630
# 5 -9.3607 -3.8085 -8.7489 -3.3864 16.4051 5.6721
# 6 -17.4761 -16.1525 -9.3069 -2.6630 5.6721 43.6512
#
#
#
# Elastic Compliance Matrix: (Units=1/GPa)
#
#
# Indices 1 2 3 4 5 6 
#
# 1 0.014381 -0.006612 0.003520 0.000957 0.007665 0.003124
# 2 -0.006612 0.018390 -0.005969 0.000880 -0.003687 0.003418
# 3 0.003520 -0.005969 0.018114 -0.004070 0.008868 0.001662
# 4 0.000957 0.000880 -0.004070 0.081854 0.014454 0.002956
# 5 0.007665 -0.003687 0.008868 0.014454 0.073962 -0.005134
# 6 0.003124 0.003418 0.001662 0.002956 -0.005134 0.026626
#
#
# Mechanical properties :
#
#
# Convention : Reuss Voigt Hill
#
# Bulk Modulus (GPa) = 30.52310 39.22794 34.87552
# Shear Modulus (GPa) = 19.05701 26.83792 22.94746
#
# Velocity S-wave (km/s) = 2.85328 3.38604 3.13101
# Velocity P-wave (km/s) = 4.88820 5.66086 5.28866
#
# Compressibility (1/GPa) = 0.03276208
#
# Stress axis : x y z
#
# Youngs Moduli (GPa) = 69.53818 54.37761 55.20518
#
# Poissons Ratio (x) = 0.35953 -0.19431
# Poissons Ratio (y) = 0.45976 0.32955
# Poissons Ratio (z) = -0.24476 0.32461
#
# Static dielectric constant tensor:
#      x y z
#    x 1.943500 -0.004260 0.057540 
#    y -0.004260 1.913300 0.008400 
#    z 0.057540 0.008400 1.932200 
# 
# From -- ./inp_files/158293.got.cif
#   From: 2010.05.17/outbox.cif.g08.bks.cpg/sg2_80_cif.got.tgz:158293.got - 2010.06.03 11:33:40.
