data_PCOD9102891
_publ_section_title
;
Structure prediction by ZEFSAII (Michael W. Deem and Ramdas Pophale) SiO2 
 PCOD9102891
Probable space group: P -1
;
_chemical_formula_sum "Si O2"
_cell_formula_units_Z 14
_cell_length_a 16.195198
_cell_length_b 11.356248
_cell_length_c 5.147106
_cell_angle_alpha 94.632271
_cell_angle_beta 94.109107
_cell_angle_gamma 41.378353
_cell_volume 623.623239
_symmetry_space_group_name_H-M "P -1"
_symmetry_group_IT_number 2
_symmetry_cell_setting 'triclinic'
loop_
_space_group_symop_operation_xyz
x,y,z
-x,-y,-z
loop_
_atom_site_type_symbol
_atom_site_label
_atom_site_fract_x
_atom_site_fract_y
_atom_site_fract_z
Si Si1 0.919326 0.048330 0.743921
Si Si2 0.439660 0.199761 0.297378
Si Si3 0.116973 0.193332 0.260245
Si Si4 0.218171 0.594921 0.092942
Si Si5 0.760542 0.613606 0.346143
Si Si6 0.325850 0.097832 0.992264
Si Si7 0.034533 0.610923 0.242782
O O1 0.791229 0.259181 0.806193
O O2 0.893772 0.936453 0.743593
O O3 0.000000 0.000000 0.500000
O O4 0.000000 0.000000 0.000000
O O5 0.345338 0.395357 0.178650
O O6 0.383001 0.257361 0.582853
O O7 0.581424 0.065891 0.219171
O O8 0.405882 0.103049 0.183043
O O9 0.075366 0.276905 0.552622
O O10 0.248733 0.092973 0.156007
O O11 0.020758 0.352132 0.051023
O O12 0.097105 0.672532 0.228773
O O13 0.197678 0.557133 0.797039
O O14 0.759349 0.717731 0.152807
O O15 0.846030 0.566785 0.597950
#
# Coordination Sequence:
#
# PCOD9102891 Si02
#       7
#     2   2   2   2   2   2   2
#     4  12  22  39  66  91 127 163 203 251 312 381
#     4   9  21  42  63  87 122 170 216 251 307 364
#     4  12  24  39  62  96 129 160 207 257 312 368
#     4  10  20  38  64  92 120 167 207 252 306 369
#     4  10  20  39  64  90 125 168 209 253 308 375
#     4  10  23  40  62  90 125 170 210 260 302 369
#     4  11  21  39  58  92 128 159 200 251 313 369
#
# _framework density 22.449449999999999
#
# number of rings (size 3 to 8) (size 9 to 14) (size 15 to 20)
#    0.000    1.429    4.286    0.429    4.000    1.143 
#    0.000    0.714    0.000    0.857    0.000    0.000 
#    0.000    0.000    0.000    0.000    0.000    0.000 
#
# Total GULP energy -78005.530489 kJ/mol
# GULP energy per Si atom -5571.823606 kJ/mol
# Density = 2.239835 g / cm^3
# Si number density = 22.449450 Si / 1000 Ang^3
#
#
#
# Elastic Constant Matrix: (Units=GPa)
#
#
# Indices 1 2 3 4 5 6 
#
# 1 67.0954 29.3152 31.4162 17.6573 -34.0755 2.7592
# 2 29.3152 110.7282 34.3827 19.1041 -10.7364 6.0662
# 3 31.4162 34.3827 153.6208 12.8308 -21.2302 0.7527
# 4 17.6573 19.1041 12.8308 42.5976 -12.6050 -3.1249
# 5 -34.0755 -10.7364 -21.2302 -12.6050 41.1572 2.8811
# 6 2.7592 6.0662 0.7527 -3.1249 2.8811 29.5796
#
#
#
# Elastic Compliance Matrix: (Units=1/GPa)
#
#
# Indices 1 2 3 4 5 6 
#
# 1 0.029921 -0.004358 -0.001786 -0.003760 0.021869 -0.004379
# 2 -0.004358 0.011183 -0.001648 -0.003599 -0.002504 -0.001981
# 3 -0.001786 -0.001648 0.007524 -0.000218 0.001899 0.000105
# 4 -0.003760 -0.003599 -0.000218 0.028233 0.004226 0.003665
# 5 0.021869 -0.002504 0.001899 0.004226 0.044406 -0.005454
# 6 -0.004379 -0.001981 0.000105 0.003665 -0.005454 0.035538
#
#
# Mechanical properties :
#
#
# Convention : Reuss Voigt Hill
#
# Bulk Modulus (GPa) = 30.26162 57.96362 44.11262
# Shear Modulus (GPa) = 27.26267 38.42222 32.84244
#
# Velocity S-wave (km/s) = 3.48861 4.14152 3.82900
# Velocity P-wave (km/s) = 5.45310 6.98178 6.26425
#
# Compressibility (1/GPa) = 0.03304515
#
# Stress axis : x y z
#
# Youngs Moduli (GPa) = 33.42177 89.42036 132.91666
#
# Poissons Ratio (x) = 0.38968 0.23735
# Poissons Ratio (y) = 0.14565 0.21898
# Poissons Ratio (z) = 0.05968 0.14732
#
# Static dielectric constant tensor:
#      x y z
#    x 1.851540 -0.030660 0.002820 
#    y -0.030660 2.052790 -0.003430 
#    z 0.002820 -0.003430 1.930060 
# 
# From -- ./inp_files/108541.got.cif
#   From: 2010.05.17/outbox.cif.g08.bks.cpg/sg2_55_cif.got.tgz:108541.got - 2010.06.03 11:33:40.
