data_PCOD9102149
_publ_section_title
;
Structure prediction by ZEFSAII (Michael W. Deem and Ramdas Pophale) SiO2 
 PCOD9102149
Probable space group: P -1
;
_chemical_formula_sum "Si O2"
_cell_formula_units_Z 15
_cell_length_a 12.755148
_cell_length_b 13.510863
_cell_length_c 9.334296
_cell_angle_alpha 95.609914
_cell_angle_beta 48.087533
_cell_angle_gamma 56.153562
_cell_volume 645.997515
_symmetry_space_group_name_H-M "P -1"
_symmetry_group_IT_number 2
_symmetry_cell_setting 'triclinic'
loop_
_space_group_symop_operation_xyz
x,y,z
-x,-y,-z
loop_
_atom_site_type_symbol
_atom_site_label
_atom_site_fract_x
_atom_site_fract_y
_atom_site_fract_z
Si Si1 0.445997 0.170028 0.966080
Si Si2 0.094213 0.185437 0.323200
Si Si3 0.518164 0.331520 0.385980
Si Si4 0.721654 0.899043 0.446843
Si Si5 0.620106 0.592543 0.793894
Si Si6 0.705531 0.426618 0.108476
Si Si7 0.500000 0.500000 0.000000
Si Si8 0.704363 0.002898 0.174173
O O1 0.712479 0.996546 0.787697
O O2 0.536319 0.093343 0.712036
O O3 0.240381 0.205409 0.193558
O O4 0.331837 0.341026 0.146044
O O5 0.796177 0.391792 0.658442
O O6 0.101211 0.137572 0.150754
O O7 0.355201 0.407012 0.397640
O O8 0.681446 0.332927 0.195056
O O9 0.361622 0.454254 0.688360
O O10 0.675555 0.136908 0.241074
O O11 0.571725 0.884086 0.602766
O O12 0.769223 0.901321 0.240762
O O13 0.002754 0.728528 0.234938
O O14 0.359321 0.690384 0.087466
O O15 0.519448 0.540177 0.158758
#
# Coordination Sequence:
#
# PCOD9102149 Si02
#       8
#     2   2   2   2   2   2   1   2
#     4  10  21  37  59  92 123 157 203 257 299 378
#     4  10  20  38  62  86 123 161 205 248 309 366
#     4  10  22  40  64  87 124 161 215 246 301 379
#     4  10  22  39  61  92 128 158 202 257 318 358
#     4  11  21  40  60  88 121 166 200 256 306 361
#     4  10  22  43  62  88 121 168 205 257 308 369
#     4  10  24  40  60  88 126 152 210 264 296 362
#     4  10  21  40  61  93 126 159 204 261 300 377
#
# _framework density 23.219906000000002
#
# number of rings (size 3 to 8) (size 9 to 14) (size 15 to 20)
#    0.000    1.867    1.333    2.000    1.867    1.067 
#    4.800    2.000    0.000    0.000    0.000    0.000 
#    0.000    0.000    0.000    0.000    0.000    0.000 
#
# Total GULP energy -83580.454530 kJ/mol
# GULP energy per Si atom -5572.030302 kJ/mol
# Density = 2.316706 g / cm^3
# Si number density = 23.219906 Si / 1000 Ang^3
#
#
#
# Elastic Constant Matrix: (Units=GPa)
#
#
# Indices 1 2 3 4 5 6 
#
# 1 94.4992 18.6756 45.3305 9.3434 17.9619 7.4514
# 2 18.6756 67.2709 30.9707 3.6012 16.5308 13.1349
# 3 45.3305 30.9707 105.7088 3.0768 4.8518 4.9355
# 4 9.3434 3.6012 3.0768 28.7416 -5.6014 13.6056
# 5 17.9619 16.5308 4.8518 -5.6014 43.2624 11.2260
# 6 7.4514 13.1349 4.9355 13.6056 11.2260 35.9606
#
#
#
# Elastic Compliance Matrix: (Units=1/GPa)
#
#
# Indices 1 2 3 4 5 6 
#
# 1 0.015432 0.000306 -0.006282 -0.007007 -0.007378 0.002507
# 2 0.000306 0.019627 -0.005373 -0.001222 -0.006112 -0.004124
# 3 -0.006282 -0.005373 0.013525 0.002225 0.003575 -0.000550
# 4 -0.007007 -0.001222 0.002225 0.050601 0.015488 -0.022387
# 5 -0.007378 -0.006112 0.003575 0.015488 0.033503 -0.013048
# 6 0.002507 -0.004124 -0.000550 -0.022387 -0.013048 0.041414
#
#
# Mechanical properties :
#
#
# Convention : Reuss Voigt Hill
#
# Bulk Modulus (GPa) = 38.62985 50.82583 44.72784
# Shear Modulus (GPa) = 24.33936 33.09308 28.71622
#
# Velocity S-wave (km/s) = 3.24112 3.77928 3.52050
# Velocity P-wave (km/s) = 5.53887 6.40159 5.98580
#
# Compressibility (1/GPa) = 0.02588672
#
# Stress axis : x y z
#
# Youngs Moduli (GPa) = 64.79858 50.95152 73.93802
#
# Poissons Ratio (x) = -0.01561 0.46448
# Poissons Ratio (y) = -0.01986 0.39726
# Poissons Ratio (z) = 0.40707 0.27376
#
# Static dielectric constant tensor:
#      x y z
#    x 1.946620 -0.020480 -0.025350 
#    y -0.020480 1.867000 -0.006570 
#    z -0.025350 -0.006570 1.906180 
# 
# From -- ./inp_files/273613.got.cif
#   From: 2010.05.17/outbox.cif.g08.bks.cpg/sg2_137_cif.got.tgz:273613.got - 2010.06.03 11:33:40.
