data_PCOD9102972
_publ_section_title
;
Structure prediction by ZEFSAII (Michael W. Deem and Ramdas Pophale) SiO2 
 PCOD9102972
Probable space group: P -1
;
_chemical_formula_sum "Si O2"
_cell_formula_units_Z 16
_cell_length_a 11.350505
_cell_length_b 5.536121
_cell_length_c 24.202049
_cell_angle_alpha 62.992031
_cell_angle_beta 144.325302
_cell_angle_gamma 98.572216
_cell_volume 715.967843
_symmetry_space_group_name_H-M "P -1"
_symmetry_group_IT_number 2
_symmetry_cell_setting 'triclinic'
loop_
_space_group_symop_operation_xyz
x,y,z
-x,-y,-z
loop_
_atom_site_type_symbol
_atom_site_label
_atom_site_fract_x
_atom_site_fract_y
_atom_site_fract_z
Si Si1 0.197465 0.526918 0.755022
Si Si2 0.282903 0.288205 0.485910
Si Si3 0.281973 0.209141 0.929138
Si Si4 0.755888 0.108888 0.870207
Si Si5 0.372632 0.283716 0.281802
Si Si6 0.470814 0.893176 0.860273
Si Si7 0.433190 0.407633 0.418076
Si Si8 0.910095 0.993630 0.815967
O O1 0.149160 0.457618 0.807239
O O2 0.328948 0.214284 0.803699
O O3 0.964523 0.680456 0.618142
O O4 0.332664 0.728335 0.796548
O O5 0.384502 0.234241 0.467732
O O6 0.328105 0.578379 0.487224
O O7 0.425120 0.044025 0.611160
O O8 0.140047 0.019715 0.907505
O O9 0.500000 0.000000 0.000000
O O10 0.369872 0.300607 0.008725
O O11 0.624282 0.469228 0.784326
O O12 0.621139 0.952968 0.865444
O O13 0.795828 0.042935 0.827419
O O14 0.000000 0.000000 0.000000
O O15 0.404428 0.344450 0.350943
O O16 0.124455 0.295403 0.185189
O O17 0.240465 0.752429 0.311358
#
# Coordination Sequence:
#
# PCOD9102972 Si02
#       8
#     2   2   2   2   2   2   2   2
#     4  11  25  43  70  98 138 177 219 275 345 407
#     4  10  20  38  64  94 132 172 218 273 337 403
#     4  10  21  41  63  99 139 172 219 275 342 411
#     4  11  24  43  66  91 131 174 232 278 326 391
#     4  10  23  37  65  95 129 171 222 282 327 395
#     4  11  26  45  66  99 134 183 227 273 331 405
#     4   9  19  36  60  96 133 161 218 269 335 395
#     4  10  20  40  63  98 128 170 215 276 338 389
#
# _framework density 22.347372
#
# number of rings (size 3 to 8) (size 9 to 14) (size 15 to 20)
#    0.000    1.750    2.500    0.750    3.500    4.500 
#    0.000    1.250    0.000    0.000    0.000    0.000 
#    0.000    0.000    0.000    0.000    0.000    0.000 
#
# Total GULP energy -89188.455953 kJ/mol
# GULP energy per Si atom -5574.278497 kJ/mol
# Density = 2.229651 g / cm^3
# Si number density = 22.347372 Si / 1000 Ang^3
#
#
#
# Elastic Constant Matrix: (Units=GPa)
#
#
# Indices 1 2 3 4 5 6 
#
# 1 84.4798 30.4994 27.7195 11.3583 -2.0958 19.2872
# 2 30.4994 91.0166 43.2955 34.0268 8.6356 12.4456
# 3 27.7195 43.2955 128.7636 25.1081 -3.3577 7.9691
# 4 11.3583 34.0268 25.1081 46.6427 14.7580 -0.0997
# 5 -2.0958 8.6356 -3.3577 14.7580 28.2905 3.6617
# 6 19.2872 12.4456 7.9691 -0.0997 3.6617 29.0266
#
#
#
# Elastic Compliance Matrix: (Units=1/GPa)
#
#
# Indices 1 2 3 4 5 6 
#
# 1 0.015935 -0.002923 -0.001249 -0.002511 0.004472 -0.009564
# 2 -0.002923 0.018201 -0.003012 -0.011049 0.000295 -0.005110
# 3 -0.001249 -0.003012 0.010085 -0.004336 0.004444 -0.001223
# 4 -0.002511 -0.011049 -0.004336 0.038367 -0.018647 0.010080
# 5 0.004472 0.000295 0.004444 -0.018647 0.047181 -0.010334
# 6 -0.009564 -0.005110 -0.001223 0.010080 -0.010334 0.044671
#
#
# Mechanical properties :
#
#
# Convention : Reuss Voigt Hill
#
# Bulk Modulus (GPa) = 33.49966 56.36541 44.93253
# Shear Modulus (GPa) = 25.15610 34.30832 29.73221
#
# Velocity S-wave (km/s) = 3.35876 3.92245 3.65150
# Velocity P-wave (km/s) = 5.48313 6.76693 6.15857
#
# Compressibility (1/GPa) = 0.02985105
#
# Stress axis : x y z
#
# Youngs Moduli (GPa) = 62.75676 54.94296 99.15799
#
# Poissons Ratio (x) = 0.16061 0.12388
# Poissons Ratio (y) = 0.18345 0.29868
# Poissons Ratio (z) = 0.07840 0.16550
#
# Static dielectric constant tensor:
#      x y z
#    x 1.840240 -0.125690 0.035320 
#    y -0.125690 2.126440 -0.067440 
#    z 0.035320 -0.067440 1.885860 
# 
# From -- ./inp_files/123664.got.cif
#   From: 2010.05.17/outbox.cif.g08.bks.cpg/sg2_62_cif.got.tgz:123664.got - 2010.06.03 11:33:40.
