data_PCOD9102662
_publ_section_title
;
Structure prediction by ZEFSAII (Michael W. Deem and Ramdas Pophale) SiO2 
 PCOD9102662
Probable space group: P -1
;
_chemical_formula_sum "Si O2"
_cell_formula_units_Z 16
_cell_length_a 8.947779
_cell_length_b 14.961665
_cell_length_c 27.322424
_cell_angle_alpha 22.233693
_cell_angle_beta 138.751013
_cell_angle_gamma 125.572173
_cell_volume 811.283041
_symmetry_space_group_name_H-M "P -1"
_symmetry_group_IT_number 2
_symmetry_cell_setting 'triclinic'
loop_
_space_group_symop_operation_xyz
x,y,z
-x,-y,-z
loop_
_atom_site_type_symbol
_atom_site_label
_atom_site_fract_x
_atom_site_fract_y
_atom_site_fract_z
Si Si1 0.772224 0.024141 0.320012
Si Si2 0.234900 0.119937 0.805357
Si Si3 0.210389 0.543505 0.408102
Si Si4 0.656629 0.127616 0.448142
Si Si5 0.412554 0.683202 0.155975
Si Si6 0.705940 0.215664 0.308825
Si Si7 0.487379 0.821145 0.922759
Si Si8 0.070539 0.023175 0.060509
O O1 0.806599 0.725286 0.472351
O O2 0.039087 0.032087 0.389949
O O3 0.623773 0.136986 0.277251
O O4 0.644193 0.180568 0.159970
O O5 0.424618 0.245357 0.801038
O O6 0.948991 0.328894 0.645862
O O7 0.288385 0.999909 0.824982
O O8 0.328387 0.879873 0.989113
O O9 0.500000 0.500000 0.500000
O O10 0.079433 0.771322 0.219389
O O11 0.584598 0.399048 0.320925
O O12 0.578058 0.188118 0.341300
O O13 0.500000 0.000000 0.500000
O O14 0.154584 0.720986 0.099221
O O15 0.651403 0.521345 0.135094
O O16 0.000000 0.000000 0.500000
O O17 0.670687 0.953228 0.888083
O O18 0.000000 0.000000 0.000000
#
# Coordination Sequence:
#
# PCOD9102662 Si02
#       8
#     2   2   2   2   2   2   2   2
#     4  11  25  45  67  96 140 177 219 283 336 401
#     4  10  21  39  68  93 132 174 212 277 337 390
#     4  11  23  45  63  99 140 171 215 271 348 398
#     4  11  24  45  66  96 125 178 233 279 327 398
#     4  10  20  38  63  94 130 169 221 280 321 390
#     4  10  25  44  70  90 127 183 228 279 327 391
#     4  12  23  45  66 102 136 177 225 274 347 397
#     4  11  24  35  66 101 130 174 222 270 326 406
#
# _framework density 19.721845999999999
#
# number of rings (size 3 to 8) (size 9 to 14) (size 15 to 20)
#    0.000    1.250    5.000    0.375    7.000    0.500 
#    4.500    0.625    0.000    0.000    0.000    0.000 
#    0.000    0.000    0.000    0.000    0.000    0.000 
#
# Total GULP energy -89271.282861 kJ/mol
# GULP energy per Si atom -5579.455179 kJ/mol
# Density = 1.967696 g / cm^3
# Si number density = 19.721846 Si / 1000 Ang^3
#
#
#
# Elastic Constant Matrix: (Units=GPa)
#
#
# Indices 1 2 3 4 5 6 
#
# 1 121.0160 41.2822 25.2434 6.6519 -8.7667 -14.8674
# 2 41.2822 72.7397 12.5637 8.6743 -8.1654 -14.9596
# 3 25.2434 12.5637 57.6420 -3.4836 -14.1390 -6.8956
# 4 6.6519 8.6743 -3.4836 32.1935 0.2840 -3.0359
# 5 -8.7667 -8.1654 -14.1390 0.2840 29.2858 1.3638
# 6 -14.8674 -14.9596 -6.8956 -3.0359 1.3638 45.7575
#
#
#
# Elastic Compliance Matrix: (Units=1/GPa)
#
#
# Indices 1 2 3 4 5 6 
#
# 1 0.011018 -0.005234 -0.003589 -0.001137 0.000059 0.001251
# 2 -0.005234 0.018418 -0.000723 -0.003621 0.003074 0.003880
# 3 -0.003589 -0.000723 0.021732 0.003380 0.009098 0.001826
# 4 -0.001137 -0.003621 0.003380 0.032746 -0.000088 0.001131
# 5 0.000059 0.003074 0.009098 -0.000088 0.039358 0.001216
# 6 0.001251 0.003880 0.001826 0.001131 0.001216 0.023843
#
#
# Mechanical properties :
#
#
# Convention : Reuss Voigt Hill
#
# Bulk Modulus (GPa) = 31.17561 45.50849 38.34205
# Shear Modulus (GPa) = 28.26492 32.93458 30.59975
#
# Velocity S-wave (km/s) = 3.78984 4.09094 3.94327
# Velocity P-wave (km/s) = 5.91545 6.74089 6.34161
#
# Compressibility (1/GPa) = 0.03207636
#
# Stress axis : x y z
#
# Youngs Moduli (GPa) = 90.76221 54.29609 46.01465
#
# Poissons Ratio (x) = 0.28416 0.16515
# Poissons Ratio (y) = 0.47501 0.03327
# Poissons Ratio (z) = 0.32574 0.03926
#
# Static dielectric constant tensor:
#      x y z
#    x 1.688100 -0.028090 0.019360 
#    y -0.028090 1.652140 -0.006450 
#    z 0.019360 -0.006450 1.732300 
# 
# From -- ./inp_files/218042.got.cif
#   From: 2010.05.17/outbox.cif.g08.bks.cpg/sg2_110_cif.got.tgz:218042.got - 2010.06.03 11:33:40.
