data_PCOD9102367
_publ_section_title
;
Structure prediction by ZEFSAII (Michael W. Deem and Ramdas Pophale) SiO2 
 PCOD9102367
Probable space group: P -1
;
_chemical_formula_sum "Si O2"
_cell_formula_units_Z 16
_cell_length_a 8.198140
_cell_length_b 9.389533
_cell_length_c 18.834110
_cell_angle_alpha 41.393923
_cell_angle_beta 56.357979
_cell_angle_gamma 64.261940
_cell_volume 797.629312
_symmetry_space_group_name_H-M "P -1"
_symmetry_group_IT_number 2
_symmetry_cell_setting 'triclinic'
loop_
_space_group_symop_operation_xyz
x,y,z
-x,-y,-z
loop_
_atom_site_type_symbol
_atom_site_label
_atom_site_fract_x
_atom_site_fract_y
_atom_site_fract_z
Si Si1 0.293336 0.473288 0.020719
Si Si2 0.890689 0.542960 0.166221
Si Si3 0.945616 0.351437 0.370327
Si Si4 0.365811 0.995987 0.191116
Si Si5 0.686855 0.992137 0.011820
Si Si6 0.763242 0.347123 0.761276
Si Si7 0.706021 0.986881 0.631107
Si Si8 0.597103 0.330036 0.226772
O O1 0.115132 0.539187 0.089661
O O2 0.265569 0.221044 0.105477
O O3 0.500000 0.500000 0.000000
O O4 0.310897 0.602448 0.895599
O O5 0.869257 0.508177 0.267915
O O6 0.797350 0.763511 0.074670
O O7 0.772261 0.347080 0.233682
O O8 0.781072 0.204639 0.497354
O O9 0.059117 0.492898 0.347352
O O10 0.114144 0.190179 0.355565
O O11 0.589655 0.021682 0.101348
O O12 0.282032 0.794510 0.243913
O O13 0.341022 0.983849 0.285549
O O14 0.500000 0.000000 0.000000
O O15 0.806859 0.183581 0.877929
O O16 0.570934 0.491596 0.775948
O O17 0.519017 0.887737 0.674396
#
# Coordination Sequence:
#
# PCOD9102367 Si02
#       8
#     2   2   2   2   2   2   2   2
#     4  12  22  39  64  98 131 161 206 262 319 378
#     4  12  23  39  64  98 127 164 213 257 314 383
#     4  10  23  41  60  92 122 170 224 260 302 373
#     4  11  19  38  67  90 122 170 206 258 322 377
#     4  10  20  38  62  93 129 165 199 250 329 383
#     4  10  20  39  63  89 132 167 200 257 324 370
#     4  10  22  41  65  85 123 174 221 258 311 361
#     4  11  20  38  63  92 127 169 201 260 313 377
#
# _framework density 20.059445
#
# number of rings (size 3 to 8) (size 9 to 14) (size 15 to 20)
#    0.000    1.250    6.250    1.875    0.000    1.500 
#    0.000    1.875    0.000    0.000    0.000    0.000 
#    0.000    0.000    0.000    0.000    0.000    0.000 
#
# Total GULP energy -89323.834256 kJ/mol
# GULP energy per Si atom -5582.739641 kJ/mol
# Density = 2.001379 g / cm^3
# Si number density = 20.059445 Si / 1000 Ang^3
#
#
#
# Elastic Constant Matrix: (Units=GPa)
#
#
# Indices 1 2 3 4 5 6 
#
# 1 66.1739 13.0877 44.6100 -4.9083 -15.9631 11.1481
# 2 13.0877 73.7906 39.2240 -2.7878 -12.7759 13.0888
# 3 44.6100 39.2240 98.6929 -8.5244 -31.8424 3.6739
# 4 -4.9083 -2.7878 -8.5244 29.1062 4.0866 -2.2250
# 5 -15.9631 -12.7759 -31.8424 4.0866 23.9871 -7.8500
# 6 11.1481 13.0888 3.6739 -2.2250 -7.8500 31.4431
#
#
#
# Elastic Compliance Matrix: (Units=1/GPa)
#
#
# Indices 1 2 3 4 5 6 
#
# 1 0.023901 0.003685 -0.012428 0.000286 -0.001602 -0.008936
# 2 0.003685 0.019300 -0.010276 -0.000707 -0.003778 -0.009133
# 3 -0.012428 -0.010276 0.028555 0.002326 0.027845 0.012464
# 4 0.000286 -0.000707 0.002326 0.035516 -0.002562 0.001795
# 5 -0.001602 -0.003778 0.027845 -0.002562 0.082312 0.019255
# 6 -0.008936 -0.009133 0.012464 0.001795 0.019255 0.042251
#
#
# Mechanical properties :
#
#
# Convention : Reuss Voigt Hill
#
# Bulk Modulus (GPa) = 29.65738 48.05566 38.85652
# Shear Modulus (GPa) = 17.78658 26.35632 22.07145
#
# Velocity S-wave (km/s) = 2.98097 3.62872 3.32068
# Velocity P-wave (km/s) = 5.16383 6.44713 5.84083
#
# Compressibility (1/GPa) = 0.03371842
#
# Stress axis : x y z
#
# Youngs Moduli (GPa) = 41.83952 51.81392 35.02051
#
# Poissons Ratio (x) = -0.19095 0.43522
# Poissons Ratio (y) = -0.15419 0.35988
# Poissons Ratio (z) = 0.51996 0.53245
#
# Static dielectric constant tensor:
#      x y z
#    x 1.753900 0.031620 -0.014850 
#    y 0.031620 1.758600 -0.025530 
#    z -0.014850 -0.025530 1.716020 
# 
# From -- ./inp_files/587746.got.cif
#   From: 2010.05.17/outbox.cif.g08.bks.cpg/sg2_294_cif.got.tgz:587746.got - 2010.06.03 11:33:40.
