data_PCOD9102063
_publ_section_title
;
Structure prediction by ZEFSAII (Michael W. Deem and Ramdas Pophale) SiO2 
 PCOD9102063
Probable space group: P -1
;
_chemical_formula_sum "Si O2"
_cell_formula_units_Z 12
_cell_length_a 7.073547
_cell_length_b 13.184057
_cell_length_c 7.074269
_cell_angle_alpha 125.050342
_cell_angle_beta 109.250171
_cell_angle_gamma 63.920360
_cell_volume 482.416220
_symmetry_space_group_name_H-M "P -1"
_symmetry_group_IT_number 2
_symmetry_cell_setting 'triclinic'
loop_
_space_group_symop_operation_xyz
x,y,z
-x,-y,-z
loop_
_atom_site_type_symbol
_atom_site_label
_atom_site_fract_x
_atom_site_fract_y
_atom_site_fract_z
Si Si1 0.750767 0.109027 0.699669
Si Si2 0.777989 0.478499 0.456511
Si Si3 0.954610 0.785026 0.895117
Si Si4 0.560155 0.966626 0.769147
Si Si5 0.513610 0.635147 0.221081
Si Si6 0.804914 0.610069 0.959302
O O1 0.637214 0.048197 0.432993
O O2 0.704117 0.251514 0.742454
O O3 0.631763 0.076735 0.806836
O O4 0.977625 0.098603 0.857974
O O5 0.617469 0.595389 0.411946
O O6 0.716586 0.519766 0.695054
O O7 0.000000 0.500000 0.500000
O O8 0.837650 0.326806 0.248357
O O9 0.776549 0.841516 0.734236
O O10 0.864678 0.711977 0.951843
O O11 0.500000 0.000000 0.000000
O O12 0.500000 0.500000 0.000000
O O13 0.658393 0.674892 0.155860
O O14 0.000000 0.500000 0.000000
#
# Coordination Sequence:
#
# PCOD9102063 Si02
#       6
#     2   2   2   2   2   2
#     4  11  24  45  68  94 133 176 216 276 326 384
#     4  10  20  38  61  94 134 168 209 261 321 386
#     4  11  22  45  67  96 133 172 224 270 327 391
#     4  11  26  47  67  94 130 174 228 276 323 384
#     4  12  22  41  64  99 138 165 213 268 328 395
#     4  11  21  37  63  98 135 175 209 259 334 391
#
# _framework density 24.874786
#
# number of rings (size 3 to 8) (size 9 to 14) (size 15 to 20)
#    0.000    1.000    5.000    3.500    0.000    1.333 
#    6.000    0.000    0.000    0.000    0.000    0.000 
#    0.000    0.000    0.000    0.000    0.000    0.000 
#
# Total GULP energy -66862.457184 kJ/mol
# GULP energy per Si atom -5571.871432 kJ/mol
# Density = 2.481817 g / cm^3
# Si number density = 24.874786 Si / 1000 Ang^3
#
#
#
# Elastic Constant Matrix: (Units=GPa)
#
#
# Indices 1 2 3 4 5 6 
#
# 1 55.0702 17.5373 40.5870 0.7373 6.4494 15.6729
# 2 17.5373 114.5286 20.5736 -16.3120 -2.6794 3.9787
# 3 40.5870 20.5736 124.8027 -38.7032 15.1449 9.0057
# 4 0.7373 -16.3120 -38.7032 41.2903 13.3085 6.9113
# 5 6.4494 -2.6794 15.1449 13.3085 32.9056 4.8414
# 6 15.6729 3.9787 9.0057 6.9113 4.8414 37.7978
#
#
#
# Elastic Compliance Matrix: (Units=1/GPa)
#
#
# Indices 1 2 3 4 5 6 
#
# 1 0.033392 -0.004490 -0.017429 -0.020994 0.010593 -0.006739
# 2 -0.004490 0.009976 0.002264 0.006924 -0.002042 -0.000732
# 3 -0.017429 0.002264 0.026564 0.033586 -0.021814 -0.002688
# 4 -0.020994 0.006924 0.033586 0.072772 -0.038985 -0.008339
# 5 0.010593 -0.002042 -0.021814 -0.038985 0.053769 0.001261
# 6 -0.006739 -0.000732 -0.002688 -0.008339 0.001261 0.031332
#
#
# Mechanical properties :
#
#
# Convention : Reuss Voigt Hill
#
# Bulk Modulus (GPa) = 32.65726 50.19969 41.42848
# Shear Modulus (GPa) = 18.02944 36.77897 27.40420
#
# Velocity S-wave (km/s) = 2.69515 3.84938 3.32277
# Velocity P-wave (km/s) = 4.77936 6.32311 5.60464
#
# Compressibility (1/GPa) = 0.03062106
#
# Stress axis : x y z
#
# Youngs Moduli (GPa) = 29.94710 100.23828 37.64455
#
# Poissons Ratio (x) = 0.45012 0.65610
# Poissons Ratio (y) = 0.13448 -0.08521
# Poissons Ratio (z) = 0.52194 -0.22689
#
# Static dielectric constant tensor:
#      x y z
#    x 1.990250 -0.084070 -0.012830 
#    y -0.084070 2.008800 0.123580 
#    z -0.012830 0.123580 2.099250 
# 
# From -- ./inp_files/28986.got.cif
#   From: 2010.05.17/outbox.cif.g08.bks.cpg/sg2_15_cif.got.tgz:28986.got - 2010.06.03 11:33:40.
