data_PCOD9102427
_publ_section_title
;
Structure prediction by ZEFSAII (Michael W. Deem and Ramdas Pophale) SiO2 
 PCOD9102427
Probable space group: P -1
;
_chemical_formula_sum "Si O2"
_cell_formula_units_Z 16
_cell_length_a 11.733150
_cell_length_b 5.720197
_cell_length_c 12.283182
_cell_angle_alpha 113.912609
_cell_angle_beta 89.821935
_cell_angle_gamma 97.027693
_cell_volume 746.990524
_symmetry_space_group_name_H-M "P -1"
_symmetry_group_IT_number 2
_symmetry_cell_setting 'triclinic'
loop_
_space_group_symop_operation_xyz
x,y,z
-x,-y,-z
loop_
_atom_site_type_symbol
_atom_site_label
_atom_site_fract_x
_atom_site_fract_y
_atom_site_fract_z
Si Si1 0.236054 0.740559 0.236389
Si Si2 0.873738 0.384966 0.015470
Si Si3 0.696129 0.007167 0.036974
Si Si4 0.956044 0.259315 0.592105
Si Si5 0.620167 0.426561 0.277192
Si Si6 0.360082 0.267375 0.236643
Si Si7 0.762309 0.789876 0.211096
Si Si8 0.163297 0.664765 0.611656
O O1 0.203827 0.625506 0.095117
O O2 0.118687 0.774061 0.305780
O O3 0.296968 0.521113 0.258761
O O4 0.302418 0.031313 0.269613
O O5 0.840997 0.574689 0.144252
O O6 0.000000 0.500000 0.000000
O O7 0.828101 0.105573 0.015882
O O8 0.698379 0.823163 0.104628
O O9 0.643068 0.245749 0.138194
O O10 0.633679 0.874089 0.907805
O O11 0.871465 0.349841 0.516645
O O12 0.068256 0.468660 0.635516
O O13 0.000000 0.000000 0.500000
O O14 0.488010 0.368637 0.295403
O O15 0.667230 0.710660 0.287720
O O16 0.708409 0.378934 0.363599
O O17 0.841438 0.048024 0.292051
#
# Coordination Sequence:
#
# PCOD9102427 Si02
#       8
#     2   2   2   2   2   2   2   2
#     4  11  27  44  68 102 138 185 226 275 357 402
#     4  10  22  36  59  96 141 177 214 279 340 405
#     4   9  20  37  57  98 134 184 223 260 330 409
#     4  11  26  47  72  93 133 176 228 290 341 413
#     4  10  22  39  68  97 135 181 228 279 329 404
#     4  11  24  45  65 101 145 181 227 281 336 408
#     4  10  20  38  62  97 132 170 230 264 335 405
#     4  10  24  42  70  99 124 172 236 279 339 398
#
# _framework density 21.419281000000002
#
# number of rings (size 3 to 8) (size 9 to 14) (size 15 to 20)
#    0.000    1.750    1.250    1.125   14.000    2.000 
#    0.000    1.250    0.000    0.000    0.000    0.000 
#    0.000    0.000    0.000    0.000    0.000    0.000 
#
# Total GULP energy -89211.739513 kJ/mol
# GULP energy per Si atom -5575.733720 kJ/mol
# Density = 2.137053 g / cm^3
# Si number density = 21.419281 Si / 1000 Ang^3
#
#
#
# Elastic Constant Matrix: (Units=GPa)
#
#
# Indices 1 2 3 4 5 6 
#
# 1 93.6350 51.8931 19.1618 7.9475 19.6845 15.8836
# 2 51.8931 131.0154 24.3855 7.7894 5.1956 12.4576
# 3 19.1618 24.3855 50.5900 -0.6429 10.2183 1.1861
# 4 7.9475 7.7894 -0.6429 28.9300 0.0041 6.4186
# 5 19.6845 5.1956 10.2183 0.0041 30.2582 0.7053
# 6 15.8836 12.4576 1.1861 6.4186 0.7053 28.4413
#
#
#
# Elastic Compliance Matrix: (Units=1/GPa)
#
#
# Indices 1 2 3 4 5 6 
#
# 1 0.017350 -0.005399 -0.001907 -0.001893 -0.009562 -0.006580
# 2 -0.005399 0.010512 -0.003604 -0.001150 0.002954 -0.001253
# 3 -0.001907 -0.003604 0.023445 0.001698 -0.006091 0.001434
# 4 -0.001893 -0.001150 0.001698 0.036959 0.001011 -0.006876
# 5 -0.009562 0.002954 -0.006091 0.001011 0.040748 0.003062
# 6 -0.006580 -0.001253 0.001434 -0.006876 0.003062 0.040800
#
#
# Mechanical properties :
#
#
# Convention : Reuss Voigt Hill
#
# Bulk Modulus (GPa) = 33.91514 51.79125 42.85319
# Shear Modulus (GPa) = 24.81844 29.51256 27.16550
#
# Velocity S-wave (km/s) = 3.40766 3.71597 3.56515
# Velocity P-wave (km/s) = 5.59921 6.53019 6.08254
#
# Compressibility (1/GPa) = 0.02948536
#
# Stress axis : x y z
#
# Youngs Moduli (GPa) = 57.63818 95.12529 42.65357
#
# Poissons Ratio (x) = 0.51363 0.08135
# Poissons Ratio (y) = 0.31122 0.15372
# Poissons Ratio (z) = 0.10993 0.34283
#
# Static dielectric constant tensor:
#      x y z
#    x 1.802960 -0.030170 0.018100 
#    y -0.030170 1.862850 0.002930 
#    z 0.018100 0.002930 1.752170 
# 
# From -- ./inp_files/66799.got.cif
#   From: 2010.05.17/outbox.cif.g08.bks.cpg/sg2_34_cif.got.tgz:66799.got - 2010.06.03 11:33:40.
