data_PCOD9102472
_publ_section_title
;
Structure prediction by ZEFSAII (Michael W. Deem and Ramdas Pophale) SiO2 
 PCOD9102472
Probable space group: P -1
;
_chemical_formula_sum "Si O2"
_cell_formula_units_Z 16
_cell_length_a 11.112974
_cell_length_b 18.567348
_cell_length_c 8.759943
_cell_angle_alpha 111.595768
_cell_angle_beta 137.154089
_cell_angle_gamma 41.099554
_cell_volume 736.025176
_symmetry_space_group_name_H-M "P -1"
_symmetry_group_IT_number 2
_symmetry_cell_setting 'triclinic'
loop_
_space_group_symop_operation_xyz
x,y,z
-x,-y,-z
loop_
_atom_site_type_symbol
_atom_site_label
_atom_site_fract_x
_atom_site_fract_y
_atom_site_fract_z
Si Si1 0.447404 0.348685 0.724374
Si Si2 0.238107 0.376607 0.029687
Si Si3 0.272363 0.739466 0.403518
Si Si4 0.117271 0.531423 0.788704
Si Si5 0.266070 0.984585 0.899479
Si Si6 0.066888 0.293344 0.991587
Si Si7 0.415406 0.971813 0.680226
Si Si8 0.105636 0.904722 0.895071
O O1 0.542144 0.334771 0.630672
O O2 0.331485 0.461782 0.795728
O O3 0.190533 0.376129 0.487186
O O4 0.697361 0.224298 0.946399
O O5 0.532695 0.303382 0.310198
O O6 0.185630 0.306800 0.977487
O O7 0.194830 0.423568 0.858362
O O8 0.000000 0.500000 0.000000
O O9 0.047620 0.880331 0.269324
O O10 0.104140 0.717548 0.252908
O O11 0.109063 0.598517 0.965478
O O12 0.325441 0.972881 0.765968
O O13 0.268915 0.900413 0.916092
O O14 0.470128 0.978911 0.162510
O O15 0.321175 0.169736 0.222212
O O16 0.160854 0.045060 0.389798
O O17 0.000000 0.000000 0.000000
#
# Coordination Sequence:
#
# PCOD9102472 Si02
#       8
#     2   2   2   2   2   2   2   2
#     4  11  23  41  59  91 126 163 201 249 299 371
#     4  10  20  38  63  86 117 157 207 255 290 353
#     4  11  21  40  64  90 125 154 206 250 303 364
#     4  10  23  42  61  85 126 162 206 251 300 352
#     4  10  23  42  63  96 124 159 203 258 305 368
#     4  10  21  39  67  88 117 162 198 255 304 350
#     4  10  23  42  65  94 126 155 208 256 306 364
#     4  12  23  39  67  92 124 168 201 246 318 368
#
# _framework density 21.738385000000001
#
# number of rings (size 3 to 8) (size 9 to 14) (size 15 to 20)
#    0.000    1.500    3.750    1.875    3.500    3.000 
#    2.250    0.000    0.000    0.000    0.000    0.000 
#    0.000    0.000    0.000    0.000    0.000    0.000 
#
# Total GULP energy -89440.445710 kJ/mol
# GULP energy per Si atom -5590.027857 kJ/mol
# Density = 2.168891 g / cm^3
# Si number density = 21.738385 Si / 1000 Ang^3
#
#
#
# Elastic Constant Matrix: (Units=GPa)
#
#
# Indices 1 2 3 4 5 6 
#
# 1 27.3829 10.9004 37.3891 -3.9993 3.1304 -2.8412
# 2 10.9004 51.9492 24.8915 -0.9892 4.4583 -5.4945
# 3 37.3891 24.8915 137.9173 -6.8710 0.3566 17.0928
# 4 -3.9993 -0.9892 -6.8710 18.5597 -6.4677 0.2426
# 5 3.1304 4.4583 0.3566 -6.4677 20.2732 1.1371
# 6 -2.8412 -5.4945 17.0928 0.2426 1.1371 34.6404
#
#
#
# Elastic Compliance Matrix: (Units=1/GPa)
#
#
# Indices 1 2 3 4 5 6 
#
# 1 0.067117 -0.002335 -0.019421 0.003765 -0.009148 0.014991
# 2 -0.002335 0.022885 -0.004351 -0.003021 -0.005885 0.005800
# 3 -0.019421 -0.004351 0.014635 0.002932 0.005177 -0.009695
# 4 0.003765 -0.003021 0.002932 0.062685 0.020182 -0.002719
# 5 -0.009148 -0.005885 0.005177 0.020182 0.058734 -0.006308
# 6 0.014991 0.005800 -0.009695 -0.002719 -0.006308 0.036028
#
#
# Mechanical properties :
#
#
# Convention : Reuss Voigt Hill
#
# Bulk Modulus (GPa) = 19.07552 40.40127 29.73839
# Shear Modulus (GPa) = 15.07053 24.29919 19.68486
#
# Velocity S-wave (km/s) = 2.63585 3.34698 3.01247
# Velocity P-wave (km/s) = 4.24944 5.79327 5.08034
#
# Compressibility (1/GPa) = 0.05242322
#
# Stress axis : x y z
#
# Youngs Moduli (GPa) = 14.89932 43.69579 68.32837
#
# Poissons Ratio (x) = 0.10205 1.32698
# Poissons Ratio (y) = 0.03480 0.29732
# Poissons Ratio (z) = 0.28935 0.19014
#
# Static dielectric constant tensor:
#      x y z
#    x 1.823870 -0.026000 0.004250 
#    y -0.026000 1.827080 0.004870 
#    z 0.004250 0.004870 1.758070 
# 
# From -- ./inp_files/273055.got.cif
#   From: 2010.05.17/outbox.cif.g08.bks.cpg/sg2_137_cif.got.tgz:273055.got - 2010.06.03 11:33:40.
