data_PCOD9102623
_publ_section_title
;
Structure prediction by ZEFSAII (Michael W. Deem and Ramdas Pophale) SiO2 
 PCOD9102623
Probable space group: P -1
;
_chemical_formula_sum "Si O2"
_cell_formula_units_Z 14
_cell_length_a 7.744625
_cell_length_b 11.997941
_cell_length_c 11.216386
_cell_angle_alpha 113.166866
_cell_angle_beta 60.739757
_cell_angle_gamma 71.270147
_cell_volume 642.235739
_symmetry_space_group_name_H-M "P -1"
_symmetry_group_IT_number 2
_symmetry_cell_setting 'triclinic'
loop_
_space_group_symop_operation_xyz
x,y,z
-x,-y,-z
loop_
_atom_site_type_symbol
_atom_site_label
_atom_site_fract_x
_atom_site_fract_y
_atom_site_fract_z
Si Si1 0.010357 0.464006 0.844368
Si Si2 0.394939 0.008152 0.341583
Si Si3 0.587073 0.145250 0.496257
Si Si4 0.041363 0.638350 0.399674
Si Si5 0.756840 0.772648 0.913038
Si Si6 0.624434 0.651477 0.691666
Si Si7 0.273282 0.695424 0.647827
O O1 0.292177 0.300832 0.667330
O O2 0.859282 0.426734 0.795735
O O3 0.930719 0.617254 0.870728
O O4 0.000000 0.500000 0.000000
O O5 0.339800 0.927918 0.426945
O O6 0.577034 0.034680 0.361962
O O7 0.544381 0.910136 0.131098
O O8 0.125953 0.175975 0.467540
O O9 0.712121 0.215649 0.428455
O O10 0.271197 0.517056 0.360925
O O11 0.829651 0.620421 0.510831
O O12 0.632277 0.743823 0.835856
O O13 0.978878 0.769636 0.783513
O O14 0.354231 0.741191 0.756843
O O15 0.500000 0.500000 0.500000
#
# Coordination Sequence:
#
# PCOD9102623 Si02
#       7
#     2   2   2   2   2   2   2
#     4  10  16  32  57  89 113 158 214 240 291 367
#     4  10  20  37  61  93 125 165 202 250 319 370
#     4  10  20  36  60  91 124 163 211 246 306 382
#     4   9  18  35  58  83 120 166 197 248 303 362
#     4  11  23  34  66  96 120 161 204 262 308 356
#     4  10  20  40  61  90 126 160 212 249 299 380
#     4  12  21  39  66  95 118 163 212 256 306 357
#
# _framework density 21.798848
#
# number of rings (size 3 to 8) (size 9 to 14) (size 15 to 20)
#    0.000    1.714    5.714    1.714    0.000    1.143 
#    0.000    0.000    0.000   14.571    0.000    0.000 
#    0.000    0.000    0.000    0.000    0.000    0.000 
#
# Total GULP energy -77995.550325 kJ/mol
# GULP energy per Si atom -5571.110738 kJ/mol
# Density = 2.174923 g / cm^3
# Si number density = 21.798848 Si / 1000 Ang^3
#
#
#
# Elastic Constant Matrix: (Units=GPa)
#
#
# Indices 1 2 3 4 5 6 
#
# 1 75.9745 36.7825 29.4393 -13.8696 15.8110 -8.5764
# 2 36.7825 143.6557 41.8935 -8.5570 1.1119 -4.1933
# 3 29.4393 41.8935 108.8794 -10.1829 39.3767 -0.9600
# 4 -13.8696 -8.5570 -10.1829 22.7973 -11.4612 3.6063
# 5 15.8110 1.1119 39.3767 -11.4612 22.7674 -2.3444
# 6 -8.5764 -4.1933 -0.9600 3.6063 -2.3444 28.1053
#
#
#
# Elastic Compliance Matrix: (Units=1/GPa)
#
#
# Indices 1 2 3 4 5 6 
#
# 1 0.018881 -0.005743 0.004166 0.001025 -0.019179 0.003316
# 2 -0.005743 0.013819 -0.016587 0.013710 0.039030 0.001239
# 3 0.004166 -0.016587 0.048758 -0.033391 -0.103622 -0.003897
# 4 0.001025 0.013710 -0.033391 0.084626 0.098827 -0.001397
# 5 -0.019179 0.039030 -0.103622 0.098827 0.285078 0.007530
# 6 0.003316 0.001239 -0.003897 -0.001397 0.007530 0.037451
#
#
# Mechanical properties :
#
#
# Convention : Reuss Voigt Hill
#
# Bulk Modulus (GPa) = 22.15735 60.52669 41.34202
# Shear Modulus (GPa) = 9.25952 29.42696 19.34324
#
# Velocity S-wave (km/s) = 2.06323 3.67813 2.98208
# Velocity P-wave (km/s) = 3.98277 6.77233 5.55549
#
# Compressibility (1/GPa) = 0.04513175
#
# Stress axis : x y z
#
# Youngs Moduli (GPa) = 52.96206 72.36212 20.50937
#
# Poissons Ratio (x) = 0.41558 -0.08544
# Poissons Ratio (y) = 0.30417 0.34018
# Poissons Ratio (z) = -0.22064 1.20023
#
# Static dielectric constant tensor:
#      x y z
#    x 2.000800 0.019440 0.112420 
#    y 0.019440 1.908630 -0.083160 
#    z 0.112420 -0.083160 1.911460 
# 
# From -- ./inp_files/390633.got.cif
#   From: 2010.05.17/outbox.cif.g08.bks.cpg/sg2_196_cif.got.tgz:390633.got - 2010.06.03 11:33:40.
