data_PCOD9102612
_publ_section_title
;
Structure prediction by ZEFSAII (Michael W. Deem and Ramdas Pophale) SiO2 
 PCOD9102612
Probable space group: P -1
;
_chemical_formula_sum "Si O2"
_cell_formula_units_Z 14
_cell_length_a 9.687059
_cell_length_b 7.694619
_cell_length_c 15.014357
_cell_angle_alpha 56.076730
_cell_angle_beta 39.885143
_cell_angle_gamma 74.480793
_cell_volume 567.699746
_symmetry_space_group_name_H-M "P -1"
_symmetry_group_IT_number 2
_symmetry_cell_setting 'triclinic'
loop_
_space_group_symop_operation_xyz
x,y,z
-x,-y,-z
loop_
_atom_site_type_symbol
_atom_site_label
_atom_site_fract_x
_atom_site_fract_y
_atom_site_fract_z
Si Si1 0.057363 0.911979 0.092256
Si Si2 0.133718 0.468722 0.191881
Si Si3 0.458415 0.024063 0.404645
Si Si4 0.365239 0.299287 0.517902
Si Si5 0.176865 0.631005 0.448089
Si Si6 0.255187 0.085570 0.307601
Si Si7 0.973872 0.280239 0.130142
O O1 0.196670 0.733904 0.072464
O O2 0.826428 0.761055 0.295408
O O3 0.119850 0.127073 0.063504
O O4 0.000000 0.000000 0.000000
O O5 0.962042 0.405902 0.379453
O O6 0.035287 0.354442 0.179721
O O7 0.299280 0.326439 0.178695
O O8 0.308087 0.134330 0.507994
O O9 0.416511 0.071266 0.312342
O O10 0.714466 0.148572 0.270548
O O11 0.436710 0.771054 0.510792
O O12 0.379695 0.530179 0.400260
O O13 0.000000 0.500000 0.500000
O O14 0.260281 0.881411 0.302579
O O15 0.000000 0.000000 0.500000
O O16 0.000000 0.500000 0.000000
#
# Coordination Sequence:
#
# PCOD9102612 Si02
#       7
#     2   2   2   2   2   2   2
#     4  10  20  38  63  92 128 164 217 256 315 379
#     4  10  22  38  65  92 122 175 216 255 325 384
#     4  10  22  39  60  95 132 161 215 272 314 384
#     4   9  20  35  61  89 128 155 209 262 319 361
#     4  10  21  35  59  95 134 166 210 262 323 390
#     4  10  22  37  60  88 135 166 206 258 331 381
#     4  11  23  42  69  92 127 172 217 267 318 382
#
# _framework density 24.660924999999999
#
# number of rings (size 3 to 8) (size 9 to 14) (size 15 to 20)
#    0.000    2.000    1.429    1.714   18.000    0.571 
#    5.143    0.714    0.000    0.857    0.000    0.000 
#    0.000    0.000    0.000    0.000    0.000    0.000 
#
# Total GULP energy -78004.977910 kJ/mol
# GULP energy per Si atom -5571.784136 kJ/mol
# Density = 2.460480 g / cm^3
# Si number density = 24.660925 Si / 1000 Ang^3
#
#
#
# Elastic Constant Matrix: (Units=GPa)
#
#
# Indices 1 2 3 4 5 6 
#
# 1 103.3096 65.9165 14.6946 -8.4140 37.7080 5.4551
# 2 65.9165 203.6460 55.8119 -49.5534 33.5646 -17.8293
# 3 14.6946 55.8119 58.2757 -19.4195 11.3391 -7.9600
# 4 -8.4140 -49.5534 -19.4195 48.9252 -4.6425 22.9544
# 5 37.7080 33.5646 11.3391 -4.6425 29.1265 -4.1808
# 6 5.4551 -17.8293 -7.9600 22.9544 -4.1808 51.1815
#
#
#
# Elastic Compliance Matrix: (Units=1/GPa)
#
#
# Indices 1 2 3 4 5 6 
#
# 1 0.021053 -0.003653 0.002650 0.001308 -0.024688 -0.005707
# 2 -0.003653 0.009852 -0.005572 0.007042 -0.003401 -0.000481
# 3 0.002650 -0.005572 0.024291 0.004295 -0.005905 -0.000854
# 4 0.001308 0.007042 0.004295 0.035031 -0.007814 -0.013368
# 5 -0.024688 -0.003401 -0.005905 -0.007814 0.072699 0.009971
# 6 -0.005707 -0.000481 -0.000854 -0.013368 0.009971 0.026656
#
#
# Mechanical properties :
#
#
# Convention : Reuss Voigt Hill
#
# Bulk Modulus (GPa) = 23.78342 70.89746 47.34044
# Shear Modulus (GPa) = 23.06844 41.10052 32.08448
#
# Velocity S-wave (km/s) = 3.06179 4.08686 3.61089
# Velocity P-wave (km/s) = 4.70792 7.14711 6.05168
#
# Compressibility (1/GPa) = 0.04204609
#
# Stress axis : x y z
#
# Youngs Moduli (GPa) = 47.50017 101.50485 41.16744
#
# Poissons Ratio (x) = 0.37080 -0.10909
# Poissons Ratio (y) = 0.17352 0.22936
# Poissons Ratio (z) = -0.12587 0.56554
#
# Static dielectric constant tensor:
#      x y z
#    x 1.974330 -0.055820 -0.033720 
#    y -0.055820 2.195040 0.004670 
#    z -0.033720 0.004670 2.047090 
# 
# From -- ./inp_files/490364.got.cif
#   From: 2010.05.17/outbox.cif.g08.bks.cpg/sg2_246_cif.got.tgz:490364.got - 2010.06.03 11:33:40.
