data_PCOD9102261
_publ_section_title
;
Structure prediction by ZEFSAII (Michael W. Deem and Ramdas Pophale) SiO2 
 PCOD9102261
Probable space group: P -1
;
_chemical_formula_sum "Si O2"
_cell_formula_units_Z 16
_cell_length_a 8.663853
_cell_length_b 9.121364
_cell_length_c 18.926343
_cell_angle_alpha 59.431186
_cell_angle_beta 93.158152
_cell_angle_gamma 45.734135
_cell_volume 688.688787
_symmetry_space_group_name_H-M "P -1"
_symmetry_group_IT_number 2
_symmetry_cell_setting 'triclinic'
loop_
_space_group_symop_operation_xyz
x,y,z
-x,-y,-z
loop_
_atom_site_type_symbol
_atom_site_label
_atom_site_fract_x
_atom_site_fract_y
_atom_site_fract_z
Si Si1 0.444540 0.597509 0.651961
Si Si2 0.490256 0.071140 0.630222
Si Si3 0.786655 0.444049 0.829298
Si Si4 0.985733 0.081377 0.695948
Si Si5 0.032798 0.259863 0.509490
Si Si6 0.083227 0.672540 0.708649
Si Si7 0.379311 0.050126 0.910215
Si Si8 0.512885 0.650241 0.913176
O O1 0.628388 0.488653 0.751966
O O2 0.669234 0.364112 0.652003
O O3 0.258001 0.612111 0.668893
O O4 0.212641 0.960239 0.541179
O O5 0.283086 0.371353 0.602946
O O6 0.256256 0.208090 0.537140
O O7 0.641262 0.768406 0.744784
O O8 0.743082 0.942557 0.631345
O O9 0.734583 0.417806 0.911597
O O10 0.119048 0.161466 0.890975
O O11 0.993245 0.192422 0.599186
O O12 0.093486 0.793664 0.745955
O O13 0.206998 0.951536 0.790437
O O14 0.243764 0.344565 0.800897
O O15 0.580248 0.756539 0.934332
O O16 0.500000 0.000000 0.000000
O O17 0.500000 0.500000 0.000000
#
# Coordination Sequence:
#
# PCOD9102261 Si02
#       8
#     2   2   2   2   2   2   2   2
#     4  10  20  38  62  89 125 168 201 249 306 366
#     4   9  18  38  64  89 125 168 196 263 306 350
#     4  10  21  42  64  87 126 163 206 251 308 370
#     4  11  21  40  62  92 123 170 206 248 305 373
#     4   9  19  39  64  88 126 167 211 243 306 369
#     4  10  22  39  61  90 131 155 207 257 311 348
#     4  11  25  41  63  93 123 157 207 262 309 359
#     4  12  24  40  67  89 118 163 208 248 310 376
#
# _framework density 23.232555999999999
#
# number of rings (size 3 to 8) (size 9 to 14) (size 15 to 20)
#    0.000    1.750    5.000    0.750    0.000    6.000 
#    0.000   10.625    0.000    0.000    0.000    0.000 
#    0.000    0.000    0.000    0.000    0.000    0.000 
#
# Total GULP energy -89439.454286 kJ/mol
# GULP energy per Si atom -5589.965893 kJ/mol
# Density = 2.317968 g / cm^3
# Si number density = 23.232556 Si / 1000 Ang^3
#
#
#
# Elastic Constant Matrix: (Units=GPa)
#
#
# Indices 1 2 3 4 5 6 
#
# 1 119.9561 30.2811 2.3881 8.5250 18.4310 1.8173
# 2 30.2811 112.0573 8.0947 4.5451 -3.6893 12.2004
# 3 2.3881 8.0947 21.1103 6.3145 8.4480 11.4305
# 4 8.5250 4.5451 6.3145 34.6405 4.9075 2.2913
# 5 18.4310 -3.6893 8.4480 4.9075 30.9690 -10.2904
# 6 1.8173 12.2004 11.4305 2.2913 -10.2904 36.9467
#
#
#
# Elastic Compliance Matrix: (Units=1/GPa)
#
#
# Indices 1 2 3 4 5 6 
#
# 1 0.010665 -0.003157 0.006586 -0.001782 -0.009593 -0.004081
# 2 -0.003157 0.010346 -0.005023 -0.000252 0.004363 -0.000476
# 3 0.006586 -0.005023 0.085511 -0.008818 -0.038142 -0.035197
# 4 -0.001782 -0.000252 -0.008818 0.031089 -0.001287 0.000612
# 5 -0.009593 0.004363 -0.038142 -0.001287 0.058134 0.027103
# 6 -0.004081 -0.000476 -0.035197 0.000612 0.027103 0.045824
#
#
# Mechanical properties :
#
#
# Convention : Reuss Voigt Hill
#
# Bulk Modulus (GPa) = 9.67740 37.18350 23.43045
# Shear Modulus (GPa) = 17.90832 34.66855 26.28843
#
# Velocity S-wave (km/s) = 2.77939 3.86714 3.36748
# Velocity P-wave (km/s) = 3.80454 5.99828 5.02264
#
# Compressibility (1/GPa) = 0.10333357
#
# Stress axis : x y z
#
# Youngs Moduli (GPa) = 93.76802 96.65934 11.69444
#
# Poissons Ratio (x) = 0.30514 -0.07702
# Poissons Ratio (y) = 0.29601 0.05874
# Poissons Ratio (z) = -0.61754 0.48549
#
# Static dielectric constant tensor:
#      x y z
#    x 1.851140 0.023780 0.013060 
#    y 0.023780 1.937960 0.007950 
#    z 0.013060 0.007950 1.877290 
# 
# From -- ./inp_files/225549.got.cif
#   From: 2010.05.17/outbox.cif.g08.bks.cpg/sg2_113_cif.got.tgz:225549.got - 2010.06.03 11:33:40.
