data_PCOD9102919
_publ_section_title
;
Structure prediction by ZEFSAII (Michael W. Deem and Ramdas Pophale) SiO2 
 PCOD9102919
Probable space group: P -1
;
_chemical_formula_sum "Si O2"
_cell_formula_units_Z 15
_cell_length_a 6.865967
_cell_length_b 11.507590
_cell_length_c 8.931539
_cell_angle_alpha 70.485003
_cell_angle_beta 109.114965
_cell_angle_gamma 124.653156
_cell_volume 538.482389
_symmetry_space_group_name_H-M "P -1"
_symmetry_group_IT_number 2
_symmetry_cell_setting 'triclinic'
loop_
_space_group_symop_operation_xyz
x,y,z
-x,-y,-z
loop_
_atom_site_type_symbol
_atom_site_label
_atom_site_fract_x
_atom_site_fract_y
_atom_site_fract_z
Si Si1 0.848994 0.327839 0.039150
Si Si2 0.994447 0.075643 0.747776
Si Si3 0.069343 0.404625 0.348640
Si Si4 0.190383 0.225216 0.026478
Si Si5 0.490444 0.115231 0.842484
Si Si6 0.817159 0.313396 0.608095
Si Si7 0.000000 0.000000 0.500000
Si Si8 0.392526 0.319049 0.328925
O O1 0.854810 0.300624 0.228099
O O2 0.990305 0.257765 0.028238
O O3 0.594684 0.250700 0.924938
O O4 0.000000 0.500000 0.000000
O O5 0.225055 0.067394 0.736181
O O6 0.128287 0.205322 0.843421
O O7 0.849879 0.930796 0.870889
O O8 0.873258 0.060045 0.565540
O O9 0.082952 0.556695 0.304828
O O10 0.313129 0.426461 0.329173
O O11 0.022014 0.343810 0.529855
O O12 0.407656 0.330617 0.146458
O O13 0.666252 0.164355 0.723237
O O14 0.500000 0.000000 0.000000
O O15 0.624952 0.333099 0.456260
O O16 0.827615 0.835027 0.603349
#
# Coordination Sequence:
#
# PCOD9102919 Si02
#       8
#     2   2   2   2   2   2   1   2
#     4  11  22  43  66  92 138 179 223 283 341 413
#     4  10  20  40  63  94 129 170 226 278 338 406
#     4  10  24  43  67  97 132 183 231 279 345 405
#     4   9  21  39  64  93 129 180 221 277 343 406
#     4  12  24  42  67  98 134 175 229 286 349 413
#     4  11  23  44  66  98 135 179 230 285 339 414
#     4  10  20  38  64  92 134 170 218 280 342 402
#     4  10  21  41  65  94 134 176 225 282 342 408
#
# _framework density 27.856064
#
# number of rings (size 3 to 8) (size 9 to 14) (size 15 to 20)
#    0.000    1.600    4.000    0.400    1.867    1.067 
#    2.400    2.000    0.000    0.000    0.000    0.000 
#    0.000    0.000    0.000    0.000    0.000    0.000 
#
# Total GULP energy -83599.054791 kJ/mol
# GULP energy per Si atom -5573.270319 kJ/mol
# Density = 2.779266 g / cm^3
# Si number density = 27.856064 Si / 1000 Ang^3
#
#
#
# Elastic Constant Matrix: (Units=GPa)
#
#
# Indices 1 2 3 4 5 6 
#
# 1 58.2450 6.2870 9.8734 8.2194 7.2536 -4.5833
# 2 6.2870 110.9541 9.3896 0.3000 -17.3695 -16.1306
# 3 9.8734 9.3896 125.9223 14.9426 -39.7064 -7.4960
# 4 8.2194 0.3000 14.9426 59.9605 -6.8294 -8.4073
# 5 7.2536 -17.3695 -39.7064 -6.8294 51.5365 11.6868
# 6 -4.5833 -16.1306 -7.4960 -8.4073 11.6868 44.6221
#
#
#
# Elastic Compliance Matrix: (Units=1/GPa)
#
#
# Indices 1 2 3 4 5 6 
#
# 1 0.019103 -0.001496 -0.002962 -0.002287 -0.006262 0.002133
# 2 -0.001496 0.009999 0.000535 0.000808 0.003466 0.002795
# 3 -0.002962 0.000535 0.011155 -0.001457 0.009208 -0.000923
# 4 -0.002287 0.000808 -0.001457 0.017888 0.001191 0.002871
# 5 -0.006262 0.003466 0.009208 0.001191 0.029944 -0.005461
# 6 0.002133 0.002795 -0.000923 0.002871 -0.005461 0.025456
#
#
# Mechanical properties :
#
#
# Convention : Reuss Voigt Hill
#
# Bulk Modulus (GPa) = 30.85381 38.46904 34.66142
# Shear Modulus (GPa) = 37.82265 49.19526 43.50895
#
# Velocity S-wave (km/s) = 3.68882 4.20700 3.95640
# Velocity P-wave (km/s) = 5.40771 6.11869 5.77416
#
# Compressibility (1/GPa) = 0.03241091
#
# Stress axis : x y z
#
# Youngs Moduli (GPa) = 52.34805 100.00993 89.64329
#
# Poissons Ratio (x) = 0.14959 0.26557
# Poissons Ratio (y) = 0.07830 -0.04797
# Poissons Ratio (z) = 0.15508 -0.05351
#
# Static dielectric constant tensor:
#      x y z
#    x 2.255310 -0.116890 0.021000 
#    y -0.116890 2.316350 -0.167560 
#    z 0.021000 -0.167560 1.729850 
# 
# From -- ./inp_files/169881.got.cif
#   From: 2010.05.17/outbox.cif.g08.bks.cpg/sg2_85_cif.got.tgz:169881.got - 2010.06.03 11:33:40.
