data_PCOD9102056
_publ_section_title
;
Structure prediction by ZEFSAII (Michael W. Deem and Ramdas Pophale) SiO2 
 PCOD9102056
Probable space group: P -1
;
_chemical_formula_sum "Si O2"
_cell_formula_units_Z 15
_cell_length_a 11.477413
_cell_length_b 7.165842
_cell_length_c 21.772625
_cell_angle_alpha 129.341688
_cell_angle_beta 23.894731
_cell_angle_gamma 126.210546
_cell_volume 560.603958
_symmetry_space_group_name_H-M "P -1"
_symmetry_group_IT_number 2
_symmetry_cell_setting 'triclinic'
loop_
_space_group_symop_operation_xyz
x,y,z
-x,-y,-z
loop_
_atom_site_type_symbol
_atom_site_label
_atom_site_fract_x
_atom_site_fract_y
_atom_site_fract_z
Si Si1 0.156671 0.215319 0.287299
Si Si2 0.124324 0.194056 0.028196
Si Si3 0.523342 0.499407 0.259030
Si Si4 0.500000 0.000000 0.000000
Si Si5 0.344486 0.722587 0.150039
Si Si6 0.419244 0.560106 0.649199
Si Si7 0.286861 0.164858 0.536871
Si Si8 0.047051 0.838618 0.091853
O O1 0.268053 0.435016 0.321163
O O2 0.277863 0.242863 0.167270
O O3 0.358128 0.963883 0.147189
O O4 0.852099 0.094874 0.429212
O O5 0.916410 0.413451 0.166472
O O6 0.067365 0.097406 0.103939
O O7 0.469493 0.216539 0.866074
O O8 0.000000 0.000000 0.000000
O O9 0.417272 0.426418 0.362588
O O10 0.716985 0.742356 0.226822
O O11 0.764182 0.323673 0.078878
O O12 0.209428 0.845598 0.079302
O O13 0.004309 0.696682 0.313145
O O14 0.500000 0.500000 0.000000
O O15 0.437771 0.312872 0.550608
O O16 0.522552 0.783897 0.603968
#
# Coordination Sequence:
#
# PCOD9102056 Si02
#       8
#     2   2   2   1   2   2   2   2
#     4   9  18  34  51  81 106 142 189 223 280 331
#     4  12  20  36  55  87 116 142 185 239 285 324
#     4  10  19  33  53  80 110 148 186 231 275 338
#     4  10  16  32  56  74 110 142 186 232 268 332
#     4  10  18  35  53  81 113 136 185 238 276 326
#     4  11  20  35  58  82 117 147 185 235 286 339
#     4   9  21  34  54  84 110 151 190 226 282 342
#     4  10  20  32  54  84 113 143 190 235 280 332
#
# _framework density 26.756858999999999
#
# number of rings (size 3 to 8) (size 9 to 14) (size 15 to 20)
#    0.800    1.067    5.333    0.800    0.000    0.533 
#    2.400    0.000    0.000    9.600    0.000    0.000 
#    0.000    0.000    0.000    0.000    0.000    0.000 
#
# Total GULP energy -83523.165647 kJ/mol
# GULP energy per Si atom -5568.211043 kJ/mol
# Density = 2.669596 g / cm^3
# Si number density = 26.756859 Si / 1000 Ang^3
#
#
#
# Elastic Constant Matrix: (Units=GPa)
#
#
# Indices 1 2 3 4 5 6 
#
# 1 121.2546 41.9913 36.5393 0.2134 17.2107 36.2081
# 2 41.9913 117.8268 20.8754 -27.9137 8.7378 26.8946
# 3 36.5393 20.8754 84.6735 -22.3850 -5.1900 11.1923
# 4 0.2134 -27.9137 -22.3850 28.5669 1.6081 -8.4557
# 5 17.2107 8.7378 -5.1900 1.6081 45.7297 14.3570
# 6 36.2081 26.8946 11.1923 -8.4557 14.3570 41.6352
#
#
#
# Elastic Compliance Matrix: (Units=1/GPa)
#
#
# Indices 1 2 3 4 5 6 
#
# 1 0.015999 -0.005118 -0.008226 -0.014592 -0.002128 -0.010626
# 2 -0.005118 0.013937 0.003138 0.015488 -0.000245 -0.002165
# 3 -0.008226 0.003138 0.019448 0.018970 0.003206 0.002645
# 4 -0.014592 0.015488 0.018970 0.068775 -0.001526 0.012079
# 5 -0.002128 -0.000245 0.003206 -0.001526 0.025646 -0.008006
# 6 -0.010626 -0.002165 0.002645 0.012079 -0.008006 0.039160
#
#
# Mechanical properties :
#
#
# Convention : Reuss Voigt Hill
#
# Bulk Modulus (GPa) = 34.51490 58.06298 46.28894
# Shear Modulus (GPa) = 23.47052 38.14293 30.80673
#
# Velocity S-wave (km/s) = 2.96493 3.77973 3.39685
# Velocity P-wave (km/s) = 4.96473 6.38716 5.72033
#
# Compressibility (1/GPa) = 0.02897299
#
# Stress axis : x y z
#
# Youngs Moduli (GPa) = 62.50390 71.75344 51.41955
#
# Poissons Ratio (x) = 0.36723 0.42296
# Poissons Ratio (y) = 0.31989 -0.16138
# Poissons Ratio (z) = 0.51414 -0.22519
#
# Static dielectric constant tensor:
#      x y z
#    x 2.681350 -0.166070 0.583410 
#    y -0.166070 2.195140 -0.124690 
#    z 0.583410 -0.124690 2.999660 
# 
# From -- ./inp_files/593719.got.cif
#   From: 2010.05.17/outbox.cif.g08.bks.cpg/sg2_297_cif.got.tgz:593719.got - 2010.06.03 11:33:40.
