data_PCOD9102146
_publ_section_title
;
Structure prediction by ZEFSAII (Michael W. Deem and Ramdas Pophale) SiO2 
 PCOD9102146
Probable space group: P -1
;
_chemical_formula_sum "Si O2"
_cell_formula_units_Z 14
_cell_length_a 18.836955
_cell_length_b 22.612078
_cell_length_c 11.785390
_cell_angle_alpha 153.965756
_cell_angle_beta 27.860892
_cell_angle_gamma 162.215425
_cell_volume 657.591448
_symmetry_space_group_name_H-M "P -1"
_symmetry_group_IT_number 2
_symmetry_cell_setting 'triclinic'
loop_
_space_group_symop_operation_xyz
x,y,z
-x,-y,-z
loop_
_atom_site_type_symbol
_atom_site_label
_atom_site_fract_x
_atom_site_fract_y
_atom_site_fract_z
Si Si1 0.341484 0.730727 0.705615
Si Si2 0.989842 0.278488 0.429261
Si Si3 0.785520 0.692170 0.422667
Si Si4 0.031531 0.675188 0.859899
Si Si5 0.171546 0.987904 0.017471
Si Si6 0.341694 0.759135 0.292815
Si Si7 0.152255 0.822399 0.288927
O O1 0.255350 0.517841 0.461928
O O2 0.624834 0.937226 0.655690
O O3 0.237249 0.733371 0.970364
O O4 0.232815 0.740897 0.767979
O O5 0.846327 0.316624 0.662540
O O6 0.887978 0.178153 0.523046
O O7 0.941348 0.131178 0.149666
O O8 0.500000 0.500000 0.500000
O O9 0.892233 0.689026 0.157941
O O10 0.902979 0.688079 0.351899
O O11 0.897540 0.918518 0.667761
O O12 0.128096 0.828875 0.884837
O O13 0.821541 0.422709 0.695550
O O14 0.453667 0.199662 0.964842
O O15 0.500000 0.000000 0.500000
#
# Coordination Sequence:
#
# PCOD9102146 Si02
#       7
#     2   2   2   2   2   2   2
#     4   9  20  39  61  91 117 152 196 241 299 351
#     4  10  21  36  60  92 120 152 193 244 304 351
#     4  11  23  43  61  84 116 164 209 240 291 352
#     4  10  20  38  62  86 121 154 197 251 284 351
#     4  11  22  37  60  90 122 159 199 241 300 349
#     4   9  19  34  58  91 120 151 191 237 300 351
#     4  10  21  40  62  85 120 155 196 245 293 351
#
# _framework density 21.289812999999999
#
# number of rings (size 3 to 8) (size 9 to 14) (size 15 to 20)
#    0.000    2.000    1.429    1.714    0.000    8.000 
#   10.286    0.714    0.000    0.000    0.000    0.000 
#    0.000    0.000    0.000    0.000    0.000    0.000 
#
# Total GULP energy -77986.108589 kJ/mol
# GULP energy per Si atom -5570.436328 kJ/mol
# Density = 2.124136 g / cm^3
# Si number density = 21.289813 Si / 1000 Ang^3
#
#
#
# Elastic Constant Matrix: (Units=GPa)
#
#
# Indices 1 2 3 4 5 6 
#
# 1 51.6278 30.6496 14.0739 -11.7650 20.0631 -11.0407
# 2 30.6496 118.1752 35.4497 -2.5835 8.5511 0.0517
# 3 14.0739 35.4497 80.8185 19.4927 11.2943 -1.7207
# 4 -11.7650 -2.5835 19.4927 34.4759 4.7972 -0.5291
# 5 20.0631 8.5511 11.2943 4.7972 23.8991 -6.2892
# 6 -11.0407 0.0517 -1.7207 -0.5291 -6.2892 33.7179
#
#
#
# Elastic Compliance Matrix: (Units=1/GPa)
#
#
# Indices 1 2 3 4 5 6 
#
# 1 0.046464 -0.007327 -0.005278 0.023481 -0.036355 0.008544
# 2 -0.007327 0.011414 -0.004336 0.000283 0.003540 -0.001973
# 3 -0.005278 -0.004336 0.018217 -0.012384 -0.000421 -0.001065
# 4 0.023481 0.000283 -0.012384 0.047227 -0.022493 0.003602
# 5 -0.036355 0.003540 -0.000421 -0.022493 0.076324 0.001952
# 6 0.008544 -0.001973 -0.001065 0.003602 0.001952 0.032825
#
#
# Mechanical properties :
#
#
# Convention : Reuss Voigt Hill
#
# Bulk Modulus (GPa) = 23.68924 45.66310 34.67617
# Shear Modulus (GPa) = 17.83011 29.78181 23.80596
#
# Velocity S-wave (km/s) = 2.89709 3.74421 3.34756
# Velocity P-wave (km/s) = 4.72674 6.33933 5.59147
#
# Compressibility (1/GPa) = 0.04221326
#
# Stress axis : x y z
#
# Youngs Moduli (GPa) = 21.52188 87.61280 54.89240
#
# Poissons Ratio (x) = 0.64196 0.28974
# Poissons Ratio (y) = 0.15770 0.23799
# Poissons Ratio (z) = 0.11360 0.37985
#
# Static dielectric constant tensor:
#      x y z
#    x 1.725970 -0.049250 -0.029270 
#    y -0.049250 1.691430 -0.061680 
#    z -0.029270 -0.061680 1.829820 
# 
# From -- ./inp_files/467160.got.cif
#   From: 2010.05.17/outbox.cif.g08.bks.cpg/sg2_234_cif.got.tgz:467160.got - 2010.06.03 11:33:40.
