data_PCOD9102303
_publ_section_title
;
Structure prediction by ZEFSAII (Michael W. Deem and Ramdas Pophale) SiO2 
 PCOD9102303
Probable space group: P -1
;
_chemical_formula_sum "Si O2"
_cell_formula_units_Z 14
_cell_length_a 16.144923
_cell_length_b 16.046847
_cell_length_c 9.360732
_cell_angle_alpha 115.350630
_cell_angle_beta 133.002544
_cell_angle_gamma 26.296465
_cell_volume 647.885751
_symmetry_space_group_name_H-M "P -1"
_symmetry_group_IT_number 2
_symmetry_cell_setting 'triclinic'
loop_
_space_group_symop_operation_xyz
x,y,z
-x,-y,-z
loop_
_atom_site_type_symbol
_atom_site_label
_atom_site_fract_x
_atom_site_fract_y
_atom_site_fract_z
Si Si1 0.811817 0.159884 0.036204
Si Si2 0.232743 0.090410 0.460197
Si Si3 0.291722 0.271980 0.020001
Si Si4 0.189149 0.146728 0.885299
Si Si5 0.154336 0.343887 0.428847
Si Si6 0.828478 0.319534 0.363932
Si Si7 0.290228 0.967778 0.154397
O O1 0.503358 0.425865 0.824653
O O2 0.758891 0.099562 0.001036
O O3 0.913654 0.159201 0.271975
O O4 0.000000 0.000000 0.000000
O O5 0.284660 0.150541 0.493217
O O6 0.965915 0.292645 0.398843
O O7 0.498155 0.860668 0.699407
O O8 0.150183 0.086398 0.230064
O O9 0.509173 0.091126 0.012464
O O10 0.136282 0.293872 0.902316
O O11 0.059224 0.508982 0.846693
O O12 0.976000 0.236561 0.622956
O O13 0.197774 0.108491 0.029397
O O14 0.389851 0.242484 0.591986
O O15 0.000000 0.500000 0.500000
#
# Coordination Sequence:
#
# PCOD9102303 Si02
#       7
#     2   2   2   2   2   2   2
#     4  11  23  45  69  94 122 176 225 276 328 386
#     4  11  23  41  62 100 133 172 216 271 327 400
#     4  10  20  38  62  90 141 171 212 259 334 393
#     4  10  20  39  61  97 127 173 211 271 324 397
#     4  12  21  37  64  96 129 178 214 261 330 397
#     4  10  23  44  71  88 131 172 219 274 337 384
#     4  12  23  39  65  96 133 166 226 272 320 392
#
# _framework density 21.608747999999999
#
# number of rings (size 3 to 8) (size 9 to 14) (size 15 to 20)
#    0.000    1.143    4.286    3.857    0.000    1.143 
#    2.571    0.714    0.000    0.000    0.000    0.000 
#    0.000    0.000    0.000    0.000    0.000    0.000 
#
# Total GULP energy -78152.574474 kJ/mol
# GULP energy per Si atom -5582.326748 kJ/mol
# Density = 2.155957 g / cm^3
# Si number density = 21.608748 Si / 1000 Ang^3
#
#
#
# Elastic Constant Matrix: (Units=GPa)
#
#
# Indices 1 2 3 4 5 6 
#
# 1 70.7836 24.8055 33.0926 0.0835 -10.7501 5.8905
# 2 24.8055 60.8071 29.8831 8.8288 -6.5661 -5.9224
# 3 33.0926 29.8831 130.0247 7.4381 -19.0248 2.1978
# 4 0.0835 8.8288 7.4381 29.8088 1.1853 6.1315
# 5 -10.7501 -6.5661 -19.0248 1.1853 43.4694 6.0200
# 6 5.8905 -5.9224 2.1978 6.1315 6.0200 36.3375
#
#
#
# Elastic Compliance Matrix: (Units=1/GPa)
#
#
# Indices 1 2 3 4 5 6 
#
# 1 0.018777 -0.006960 -0.002872 0.003659 0.002943 -0.005110
# 2 -0.006960 0.022424 -0.003136 -0.007107 -0.000376 0.006234
# 3 -0.002872 -0.003136 0.009713 -0.001424 0.003234 -0.000929
# 4 0.003659 -0.007107 -0.001424 0.037651 -0.000725 -0.007898
# 5 0.002943 -0.000376 0.003234 -0.000725 0.025787 -0.004884
# 6 -0.005110 0.006234 -0.000929 -0.007898 -0.004884 0.031562
#
#
# Mechanical properties :
#
#
# Convention : Reuss Voigt Hill
#
# Bulk Modulus (GPa) = 40.03367 48.57529 44.30448
# Shear Modulus (GPa) = 27.75059 33.51209 30.63134
#
# Velocity S-wave (km/s) = 3.58750 3.94237 3.76911
# Velocity P-wave (km/s) = 5.97721 6.57657 6.28404
#
# Compressibility (1/GPa) = 0.02497897
#
# Stress axis : x y z
#
# Youngs Moduli (GPa) = 53.25656 44.59446 102.95530
#
# Poissons Ratio (x) = 0.31036 0.29566
# Poissons Ratio (y) = 0.37065 0.32289
# Poissons Ratio (z) = 0.15294 0.13986
#
# Static dielectric constant tensor:
#      x y z
#    x 1.789330 -0.017860 0.006480 
#    y -0.017860 1.904150 0.065730 
#    z 0.006480 0.065730 1.838410 
# 
# From -- ./inp_files/315688.got.cif
#   From: 2010.05.17/outbox.cif.g08.bks.cpg/sg2_158_cif.got.tgz:315688.got - 2010.06.03 11:33:40.
