data_PCOD9102364
_publ_section_title
;
Structure prediction by ZEFSAII (Michael W. Deem and Ramdas Pophale) SiO2 
 PCOD9102364
Probable space group: P -1
;
_chemical_formula_sum "Si O2"
_cell_formula_units_Z 16
_cell_length_a 15.553242
_cell_length_b 14.805447
_cell_length_c 8.990361
_cell_angle_alpha 51.135126
_cell_angle_beta 100.233492
_cell_angle_gamma 142.414229
_cell_volume 727.288530
_symmetry_space_group_name_H-M "P -1"
_symmetry_group_IT_number 2
_symmetry_cell_setting 'triclinic'
loop_
_space_group_symop_operation_xyz
x,y,z
-x,-y,-z
loop_
_atom_site_type_symbol
_atom_site_label
_atom_site_fract_x
_atom_site_fract_y
_atom_site_fract_z
Si Si1 0.065754 0.758113 0.532235
Si Si2 0.214141 0.498969 0.522351
Si Si3 0.803151 0.731488 0.793040
Si Si4 0.204389 0.239435 0.894742
Si Si5 0.491101 0.858437 0.000450
Si Si6 0.196710 0.540432 0.981257
Si Si7 0.563467 0.701475 0.056308
Si Si8 0.848874 0.380318 0.410818
O O1 0.024318 0.580418 0.636435
O O2 0.928548 0.681441 0.475377
O O3 0.004381 0.685194 0.760185
O O4 0.280121 0.051150 0.259433
O O5 0.279349 0.455680 0.656921
O O6 0.401809 0.775801 0.219163
O O7 0.100724 0.443681 0.664692
O O8 0.786897 0.572469 0.951393
O O9 0.618268 0.555975 0.826934
O O10 0.806674 0.781558 0.909238
O O11 0.000000 0.000000 0.500000
O O12 0.332688 0.281380 0.846178
O O13 0.000000 0.000000 0.000000
O O14 0.351680 0.742882 0.948592
O O15 0.493554 0.721505 0.121791
O O16 0.696584 0.143691 0.719754
O O17 0.223073 0.657319 0.731135
#
# Coordination Sequence:
#
# PCOD9102364 Si02
#       8
#     2   2   2   2   2   2   2   2
#     4  10  21  39  65  92 129 169 207 262 324 377
#     4  11  22  40  61  93 131 171 209 261 327 372
#     4  11  24  43  67  94 130 170 209 267 321 382
#     4  12  24  41  67  92 131 167 217 268 313 384
#     4   9  22  38  62  87 127 172 208 264 321 378
#     4  10  20  38  62  93 123 166 217 261 318 373
#     4  10  22  42  67  93 126 170 218 258 323 381
#     4  11  20  38  62  92 127 165 219 263 312 378
#
# _framework density 21.999521000000001
#
# number of rings (size 3 to 8) (size 9 to 14) (size 15 to 20)
#    0.000    1.500    2.500    2.625    3.500    0.500 
#    0.000    0.000   11.000    0.000    0.000    0.000 
#    0.000    0.000    0.000    0.000    0.000    0.000 
#
# Total GULP energy -89307.370800 kJ/mol
# GULP energy per Si atom -5581.710675 kJ/mol
# Density = 2.194945 g / cm^3
# Si number density = 21.999521 Si / 1000 Ang^3
#
#
#
# Elastic Constant Matrix: (Units=GPa)
#
#
# Indices 1 2 3 4 5 6 
#
# 1 109.4972 23.2525 19.5410 18.8641 6.0895 12.7941
# 2 23.2525 49.1710 6.7412 6.9949 1.0966 11.1428
# 3 19.5410 6.7412 46.5141 2.8977 1.4238 6.2562
# 4 18.8641 6.9949 2.8977 32.2926 2.7350 -4.6486
# 5 6.0895 1.0966 1.4238 2.7350 35.9200 7.2378
# 6 12.7941 11.1428 6.2562 -4.6486 7.2378 33.9501
#
#
#
# Elastic Compliance Matrix: (Units=1/GPa)
#
#
# Indices 1 2 3 4 5 6 
#
# 1 0.012077 -0.003492 -0.003682 -0.006417 -0.000606 -0.003476
# 2 -0.003492 0.024391 -0.000837 -0.004395 0.001727 -0.007505
# 3 -0.003682 -0.000837 0.023543 -0.000203 0.000289 -0.002766
# 4 -0.006417 -0.004395 -0.000203 0.037398 -0.003589 0.009784
# 5 -0.000606 0.001727 0.000289 -0.003589 0.029601 -0.007194
# 6 -0.003476 -0.007505 -0.002766 0.009784 -0.007194 0.036611
#
#
# Mechanical properties :
#
#
# Convention : Reuss Voigt Hill
#
# Bulk Modulus (GPa) = 22.73361 33.80574 28.26967
# Shear Modulus (GPa) = 25.73274 30.80905 28.27089
#
# Velocity S-wave (km/s) = 3.42379 3.74631 3.58867
# Velocity P-wave (km/s) = 5.09764 5.84064 5.48174
#
# Compressibility (1/GPa) = 0.04398774
#
# Stress axis : x y z
#
# Youngs Moduli (GPa) = 82.80474 40.99908 42.47603
#
# Poissons Ratio (x) = 0.14317 0.15638
# Poissons Ratio (y) = 0.28916 0.03557
# Poissons Ratio (z) = 0.30485 0.03434
#
# Static dielectric constant tensor:
#      x y z
#    x 1.856880 -0.038460 0.015430 
#    y -0.038460 1.808210 -0.055420 
#    z 0.015430 -0.055420 1.835580 
# 
# From -- ./inp_files/226466.got.cif
#   From: 2010.05.17/outbox.cif.g08.bks.cpg/sg2_114_cif.got.tgz:226466.got - 2010.06.03 11:33:40.
