data_PCOD9102594
_publ_section_title
;
Structure prediction by ZEFSAII (Michael W. Deem and Ramdas Pophale) SiO2 
 PCOD9102594
Probable space group: P -1
;
_chemical_formula_sum "Si O2"
_cell_formula_units_Z 16
_cell_length_a 8.181299
_cell_length_b 13.425333
_cell_length_c 9.137382
_cell_angle_alpha 61.488583
_cell_angle_beta 95.181354
_cell_angle_gamma 59.069309
_cell_volume 677.339523
_symmetry_space_group_name_H-M "P -1"
_symmetry_group_IT_number 2
_symmetry_cell_setting 'triclinic'
loop_
_space_group_symop_operation_xyz
x,y,z
-x,-y,-z
loop_
_atom_site_type_symbol
_atom_site_label
_atom_site_fract_x
_atom_site_fract_y
_atom_site_fract_z
Si Si1 0.917871 0.430260 0.662712
Si Si2 0.706295 0.054618 0.016454
Si Si3 0.691021 0.727560 0.006990
Si Si4 0.054551 0.823458 0.998600
Si Si5 0.039310 0.264198 0.205755
Si Si6 0.477571 0.617583 0.528931
Si Si7 0.007061 0.225035 0.568814
Si Si8 0.607896 0.567789 0.913212
O O1 0.690010 0.590247 0.507143
O O2 0.002390 0.343747 0.577643
O O3 0.098594 0.405948 0.795311
O O4 0.881873 0.325898 0.822629
O O5 0.781869 0.152174 0.958246
O O6 0.459141 0.154587 0.962034
O O7 0.820585 0.935073 0.238422
O O8 0.821524 0.956613 0.949776
O O9 0.561464 0.687485 0.939771
O O10 0.762732 0.779620 0.844648
O O11 0.042789 0.810933 0.833932
O O12 0.052543 0.232298 0.399183
O O13 0.859797 0.438330 0.043296
O O14 0.500000 0.500000 0.500000
O O15 0.221438 0.735122 0.443313
O O16 0.538587 0.607757 0.712612
O O17 0.500000 0.500000 0.000000
#
# Coordination Sequence:
#
# PCOD9102594 Si02
#       8
#     2   2   2   2   2   2   2   2
#     4   9  20  40  65  91 123 160 205 255 305 358
#     4  10  22  39  61  92 121 163 211 243 300 367
#     4  11  24  39  64  91 122 161 205 249 303 373
#     4   9  19  39  64  86 116 160 212 248 289 357
#     4  11  22  38  62  89 123 161 200 256 307 353
#     4  10  20  38  63  92 120 159 203 255 304 353
#     4  10  22  38  61  91 128 164 202 251 303 358
#     4  12  22  40  66  92 118 159 208 253 303 362
#
# _framework density 23.621831
#
# number of rings (size 3 to 8) (size 9 to 14) (size 15 to 20)
#    0.000    1.750    3.750    1.125    0.000    5.500 
#    0.000    1.875    0.000    0.000    0.000    0.000 
#    0.000    0.000    0.000    0.000    0.000    0.000 
#
# Total GULP energy -89155.776908 kJ/mol
# GULP energy per Si atom -5572.236057 kJ/mol
# Density = 2.356807 g / cm^3
# Si number density = 23.621831 Si / 1000 Ang^3
#
#
#
# Elastic Constant Matrix: (Units=GPa)
#
#
# Indices 1 2 3 4 5 6 
#
# 1 101.5924 19.9981 20.8296 2.5126 6.1891 -13.6303
# 2 19.9981 76.6350 19.7381 22.8308 5.1141 -20.4021
# 3 20.8296 19.7381 104.0111 33.9699 3.0865 2.4355
# 4 2.5126 22.8308 33.9699 40.0289 0.1978 9.7026
# 5 6.1891 5.1141 3.0865 0.1978 34.8828 6.3799
# 6 -13.6303 -20.4021 2.4355 9.7026 6.3799 40.4406
#
#
#
# Elastic Compliance Matrix: (Units=1/GPa)
#
#
# Indices 1 2 3 4 5 6 
#
# 1 0.011189 -0.001946 -0.002478 0.001839 -0.002006 0.002814
# 2 -0.001946 0.023543 0.001893 -0.018911 -0.006207 0.016624
# 3 -0.002478 0.001893 0.014181 -0.013624 -0.001523 0.002775
# 4 0.001839 -0.018911 -0.013624 0.052475 0.007351 -0.021850
# 5 -0.002006 -0.006207 -0.001523 0.007351 0.031950 -0.010520
# 6 0.002814 0.016624 0.002775 -0.021850 -0.010520 0.040797
#
#
# Mechanical properties :
#
#
# Convention : Reuss Voigt Hill
#
# Bulk Modulus (GPa) = 22.80477 44.81891 33.81184
# Shear Modulus (GPa) = 25.79788 37.84862 31.82325
#
# Velocity S-wave (km/s) = 3.30831 4.00718 3.67440
# Velocity P-wave (km/s) = 4.92628 6.35804 5.68740
#
# Compressibility (1/GPa) = 0.04385047
#
# Stress axis : x y z
#
# Youngs Moduli (GPa) = 89.37582 42.47553 70.51593
#
# Poissons Ratio (x) = 0.08267 0.17476
# Poissons Ratio (y) = 0.17396 -0.13352
# Poissons Ratio (z) = 0.22150 -0.08042
#
# Static dielectric constant tensor:
#      x y z
#    x 1.981810 -0.045470 -0.003910 
#    y -0.045470 1.873550 -0.046390 
#    z -0.003910 -0.046390 1.894730 
# 
# From -- ./inp_files/200828.got.cif
#   From: 2010.05.17/outbox.cif.g08.bks.cpg/sg2_101_cif.got.tgz:200828.got - 2010.06.03 11:33:40.
