data_PCOD9102176
_publ_section_title
;
Structure prediction by ZEFSAII (Michael W. Deem and Ramdas Pophale) SiO2 
 PCOD9102176
Probable space group: P -1
;
_chemical_formula_sum "Si O2"
_cell_formula_units_Z 14
_cell_length_a 14.373818
_cell_length_b 7.068041
_cell_length_c 10.977497
_cell_angle_alpha 48.406409
_cell_angle_beta 51.104773
_cell_angle_gamma 67.728607
_cell_volume 647.779577
_symmetry_space_group_name_H-M "P -1"
_symmetry_group_IT_number 2
_symmetry_cell_setting 'triclinic'
loop_
_space_group_symop_operation_xyz
x,y,z
-x,-y,-z
loop_
_atom_site_type_symbol
_atom_site_label
_atom_site_fract_x
_atom_site_fract_y
_atom_site_fract_z
Si Si1 0.783327 0.122750 0.448354
Si Si2 0.270033 0.849882 0.247876
Si Si3 0.860493 0.751994 0.944093
Si Si4 0.407495 0.230210 0.813962
Si Si5 0.553450 0.213606 0.453335
Si Si6 0.028755 0.399714 0.856262
Si Si7 0.892177 0.632605 0.464841
O O1 0.712630 0.109618 0.640594
O O2 0.850331 0.871582 0.470974
O O3 0.689080 0.165129 0.400793
O O4 0.879911 0.356544 0.292777
O O5 0.157452 0.013508 0.230057
O O6 0.224109 0.566764 0.371069
O O7 0.382039 0.984669 0.025077
O O8 0.901160 0.517444 0.930853
O O9 0.729875 0.714767 0.127732
O O10 0.948368 0.787961 0.971229
O O11 0.478638 0.192858 0.648916
O O12 0.456957 0.500855 0.712171
O O13 0.500000 0.000000 0.500000
O O14 0.060520 0.308318 0.736417
O O15 0.000000 0.500000 0.500000
#
# Coordination Sequence:
#
# PCOD9102176 Si02
#       7
#     2   2   2   2   2   2   2
#     4  11  22  38  61  91 120 161 198 242 301 356
#     4   9  21  40  60  83 125 155 198 239 294 363
#     4   9  18  39  63  84 115 159 196 243 295 358
#     4   9  22  44  63  82 120 158 196 251 306 338
#     4  11  24  41  66  88 116 154 209 257 296 349
#     4  10  20  38  62  87 121 157 199 241 300 360
#     4  11  23  36  59  93 129 160 191 238 299 358
#
# _framework density 21.612289000000001
#
# number of rings (size 3 to 8) (size 9 to 14) (size 15 to 20)
#    0.857    1.143    1.429    1.714    2.000    5.143 
#    0.000    9.286    0.000    0.000    0.000    0.000 
#    0.000    0.000    0.000    0.000    0.000    0.000 
#
# Total GULP energy -78072.324021 kJ/mol
# GULP energy per Si atom -5576.594573 kJ/mol
# Density = 2.156310 g / cm^3
# Si number density = 21.612289 Si / 1000 Ang^3
#
#
#
# Elastic Constant Matrix: (Units=GPa)
#
#
# Indices 1 2 3 4 5 6 
#
# 1 48.6224 19.1010 3.9060 -9.8337 -3.5942 11.1107
# 2 19.1010 112.4498 29.9946 -21.7778 -17.0280 21.6893
# 3 3.9060 29.9946 91.8251 -3.1263 -4.7075 10.9748
# 4 -9.8337 -21.7778 -3.1263 27.9927 -2.7569 -6.7418
# 5 -3.5942 -17.0280 -4.7075 -2.7569 27.8748 10.2233
# 6 11.1107 21.6893 10.9748 -6.7418 10.2233 27.8507
#
#
#
# Elastic Compliance Matrix: (Units=1/GPa)
#
#
# Indices 1 2 3 4 5 6 
#
# 1 0.025265 0.000720 0.000918 0.007413 0.009201 -0.012585
# 2 0.000720 0.017497 -0.002468 0.011310 0.017594 -0.016661
# 3 0.000918 -0.002468 0.012248 -0.001057 0.002159 -0.004320
# 4 0.007413 0.011310 -0.001057 0.047169 0.014243 -0.005159
# 5 0.009201 0.017594 0.002159 0.014243 0.063558 -0.038106
# 6 -0.012585 -0.016661 -0.004320 -0.005159 -0.038106 0.068343
#
#
# Mechanical properties :
#
#
# Convention : Reuss Voigt Hill
#
# Bulk Modulus (GPa) = 18.74349 39.87781 29.31065
# Shear Modulus (GPa) = 19.72212 30.07003 24.89607
#
# Velocity S-wave (km/s) = 3.02411 3.73411 3.39771
# Velocity P-wave (km/s) = 4.57002 6.08958 5.38368
#
# Compressibility (1/GPa) = 0.05335187
#
# Stress axis : x y z
#
# Youngs Moduli (GPa) = 39.57981 57.15302 81.64441
#
# Poissons Ratio (x) = -0.04114 -0.07498
# Poissons Ratio (y) = -0.02849 0.20147
# Poissons Ratio (z) = -0.03635 0.14103
#
# Static dielectric constant tensor:
#      x y z
#    x 1.818980 -0.034800 -0.004800 
#    y -0.034800 1.752460 -0.026330 
#    z -0.004800 -0.026330 1.876750 
# 
# From -- ./inp_files/115540.got.cif
#   From: 2010.05.17/outbox.cif.g08.bks.cpg/sg2_58_cif.got.tgz:115540.got - 2010.06.03 11:33:40.
