data_PCOD9102431
_publ_section_title
;
Structure prediction by ZEFSAII (Michael W. Deem and Ramdas Pophale) SiO2 
 PCOD9102431
Probable space group: P -1
;
_chemical_formula_sum "Si O2"
_cell_formula_units_Z 12
_cell_length_a 15.845697
_cell_length_b 8.916719
_cell_length_c 10.604913
_cell_angle_alpha 67.519461
_cell_angle_beta 156.922249
_cell_angle_gamma 114.582252
_cell_volume 534.103451
_symmetry_space_group_name_H-M "P -1"
_symmetry_group_IT_number 2
_symmetry_cell_setting 'triclinic'
loop_
_space_group_symop_operation_xyz
x,y,z
-x,-y,-z
loop_
_atom_site_type_symbol
_atom_site_label
_atom_site_fract_x
_atom_site_fract_y
_atom_site_fract_z
Si Si1 0.194525 0.164635 0.200892
Si Si2 0.303004 0.027149 0.630718
Si Si3 0.191038 0.701768 0.420863
Si Si4 0.073941 0.885525 0.745797
Si Si5 0.893565 0.595453 0.431648
Si Si6 0.383438 0.175768 0.178930
O O1 0.353856 0.143443 0.541410
O O2 0.315226 0.181099 0.228199
O O3 0.052868 0.310310 0.964945
O O4 0.000000 0.000000 0.000000
O O5 0.118579 0.109672 0.419465
O O6 0.212591 0.842939 0.513957
O O7 0.500000 0.000000 0.000000
O O8 0.230308 0.538527 0.597758
O O9 0.366052 0.767103 0.533110
O O10 0.066201 0.714094 0.719413
O O11 0.000000 0.000000 0.500000
O O12 0.293340 0.988378 0.071985
O O13 0.000000 0.500000 0.500000
O O14 0.744462 0.707278 0.118975
#
# Coordination Sequence:
#
# PCOD9102431 Si02
#       6
#     2   2   2   2   2   2
#     4  10  21  41  65  94 137 170 220 273 325 383
#     4  11  22  41  66  95 129 172 225 269 323 393
#     4  11  22  40  69  99 130 177 212 274 330 385
#     4  10  20  38  62  98 128 169 223 268 312 394
#     4  11  21  39  67  95 140 175 215 271 330 388
#     4  11  21  40  68 100 129 174 227 261 325 392
#
# _framework density 22.467558
#
# number of rings (size 3 to 8) (size 9 to 14) (size 15 to 20)
#    0.000    1.333    5.000    3.500    0.000    2.667 
#    3.000    0.833    0.000    2.000    0.000    3.500 
#    0.000    0.000    0.000    0.000    0.000    0.000 
#
# Total GULP energy -66995.182652 kJ/mol
# GULP energy per Si atom -5582.931888 kJ/mol
# Density = 2.241642 g / cm^3
# Si number density = 22.467558 Si / 1000 Ang^3
#
#
#
# Elastic Constant Matrix: (Units=GPa)
#
#
# Indices 1 2 3 4 5 6 
#
# 1 191.4478 48.8532 62.7394 -0.2366 10.1503 18.2657
# 2 48.8532 92.8452 26.3656 -5.3234 -1.1891 0.2962
# 3 62.7394 26.3656 111.4425 -19.4071 -6.8279 10.4068
# 4 -0.2366 -5.3234 -19.4071 22.0603 7.2717 -0.6805
# 5 10.1503 -1.1891 -6.8279 7.2717 40.4301 -16.0437
# 6 18.2657 0.2962 10.4068 -0.6805 -16.0437 28.2542
#
#
#
# Elastic Compliance Matrix: (Units=1/GPa)
#
#
# Indices 1 2 3 4 5 6 
#
# 1 0.008348 -0.003448 -0.004054 -0.002846 -0.005075 -0.006818
# 2 -0.003448 0.012998 -0.001091 0.001493 0.002323 0.003849
# 3 -0.004054 -0.001091 0.013730 0.011555 0.000483 -0.001873
# 4 -0.002846 0.001493 0.011555 0.059150 -0.010751 -0.007112
# 5 -0.005075 0.002323 0.000483 -0.010751 0.037708 0.024232
# 6 -0.006818 0.003849 -0.001873 -0.007112 0.024232 0.054038
#
#
# Mechanical properties :
#
#
# Convention : Reuss Voigt Hill
#
# Bulk Modulus (GPa) = 55.89675 74.62800 65.26238
# Shear Modulus (GPa) = 23.90971 35.33406 29.62188
#
# Velocity S-wave (km/s) = 3.26573 3.96999 3.63496
# Velocity P-wave (km/s) = 6.25722 7.36902 6.83576
#
# Compressibility (1/GPa) = 0.01789013
#
# Stress axis : x y z
#
# Youngs Moduli (GPa) = 119.79475 76.93708 72.83147
#
# Poissons Ratio (x) = 0.26525 0.29524
# Poissons Ratio (y) = 0.41301 0.07949
# Poissons Ratio (z) = 0.48562 0.08397
#
# Static dielectric constant tensor:
#      x y z
#    x 1.232440 -0.044510 -0.236220 
#    y -0.044510 1.894290 -0.017340 
#    z -0.236220 -0.017340 1.823710 
# 
# From -- ./inp_files/462074.got.cif
#   From: 2010.05.17/outbox.cif.g08.bks.cpg/sg2_232_cif.got.tgz:462074.got - 2010.06.03 11:33:40.
