data_PCOD9102474
_publ_section_title
;
Structure prediction by ZEFSAII (Michael W. Deem and Ramdas Pophale) SiO2 
 PCOD9102474
Probable space group: P -1
;
_chemical_formula_sum "Si O2"
_cell_formula_units_Z 16
_cell_length_a 9.419667
_cell_length_b 8.491158
_cell_length_c 14.225283
_cell_angle_alpha 130.263508
_cell_angle_beta 81.634570
_cell_angle_gamma 112.930561
_cell_volume 790.414062
_symmetry_space_group_name_H-M "P -1"
_symmetry_group_IT_number 2
_symmetry_cell_setting 'triclinic'
loop_
_space_group_symop_operation_xyz
x,y,z
-x,-y,-z
loop_
_atom_site_type_symbol
_atom_site_label
_atom_site_fract_x
_atom_site_fract_y
_atom_site_fract_z
Si Si1 0.207132 0.349119 0.733274
Si Si2 0.620549 0.043601 0.197944
Si Si3 0.167018 0.885838 0.626547
Si Si4 0.634652 0.505125 0.418502
Si Si5 0.904266 0.249633 0.108522
Si Si6 0.480720 0.615654 0.950679
Si Si7 0.785954 0.790703 0.860472
Si Si8 0.841260 0.557879 0.594562
O O1 0.298488 0.355371 0.628769
O O2 0.107053 0.506664 0.800609
O O3 0.332083 0.472536 0.849817
O O4 0.127729 0.087280 0.666524
O O5 0.678844 0.006737 0.281419
O O6 0.576263 0.253745 0.290063
O O7 0.776227 0.117791 0.148595
O O8 0.486241 0.849141 0.081377
O O9 0.186737 0.701515 0.483067
O O10 0.021989 0.723361 0.640075
O O11 0.500000 0.500000 0.500000
O O12 0.780168 0.555029 0.493696
O O13 0.074172 0.263564 0.126187
O O14 0.846649 0.063316 0.958057
O O15 0.631458 0.681482 0.895252
O O16 0.500000 0.500000 0.000000
O O17 0.758491 0.665410 0.715389
#
# Coordination Sequence:
#
# PCOD9102474 Si02
#       8
#     2   2   2   2   2   2   2   2
#     4  11  23  39  62  93 125 155 206 262 303 348
#     4   9  18  38  62  81 117 161 200 239 307 365
#     4  10  20  38  63  86 119 156 208 246 297 362
#     4  10  22  39  57  90 125 158 202 251 297 361
#     4   9  20  37  64  89 119 156 200 263 295 349
#     4  11  22  38  62  88 122 163 196 249 315 362
#     4  10  20  39  64  87 120 163 209 235 307 377
#     4  10  21  39  65  84 116 172 199 237 309 373
#
# _framework density 20.242554999999999
#
# number of rings (size 3 to 8) (size 9 to 14) (size 15 to 20)
#    0.000    2.000    2.500    0.750    1.750    6.000 
#    2.250    4.375    0.000    0.000    0.000    0.000 
#    0.000    0.000    0.000    0.000    0.000    0.000 
#
# Total GULP energy -89098.215877 kJ/mol
# GULP energy per Si atom -5568.638492 kJ/mol
# Density = 2.019648 g / cm^3
# Si number density = 20.242555 Si / 1000 Ang^3
#
#
#
# Elastic Constant Matrix: (Units=GPa)
#
#
# Indices 1 2 3 4 5 6 
#
# 1 42.5189 -1.6529 6.8892 4.8428 3.2294 -0.8369
# 2 -1.6529 49.0408 37.1292 12.9292 0.6007 -11.8299
# 3 6.8892 37.1292 138.0526 6.8903 -1.2264 2.9769
# 4 4.8428 12.9292 6.8903 28.4573 0.2016 -2.8271
# 5 3.2294 0.6007 -1.2264 0.2016 29.2017 -3.2284
# 6 -0.8369 -11.8299 2.9769 -2.8271 -3.2284 16.3960
#
#
#
# Elastic Compliance Matrix: (Units=1/GPa)
#
#
# Indices 1 2 3 4 5 6 
#
# 1 0.025029 0.005194 -0.002475 -0.005603 -0.002496 0.004017
# 2 0.005194 0.038926 -0.010668 -0.013186 0.001395 0.028289
# 3 -0.002475 -0.010668 0.010347 0.001829 -0.000125 -0.009411
# 4 -0.005603 -0.013186 0.001829 0.041348 0.000358 -0.002932
# 5 -0.002496 0.001395 -0.000125 0.000358 0.035360 0.007926
# 6 0.004017 0.028289 -0.009411 -0.002932 0.007926 0.084370
#
#
# Mechanical properties :
#
#
# Convention : Reuss Voigt Hill
#
# Bulk Modulus (GPa) = 17.12195 34.92704 26.02449
# Shear Modulus (GPa) = 18.46748 27.29412 22.88080
#
# Velocity S-wave (km/s) = 3.02372 3.67598 3.36569
# Velocity P-wave (km/s) = 4.54613 5.94212 5.29037
#
# Compressibility (1/GPa) = 0.05840457
#
# Stress axis : x y z
#
# Youngs Moduli (GPa) = 39.95398 25.68958 96.64808
#
# Poissons Ratio (x) = -0.13344 0.23922
# Poissons Ratio (y) = -0.20754 1.03103
# Poissons Ratio (z) = 0.09889 0.27405
#
# Static dielectric constant tensor:
#      x y z
#    x 1.812190 0.023470 -0.082820 
#    y 0.023470 1.809970 -0.054760 
#    z -0.082820 -0.054760 1.909600 
# 
# From -- ./inp_files/304796.got.cif
#   From: 2010.05.17/outbox.cif.g08.bks.cpg/sg2_153_cif.got.tgz:304796.got - 2010.06.03 11:33:40.
