data_PCOD9102952
_publ_section_title
;
Structure prediction by ZEFSAII (Michael W. Deem and Ramdas Pophale) SiO2 
 PCOD9102952
Probable space group: P -1
;
_chemical_formula_sum "Si O2"
_cell_formula_units_Z 16
_cell_length_a 12.028703
_cell_length_b 8.761992
_cell_length_c 8.028285
_cell_angle_alpha 107.705343
_cell_angle_beta 116.095464
_cell_angle_gamma 52.161393
_cell_volume 599.415458
_symmetry_space_group_name_H-M "P -1"
_symmetry_group_IT_number 2
_symmetry_cell_setting 'triclinic'
loop_
_space_group_symop_operation_xyz
x,y,z
-x,-y,-z
loop_
_atom_site_type_symbol
_atom_site_label
_atom_site_fract_x
_atom_site_fract_y
_atom_site_fract_z
Si Si1 0.785422 0.430516 0.591850
Si Si2 0.147452 0.984336 0.158904
Si Si3 0.974375 0.338968 0.994510
Si Si4 0.257110 0.375242 0.825278
Si Si5 0.908676 0.816038 0.459532
Si Si6 0.324479 0.806456 0.704573
Si Si7 0.558815 0.225107 0.863932
Si Si8 0.594999 0.821010 0.782339
O O1 0.875662 0.322673 0.785873
O O2 0.685262 0.355624 0.446029
O O3 0.694980 0.654551 0.657545
O O4 0.920345 0.349250 0.522842
O O5 0.119904 0.072261 0.351532
O O6 0.316225 0.798166 0.187073
O O7 0.132010 0.147473 0.076303
O O8 0.000000 0.000000 0.000000
O O9 0.876181 0.420609 0.123377
O O10 0.000000 0.500000 0.000000
O O11 0.184594 0.279221 0.650837
O O12 0.380510 0.380003 0.801904
O O13 0.334110 0.253568 0.009019
O O14 0.837925 0.991476 0.337536
O O15 0.438624 0.839749 0.695085
O O16 0.383973 0.755695 0.913533
O O17 0.563200 0.028064 0.791926
#
# Coordination Sequence:
#
# PCOD9102952 Si02
#       8
#     2   2   2   2   2   2   2   2
#     4  11  22  35  64  95 127 166 212 269 316 375
#     4  12  27  43  62  94 133 170 207 271 334 375
#     4  11  22  44  68  94 129 170 218 259 317 384
#     4  10  20  38  64  94 117 167 216 265 302 378
#     4  12  22  38  59  92 129 158 218 259 320 375
#     4  11  20  39  63  93 126 168 214 264 315 384
#     4  11  21  42  66  85 127 174 217 254 319 388
#     4  10  20  38  64  94 123 164 219 264 310 379
#
# _framework density 26.692672000000002
#
# number of rings (size 3 to 8) (size 9 to 14) (size 15 to 20)
#    0.000    1.000    3.750    5.250    0.000    1.000 
#    0.000    0.625    0.000    0.000    0.000    0.000 
#    0.000    0.000    0.000    0.000    0.000    0.000 
#
# Total GULP energy -89728.384313 kJ/mol
# GULP energy per Si atom -5608.024020 kJ/mol
# Density = 2.663192 g / cm^3
# Si number density = 26.692672 Si / 1000 Ang^3
#
#
#
# Elastic Constant Matrix: (Units=GPa)
#
#
# Indices 1 2 3 4 5 6 
#
# 1 182.7738 20.4830 77.1506 23.1346 6.4966 -32.3872
# 2 20.4830 55.2979 3.1889 12.0974 7.4801 -6.1481
# 3 77.1506 3.1889 183.3317 39.9617 18.4605 -6.8786
# 4 23.1346 12.0974 39.9617 33.9379 0.2107 -3.5729
# 5 6.4966 7.4801 18.4605 0.2107 51.1436 13.1900
# 6 -32.3872 -6.1481 -6.8786 -3.5729 13.1900 43.7802
#
#
#
# Elastic Compliance Matrix: (Units=1/GPa)
#
#
# Indices 1 2 3 4 5 6 
#
# 1 0.007991 -0.001839 -0.002816 -0.000892 -0.001140 0.005481
# 2 -0.001839 0.021690 0.003123 -0.009830 -0.004749 0.002805
# 3 -0.002816 0.003123 0.009067 -0.009851 -0.003325 -0.000022
# 4 -0.000892 -0.009830 -0.009851 0.044984 0.005313 -0.001517
# 5 -0.001140 -0.004749 -0.003325 0.005313 0.023835 -0.008780
# 6 0.005481 0.002805 -0.000022 -0.001517 -0.008780 0.029808
#
#
# Mechanical properties :
#
#
# Convention : Reuss Voigt Hill
#
# Bulk Modulus (GPa) = 28.02481 69.22760 48.62621
# Shear Modulus (GPa) = 32.82311 47.14440 39.98375
#
# Velocity S-wave (km/s) = 3.51047 4.20717 3.87451
# Velocity P-wave (km/s) = 5.19163 7.04214 6.18647
#
# Compressibility (1/GPa) = 0.03568267
#
# Stress axis : x y z
#
# Youngs Moduli (GPa) = 125.14838 46.10508 110.29548
#
# Poissons Ratio (x) = 0.08478 0.31058
# Poissons Ratio (y) = 0.23012 -0.34441
# Poissons Ratio (z) = 0.35240 -0.14397
#
# Static dielectric constant tensor:
#      x y z
#    x 2.126710 0.064570 -0.004520 
#    y 0.064570 2.175800 -0.022380 
#    z -0.004520 -0.022380 2.032120 
# 
# From -- ./inp_files/245614.got.cif
#   From: 2010.05.17/outbox.cif.g08.bks.cpg/sg2_123_cif.got.tgz:245614.got - 2010.06.03 11:33:40.
