data_PCOD9102080
_publ_section_title
;
Structure prediction by ZEFSAII (Michael W. Deem and Ramdas Pophale) SiO2 
 PCOD9102080
Probable space group: P -1
;
_chemical_formula_sum "Si O2"
_cell_formula_units_Z 16
_cell_length_a 7.135659
_cell_length_b 13.897305
_cell_length_c 11.980672
_cell_angle_alpha 67.865905
_cell_angle_beta 108.151200
_cell_angle_gamma 137.842101
_cell_volume 737.652869
_symmetry_space_group_name_H-M "P -1"
_symmetry_group_IT_number 2
_symmetry_cell_setting 'triclinic'
loop_
_space_group_symop_operation_xyz
x,y,z
-x,-y,-z
loop_
_atom_site_type_symbol
_atom_site_label
_atom_site_fract_x
_atom_site_fract_y
_atom_site_fract_z
Si Si1 0.998006 0.616737 0.043643
Si Si2 0.047389 0.962625 0.843553
Si Si3 0.733998 0.436208 0.287260
Si Si4 0.014153 0.259438 0.803937
Si Si5 0.607225 0.784191 0.030659
Si Si6 0.184570 0.763216 0.602833
Si Si7 0.195029 0.935833 0.347341
Si Si8 0.876084 0.712739 0.788855
O O1 0.172507 0.521011 0.844587
O O2 0.820690 0.604690 0.919345
O O3 0.088215 0.741547 0.093559
O O4 0.275596 0.669480 0.022582
O O5 0.080171 0.871192 0.818487
O O6 0.014788 0.046820 0.716343
O O7 0.755777 0.847452 0.910268
O O8 0.269491 0.077245 0.928968
O O9 0.826808 0.360373 0.383367
O O10 0.404249 0.330986 0.275461
O O11 0.878639 0.593275 0.295448
O O12 0.798597 0.120154 0.746248
O O13 0.269481 0.275386 0.866457
O O14 0.098060 0.815081 0.472053
O O15 0.008316 0.713437 0.703708
O O16 0.506395 0.908783 0.629299
#
# Coordination Sequence:
#
# PCOD9102080 Si02
#       8
#     2   2   2   2   2   2   2   2
#     4  10  23  36  65  91 124 162 199 242 313 372
#     4  10  20  38  63  89 131 157 201 257 299 365
#     4  10  24  42  59  95 124 161 202 250 305 368
#     4   9  22  41  64  88 127 155 200 255 299 364
#     4  10  20  38  61  97 124 159 200 250 311 361
#     4  11  25  41  66  88 123 163 208 252 301 363
#     4  10  22  46  62  90 121 160 212 258 292 354
#     4  12  23  39  61  93 126 162 198 250 314 359
#
# _framework density 21.690418999999999
#
# number of rings (size 3 to 8) (size 9 to 14) (size 15 to 20)
#    0.750    1.000    2.500    1.125    3.500    2.000 
#    0.000    0.625    0.000    0.000    0.000    0.000 
#    0.000    0.000    0.000    0.000    0.000    0.000 
#
# Total GULP energy -89357.189568 kJ/mol
# GULP energy per Si atom -5584.824348 kJ/mol
# Density = 2.164105 g / cm^3
# Si number density = 21.690419 Si / 1000 Ang^3
#
#
#
# Elastic Constant Matrix: (Units=GPa)
#
#
# Indices 1 2 3 4 5 6 
#
# 1 51.5202 9.0015 -9.7436 -4.7661 -1.4447 -10.6458
# 2 9.0015 68.1636 -7.2970 -5.9901 8.3725 -24.7739
# 3 -9.7436 -7.2970 54.1093 -12.9179 14.2569 -6.0112
# 4 -4.7661 -5.9901 -12.9179 30.5288 -8.9492 -1.7700
# 5 -1.4447 8.3725 14.2569 -8.9492 21.9251 -6.3203
# 6 -10.6458 -24.7739 -6.0112 -1.7700 -6.3203 25.0255
#
#
#
# Elastic Compliance Matrix: (Units=1/GPa)
#
#
# Indices 1 2 3 4 5 6 
#
# 1 0.025582 0.005534 0.009263 0.011379 0.004081 0.020422
# 2 0.005534 0.029560 0.013008 0.012972 -0.004107 0.034622
# 3 0.009263 0.013008 0.031125 0.014921 -0.012078 0.022299
# 4 0.011379 0.012972 0.014921 0.049252 0.014378 0.028381
# 5 0.004081 -0.004107 -0.012078 0.014378 0.064662 0.012117
# 6 0.020422 0.034622 0.022299 0.028381 0.012117 0.093344
#
#
# Mechanical properties :
#
#
# Convention : Reuss Voigt Hill
#
# Bulk Modulus (GPa) = 7.04830 17.52388 12.28609
# Shear Modulus (GPa) = 17.53117 27.61804 22.57460
#
# Velocity S-wave (km/s) = 2.84605 3.57218 3.22959
# Velocity P-wave (km/s) = 3.74921 5.01105 4.42533
#
# Compressibility (1/GPa) = 0.14187817
#
# Stress axis : x y z
#
# Youngs Moduli (GPa) = 39.09043 33.82961 32.12831
#
# Poissons Ratio (x) = -0.18723 -0.29761
# Poissons Ratio (y) = -0.21634 -0.41793
# Poissons Ratio (z) = -0.36210 -0.44006
#
# Static dielectric constant tensor:
#      x y z
#    x 1.764210 -0.030120 0.012660 
#    y -0.030120 1.841370 -0.012890 
#    z 0.012660 -0.012890 1.768130 
# 
# From -- ./inp_files/364334.got.cif
#   From: 2010.05.17/outbox.cif.g08.bks.cpg/sg2_183_cif.got.tgz:364334.got - 2010.06.03 11:33:40.
