data_PCOD9102702
_publ_section_title
;
Structure prediction by ZEFSAII (Michael W. Deem and Ramdas Pophale) SiO2 
 PCOD9102702
Probable space group: P -1
;
_chemical_formula_sum "Si O2"
_cell_formula_units_Z 16
_cell_length_a 14.277932
_cell_length_b 19.148749
_cell_length_c 12.847812
_cell_angle_alpha 152.948235
_cell_angle_beta 27.814163
_cell_angle_gamma 149.165868
_cell_volume 702.518534
_symmetry_space_group_name_H-M "P -1"
_symmetry_group_IT_number 2
_symmetry_cell_setting 'triclinic'
loop_
_space_group_symop_operation_xyz
x,y,z
-x,-y,-z
loop_
_atom_site_type_symbol
_atom_site_label
_atom_site_fract_x
_atom_site_fract_y
_atom_site_fract_z
Si Si1 0.001237 0.726007 0.587775
Si Si2 0.433623 0.478066 0.305233
Si Si3 0.476946 0.656820 0.286186
Si Si4 0.918228 0.591435 0.950529
Si Si5 0.704299 0.142889 0.721214
Si Si6 0.206924 0.602213 0.866346
Si Si7 0.271001 0.907616 0.750150
Si Si8 0.103718 0.109601 0.766447
O O1 0.107970 0.769165 0.427061
O O2 0.141480 0.861474 0.708627
O O3 0.746845 0.686774 0.777312
O O4 0.020178 0.547505 0.357598
O O5 0.446667 0.612617 0.379999
O O6 0.677993 0.491419 0.091699
O O7 0.346893 0.514871 0.549944
O O8 0.306681 0.738396 0.525222
O O9 0.705510 0.789521 0.211533
O O10 0.500000 0.500000 0.000000
O O11 0.912625 0.750500 0.107891
O O12 0.090475 0.657610 0.958944
O O13 0.654940 0.262519 0.010867
O O14 0.500854 0.043836 0.720310
O O15 0.801384 0.028636 0.544355
O O16 0.000000 0.500000 0.000000
O O17 0.116565 0.956243 0.045298
#
# Coordination Sequence:
#
# PCOD9102702 Si02
#       8
#     2   2   2   2   2   2   2   2
#     4  11  22  40  62  93 127 163 214 257 302 378
#     4  10  21  37  66  96 121 160 211 258 314 358
#     4  10  20  38  63  97 129 160 211 262 302 369
#     4  10  22  41  67  93 119 160 211 259 312 367
#     4  11  25  42  57  91 131 163 208 262 308 372
#     4  11  22  44  64  90 127 159 212 268 300 372
#     4  11  22  38  64  88 130 175 200 252 325 364
#     4  10  23  40  59  92 127 160 209 256 310 379
#
# _framework density 22.775200000000002
#
# number of rings (size 3 to 8) (size 9 to 14) (size 15 to 20)
#    0.000    1.500    2.500    4.125    0.000    6.000 
#    0.000    8.750    0.000    0.000    0.000    0.000 
#    0.000    0.000    0.000    0.000    0.000    0.000 
#
# Total GULP energy -89227.361575 kJ/mol
# GULP energy per Si atom -5576.710098 kJ/mol
# Density = 2.272336 g / cm^3
# Si number density = 22.775200 Si / 1000 Ang^3
#
#
#
# Elastic Constant Matrix: (Units=GPa)
#
#
# Indices 1 2 3 4 5 6 
#
# 1 66.2985 7.2122 6.1622 11.8521 0.6915 13.4826
# 2 7.2122 65.5769 -1.1019 -10.1055 0.7834 14.0562
# 3 6.1622 -1.1019 50.7092 -2.2478 -1.7124 -0.5711
# 4 11.8521 -10.1055 -2.2478 37.6323 9.5395 -1.8704
# 5 0.6915 0.7834 -1.7124 9.5395 36.2259 2.8309
# 6 13.4826 14.0562 -0.5711 -1.8704 2.8309 26.2155
#
#
#
# Elastic Compliance Matrix: (Units=1/GPa)
#
#
# Indices 1 2 3 4 5 6 
#
# 1 0.018773 -0.001171 -0.002671 -0.007453 0.002274 -0.009863
# 2 -0.001171 0.018021 0.000628 0.005074 -0.001004 -0.008576
# 3 -0.002671 0.000628 0.020185 0.002224 0.000280 0.001605
# 4 -0.007453 0.005074 0.002224 0.032886 -0.008871 0.004466
# 5 0.002274 -0.001004 0.000280 -0.008871 0.030286 -0.004529
# 6 -0.009863 -0.008576 0.001605 0.004466 -0.004529 0.048659
#
#
# Mechanical properties :
#
#
# Convention : Reuss Voigt Hill
#
# Bulk Modulus (GPa) = 19.78237 23.01440 21.39839
# Shear Modulus (GPa) = 26.02961 31.36889 28.69925
#
# Velocity S-wave (km/s) = 3.38434 3.71526 3.55365
# Velocity P-wave (km/s) = 4.89657 5.34146 5.12385
#
# Compressibility (1/GPa) = 0.05055005
#
# Stress axis : x y z
#
# Youngs Moduli (GPa) = 53.26675 55.49165 49.54240
#
# Poissons Ratio (x) = 0.06500 0.13235
# Poissons Ratio (y) = 0.06239 -0.03113
# Poissons Ratio (z) = 0.14230 -0.03487
#
# Static dielectric constant tensor:
#      x y z
#    x 1.904900 -0.023240 -0.038890 
#    y -0.023240 1.893190 0.041330 
#    z -0.038890 0.041330 1.897990 
# 
# From -- ./inp_files/457713.got.cif
#   From: 2010.05.17/outbox.cif.g08.bks.cpg/sg2_229_cif.got.tgz:457713.got - 2010.06.03 11:33:40.
