data_PCOD9102805
_publ_section_title
;
Structure prediction by ZEFSAII (Michael W. Deem and Ramdas Pophale) SiO2 
 PCOD9102805
Probable space group: P -1
;
_chemical_formula_sum "Si O2"
_cell_formula_units_Z 15
_cell_length_a 9.147635
_cell_length_b 6.850333
_cell_length_c 15.964264
_cell_angle_alpha 68.044016
_cell_angle_beta 111.791902
_cell_angle_gamma 128.531538
_cell_volume 712.499239
_symmetry_space_group_name_H-M "P -1"
_symmetry_group_IT_number 2
_symmetry_cell_setting 'triclinic'
loop_
_space_group_symop_operation_xyz
x,y,z
-x,-y,-z
loop_
_atom_site_type_symbol
_atom_site_label
_atom_site_fract_x
_atom_site_fract_y
_atom_site_fract_z
Si Si1 0.611576 0.597978 0.809747
Si Si2 0.745425 0.278384 0.066576
Si Si3 0.612362 0.082005 0.718552
Si Si4 0.709238 0.241274 0.532867
Si Si5 0.174328 0.641719 0.111567
Si Si6 0.296766 0.082455 0.738898
Si Si7 0.500000 0.500000 0.000000
Si Si8 0.046168 0.179819 0.561458
O O1 0.798101 0.590375 0.845619
O O2 0.456029 0.366443 0.756773
O O3 0.625188 0.844719 0.742501
O O4 0.550612 0.545626 0.901889
O O5 0.598019 0.341639 0.052431
O O6 0.955559 0.538316 0.075500
O O7 0.744860 0.085574 0.160949
O O8 0.723753 0.200821 0.976772
O O9 0.699167 0.261001 0.627951
O O10 0.730676 0.206655 0.808515
O O11 0.400247 0.008276 0.704952
O O12 0.786770 0.521012 0.467798
O O13 0.863267 0.179267 0.549828
O O14 0.500000 0.000000 0.500000
O O15 0.120760 0.075254 0.664711
O O16 0.000000 0.000000 0.500000
#
# Coordination Sequence:
#
# PCOD9102805 Si02
#       8
#     2   2   2   2   2   2   1   2
#     4  10  22  38  62  94 129 172 216 269 328 390
#     4  10  21  42  61  94 136 173 220 271 320 396
#     4  11  23  41  68  96 130 172 221 269 338 401
#     4  11  26  48  72 101 139 176 227 290 344 414
#     4   9  23  40  60  93 134 173 217 267 326 394
#     4  11  24  40  68  97 132 172 223 276 332 396
#     4  10  20  38  64  88 132 176 216 266 322 388
#     4  11  27  47  73 104 134 179 229 285 351 408
#
# _framework density 21.052655000000001
#
# number of rings (size 3 to 8) (size 9 to 14) (size 15 to 20)
#    0.000    1.600    1.333    1.600    5.600    6.933 
#    0.000    2.000    0.000    0.000    0.000    0.000 
#    0.000    0.000    0.000    0.000    0.000    0.000 
#
# Total GULP energy -83569.266983 kJ/mol
# GULP energy per Si atom -5571.284466 kJ/mol
# Density = 2.100474 g / cm^3
# Si number density = 21.052655 Si / 1000 Ang^3
#
#
#
# Elastic Constant Matrix: (Units=GPa)
#
#
# Indices 1 2 3 4 5 6 
#
# 1 82.7005 56.9834 39.3113 -1.7763 6.1558 -5.0279
# 2 56.9834 78.9701 34.3053 -7.9277 11.1684 -6.7378
# 3 39.3113 34.3053 124.8418 -10.5049 8.2671 -8.4564
# 4 -1.7763 -7.9277 -10.5049 33.9588 -3.1129 6.1843
# 5 6.1558 11.1684 8.2671 -3.1129 36.1291 -0.2389
# 6 -5.0279 -6.7378 -8.4564 6.1843 -0.2389 20.7298
#
#
#
# Elastic Compliance Matrix: (Units=1/GPa)
#
#
# Indices 1 2 3 4 5 6 
#
# 1 0.025774 -0.017579 -0.003696 -0.003788 0.001563 0.000178
# 2 -0.017579 0.027143 -0.001067 0.004133 -0.004777 0.002835
# 3 -0.003696 -0.001067 0.009863 0.002119 -0.001101 0.002135
# 4 -0.003788 0.004133 0.002119 0.032549 0.001632 -0.008403
# 5 0.001563 -0.004777 -0.001101 0.001632 0.029269 -0.001772
# 6 0.000178 0.002835 0.002135 -0.008403 -0.001772 0.052562
#
#
# Mechanical properties :
#
#
# Convention : Reuss Voigt Hill
#
# Bulk Modulus (GPa) = 55.25753 60.85694 58.05723
# Shear Modulus (GPa) = 21.94164 28.55769 25.24966
#
# Velocity S-wave (km/s) = 3.23186 3.68705 3.46693
# Velocity P-wave (km/s) = 6.34278 6.86262 6.60781
#
# Compressibility (1/GPa) = 0.01809708
#
# Stress axis : x y z
#
# Youngs Moduli (GPa) = 38.79874 36.84124 101.38953
#
# Poissons Ratio (x) = 0.64762 0.37470
# Poissons Ratio (y) = 0.68203 0.10821
# Poissons Ratio (z) = 0.14339 0.03932
#
# Static dielectric constant tensor:
#      x y z
#    x 1.748570 0.031370 -0.007510 
#    y 0.031370 1.778310 -0.011150 
#    z -0.007510 -0.011150 1.772410 
# 
# From -- ./inp_files/488217.got.cif
#   From: 2010.05.17/outbox.cif.g08.bks.cpg/sg2_245_cif.got.tgz:488217.got - 2010.06.03 11:33:40.
