data_PCOD9102574
_publ_section_title
;
Structure prediction by ZEFSAII (Michael W. Deem and Ramdas Pophale) SiO2 
 PCOD9102574
Probable space group: P -1
;
_chemical_formula_sum "Si O2"
_cell_formula_units_Z 14
_cell_length_a 8.478885
_cell_length_b 13.722902
_cell_length_c 12.163713
_cell_angle_alpha 154.806278
_cell_angle_beta 84.939217
_cell_angle_gamma 82.821477
_cell_volume 525.492291
_symmetry_space_group_name_H-M "P -1"
_symmetry_group_IT_number 2
_symmetry_cell_setting 'triclinic'
loop_
_space_group_symop_operation_xyz
x,y,z
-x,-y,-z
loop_
_atom_site_type_symbol
_atom_site_label
_atom_site_fract_x
_atom_site_fract_y
_atom_site_fract_z
Si Si1 0.955116 0.090255 0.470684
Si Si2 0.174014 0.329327 0.735542
Si Si3 0.602349 0.638363 0.074968
Si Si4 0.283419 0.505040 0.692903
Si Si5 0.370407 0.433920 0.242086
Si Si6 0.933953 0.002348 0.162074
Si Si7 0.203841 0.259321 0.253703
O O1 0.788151 0.373242 0.774364
O O2 0.127436 0.128070 0.468976
O O3 0.897859 0.946409 0.234793
O O4 0.000000 0.000000 0.500000
O O5 0.222050 0.487232 0.803245
O O6 0.340311 0.203059 0.681462
O O7 0.000000 0.500000 0.000000
O O8 0.561270 0.724238 0.038389
O O9 0.500000 0.500000 0.000000
O O10 0.482991 0.470784 0.646984
O O11 0.264587 0.287196 0.399767
O O12 0.144905 0.782372 0.925623
O O13 0.349670 0.273852 0.179169
O O14 0.164370 0.683088 0.505263
O O15 0.833786 0.958785 0.021427
O O16 0.000000 0.500000 0.500000
#
# Coordination Sequence:
#
# PCOD9102574 Si02
#       7
#     2   2   2   2   2   2   2
#     4  10  22  37  62  94 129 169 219 259 327 397
#     4  10  21  38  68  90 131 173 210 271 328 385
#     4  10  20  38  63  91 124 166 206 269 328 376
#     4  11  23  45  68  96 131 174 221 268 333 385
#     4  11  24  44  67  99 134 169 223 272 327 390
#     4  10  24  43  66  97 130 172 221 268 328 387
#     4  10  25  43  70  96 131 177 219 272 328 389
#
# _framework density 26.641684999999999
#
# number of rings (size 3 to 8) (size 9 to 14) (size 15 to 20)
#    0.000    1.714    1.429    2.143   14.000    2.857 
#    2.571    0.714    0.000    0.000    0.000    0.000 
#    0.000    0.000    0.000    0.000    0.000    0.000 
#
# Total GULP energy -78002.336632 kJ/mol
# GULP energy per Si atom -5571.595474 kJ/mol
# Density = 2.658105 g / cm^3
# Si number density = 26.641685 Si / 1000 Ang^3
#
#
#
# Elastic Constant Matrix: (Units=GPa)
#
#
# Indices 1 2 3 4 5 6 
#
# 1 127.3401 46.9633 23.6003 -19.9774 0.4370 3.2510
# 2 46.9633 118.9712 23.0487 -45.0758 -6.7688 11.7250
# 3 23.6003 23.0487 97.5520 -33.6827 6.9103 -13.3225
# 4 -19.9774 -45.0758 -33.6827 44.0498 -19.2868 -0.7843
# 5 0.4370 -6.7688 6.9103 -19.2868 36.6885 -3.4066
# 6 3.2510 11.7250 -13.3225 -0.7843 -3.4066 47.4401
#
#
#
# Elastic Compliance Matrix: (Units=1/GPa)
#
#
# Indices 1 2 3 4 5 6 
#
# 1 0.009468 -0.004464 -0.002092 -0.002766 -0.002027 -0.000324
# 2 -0.004464 0.025551 0.006920 0.040051 0.024365 -0.001654
# 3 -0.002092 0.006920 0.017384 0.024455 0.011304 0.004531
# 4 -0.002766 0.040051 0.024455 0.107233 0.059485 0.003203
# 5 -0.002027 0.024365 0.011304 0.059485 0.061165 0.002667
# 6 -0.000324 -0.001654 0.004531 0.003203 0.002667 0.023027
#
#
# Mechanical properties :
#
#
# Convention : Reuss Voigt Hill
#
# Bulk Modulus (GPa) = 18.82109 59.00974 38.91541
# Shear Modulus (GPa) = 19.17110 42.31908 30.74509
#
# Velocity S-wave (km/s) = 2.68543 3.98986 3.40078
# Velocity P-wave (km/s) = 4.08598 6.58960 5.48261
#
# Compressibility (1/GPa) = 0.05313190
#
# Stress axis : x y z
#
# Youngs Moduli (GPa) = 105.61738 39.13798 57.52429
#
# Poissons Ratio (x) = 0.17470 0.12033
# Poissons Ratio (y) = 0.47144 -0.39808
# Poissons Ratio (z) = 0.22093 -0.27084
#
# Static dielectric constant tensor:
#      x y z
#    x 2.188150 0.024180 0.149950 
#    y 0.024180 2.190510 0.036280 
#    z 0.149950 0.036280 2.311200 
# 
# From -- ./inp_files/399975.got.cif
#   From: 2010.05.17/outbox.cif.g08.bks.cpg/sg2_200_cif.got.tgz:399975.got - 2010.06.03 11:33:40.
