data_PCOD9102582
_publ_section_title
;
Structure prediction by ZEFSAII (Michael W. Deem and Ramdas Pophale) SiO2 
 PCOD9102582
Probable space group: P -1
;
_chemical_formula_sum "Si O2"
_cell_formula_units_Z 16
_cell_length_a 21.123319
_cell_length_b 8.881634
_cell_length_c 17.516703
_cell_angle_alpha 136.346681
_cell_angle_beta 151.754149
_cell_angle_gamma 61.156011
_cell_volume 945.141860
_symmetry_space_group_name_H-M "P -1"
_symmetry_group_IT_number 2
_symmetry_cell_setting 'triclinic'
loop_
_space_group_symop_operation_xyz
x,y,z
-x,-y,-z
loop_
_atom_site_type_symbol
_atom_site_label
_atom_site_fract_x
_atom_site_fract_y
_atom_site_fract_z
Si Si1 0.880709 0.608137 0.412490
Si Si2 0.987385 0.898084 0.364324
Si Si3 0.696414 0.221192 0.954863
Si Si4 0.885774 0.590833 0.879962
Si Si5 0.717590 0.401081 0.873760
Si Si6 0.001658 0.171039 0.230351
Si Si7 0.967061 0.552931 0.785250
Si Si8 0.434016 0.683330 0.475666
O O1 0.000000 0.500000 0.500000
O O2 0.872016 0.671514 0.514583
O O3 0.740144 0.418765 0.142321
O O4 0.951070 0.871833 0.541895
O O5 0.069375 0.725292 0.380507
O O6 0.813795 0.700365 0.087629
O O7 0.000000 0.000000 0.500000
O O8 0.669911 0.313341 0.877735
O O9 0.554153 0.960752 0.727814
O O10 0.847654 0.189928 0.091413
O O11 0.726281 0.429349 0.692774
O O12 0.882168 0.554914 0.772019
O O13 0.000000 0.500000 0.000000
O O14 0.952548 0.882115 0.074363
O O15 0.594687 0.316128 0.645753
O O16 0.849254 0.327050 0.963236
O O17 0.056217 0.295411 0.251669
O O18 0.500000 0.500000 0.500000
#
# Coordination Sequence:
#
# PCOD9102582 Si02
#       8
#     2   2   2   2   2   2   2   2
#     4  10  18  30  52  84 115 144 187 237 283 332
#     4  10  16  32  57  86 111 141 190 239 280 326
#     4  10  20  35  53  83 118 148 185 235 288 337
#     4  12  21  38  58  83 114 153 193 236 282 342
#     4   9  19  35  54  81 113 142 188 226 287 328
#     4  10  19  35  56  85 115 144 191 243 281 332
#     4   9  20  34  57  86 109 147 192 235 286 331
#     4  12  23  36  55  83 119 150 188 234 285 340
#
# _framework density 16.928674999999998
#
# number of rings (size 3 to 8) (size 9 to 14) (size 15 to 20)
#    0.750    1.000    3.750    3.000    1.750    0.000 
#    0.000    0.000    0.000    3.750    0.000    0.000 
#    0.000    0.000    0.000    0.000    0.000    0.000 
#
# Total GULP energy -89110.289282 kJ/mol
# GULP energy per Si atom -5569.393080 kJ/mol
# Density = 1.689014 g / cm^3
# Si number density = 16.928675 Si / 1000 Ang^3
#
#
#
# Elastic Constant Matrix: (Units=GPa)
#
#
# Indices 1 2 3 4 5 6 
#
# 1 93.9778 35.0894 50.0555 -1.6451 -14.2661 18.2539
# 2 35.0894 83.8695 46.6869 10.7051 -0.1252 24.4318
# 3 50.0555 46.6869 108.9191 20.3049 -10.6991 14.7539
# 4 -1.6451 10.7051 20.3049 30.2411 1.1559 -1.2152
# 5 -14.2661 -0.1252 -10.6991 1.1559 28.8111 -1.5464
# 6 18.2539 24.4318 14.7539 -1.2152 -1.5464 28.4349
#
#
#
# Elastic Compliance Matrix: (Units=1/GPa)
#
#
# Indices 1 2 3 4 5 6 
#
# 1 0.017024 -0.002942 -0.006528 0.005961 0.005514 -0.004459
# 2 -0.002942 0.020499 -0.005186 -0.004327 -0.003841 -0.013427
# 3 -0.006528 -0.005186 0.016577 -0.009783 0.003283 -0.000194
# 4 0.005961 -0.004327 -0.009783 0.041836 -0.002022 0.006645
# 5 0.005514 -0.003841 0.003283 -0.002022 0.038727 0.000077
# 6 -0.004459 -0.013427 -0.000194 0.006645 0.000077 0.049956
#
#
# Mechanical properties :
#
#
# Convention : Reuss Voigt Hill
#
# Bulk Modulus (GPa) = 40.34465 61.15889 50.75177
# Shear Modulus (GPa) = 22.50277 27.82639 25.16458
#
# Velocity S-wave (km/s) = 3.64987 4.05871 3.85971
# Velocity P-wave (km/s) = 6.45337 7.62692 7.06456
#
# Compressibility (1/GPa) = 0.02478643
#
# Stress axis : x y z
#
# Youngs Moduli (GPa) = 58.74106 48.78175 60.32574
#
# Poissons Ratio (x) = 0.14353 0.39381
# Poissons Ratio (y) = 0.17284 0.31287
# Poissons Ratio (z) = 0.38346 0.25300
#
# Static dielectric constant tensor:
#      x y z
#    x 1.605600 0.029140 0.000340 
#    y 0.029140 1.579960 0.000360 
#    z 0.000340 0.000360 1.645170 
# 
# From -- ./inp_files/577489.got.cif
#   From: 2010.05.17/outbox.cif.g08.bks.cpg/sg2_289_cif.got.tgz:577489.got - 2010.06.03 11:33:40.
