data_PCOD9102425
_publ_section_title
;
Structure prediction by ZEFSAII (Michael W. Deem and Ramdas Pophale) SiO2 
 PCOD9102425
Probable space group: P -1
;
_chemical_formula_sum "Si O2"
_cell_formula_units_Z 14
_cell_length_a 17.728682
_cell_length_b 8.121812
_cell_length_c 12.520188
_cell_angle_alpha 100.969106
_cell_angle_beta 27.883329
_cell_angle_gamma 119.419451
_cell_volume 588.218786
_symmetry_space_group_name_H-M "P -1"
_symmetry_group_IT_number 2
_symmetry_cell_setting 'triclinic'
loop_
_space_group_symop_operation_xyz
x,y,z
-x,-y,-z
loop_
_atom_site_type_symbol
_atom_site_label
_atom_site_fract_x
_atom_site_fract_y
_atom_site_fract_z
Si Si1 0.415923 0.771793 0.893110
Si Si2 0.257344 0.189260 0.164325
Si Si3 0.341614 0.618384 0.192794
Si Si4 0.055303 0.649300 0.170782
Si Si5 0.684006 0.671297 0.127015
Si Si6 0.673725 0.971444 0.290191
Si Si7 0.887980 0.168548 0.274717
O O1 0.410910 0.578138 0.824539
O O2 0.676387 0.017878 0.602584
O O3 0.308779 0.702211 0.137124
O O4 0.272843 0.775151 0.988947
O O5 0.347816 0.439022 0.111008
O O6 0.418789 0.178877 0.023106
O O7 0.275724 0.195462 0.015579
O O8 0.000000 0.000000 0.500000
O O9 0.149123 0.469531 0.505437
O O10 0.990124 0.428461 0.166983
O O11 0.118794 0.830092 0.024493
O O12 0.557060 0.711669 0.367083
O O13 0.915470 0.799312 0.916214
O O14 0.778029 0.031960 0.284441
O O15 0.500000 0.000000 0.500000
#
# Coordination Sequence:
#
# PCOD9102425 Si02
#       7
#     2   2   2   2   2   2   2
#     4  10  22  44  65  98 133 167 215 262 329 395
#     4  10  20  38  62  97 131 167 215 260 322 389
#     4  10  22  37  65  97 130 170 208 266 323 385
#     4  11  24  42  66  97 134 168 218 270 323 384
#     4  10  24  42  67  93 128 172 215 270 320 388
#     4  12  25  45  67  94 129 175 221 275 322 374
#     4  11  24  45  65  95 132 174 216 265 326 385
#
# _framework density 23.800667000000001
#
# number of rings (size 3 to 8) (size 9 to 14) (size 15 to 20)
#    0.000    1.429    1.429    3.000    2.000    4.571 
#    2.571    0.000    0.000    0.000    0.000    0.000 
#    0.000    0.000    0.000    0.000    0.000    0.000 
#
# Total GULP energy -78274.500866 kJ/mol
# GULP energy per Si atom -5591.035776 kJ/mol
# Density = 2.374650 g / cm^3
# Si number density = 23.800667 Si / 1000 Ang^3
#
#
#
# Elastic Constant Matrix: (Units=GPa)
#
#
# Indices 1 2 3 4 5 6 
#
# 1 111.8930 27.5021 17.9454 -3.4190 14.9336 13.5014
# 2 27.5021 82.1676 7.9306 9.6786 -4.2386 14.0586
# 3 17.9454 7.9306 71.5146 -3.6043 1.7184 -0.4707
# 4 -3.4190 9.6786 -3.6043 29.0676 2.4115 2.0878
# 5 14.9336 -4.2386 1.7184 2.4115 42.2692 2.9076
# 6 13.5014 14.0586 -0.4707 2.0878 2.9076 24.5489
#
#
#
# Elastic Compliance Matrix: (Units=1/GPa)
#
#
# Indices 1 2 3 4 5 6 
#
# 1 0.011253 -0.003404 -0.002232 0.002811 -0.004109 -0.004035
# 2 -0.003404 0.015457 -0.001270 -0.005503 0.003597 -0.006962
# 3 -0.002232 -0.001270 0.014796 0.001860 -0.000191 0.002103
# 4 0.002811 -0.005503 0.001860 0.037178 -0.003667 -0.001086
# 5 -0.004109 0.003597 -0.000191 -0.003667 0.025863 -0.002555
# 6 -0.004035 -0.006962 0.002103 -0.001086 -0.002555 0.047377
#
#
# Mechanical properties :
#
#
# Convention : Reuss Voigt Hill
#
# Bulk Modulus (GPa) = 36.10792 41.37016 38.73904
# Shear Modulus (GPa) = 28.57685 33.32362 30.95023
#
# Velocity S-wave (km/s) = 3.46883 3.74587 3.61001
# Velocity P-wave (km/s) = 5.58996 6.01069 5.80414
#
# Compressibility (1/GPa) = 0.02769475
#
# Stress axis : x y z
#
# Youngs Moduli (GPa) = 88.86629 64.69583 67.58447
#
# Poissons Ratio (x) = 0.22020 0.15088
# Poissons Ratio (y) = 0.30247 0.08581
# Poissons Ratio (z) = 0.19839 0.08214
#
# Static dielectric constant tensor:
#      x y z
#    x 1.866000 0.007890 0.013070 
#    y 0.007890 1.969130 0.033050 
#    z 0.013070 0.033050 1.896350 
# 
# From -- ./inp_files/34158.got.cif
#   From: 2010.05.17/outbox.cif.g08.bks.cpg/sg2_18_cif.got.tgz:34158.got - 2010.06.03 11:33:40.
