data_PCOD9102580
_publ_section_title
;
Structure prediction by ZEFSAII (Michael W. Deem and Ramdas Pophale) SiO2 
 PCOD9102580
Probable space group: P -1
;
_chemical_formula_sum "Si O2"
_cell_formula_units_Z 16
_cell_length_a 9.466801
_cell_length_b 9.938803
_cell_length_c 11.964895
_cell_angle_alpha 53.544017
_cell_angle_beta 127.923378
_cell_angle_gamma 107.404774
_cell_volume 710.376235
_symmetry_space_group_name_H-M "P -1"
_symmetry_group_IT_number 2
_symmetry_cell_setting 'triclinic'
loop_
_space_group_symop_operation_xyz
x,y,z
-x,-y,-z
loop_
_atom_site_type_symbol
_atom_site_label
_atom_site_fract_x
_atom_site_fract_y
_atom_site_fract_z
Si Si1 0.992278 0.805116 0.073332
Si Si2 0.602591 0.896438 0.771497
Si Si3 0.441249 0.309868 0.940114
Si Si4 0.886891 0.504459 0.828118
Si Si5 0.235712 0.609384 0.837409
Si Si6 0.613848 0.813660 0.574704
Si Si7 0.087248 0.310113 0.660443
Si Si8 0.110200 0.921569 0.486454
O O1 0.134481 0.682566 0.134082
O O2 0.971870 0.731341 0.222672
O O3 0.808342 0.814563 0.909063
O O4 0.000000 0.000000 0.000000
O O5 0.539281 0.818717 0.662214
O O6 0.545083 0.094471 0.624853
O O7 0.550139 0.851911 0.894210
O O8 0.336651 0.455559 0.894392
O O9 0.306338 0.297056 0.778037
O O10 0.644944 0.358669 0.010484
O O11 0.032253 0.577790 0.779321
O O12 0.706369 0.630117 0.681501
O O13 0.000000 0.500000 0.000000
O O14 0.235761 0.769208 0.678665
O O15 0.774819 0.937422 0.579291
O O16 0.000000 0.500000 0.500000
O O17 0.013824 0.170223 0.614160
O O18 0.000000 0.000000 0.500000
#
# Coordination Sequence:
#
# PCOD9102580 Si02
#       8
#     2   2   2   2   2   2   2   2
#     4  11  23  42  66  93 131 172 221 268 332 392
#     4  10  20  39  61  95 125 173 212 270 317 392
#     4  10  20  38  63  91 129 165 222 267 319 387
#     4  12  22  40  65  94 129 169 215 274 321 390
#     4  11  20  37  62  95 124 168 213 267 318 390
#     4  11  22  36  64  95 131 166 223 266 326 389
#     4  11  22  40  62  97 128 173 217 272 325 389
#     4  12  23  37  64  93 128 166 216 265 330 388
#
# _framework density 22.523275000000002
#
# number of rings (size 3 to 8) (size 9 to 14) (size 15 to 20)
#    0.000    1.000    7.500    0.750    0.000    0.000 
#    0.000    1.250    2.750    0.000    0.000    0.000 
#    0.000    0.000    0.000    0.000    0.000    0.000 
#
# Total GULP energy -89213.154827 kJ/mol
# GULP energy per Si atom -5575.822177 kJ/mol
# Density = 2.247201 g / cm^3
# Si number density = 22.523275 Si / 1000 Ang^3
#
#
#
# Elastic Constant Matrix: (Units=GPa)
#
#
# Indices 1 2 3 4 5 6 
#
# 1 55.4295 17.2874 9.4343 -7.0939 -3.9278 -12.3409
# 2 17.2874 123.4494 46.7288 -11.5986 1.0135 -16.1074
# 3 9.4343 46.7288 143.4140 -16.6555 0.4709 -10.5808
# 4 -7.0939 -11.5986 -16.6555 46.5708 3.2906 7.3032
# 5 -3.9278 1.0135 0.4709 3.2906 29.9398 -5.9328
# 6 -12.3409 -16.1074 -10.5808 7.3032 -5.9328 29.3059
#
#
#
# Elastic Compliance Matrix: (Units=1/GPa)
#
#
# Indices 1 2 3 4 5 6 
#
# 1 0.020922 -0.001733 -0.000076 0.001097 0.004356 0.008439
# 2 -0.001733 0.009923 -0.002780 0.000642 0.000120 0.003585
# 3 -0.000076 -0.002780 0.008191 0.002099 -0.000106 0.000852
# 4 0.001097 0.000642 0.002099 0.023583 -0.003496 -0.005012
# 5 0.004356 0.000120 -0.000106 -0.003496 0.036354 0.010093
# 6 0.008439 0.003585 0.000852 -0.005012 0.010093 0.043247
#
#
# Mechanical properties :
#
#
# Convention : Reuss Voigt Hill
#
# Bulk Modulus (GPa) = 33.49255 52.13265 42.81260
# Shear Modulus (GPa) = 30.98840 37.75280 34.37060
#
# Velocity S-wave (km/s) = 3.71325 4.09854 3.91065
# Velocity P-wave (km/s) = 5.76947 6.75232 6.28015
#
# Compressibility (1/GPa) = 0.02985739
#
# Stress axis : x y z
#
# Youngs Moduli (GPa) = 47.79595 100.77942 122.08803
#
# Poissons Ratio (x) = 0.17461 0.00929
# Poissons Ratio (y) = 0.08281 0.33946
# Poissons Ratio (z) = 0.00364 0.28021
#
# Static dielectric constant tensor:
#      x y z
#    x 1.921980 0.099120 -0.013080 
#    y 0.099120 1.929120 -0.023400 
#    z -0.013080 -0.023400 1.871840 
# 
# From -- ./inp_files/419224.got.cif
#   From: 2010.05.17/outbox.cif.g08.bks.cpg/sg2_210_cif.got.tgz:419224.got - 2010.06.03 11:33:40.
