data_PCOD9102792
_publ_section_title
;
Structure prediction by ZEFSAII (Michael W. Deem and Ramdas Pophale) SiO2 
 PCOD9102792
Probable space group: P -1
;
_chemical_formula_sum "Si O2"
_cell_formula_units_Z 16
_cell_length_a 6.422737
_cell_length_b 8.742311
_cell_length_c 29.603491
_cell_angle_alpha 39.726517
_cell_angle_beta 131.164777
_cell_angle_gamma 115.493727
_cell_volume 789.774596
_symmetry_space_group_name_H-M "P -1"
_symmetry_group_IT_number 2
_symmetry_cell_setting 'triclinic'
loop_
_space_group_symop_operation_xyz
x,y,z
-x,-y,-z
loop_
_atom_site_type_symbol
_atom_site_label
_atom_site_fract_x
_atom_site_fract_y
_atom_site_fract_z
Si Si1 0.303251 0.144681 0.149318
Si Si2 0.675465 0.722539 0.981561
Si Si3 0.184969 0.260354 0.696848
Si Si4 0.811512 0.894557 0.162686
Si Si5 0.198820 0.798594 0.601903
Si Si6 0.758756 0.558702 0.844396
Si Si7 0.864436 0.394848 0.267992
Si Si8 0.195857 0.079216 0.310848
O O1 0.274396 0.200919 0.079951
O O2 0.342686 0.368617 0.135654
O O3 0.550620 0.921117 0.243870
O O4 0.014625 0.086004 0.140123
O O5 0.490952 0.954311 0.925920
O O6 0.500000 0.500000 0.000000
O O7 0.963433 0.634135 0.068603
O O8 0.182862 0.186881 0.765949
O O9 0.226337 0.540256 0.638224
O O10 0.905014 0.180144 0.653292
O O11 0.956821 0.652878 0.212870
O O12 0.059383 0.743620 0.642655
O O13 0.494069 0.894244 0.632570
O O14 0.000000 0.000000 0.500000
O O15 0.467959 0.506735 0.794236
O O16 0.828400 0.777866 0.772926
O O17 0.976462 0.219484 0.283385
#
# Coordination Sequence:
#
# PCOD9102792 Si02
#       8
#     2   2   2   2   2   2   2   2
#     4  11  19  35  61  84 113 159 204 240 286 342
#     4  11  22  33  55  87 118 154 206 249 289 341
#     4  10  20  38  64  88 117 159 200 235 293 363
#     4  10  21  37  56  85 117 161 200 244 296 342
#     4  10  24  43  62  93 124 146 189 248 299 363
#     4  11  21  35  58  85 116 154 203 247 284 342
#     4  10  23  40  62  84 119 155 193 245 301 348
#     4  11  21  40  64  88 116 158 202 238 296 359
#
# _framework density 20.258945000000001
#
# number of rings (size 3 to 8) (size 9 to 14) (size 15 to 20)
#    0.000    1.500    3.750    1.875    0.000    2.500 
#    0.000    1.875    0.000    0.000    0.000    0.000 
#    0.000    0.000    0.000    0.000    0.000    0.000 
#
# Total GULP energy -89136.848591 kJ/mol
# GULP energy per Si atom -5571.053037 kJ/mol
# Density = 2.021283 g / cm^3
# Si number density = 20.258945 Si / 1000 Ang^3
#
#
#
# Elastic Constant Matrix: (Units=GPa)
#
#
# Indices 1 2 3 4 5 6 
#
# 1 45.4749 2.1364 25.8366 6.5006 10.1006 -0.2470
# 2 2.1364 77.9706 33.5016 4.6768 9.2168 6.3582
# 3 25.8366 33.5016 125.8404 8.6956 8.1398 15.3125
# 4 6.5006 4.6768 8.6956 21.9328 0.4666 4.8230
# 5 10.1006 9.2168 8.1398 0.4666 14.8714 2.6367
# 6 -0.2470 6.3582 15.3125 4.8230 2.6367 25.8427
#
#
#
# Elastic Compliance Matrix: (Units=1/GPa)
#
#
# Indices 1 2 3 4 5 6 
#
# 1 0.031560 0.004443 -0.006499 -0.008783 -0.021580 0.006901
# 2 0.004443 0.015947 -0.004316 -0.002844 -0.010499 0.000278
# 3 -0.006499 -0.004316 0.011008 -0.000314 0.002080 -0.005676
# 4 -0.008783 -0.002844 -0.000314 0.050847 0.007989 -0.009503
# 5 -0.021580 -0.010499 0.002080 0.007989 0.088683 -0.009395
# 6 0.006901 0.000278 -0.005676 -0.009503 -0.009395 0.044789
#
#
# Mechanical properties :
#
#
# Convention : Reuss Voigt Hill
#
# Bulk Modulus (GPa) = 21.84825 41.35943 31.60384
# Shear Modulus (GPa) = 18.46135 25.05014 21.75574
#
# Velocity S-wave (km/s) = 3.02200 3.52020 3.28057
# Velocity P-wave (km/s) = 4.79422 6.08129 5.47570
#
# Compressibility (1/GPa) = 0.04577025
#
# Stress axis : x y z
#
# Youngs Moduli (GPa) = 31.68537 62.70785 90.84472
#
# Poissons Ratio (x) = -0.27860 0.59044
# Poissons Ratio (y) = -0.14077 0.39207
# Poissons Ratio (z) = 0.20594 0.27064
#
# Static dielectric constant tensor:
#      x y z
#    x 1.730440 0.045390 0.010640 
#    y 0.045390 1.877630 -0.041820 
#    z 0.010640 -0.041820 1.721190 
# 
# From -- ./inp_files/37783.got.cif
#   From: 2010.05.17/outbox.cif.g08.bks.cpg/sg2_19_cif.got.tgz:37783.got - 2010.06.03 11:33:40.
