data_PCOD9102572
_publ_section_title
;
Structure prediction by ZEFSAII (Michael W. Deem and Ramdas Pophale) SiO2 
 PCOD9102572
Probable space group: P -1
;
_chemical_formula_sum "Si O2"
_cell_formula_units_Z 16
_cell_length_a 14.175353
_cell_length_b 8.151060
_cell_length_c 14.205637
_cell_angle_alpha 118.469686
_cell_angle_beta 151.431212
_cell_angle_gamma 75.908644
_cell_volume 627.238800
_symmetry_space_group_name_H-M "P -1"
_symmetry_group_IT_number 2
_symmetry_cell_setting 'triclinic'
loop_
_space_group_symop_operation_xyz
x,y,z
-x,-y,-z
loop_
_atom_site_type_symbol
_atom_site_label
_atom_site_fract_x
_atom_site_fract_y
_atom_site_fract_z
Si Si1 0.813418 0.478565 0.992587
Si Si2 0.775789 0.497633 0.177901
Si Si3 0.844510 0.214097 0.296073
Si Si4 0.264200 0.098242 0.748370
Si Si5 0.081838 0.118784 0.313147
Si Si6 0.275988 0.869153 0.508973
Si Si7 0.916837 0.756841 0.849804
Si Si8 0.352960 0.289713 0.226506
O O1 0.740184 0.417038 0.018540
O O2 0.037482 0.683849 0.252334
O O3 0.894234 0.313822 0.976449
O O4 0.655557 0.542978 0.809362
O O5 0.718112 0.315427 0.151831
O O6 0.029768 0.633850 0.466872
O O7 0.672614 0.661526 0.136830
O O8 0.693333 0.989224 0.139754
O O9 0.032992 0.207357 0.391373
O O10 0.311994 0.990523 0.671313
O O11 0.000000 0.000000 0.500000
O O12 0.132151 0.274629 0.312982
O O13 0.258662 0.026793 0.459005
O O14 0.853220 0.924791 0.039846
O O15 0.446801 0.772884 0.615730
O O16 0.716407 0.658723 0.717802
O O17 0.000000 0.000000 0.000000
#
# Coordination Sequence:
#
# PCOD9102572 Si02
#       8
#     2   2   2   2   2   2   2   2
#     4  11  20  40  66  85 119 167 198 247 320 361
#     4  10  18  30  62  93 117 159 210 245 301 378
#     4  10  17  31  60  90 119 157 209 250 296 377
#     4  10  16  32  57  85 123 160 194 245 298 362
#     4  10  19  39  65  83 121 166 196 248 319 357
#     4  11  21  38  62  91 124 157 206 252 301 371
#     4  10  22  41  65  89 118 162 206 253 309 365
#     4  10  24  39  60  92 121 158 208 258 300 363
#
# _framework density 25.508624999999999
#
# number of rings (size 3 to 8) (size 9 to 14) (size 15 to 20)
#    0.000    1.750    6.250    1.125    0.000    1.000 
#    0.000    5.000    0.000    1.500    0.000    0.000 
#    0.000    0.000    0.000    0.000    0.000    0.000 
#
# Total GULP energy -89524.545776 kJ/mol
# GULP energy per Si atom -5595.284111 kJ/mol
# Density = 2.545057 g / cm^3
# Si number density = 25.508625 Si / 1000 Ang^3
#
#
#
# Elastic Constant Matrix: (Units=GPa)
#
#
# Indices 1 2 3 4 5 6 
#
# 1 83.1509 40.0079 28.5566 -34.4530 -22.7056 -8.2606
# 2 40.0079 175.0124 30.1735 -46.3741 1.8898 -0.7176
# 3 28.5566 30.1735 88.8568 -31.0289 9.5150 -2.8070
# 4 -34.4530 -46.3741 -31.0289 59.3180 -0.4551 -3.0207
# 5 -22.7056 1.8898 9.5150 -0.4551 29.3419 -13.3330
# 6 -8.2606 -0.7176 -2.8070 -3.0207 -13.3330 56.4673
#
#
#
# Elastic Compliance Matrix: (Units=1/GPa)
#
#
# Indices 1 2 3 4 5 6 
#
# 1 0.031977 -0.002760 -0.007921 0.013185 0.033546 0.012875
# 2 -0.002760 0.007477 0.000120 0.004244 -0.002941 -0.000770
# 3 -0.007921 0.000120 0.016355 0.003789 -0.012822 -0.003169
# 4 0.013185 0.004244 0.003789 0.030249 0.012201 0.006670
# 5 0.033546 -0.002941 -0.012822 0.012201 0.074824 0.022553
# 6 0.012875 -0.000770 -0.003169 0.006670 0.022553 0.025108
#
#
# Mechanical properties :
#
#
# Convention : Reuss Voigt Hill
#
# Bulk Modulus (GPa) = 28.82850 60.49956 44.66403
# Shear Modulus (GPa) = 22.86514 45.57759 34.22137
#
# Velocity S-wave (km/s) = 2.99719 4.23158 3.66671
# Velocity P-wave (km/s) = 4.82737 6.90245 5.95598
#
# Compressibility (1/GPa) = 0.03468789
#
# Stress axis : x y z
#
# Youngs Moduli (GPa) = 31.27247 133.74101 61.14452
#
# Poissons Ratio (x) = 0.36915 0.48431
# Poissons Ratio (y) = 0.08632 -0.00736
# Poissons Ratio (z) = 0.24770 -0.01611
#
# Static dielectric constant tensor:
#      x y z
#    x 2.083210 0.046880 -0.017590 
#    y 0.046880 2.090200 -0.028430 
#    z -0.017590 -0.028430 2.083320 
# 
# From -- ./inp_files/528854.got.cif
#   From: 2010.05.17/outbox.cif.g08.bks.cpg/sg2_265_cif.got.tgz:528854.got - 2010.06.03 11:33:40.
