data_PCOD9102956
_publ_section_title
;
Structure prediction by ZEFSAII (Michael W. Deem and Ramdas Pophale) SiO2 
 PCOD9102956
Probable space group: P -1
;
_chemical_formula_sum "Si O2"
_cell_formula_units_Z 14
_cell_length_a 10.730341
_cell_length_b 11.945402
_cell_length_c 8.061508
_cell_angle_alpha 138.546772
_cell_angle_beta 121.469528
_cell_angle_gamma 68.031203
_cell_volume 583.177122
_symmetry_space_group_name_H-M "P -1"
_symmetry_group_IT_number 2
_symmetry_cell_setting 'triclinic'
loop_
_space_group_symop_operation_xyz
x,y,z
-x,-y,-z
loop_
_atom_site_type_symbol
_atom_site_label
_atom_site_fract_x
_atom_site_fract_y
_atom_site_fract_z
Si Si1 0.294176 0.048792 0.301111
Si Si2 0.013609 0.127380 0.390902
Si Si3 0.472711 0.750047 0.121482
Si Si4 0.628887 0.426591 0.806533
Si Si5 0.031594 0.499978 0.827651
Si Si6 0.142898 0.184422 0.915413
Si Si7 0.446079 0.178812 0.224610
O O1 0.130864 0.060946 0.267153
O O2 0.391971 0.119209 0.603042
O O3 0.355042 0.159673 0.313345
O O4 0.343309 0.860108 0.084690
O O5 0.976926 0.317472 0.520353
O O6 0.088183 0.151377 0.652559
O O7 0.888029 0.987657 0.191506
O O8 0.419336 0.675671 0.176894
O O9 0.529091 0.587000 0.888345
O O10 0.587837 0.299383 0.487399
O O11 0.793218 0.482928 0.030438
O O12 0.000000 0.500000 0.000000
O O13 0.949589 0.666941 0.898711
O O14 0.313334 0.236063 0.081714
O O15 0.500000 0.000000 0.000000
#
# Coordination Sequence:
#
# PCOD9102956 Si02
#       7
#     2   2   2   2   2   2   2
#     4  10  20  38  64  94 121 166 217 256 310 381
#     4  10  21  41  71  88 123 171 227 249 301 389
#     4   9  19  34  66  92 120 161 212 263 307 375
#     4  10  20  40  63  94 125 157 212 266 314 369
#     4  10  21  38  66  94 118 167 220 254 302 383
#     4  10  24  42  63  94 130 169 206 265 321 365
#     4  11  27  41  60  94 137 162 199 270 334 365
#
# _framework density 24.006428
#
# number of rings (size 3 to 8) (size 9 to 14) (size 15 to 20)
#    0.000    2.000    1.429    0.857   12.000    0.571 
#    2.571    4.286    0.000    0.000    0.000    0.000 
#    0.000    0.000    0.000    0.000    0.000    0.000 
#
# Total GULP energy -78159.764971 kJ/mol
# GULP energy per Si atom -5582.840355 kJ/mol
# Density = 2.395179 g / cm^3
# Si number density = 24.006428 Si / 1000 Ang^3
#
#
#
# Elastic Constant Matrix: (Units=GPa)
#
#
# Indices 1 2 3 4 5 6 
#
# 1 55.7176 7.8107 -9.8276 1.8832 14.6316 11.8187
# 2 7.8107 50.5004 26.9806 18.1219 5.0193 -4.6006
# 3 -9.8276 26.9806 55.7938 15.4320 22.3834 -7.6097
# 4 1.8832 18.1219 15.4320 28.2599 6.1616 -7.3509
# 5 14.6316 5.0193 22.3834 6.1616 24.4075 4.9287
# 6 11.8187 -4.6006 -7.6097 -7.3509 4.9287 38.3287
#
#
#
# Elastic Compliance Matrix: (Units=1/GPa)
#
#
# Indices 1 2 3 4 5 6 
#
# 1 0.048321 -0.027819 0.048949 0.003224 -0.069149 0.000989
# 2 -0.027819 0.049419 -0.046566 -0.017683 0.054725 -0.005164
# 3 0.048949 -0.046566 0.093775 0.002347 -0.108859 0.012383
# 4 0.003224 -0.017683 0.002347 0.050880 -0.015121 0.009052
# 5 -0.069149 0.054725 -0.108859 -0.015121 0.178779 -0.019611
# 6 0.000989 -0.005164 0.012383 0.009052 -0.019611 0.031882
#
#
# Mechanical properties :
#
#
# Convention : Reuss Voigt Hill
#
# Bulk Modulus (GPa) = 7.11020 23.54881 15.32951
# Shear Modulus (GPa) = 9.07755 27.33576 18.20666
#
# Velocity S-wave (km/s) = 1.94667 3.37810 2.75691
# Velocity P-wave (km/s) = 2.83212 5.00461 4.06614
#
# Compressibility (1/GPa) = 0.14064292
#
# Stress axis : x y z
#
# Youngs Moduli (GPa) = 20.69489 20.23521 10.66379
#
# Poissons Ratio (x) = 0.56292 -0.52198
# Poissons Ratio (y) = 0.57571 0.49657
# Poissons Ratio (z) = -1.01299 0.94227
#
# Static dielectric constant tensor:
#      x y z
#    x 1.784660 0.046460 -0.092850 
#    y 0.046460 1.978330 0.014350 
#    z -0.092850 0.014350 1.891950 
# 
# From -- ./inp_files/261197.got.cif
#   From: 2010.05.17/outbox.cif.g08.bks.cpg/sg2_131_cif.got.tgz:261197.got - 2010.06.03 11:33:40.
