data_PCOD9102182
_publ_section_title
;
Structure prediction by ZEFSAII (Michael W. Deem and Ramdas Pophale) SiO2 
 PCOD9102182
Probable space group: P -1
;
_chemical_formula_sum "Si O2"
_cell_formula_units_Z 14
_cell_length_a 8.271573
_cell_length_b 5.598419
_cell_length_c 14.447735
_cell_angle_alpha 92.130189
_cell_angle_beta 108.623920
_cell_angle_gamma 121.710508
_cell_volume 521.624159
_symmetry_space_group_name_H-M "P -1"
_symmetry_group_IT_number 2
_symmetry_cell_setting 'triclinic'
loop_
_space_group_symop_operation_xyz
x,y,z
-x,-y,-z
loop_
_atom_site_type_symbol
_atom_site_label
_atom_site_fract_x
_atom_site_fract_y
_atom_site_fract_z
Si Si1 0.710161 0.269164 0.692038
Si Si2 0.757198 0.254522 0.960243
Si Si3 0.745173 0.172650 0.350831
Si Si4 0.557494 0.586338 0.901968
Si Si5 0.150957 0.425815 0.842964
Si Si6 0.902067 0.176305 0.563756
Si Si7 0.981479 0.873482 0.739200
O O1 0.923320 0.344275 0.778290
O O2 0.743761 0.229410 0.589667
O O3 0.500053 0.003812 0.690412
O O4 0.757208 0.585828 0.715231
O O5 0.735485 0.296742 0.066068
O O6 0.646088 0.393548 0.891718
O O7 0.000000 0.500000 0.000000
O O8 0.696970 0.935340 0.922468
O O9 0.880478 0.513437 0.404727
O O10 0.805999 0.042686 0.445204
O O11 0.843422 0.164185 0.271692
O O12 0.340800 0.492133 0.812619
O O13 0.500000 0.500000 0.000000
O O14 0.072873 0.091167 0.845789
O O15 0.935587 0.001221 0.643402
#
# Coordination Sequence:
#
# PCOD9102182 Si02
#       7
#     2   2   2   2   2   2   2
#     4  10  22  37  59  90 125 163 210 261 322 380
#     4  11  24  43  69 101 125 166 225 267 321 390
#     4  10  20  38  62  87 121 166 211 262 317 382
#     4  10  22  42  71  91 127 175 210 262 328 387
#     4  10  23  40  59  87 131 161 208 261 329 381
#     4   9  20  39  59  87 124 161 212 263 317 380
#     4  10  22  37  58  88 124 163 207 262 323 381
#
# _framework density 26.839248000000001
#
# number of rings (size 3 to 8) (size 9 to 14) (size 15 to 20)
#    0.000    2.000    0.000    3.000    6.000    4.000 
#    7.714    0.000    0.000    0.000    0.000    0.000 
#    0.000    0.000    0.000    0.000    0.000    0.000 
#
# Total GULP energy -78035.606771 kJ/mol
# GULP energy per Si atom -5573.971912 kJ/mol
# Density = 2.677816 g / cm^3
# Si number density = 26.839248 Si / 1000 Ang^3
#
#
#
# Elastic Constant Matrix: (Units=GPa)
#
#
# Indices 1 2 3 4 5 6 
#
# 1 80.4723 58.3528 37.5499 10.3572 27.8748 11.7173
# 2 58.3528 152.2131 34.2299 17.8830 23.3718 12.5560
# 3 37.5499 34.2299 105.1241 -1.9343 13.7784 2.5037
# 4 10.3572 17.8830 -1.9343 48.0562 1.4832 4.6232
# 5 27.8748 23.3718 13.7784 1.4832 58.2209 1.7977
# 6 11.7173 12.5560 2.5037 4.6232 1.7977 47.5763
#
#
#
# Elastic Compliance Matrix: (Units=1/GPa)
#
#
# Indices 1 2 3 4 5 6 
#
# 1 0.022125 -0.005738 -0.005094 -0.002318 -0.006927 -0.003180
# 2 -0.005738 0.009417 -0.000943 -0.002208 -0.000730 -0.000780
# 3 -0.005094 -0.000943 0.011658 0.001850 -0.000011 0.000711
# 4 -0.002318 -0.002208 0.001850 0.022284 0.001026 -0.001148
# 5 -0.006927 -0.000730 -0.000011 0.001026 0.020730 0.001016
# 6 -0.003180 -0.000780 0.000711 -0.001148 0.001016 0.022044
#
#
# Mechanical properties :
#
#
# Convention : Reuss Voigt Hill
#
# Bulk Modulus (GPa) = 50.89030 66.45275 58.67152
# Shear Modulus (GPa) = 36.13821 44.61580 40.37700
#
# Velocity S-wave (km/s) = 3.67341 4.08160 3.88287
# Velocity P-wave (km/s) = 6.08229 6.85754 6.48151
#
# Compressibility (1/GPa) = 0.01965011
#
# Stress axis : x y z
#
# Youngs Moduli (GPa) = 45.19763 106.18536 85.78091
#
# Poissons Ratio (x) = 0.60931 0.43693
# Poissons Ratio (y) = 0.25935 0.08091
# Poissons Ratio (z) = 0.23022 0.10016
#
# Static dielectric constant tensor:
#      x y z
#    x 2.325530 -0.121410 -0.094720 
#    y -0.121410 2.270040 -0.110560 
#    z -0.094720 -0.110560 2.287820 
# 
# From -- ./inp_files/44492.got.cif
#   From: 2010.05.17/outbox.cif.g08.bks.cpg/sg2_23_cif.got.tgz:44492.got - 2010.06.03 11:33:40.
