data_PCOD9102002
_publ_section_title
;
Structure prediction by ZEFSAII (Michael W. Deem and Ramdas Pophale) SiO2 
 PCOD9102002
Probable space group: P -1
;
_chemical_formula_sum "Si O2"
_cell_formula_units_Z 15
_cell_length_a 9.315786
_cell_length_b 14.506940
_cell_length_c 8.081389
_cell_angle_alpha 59.691372
_cell_angle_beta 57.427754
_cell_angle_gamma 38.134692
_cell_volume 561.376088
_symmetry_space_group_name_H-M "P -1"
_symmetry_group_IT_number 2
_symmetry_cell_setting 'triclinic'
loop_
_space_group_symop_operation_xyz
x,y,z
-x,-y,-z
loop_
_atom_site_type_symbol
_atom_site_label
_atom_site_fract_x
_atom_site_fract_y
_atom_site_fract_z
Si Si1 0.153338 0.240239 0.752976
Si Si2 0.000000 0.000000 0.500000
Si Si3 0.741786 0.202358 0.792567
Si Si4 0.047503 0.398151 0.214393
Si Si5 0.238225 0.120688 0.144235
Si Si6 0.270803 0.973674 0.806190
Si Si7 0.321084 0.534667 0.376439
Si Si8 0.587192 0.702896 0.628461
O O1 0.297348 0.286122 0.607668
O O2 0.915030 0.360626 0.687521
O O3 0.322616 0.074955 0.710733
O O4 0.084562 0.232945 0.982646
O O5 0.829901 0.141993 0.609441
O O6 0.145356 0.046682 0.319211
O O7 0.605565 0.375031 0.734434
O O8 0.640142 0.140334 0.995004
O O9 0.982605 0.107547 0.842797
O O10 0.189305 0.228896 0.219570
O O11 0.214279 0.378364 0.273232
O O12 0.797890 0.464208 0.387212
O O13 0.000000 0.500000 0.000000
O O14 0.500000 0.000000 0.000000
O O15 0.363923 0.870520 0.680920
O O16 0.490872 0.377795 0.314443
#
# Coordination Sequence:
#
# PCOD9102002 Si02
#       8
#     2   1   2   2   2   2   2   2
#     4  10  20  38  61  90 127 163 214 260 321 381
#     4  12  24  44  66  94 142 164 208 278 336 372
#     4  10  22  41  63  87 127 170 210 260 337 385
#     4  11  22  40  61  92 131 172 211 267 332 389
#     4  12  25  40  69 101 128 171 221 267 327 390
#     4  10  21  38  63  90 120 167 215 266 318 379
#     4  10  21  40  61  88 122 175 211 256 327 388
#     4  11  22  37  64  92 128 162 221 273 304 388
#
# _framework density 26.720054000000001
#
# number of rings (size 3 to 8) (size 9 to 14) (size 15 to 20)
#    0.000    1.333    2.667    4.400    1.867    0.533 
#    0.000    0.000    0.000    2.400    0.000    0.000 
#    0.000    0.000    0.000    0.000    0.000    0.000 
#
# Total GULP energy -83723.575974 kJ/mol
# GULP energy per Si atom -5581.571732 kJ/mol
# Density = 2.665924 g / cm^3
# Si number density = 26.720054 Si / 1000 Ang^3
#
#
#
# Elastic Constant Matrix: (Units=GPa)
#
#
# Indices 1 2 3 4 5 6 
#
# 1 77.4000 50.7530 44.2974 -20.2497 -1.1704 13.0491
# 2 50.7530 127.4359 22.0862 -5.8465 -8.3996 62.6713
# 3 44.2974 22.0862 125.7953 -14.9744 -0.9042 7.3232
# 4 -20.2497 -5.8465 -14.9744 39.0044 5.1671 -2.4527
# 5 -1.1704 -8.3996 -0.9042 5.1671 36.2137 -7.7147
# 6 13.0491 62.6713 7.3232 -2.4527 -7.7147 58.6340
#
#
#
# Elastic Compliance Matrix: (Units=1/GPa)
#
#
# Indices 1 2 3 4 5 6 
#
# 1 0.026849 -0.014311 -0.006333 0.010259 -0.001881 0.010294
# 2 -0.014311 0.024647 0.001516 -0.004756 0.000982 -0.023419
# 3 -0.006333 0.001516 0.010083 0.000721 -0.000011 -0.001442
# 4 0.010259 -0.004756 0.000721 0.031339 -0.004494 0.003430
# 5 -0.001881 0.000982 -0.000011 -0.004494 0.029062 0.003006
# 6 0.010294 -0.023419 -0.001442 0.003430 0.003006 0.040514
#
#
# Mechanical properties :
#
#
# Convention : Reuss Voigt Hill
#
# Bulk Modulus (GPa) = 42.87596 62.76714 52.82155
# Shear Modulus (GPa) = 23.97799 41.00341 32.49070
#
# Velocity S-wave (km/s) = 2.99888 3.92159 3.49085
# Velocity P-wave (km/s) = 5.29832 6.63678 6.00496
#
# Compressibility (1/GPa) = 0.02332310
#
# Stress axis : x y z
#
# Youngs Moduli (GPa) = 37.24597 40.57262 99.17532
#
# Poissons Ratio (x) = 0.58062 0.62812
# Poissons Ratio (y) = 0.53301 -0.15037
# Poissons Ratio (z) = 0.23590 -0.06152
#
# Static dielectric constant tensor:
#      x y z
#    x 2.197090 -0.047130 0.085110 
#    y -0.047130 2.140780 -0.026720 
#    z 0.085110 -0.026720 2.087310 
# 
# From -- ./inp_files/271767.got.cif
#   From: 2010.05.17/outbox.cif.g08.bks.cpg/sg2_136_cif.got.tgz:271767.got - 2010.06.03 11:33:40.
