data_PCOD9102203
_publ_section_title
;
Structure prediction by ZEFSAII (Michael W. Deem and Ramdas Pophale) SiO2 
 PCOD9102203
Probable space group: P -1
;
_chemical_formula_sum "Si O2"
_cell_formula_units_Z 11
_cell_length_a 6.074319
_cell_length_b 11.540376
_cell_length_c 9.115203
_cell_angle_alpha 96.208852
_cell_angle_beta 129.849507
_cell_angle_gamma 102.536455
_cell_volume 452.054803
_symmetry_space_group_name_H-M "P -1"
_symmetry_group_IT_number 2
_symmetry_cell_setting 'triclinic'
loop_
_space_group_symop_operation_xyz
x,y,z
-x,-y,-z
loop_
_atom_site_type_symbol
_atom_site_label
_atom_site_fract_x
_atom_site_fract_y
_atom_site_fract_z
Si Si1 0.888461 0.193065 0.261575
Si Si2 0.203919 0.395089 0.932332
Si Si3 0.191634 0.442473 0.266225
Si Si4 0.862025 0.836828 0.334101
Si Si5 0.500000 0.000000 0.500000
Si Si6 0.360830 0.960498 0.119851
O O1 0.948280 0.330477 0.243301
O O2 0.130394 0.205209 0.498172
O O3 0.555213 0.103912 0.172151
O O4 0.912985 0.110933 0.120561
O O5 0.144720 0.273135 0.793102
O O6 0.928571 0.446385 0.802392
O O7 0.500000 0.500000 0.000000
O O8 0.242313 0.387540 0.122943
O O9 0.500000 0.500000 0.500000
O O10 0.580080 0.879135 0.187317
O O11 0.191584 0.948346 0.465989
O O12 0.717533 0.046460 0.745715
#
# Coordination Sequence:
#
# PCOD9102203 Si02
#       6
#     2   2   2   2   1   2
#     4  10  21  40  63  90 122 159 207 255 305 370
#     4  11  25  44  65  91 128 170 210 261 318 373
#     4  11  25  43  65  94 126 166 216 262 311 375
#     4  11  23  40  63  90 126 162 202 257 313 371
#     4  10  20  38  62  88 120 160 198 246 312 364
#     4  10  22  41  62  90 126 161 203 257 311 371
#
# _framework density 24.333331999999999
#
# number of rings (size 3 to 8) (size 9 to 14) (size 15 to 20)
#    0.000    1.455    0.000    5.455    0.000   10.182 
#    0.000   26.364    0.000    0.000    0.000    0.000 
#    0.000    0.000    0.000    0.000    0.000    0.000 
#
# Total GULP energy -61300.897865 kJ/mol
# GULP energy per Si atom -5572.808897 kJ/mol
# Density = 2.427795 g / cm^3
# Si number density = 24.333332 Si / 1000 Ang^3
#
#
#
# Elastic Constant Matrix: (Units=GPa)
#
#
# Indices 1 2 3 4 5 6 
#
# 1 80.4296 37.3932 60.7991 -13.5725 -28.1061 -6.1055
# 2 37.3932 111.7008 45.9829 3.8269 -18.1704 -0.2386
# 3 60.7991 45.9829 176.8487 -10.8358 -50.9057 -12.0107
# 4 -13.5725 3.8269 -10.8358 38.8250 11.6598 -13.7369
# 5 -28.1061 -18.1704 -50.9057 11.6598 58.5119 -7.2938
# 6 -6.1055 -0.2386 -12.0107 -13.7369 -7.2938 42.1134
#
#
#
# Elastic Compliance Matrix: (Units=1/GPa)
#
#
# Indices 1 2 3 4 5 6 
#
# 1 0.020666 -0.004876 -0.003837 0.007094 0.004275 0.004929
# 2 -0.004876 0.011451 -0.001629 -0.004251 0.000340 -0.002434
# 3 -0.003837 -0.001629 0.009451 0.000840 0.006138 0.003467
# 4 0.007094 -0.004251 0.000840 0.033817 -0.002443 0.011852
# 5 0.004275 0.000340 0.006138 -0.002443 0.025831 0.006049
# 6 0.004929 -0.002434 0.003467 0.011852 0.006049 0.030348
#
#
# Mechanical properties :
#
#
# Convention : Reuss Voigt Hill
#
# Bulk Modulus (GPa) = 47.88211 73.03662 60.45937
# Shear Modulus (GPa) = 31.40519 42.87699 37.14109
#
# Velocity S-wave (km/s) = 3.59642 4.20225 3.91109
# Velocity P-wave (km/s) = 6.07997 7.32294 6.73021
#
# Compressibility (1/GPa) = 0.02088463
#
# Stress axis : x y z
#
# Youngs Moduli (GPa) = 48.38940 87.32776 105.80785
#
# Poissons Ratio (x) = 0.42578 0.40598
# Poissons Ratio (y) = 0.23593 0.17237
# Poissons Ratio (z) = 0.18567 0.14226
#
# Static dielectric constant tensor:
#      x y z
#    x 1.901770 -0.029610 0.006320 
#    y -0.029610 1.967180 -0.016420 
#    z 0.006320 -0.016420 2.006390 
# 
# From -- ./inp_files/21823.got.cif
#   From: 2010.05.17/outbox.cif.g08.bks.cpg/sg2_11_cif.got.tgz:21823.got - 2010.06.03 11:33:40.
