data_PCOD9102784
_publ_section_title
;
Structure prediction by ZEFSAII (Michael W. Deem and Ramdas Pophale) SiO2 
 PCOD9102784
Probable space group: P -1
;
_chemical_formula_sum "Si O2"
_cell_formula_units_Z 12
_cell_length_a 23.396363
_cell_length_b 13.519234
_cell_length_c 5.210667
_cell_angle_alpha 55.454352
_cell_angle_beta 51.583049
_cell_angle_gamma 21.063346
_cell_volume 463.625176
_symmetry_space_group_name_H-M "P -1"
_symmetry_group_IT_number 2
_symmetry_cell_setting 'triclinic'
loop_
_space_group_symop_operation_xyz
x,y,z
-x,-y,-z
loop_
_atom_site_type_symbol
_atom_site_label
_atom_site_fract_x
_atom_site_fract_y
_atom_site_fract_z
Si Si1 0.266941 0.845769 0.039575
Si Si2 0.643371 0.685107 0.535005
Si Si3 0.069134 0.581156 0.745278
Si Si4 0.878944 0.181291 0.318981
Si Si5 0.527185 0.312987 0.876134
Si Si6 0.138468 0.240462 0.319645
O O1 0.229904 0.780237 0.411147
O O2 0.377994 0.629091 0.815617
O O3 0.370723 0.787714 0.008347
O O4 0.080827 0.163893 0.014781
O O5 0.795887 0.516872 0.513462
O O6 0.563480 0.680173 0.858146
O O7 0.500000 0.000000 0.500000
O O8 0.840308 0.678650 0.059238
O O9 0.254917 0.510303 0.719835
O O10 0.954809 0.729476 0.601590
O O11 0.000000 0.000000 0.500000
O O12 0.000000 0.000000 0.000000
O O13 0.681408 0.056386 0.634641
O O14 0.000000 0.500000 0.500000
#
# Coordination Sequence:
#
# PCOD9102784 Si02
#       6
#     2   2   2   2   2   2
#     4   9  19  40  65  89 125 174 226 274 336 413
#     4  11  21  40  67  98 138 180 229 295 346 414
#     4  10  20  38  64  87 123 170 222 271 342 409
#     4  11  24  45  72 102 138 185 235 287 349 420
#     4   9  19  36  63  87 130 168 220 279 336 406
#     4  10  21  38  60  90 128 171 215 275 346 412
#
# _framework density 25.882977
#
# number of rings (size 3 to 8) (size 9 to 14) (size 15 to 20)
#    0.000    2.000    3.333    0.000    0.000    2.667 
#    0.000    5.833    0.000    0.000    0.000    0.000 
#    0.000    0.000    0.000    0.000    0.000    0.000 
#
# Total GULP energy -66954.462538 kJ/mol
# GULP energy per Si atom -5579.538545 kJ/mol
# Density = 2.582407 g / cm^3
# Si number density = 25.882977 Si / 1000 Ang^3
#
#
#
# Elastic Constant Matrix: (Units=GPa)
#
#
# Indices 1 2 3 4 5 6 
#
# 1 144.2869 43.9209 55.6066 9.1499 -47.4791 -0.7968
# 2 43.9209 234.5319 51.0983 31.9153 -14.9137 28.4918
# 3 55.6066 51.0983 95.1888 33.8712 -6.4384 -2.0695
# 4 9.1499 31.9153 33.8712 59.3137 -1.0580 -7.2935
# 5 -47.4791 -14.9137 -6.4384 -1.0580 52.3944 8.5057
# 6 -0.7968 28.4918 -2.0695 -7.2935 8.5057 48.7615
#
#
#
# Elastic Compliance Matrix: (Units=1/GPa)
#
#
# Indices 1 2 3 4 5 6 
#
# 1 0.013846 -0.000227 -0.008145 0.002645 0.011802 -0.001650
# 2 -0.000227 0.005676 -0.002061 -0.002310 0.001769 -0.004062
# 3 -0.008145 -0.002061 0.018974 -0.008371 -0.006078 0.001684
# 4 0.002645 -0.002310 -0.008371 0.023024 0.000462 0.004401
# 5 0.011802 0.001769 -0.006078 0.000462 0.030580 -0.006364
# 6 -0.001650 -0.004062 0.001684 0.004401 -0.006364 0.024694
#
#
# Mechanical properties :
#
#
# Convention : Reuss Voigt Hill
#
# Bulk Modulus (GPa) = 56.72434 86.13989 71.43211
# Shear Modulus (GPa) = 34.83443 53.65271 44.24357
#
# Velocity S-wave (km/s) = 3.67255 4.55785 4.13894
# Velocity P-wave (km/s) = 6.32035 7.81354 7.10627
#
# Compressibility (1/GPa) = 0.01762912
#
# Stress axis : x y z
#
# Youngs Moduli (GPa) = 72.22452 176.19331 52.70390
#
# Poissons Ratio (x) = 0.04006 0.42928
# Poissons Ratio (y) = 0.01642 0.10860
# Poissons Ratio (z) = 0.58828 0.36306
#
# Static dielectric constant tensor:
#      x y z
#    x 2.047030 0.174100 0.180860 
#    y 0.174100 2.309190 0.159760 
#    z 0.180860 0.159760 2.486750 
# 
# From -- ./inp_files/118594.got.cif
#   From: 2010.05.17/outbox.cif.g08.bks.cpg/sg2_60_cif.got.tgz:118594.got - 2010.06.03 11:33:40.
