data_PCOD9102685
_publ_section_title
;
Structure prediction by ZEFSAII (Michael W. Deem and Ramdas Pophale) SiO2 
 PCOD9102685
Probable space group: P -1
;
_chemical_formula_sum "Si O2"
_cell_formula_units_Z 16
_cell_length_a 12.212451
_cell_length_b 6.488958
_cell_length_c 24.192090
_cell_angle_alpha 56.074728
_cell_angle_beta 28.402858
_cell_angle_gamma 56.986868
_cell_volume 749.588079
_symmetry_space_group_name_H-M "P -1"
_symmetry_group_IT_number 2
_symmetry_cell_setting 'triclinic'
loop_
_space_group_symop_operation_xyz
x,y,z
-x,-y,-z
loop_
_atom_site_type_symbol
_atom_site_label
_atom_site_fract_x
_atom_site_fract_y
_atom_site_fract_z
Si Si1 0.806139 0.494219 0.788976
Si Si2 0.317071 0.344384 0.580157
Si Si3 0.477152 0.979346 0.730648
Si Si4 0.295589 0.002877 0.044473
Si Si5 0.355454 0.499112 0.420894
Si Si6 0.770919 0.144427 0.244370
Si Si7 0.824861 0.462304 0.655492
Si Si8 0.531623 0.040958 0.821204
O O1 0.801618 0.401203 0.740919
O O2 0.073648 0.512528 0.675729
O O3 0.660169 0.763051 0.817605
O O4 0.742245 0.288778 0.891175
O O5 0.500000 0.500000 0.500000
O O6 0.359039 0.328282 0.499159
O O7 0.309667 0.079463 0.650765
O O8 0.602227 0.220451 0.623187
O O9 0.412652 0.022481 0.817293
O O10 0.264650 0.939728 0.790705
O O11 0.666623 0.730766 0.678845
O O12 0.035639 0.155119 0.144745
O O13 0.373847 0.097565 0.936568
O O14 0.500000 0.000000 0.000000
O O15 0.579974 0.385508 0.302942
O O16 0.092776 0.486315 0.518528
O O17 0.713397 0.242568 0.706948
#
# Coordination Sequence:
#
# PCOD9102685 Si02
#       8
#     2   2   2   2   2   2   2   2
#     4   9  21  39  64  98 122 162 216 265 322 376
#     4  10  20  38  63  95 132 162 205 265 317 381
#     4  11  24  43  61  96 136 168 215 257 320 388
#     4  11  23  46  69  94 127 165 219 276 316 375
#     4  11  23  41  67  97 133 172 208 262 325 378
#     4  11  25  42  64  98 132 167 213 262 323 385
#     4  10  22  40  67  97 129 168 214 261 313 383
#     4  11  23  41  69  92 125 174 217 263 317 374
#
# _framework density 21.345058000000002
#
# number of rings (size 3 to 8) (size 9 to 14) (size 15 to 20)
#    0.000    1.500    2.500    1.875    1.750    4.500 
#    2.250    2.500    0.000    0.000    0.000    0.000 
#    0.000    0.000    0.000    0.000    0.000    0.000 
#
# Total GULP energy -89269.868688 kJ/mol
# GULP energy per Si atom -5579.366793 kJ/mol
# Density = 2.129648 g / cm^3
# Si number density = 21.345058 Si / 1000 Ang^3
#
#
#
# Elastic Constant Matrix: (Units=GPa)
#
#
# Indices 1 2 3 4 5 6 
#
# 1 120.5207 14.1407 42.7745 5.4969 -14.1653 -3.3399
# 2 14.1407 28.2714 21.1741 6.8685 6.4804 -7.9252
# 3 42.7745 21.1741 100.7477 2.8024 -8.9152 3.2607
# 4 5.4969 6.8685 2.8024 16.4973 -5.6520 2.0644
# 5 -14.1653 6.4804 -8.9152 -5.6520 28.8880 -6.2474
# 6 -3.3399 -7.9252 3.2607 2.0644 -6.2474 26.6186
#
#
#
# Elastic Compliance Matrix: (Units=1/GPa)
#
#
# Indices 1 2 3 4 5 6 
#
# 1 0.010577 -0.003493 -0.003346 0.000097 0.005378 0.001952
# 2 -0.003493 0.066940 -0.014334 -0.034784 -0.023998 0.018313
# 3 -0.003346 -0.014334 0.014901 0.007451 0.006424 -0.005583
# 4 0.000097 -0.034784 0.007451 0.083494 0.023862 -0.012132
# 5 0.005378 -0.023998 0.006424 0.023862 0.049849 0.002592
# 6 0.001952 0.018313 -0.005583 -0.012132 0.002592 0.045498
#
#
# Mechanical properties :
#
#
# Convention : Reuss Voigt Hill
#
# Bulk Modulus (GPa) = 19.97213 45.07981 32.52597
# Shear Modulus (GPa) = 15.13796 25.83082 20.48439
#
# Velocity S-wave (km/s) = 2.66597 3.48250 3.10123
# Velocity P-wave (km/s) = 4.34208 6.11030 5.30045
#
# Compressibility (1/GPa) = 0.05006977
#
# Stress axis : x y z
#
# Youngs Moduli (GPa) = 94.54818 14.93880 67.10935
#
# Poissons Ratio (x) = 0.05218 0.22457
# Poissons Ratio (y) = 0.33027 0.96197
# Poissons Ratio (z) = 0.31639 0.21414
#
# Static dielectric constant tensor:
#      x y z
#    x 1.724410 0.004410 0.003030 
#    y 0.004410 1.752380 0.034140 
#    z 0.003030 0.034140 1.823620 
# 
# From -- ./inp_files/70326.got.cif
#   From: 2010.05.17/outbox.cif.g08.bks.cpg/sg2_36_cif.got.tgz:70326.got - 2010.06.03 11:33:40.
