data_PCOD9102057
_publ_section_title
;
Structure prediction by ZEFSAII (Michael W. Deem and Ramdas Pophale) SiO2 
 PCOD9102057
Probable space group: P -1
;
_chemical_formula_sum "Si O2"
_cell_formula_units_Z 16
_cell_length_a 13.542580
_cell_length_b 11.495344
_cell_length_c 8.987046
_cell_angle_alpha 122.236211
_cell_angle_beta 69.261101
_cell_angle_gamma 63.471029
_cell_volume 658.977388
_symmetry_space_group_name_H-M "P -1"
_symmetry_group_IT_number 2
_symmetry_cell_setting 'triclinic'
loop_
_space_group_symop_operation_xyz
x,y,z
-x,-y,-z
loop_
_atom_site_type_symbol
_atom_site_label
_atom_site_fract_x
_atom_site_fract_y
_atom_site_fract_z
Si Si1 0.352360 0.582156 0.445807
Si Si2 0.643824 0.661263 0.271852
Si Si3 0.187962 0.396845 0.130793
Si Si4 0.921539 0.515528 0.199106
Si Si5 0.293173 0.715816 0.091431
Si Si6 0.698759 0.843007 0.797330
Si Si7 0.398772 0.820055 0.731426
Si Si8 0.935886 0.170694 0.458820
O O1 0.324321 0.766575 0.647977
O O2 0.430734 0.415083 0.428280
O O3 0.171047 0.720322 0.564312
O O4 0.521089 0.398305 0.112760
O O5 0.814848 0.500730 0.178782
O O6 0.472675 0.854282 0.598225
O O7 0.663355 0.733032 0.163540
O O8 0.642223 0.506525 0.117125
O O9 0.222336 0.343558 0.250053
O O10 0.083710 0.652943 0.346527
O O11 0.084505 0.364579 0.120710
O O12 0.777289 0.752526 0.529844
O O13 0.000000 0.500000 0.000000
O O14 0.179132 0.821650 0.376811
O O15 0.141071 0.913683 0.187747
O O16 0.500000 0.000000 0.000000
O O17 0.714540 0.976775 0.951384
#
# Coordination Sequence:
#
# PCOD9102057 Si02
#       8
#     2   2   2   2   2   2   2   2
#     4  10  21  40  62  89 131 167 207 273 317 374
#     4   9  19  42  62  88 131 164 204 270 321 369
#     4  10  23  39  63  93 130 166 211 266 314 384
#     4  10  22  42  63  89 129 168 202 265 325 370
#     4   9  20  37  64  89 124 167 215 265 316 387
#     4  12  23  40  66  93 124 171 215 260 320 383
#     4  10  22  39  61  94 126 165 216 263 319 383
#     4  10  20  38  61  94 124 167 216 260 324 377
#
# _framework density 24.280045999999999
#
# number of rings (size 3 to 8) (size 9 to 14) (size 15 to 20)
#    0.000    2.000    1.250    1.500    1.750    1.500 
#    0.000    6.875    0.000    0.000    0.000    0.000 
#    0.000    0.000    0.000    0.000    0.000    0.000 
#
# Total GULP energy -89186.137061 kJ/mol
# GULP energy per Si atom -5574.133566 kJ/mol
# Density = 2.422478 g / cm^3
# Si number density = 24.280046 Si / 1000 Ang^3
#
#
#
# Elastic Constant Matrix: (Units=GPa)
#
#
# Indices 1 2 3 4 5 6 
#
# 1 49.8582 31.4796 0.7340 -5.9021 -3.6787 -6.1707
# 2 31.4796 71.2525 17.1430 4.2586 1.9519 1.1022
# 3 0.7340 17.1430 88.7767 -26.1606 -6.2947 7.9076
# 4 -5.9021 4.2586 -26.1606 33.2193 -2.3830 -5.3290
# 5 -3.6787 1.9519 -6.2947 -2.3830 31.3644 -0.6292
# 6 -6.1707 1.1022 7.9076 -5.3290 -0.6292 39.6487
#
#
#
# Elastic Compliance Matrix: (Units=1/GPa)
#
#
# Indices 1 2 3 4 5 6 
#
# 1 0.035431 -0.019030 0.008399 0.017046 0.008457 0.006793
# 2 -0.019030 0.025896 -0.009501 -0.015320 -0.006994 -0.003957
# 3 0.008399 -0.009501 0.018794 0.018050 0.006727 0.000356
# 4 0.017046 -0.015320 0.018050 0.051115 0.010590 0.006517
# 5 0.008457 -0.006994 0.006727 0.010590 0.035508 0.002156
# 6 0.006793 -0.003957 0.000356 0.006517 0.002156 0.027228
#
#
# Mechanical properties :
#
#
# Convention : Reuss Voigt Hill
#
# Bulk Modulus (GPa) = 25.08927 34.28894 29.68910
# Shear Modulus (GPa) = 20.20022 31.54852 25.87437
#
# Velocity S-wave (km/s) = 2.88751 3.60857 3.26799
# Velocity P-wave (km/s) = 4.63387 5.61385 5.14723
#
# Compressibility (1/GPa) = 0.03985768
#
# Stress axis : x y z
#
# Youngs Moduli (GPa) = 28.22393 38.61546 53.20915
#
# Poissons Ratio (x) = 0.73485 -0.44692
# Poissons Ratio (y) = 0.53710 0.50555
# Poissons Ratio (z) = -0.23706 0.36689
#
# Static dielectric constant tensor:
#      x y z
#    x 1.977290 -0.001000 -0.030830 
#    y -0.001000 1.979790 -0.048740 
#    z -0.030830 -0.048740 2.025600 
# 
# From -- ./inp_files/205550.got.cif
#   From: 2010.05.17/outbox.cif.g08.bks.cpg/sg2_103_cif.got.tgz:205550.got - 2010.06.03 11:33:40.
