data_PCOD9102925
_publ_section_title
;
Structure prediction by ZEFSAII (Michael W. Deem and Ramdas Pophale) SiO2 
 PCOD9102925
Probable space group: P -1
;
_chemical_formula_sum "Si O2"
_cell_formula_units_Z 16
_cell_length_a 8.449601
_cell_length_b 20.285169
_cell_length_c 8.684376
_cell_angle_alpha 49.035820
_cell_angle_beta 90.820063
_cell_angle_gamma 128.393848
_cell_volume 658.885686
_symmetry_space_group_name_H-M "P -1"
_symmetry_group_IT_number 2
_symmetry_cell_setting 'triclinic'
loop_
_space_group_symop_operation_xyz
x,y,z
-x,-y,-z
loop_
_atom_site_type_symbol
_atom_site_label
_atom_site_fract_x
_atom_site_fract_y
_atom_site_fract_z
Si Si1 0.112600 0.959847 0.441853
Si Si2 0.931133 0.131496 0.074075
Si Si3 0.478027 0.294005 0.296647
Si Si4 0.380327 0.310581 0.586535
Si Si5 0.656437 0.257703 0.087412
Si Si6 0.686889 0.132292 0.521057
Si Si7 0.192893 0.412536 0.295007
Si Si8 0.895528 0.587641 0.366818
O O1 0.050571 0.898995 0.707675
O O2 0.233043 0.932628 0.390344
O O3 0.832782 0.862189 0.512073
O O4 0.362424 0.137019 0.192979
O O5 0.617313 0.990992 0.235345
O O6 0.118174 0.165788 0.900941
O O7 0.034541 0.277900 0.855591
O O8 0.492689 0.297230 0.475969
O O9 0.658175 0.313003 0.160996
O O10 0.576371 0.433210 0.029774
O O11 0.292377 0.360856 0.422735
O O12 0.613069 0.439751 0.510589
O O13 0.683940 0.172009 0.288512
O O14 0.879213 0.365046 0.795899
O O15 0.921315 0.281884 0.393258
O O16 0.128984 0.435767 0.415708
#
# Coordination Sequence:
#
# PCOD9102925 Si02
#       8
#     2   2   2   2   2   2   2   2
#     4  11  20  42  66  90 120 162 206 246 300 365
#     4  10  20  38  64  93 118 157 204 255 299 350
#     4  12  25  40  61  91 129 161 200 252 299 363
#     4  11  23  38  62  91 126 160 204 248 304 360
#     4  11  24  41  63  92 124 162 200 247 312 359
#     4  11  21  40  67  92 121 157 206 253 298 361
#     4  11  24  38  62  94 120 161 207 249 299 360
#     4  11  21  39  62  91 124 159 201 253 304 356
#
# _framework density 24.283422000000002
#
# number of rings (size 3 to 8) (size 9 to 14) (size 15 to 20)
#    0.000    1.000    3.750    5.250    0.000    5.500 
#    0.000    3.750    0.000    0.000    0.000    0.000 
#    0.000    0.000    0.000    0.000    0.000    0.000 
#
# Total GULP energy -89614.761117 kJ/mol
# GULP energy per Si atom -5600.922570 kJ/mol
# Density = 2.422815 g / cm^3
# Si number density = 24.283422 Si / 1000 Ang^3
#
#
#
# Elastic Constant Matrix: (Units=GPa)
#
#
# Indices 1 2 3 4 5 6 
#
# 1 55.9057 20.9459 17.9625 3.3746 -15.0694 -5.9504
# 2 20.9459 139.9280 48.6880 -1.1962 -28.0580 2.3268
# 3 17.9625 48.6880 149.1639 11.9369 -35.8317 -3.2209
# 4 3.3746 -1.1962 11.9369 40.1180 -10.1150 -16.9930
# 5 -15.0694 -28.0580 -35.8317 -10.1150 30.4842 5.9383
# 6 -5.9504 2.3268 -3.2209 -16.9930 5.9383 29.9615
#
#
#
# Elastic Compliance Matrix: (Units=1/GPa)
#
#
# Indices 1 2 3 4 5 6 
#
# 1 0.021132 -0.001376 0.000024 0.002028 0.009173 0.003639
# 2 -0.001376 0.009314 -0.001314 0.002013 0.007298 -0.001442
# 3 0.000024 -0.001314 0.009584 -0.000955 0.010021 -0.001391
# 4 0.002028 0.002013 -0.000955 0.035309 0.009902 0.018207
# 5 0.009173 0.007298 0.010021 0.009902 0.059884 -0.003920
# 6 0.003639 -0.001442 -0.001391 0.018207 -0.003920 0.045164
#
#
# Mechanical properties :
#
#
# Convention : Reuss Voigt Hill
#
# Bulk Modulus (GPa) = 28.81914 57.79892 43.30903
# Shear Modulus (GPa) = 25.34416 37.27283 31.30849
#
# Velocity S-wave (km/s) = 3.23411 3.92204 3.59457
# Velocity P-wave (km/s) = 5.08326 6.66058 5.92465
#
# Compressibility (1/GPa) = 0.03469916
#
# Stress axis : x y z
#
# Youngs Moduli (GPa) = 47.32101 107.36471 104.34365
#
# Poissons Ratio (x) = 0.14768 -0.00249
# Poissons Ratio (y) = 0.06509 0.13709
# Poissons Ratio (z) = -0.00113 0.14105
#
# Static dielectric constant tensor:
#      x y z
#    x 2.020860 -0.071970 0.014010 
#    y -0.071970 1.909710 -0.002180 
#    z 0.014010 -0.002180 1.898830 
# 
# From -- ./inp_files/190018.got.cif
#   From: 2010.05.17/outbox.cif.g08.bks.cpg/sg2_96_cif.got.tgz:190018.got - 2010.06.03 11:33:40.
