data_PCOD9102852
_publ_section_title
;
Structure prediction by ZEFSAII (Michael W. Deem and Ramdas Pophale) SiO2 
 PCOD9102852
Probable space group: P -1
;
_chemical_formula_sum "Si O2"
_cell_formula_units_Z 14
_cell_length_a 5.328875
_cell_length_b 19.262719
_cell_length_c 7.594361
_cell_angle_alpha 55.277096
_cell_angle_beta 65.022510
_cell_angle_gamma 76.229183
_cell_volume 580.797618
_symmetry_space_group_name_H-M "P -1"
_symmetry_group_IT_number 2
_symmetry_cell_setting 'triclinic'
loop_
_space_group_symop_operation_xyz
x,y,z
-x,-y,-z
loop_
_atom_site_type_symbol
_atom_site_label
_atom_site_fract_x
_atom_site_fract_y
_atom_site_fract_z
Si Si1 0.819378 0.949225 0.772264
Si Si2 0.082454 0.190779 0.627003
Si Si3 0.561455 0.784567 0.164469
Si Si4 0.230830 0.402052 0.622525
Si Si5 0.919571 0.624975 0.683907
Si Si6 0.300441 0.016032 0.703939
Si Si7 0.328281 0.483024 0.825934
O O1 0.528021 0.996428 0.812066
O O2 0.735896 0.852285 0.899083
O O3 0.000000 0.000000 0.500000
O O4 0.032399 0.955458 0.862978
O O5 0.303805 0.200027 0.705879
O O6 0.099723 0.279063 0.389719
O O7 0.176647 0.109003 0.611838
O O8 0.760387 0.191090 0.779694
O O9 0.601602 0.685011 0.262552
O O10 0.060609 0.377163 0.532255
O O11 0.157856 0.432529 0.796635
O O12 0.381924 0.486891 0.381747
O O13 0.172969 0.572115 0.762948
O O14 0.666142 0.573269 0.920349
O O15 0.500000 0.000000 0.500000
#
# Coordination Sequence:
#
# PCOD9102852 Si02
#       7
#     2   2   2   2   2   2   2
#     4  10  22  40  62  87 123 162 208 263 318 387
#     4  11  23  40  64  94 129 167 213 269 329 388
#     4  11  23  40  64  94 129 167 213 269 329 388
#     4  10  21  38  62  92 129 168 217 269 323 392
#     4  10  21  38  62  92 129 168 217 269 323 392
#     4  10  22  40  62  87 123 162 208 263 318 387
#     4  10  20  38  64  90 126 172 218 262 332 386
#
# _framework density 24.104782
#
# number of rings (size 3 to 8) (size 9 to 14) (size 15 to 20)
#    0.000    1.714    1.429    2.571    0.000    5.714 
#    0.000    0.000    0.000    0.000    0.000    0.000 
#    0.000    0.000    0.000    0.000    0.000    0.000 
#
# Total GULP energy -78046.890187 kJ/mol
# GULP energy per Si atom -5574.777870 kJ/mol
# Density = 2.404992 g / cm^3
# Si number density = 24.104782 Si / 1000 Ang^3
#
#
#
# Elastic Constant Matrix: (Units=GPa)
#
#
# Indices 1 2 3 4 5 6 
#
# 1 135.9687 22.8566 19.1711 -6.4967 -0.4306 -12.9025
# 2 22.8566 113.3941 41.1058 -21.7233 12.3896 -14.3414
# 3 19.1711 41.1058 120.2138 -24.4371 3.2594 0.0111
# 4 -6.4967 -21.7233 -24.4371 43.7060 5.2768 9.1725
# 5 -0.4306 12.3896 3.2594 5.2768 34.3036 -8.0106
# 6 -12.9025 -14.3414 0.0111 9.1725 -8.0106 30.3416
#
#
#
# Elastic Compliance Matrix: (Units=1/GPa)
#
#
# Indices 1 2 3 4 5 6 
#
# 1 0.008000 -0.001101 -0.001133 -0.000935 0.001586 0.003583
# 2 -0.001101 0.011614 -0.002908 0.003854 -0.003862 0.002838
# 3 -0.001133 -0.002908 0.010631 0.005363 -0.001718 -0.003935
# 4 -0.000935 0.003854 0.005363 0.030918 -0.009080 -0.010322
# 5 0.001586 -0.003862 -0.001718 -0.009080 0.034634 0.010738
# 6 0.003583 0.002838 -0.003935 -0.010322 0.010738 0.041780
#
#
# Mechanical properties :
#
#
# Convention : Reuss Voigt Hill
#
# Bulk Modulus (GPa) = 50.09704 59.53817 54.81760
# Shear Modulus (GPa) = 32.35970 40.76645 36.56308
#
# Velocity S-wave (km/s) = 3.66793 4.11690 3.89889
# Velocity P-wave (km/s) = 6.22627 6.88127 6.56195
#
# Compressibility (1/GPa) = 0.01996126
#
# Stress axis : x y z
#
# Youngs Moduli (GPa) = 125.00279 86.10265 94.06749
#
# Poissons Ratio (x) = 0.09481 0.10655
# Poissons Ratio (y) = 0.13765 0.27353
# Poissons Ratio (z) = 0.14158 0.25037
#
# Static dielectric constant tensor:
#      x y z
#    x 2.206400 0.130370 0.156600 
#    y 0.130370 1.984070 0.120180 
#    z 0.156600 0.120180 2.180960 
# 
# From -- ./inp_files/138451.got.cif
#   From: 2010.05.17/outbox.cif.g08.bks.cpg/sg2_70_cif.got.tgz:138451.got - 2010.06.03 11:33:40.
