data_PCOD9102231
_publ_section_title
;
Structure prediction by ZEFSAII (Michael W. Deem and Ramdas Pophale) SiO2 
 PCOD9102231
Probable space group: P -1
;
_chemical_formula_sum "Si O2"
_cell_formula_units_Z 14
_cell_length_a 7.986524
_cell_length_b 7.092748
_cell_length_c 17.040002
_cell_angle_alpha 129.784972
_cell_angle_beta 44.785543
_cell_angle_gamma 122.637214
_cell_volume 516.026877
_symmetry_space_group_name_H-M "P -1"
_symmetry_group_IT_number 2
_symmetry_cell_setting 'triclinic'
loop_
_space_group_symop_operation_xyz
x,y,z
-x,-y,-z
loop_
_atom_site_type_symbol
_atom_site_label
_atom_site_fract_x
_atom_site_fract_y
_atom_site_fract_z
Si Si1 0.467834 0.397766 0.593006
Si Si2 0.717350 0.899609 0.854888
Si Si3 0.874688 0.750728 0.597039
Si Si4 0.998567 0.418776 0.149889
Si Si5 0.639245 0.067879 0.581305
Si Si6 0.389520 0.648631 0.184190
Si Si7 0.050023 0.148274 0.925031
O O1 0.664038 0.639267 0.579561
O O2 0.209237 0.479302 0.706593
O O3 0.516656 0.271974 0.627686
O O4 0.513870 0.192936 0.460164
O O5 0.743492 0.856309 0.742279
O O6 0.688233 0.617337 0.820306
O O7 0.954674 0.090736 0.853832
O O8 0.500000 0.000000 0.000000
O O9 0.000000 0.500000 0.500000
O O10 0.102959 0.940880 0.545739
O O11 0.248823 0.598641 0.135042
O O12 0.010960 0.135823 0.098762
O O13 0.918820 0.349347 0.068106
O O14 0.689226 0.156498 0.676432
O O15 0.675035 0.742983 0.116226
#
# Coordination Sequence:
#
# PCOD9102231 Si02
#       7
#     2   2   2   2   2   2   2
#     4  10  21  38  64  88 124 159 211 251 308 366
#     4  11  23  38  64 100 124 158 213 260 309 372
#     4  10  20  38  62  88 131 161 195 257 318 363
#     4  10  23  44  60  89 125 169 208 255 310 378
#     4  10  23  38  64  93 124 162 208 258 313 371
#     4  11  23  41  63  91 128 160 211 258 311 371
#     4  10  24  40  66  85 128 168 206 254 319 365
#
# _framework density 27.130369999999999
#
# number of rings (size 3 to 8) (size 9 to 14) (size 15 to 20)
#    0.000    1.714    2.857    1.286    6.000    3.429 
#    0.000    1.429    0.000    0.000    0.000    0.000 
#    0.000    0.000    0.000    0.000    0.000    0.000 
#
# Total GULP energy -78264.595867 kJ/mol
# GULP energy per Si atom -5590.328276 kJ/mol
# Density = 2.706862 g / cm^3
# Si number density = 27.130370 Si / 1000 Ang^3
#
#
#
# Elastic Constant Matrix: (Units=GPa)
#
#
# Indices 1 2 3 4 5 6 
#
# 1 99.2726 34.7389 20.7671 16.5654 20.5701 32.9213
# 2 34.7389 134.4476 41.3112 36.7080 9.6091 41.0889
# 3 20.7671 41.3112 136.1207 22.7396 8.1321 17.6550
# 4 16.5654 36.7080 22.7396 57.4734 11.2099 1.1672
# 5 20.5701 9.6091 8.1321 11.2099 45.6441 6.1766
# 6 32.9213 41.0889 17.6550 1.1672 6.1766 54.6365
#
#
#
# Elastic Compliance Matrix: (Units=1/GPa)
#
#
# Indices 1 2 3 4 5 6 
#
# 1 0.014180 -0.000057 -0.000386 -0.002851 -0.004554 -0.007801
# 2 -0.000057 0.012585 -0.001464 -0.007389 0.000653 -0.008873
# 3 -0.000386 -0.001464 0.008403 -0.002193 -0.000300 -0.001301
# 4 -0.002851 -0.007389 -0.002193 0.024395 -0.003828 0.007895
# 5 -0.004554 0.000653 -0.000300 -0.003828 0.024869 -0.000379
# 6 -0.007801 -0.008873 -0.001301 0.007895 -0.000379 0.029970
#
#
# Mechanical properties :
#
#
# Convention : Reuss Voigt Hill
#
# Bulk Modulus (GPa) = 31.89536 62.60838 47.25187
# Shear Modulus (GPa) = 38.85975 49.75239 44.30607
#
# Velocity S-wave (km/s) = 3.78872 4.28697 4.04552
# Velocity P-wave (km/s) = 5.56067 6.90153 6.26706
#
# Compressibility (1/GPa) = 0.03135252
#
# Stress axis : x y z
#
# Youngs Moduli (GPa) = 70.51976 79.45952 119.00900
#
# Poissons Ratio (x) = 0.00457 0.04592
# Poissons Ratio (y) = 0.00405 0.17429
# Poissons Ratio (z) = 0.02721 0.11637
#
# Static dielectric constant tensor:
#      x y z
#    x 2.289410 -0.128590 -0.037900 
#    y -0.128590 2.143060 0.022280 
#    z -0.037900 0.022280 2.209340 
# 
# From -- ./inp_files/587575.got.cif
#   From: 2010.05.17/outbox.cif.g08.bks.cpg/sg2_294_cif.got.tgz:587575.got - 2010.06.03 11:33:40.
