data_PCOD9102651
_publ_section_title
;
Structure prediction by ZEFSAII (Michael W. Deem and Ramdas Pophale) SiO2 
 PCOD9102651
Probable space group: P -1
;
_chemical_formula_sum "Si O2"
_cell_formula_units_Z 16
_cell_length_a 5.224161
_cell_length_b 9.400334
_cell_length_c 19.238346
_cell_angle_alpha 50.492247
_cell_angle_beta 80.400864
_cell_angle_gamma 81.526412
_cell_volume 717.664566
_symmetry_space_group_name_H-M "P -1"
_symmetry_group_IT_number 2
_symmetry_cell_setting 'triclinic'
loop_
_space_group_symop_operation_xyz
x,y,z
-x,-y,-z
loop_
_atom_site_type_symbol
_atom_site_label
_atom_site_fract_x
_atom_site_fract_y
_atom_site_fract_z
Si Si1 0.646231 0.960316 0.579777
Si Si2 0.103805 0.816186 0.688244
Si Si3 0.485497 0.342357 0.493213
Si Si4 0.074356 0.169530 0.653667
Si Si5 0.699782 0.402959 0.685448
Si Si6 0.669865 0.883678 0.191871
Si Si7 0.948662 0.421069 0.808544
Si Si8 0.274517 0.893874 0.003538
O O1 0.071194 0.140208 0.387418
O O2 0.684580 0.167920 0.541706
O O3 0.500000 0.000000 0.500000
O O4 0.410405 0.856952 0.659852
O O5 0.069137 0.603841 0.775435
O O6 0.976885 0.969916 0.699472
O O7 0.500000 0.500000 0.500000
O O8 0.226030 0.241563 0.557500
O O9 0.497418 0.447009 0.387112
O O10 0.248774 0.126208 0.728473
O O11 0.899757 0.346211 0.633044
O O12 0.609236 0.200684 0.771705
O O13 0.793663 0.482351 0.727506
O O14 0.841150 0.729198 0.187724
O O15 0.681175 0.072971 0.090741
O O16 0.765812 0.311171 0.902817
O O17 0.500000 0.000000 0.000000
O O18 0.000000 0.000000 0.000000
#
# Coordination Sequence:
#
# PCOD9102651 Si02
#       8
#     2   2   2   2   2   2   2   2
#     4  11  25  41  59  86 125 164 206 254 300 356
#     4  11  25  41  61  86 127 167 199 244 315 364
#     4  11  21  35  58  86 117 159 206 248 292 355
#     4  10  23  39  56  88 124 168 197 249 305 363
#     4  11  20  36  62  86 119 154 211 250 297 355
#     4  10  21  38  63  92 117 156 202 257 306 350
#     4  10  23  38  63  92 119 157 203 257 302 373
#     4  10  20  38  63  94 122 149 199 259 315 352
#
# _framework density 22.294536000000001
#
# number of rings (size 3 to 8) (size 9 to 14) (size 15 to 20)
#    0.000    1.500    2.500    2.250    5.250    2.000 
#    0.000    0.625    0.000    0.750    0.000    0.000 
#    0.000    0.000    0.000    0.000    0.000    0.000 
#
# Total GULP energy -89152.485470 kJ/mol
# GULP energy per Si atom -5572.030342 kJ/mol
# Density = 2.224379 g / cm^3
# Si number density = 22.294536 Si / 1000 Ang^3
#
#
#
# Elastic Constant Matrix: (Units=GPa)
#
#
# Indices 1 2 3 4 5 6 
#
# 1 65.9528 4.7539 0.8383 -1.6935 -0.3821 8.2492
# 2 4.7539 85.4510 40.3266 -31.0959 -0.0070 19.7717
# 3 0.8383 40.3266 105.7988 -19.0339 -13.4070 1.5730
# 4 -1.6935 -31.0959 -19.0339 30.6584 4.8480 -5.6373
# 5 -0.3821 -0.0070 -13.4070 4.8480 24.7029 -2.7286
# 6 8.2492 19.7717 1.5730 -5.6373 -2.7286 24.3014
#
#
#
# Elastic Compliance Matrix: (Units=1/GPa)
#
#
# Indices 1 2 3 4 5 6 
#
# 1 0.015868 0.000891 -0.000368 0.000557 -0.000730 -0.006041
# 2 0.000891 0.027100 -0.007562 0.021129 -0.010230 -0.018109
# 3 -0.000368 -0.007562 0.013329 0.000526 0.007832 0.006416
# 4 0.000557 0.021129 0.000526 0.055087 -0.011161 -0.005888
# 5 -0.000730 -0.010230 0.007832 -0.011161 0.048109 0.010877
# 6 -0.006041 -0.018109 0.006416 -0.005888 0.010877 0.057374
#
#
# Mechanical properties :
#
#
# Convention : Reuss Voigt Hill
#
# Bulk Modulus (GPa) = 23.68626 38.78225 31.23426
# Shear Modulus (GPa) = 20.40653 30.01813 25.21233
#
# Velocity S-wave (km/s) = 3.02870 3.67336 3.36650
# Velocity P-wave (km/s) = 4.78310 5.95186 5.39919
#
# Compressibility (1/GPa) = 0.04221856
#
# Stress axis : x y z
#
# Youngs Moduli (GPa) = 63.01825 36.90035 75.02437
#
# Poissons Ratio (x) = -0.03288 0.02761
# Poissons Ratio (y) = -0.05615 0.56737
# Poissons Ratio (z) = 0.02319 0.27906
#
# Static dielectric constant tensor:
#      x y z
#    x 1.931900 0.002550 -0.003760 
#    y 0.002550 1.874320 0.015100 
#    z -0.003760 0.015100 1.861950 
# 
# From -- ./inp_files/551534.got.cif
#   From: 2010.05.17/outbox.cif.g08.bks.cpg/sg2_276_cif.got.tgz:551534.got - 2010.06.03 11:33:40.
