data_PCOD9102097
_publ_section_title
;
Structure prediction by ZEFSAII (Michael W. Deem and Ramdas Pophale) SiO2 
 PCOD9102097
Probable space group: P -1
;
_chemical_formula_sum "Si O2"
_cell_formula_units_Z 16
_cell_length_a 22.730034
_cell_length_b 15.047495
_cell_length_c 12.480439
_cell_angle_alpha 140.566019
_cell_angle_beta 153.483439
_cell_angle_gamma 25.628176
_cell_volume 811.108222
_symmetry_space_group_name_H-M "P -1"
_symmetry_group_IT_number 2
_symmetry_cell_setting 'triclinic'
loop_
_space_group_symop_operation_xyz
x,y,z
-x,-y,-z
loop_
_atom_site_type_symbol
_atom_site_label
_atom_site_fract_x
_atom_site_fract_y
_atom_site_fract_z
Si Si1 0.919895 0.158150 0.418014
Si Si2 0.185431 0.925347 0.031899
Si Si3 0.735420 0.906589 0.086328
Si Si4 0.854563 0.498720 0.901180
Si Si5 0.603860 0.485933 0.348586
Si Si6 0.800397 0.316648 0.835385
Si Si7 0.566353 0.292521 0.288329
Si Si8 0.697056 0.916591 0.786244
O O1 0.694746 0.368779 0.274983
O O2 0.049373 0.193993 0.657767
O O3 0.930724 0.076404 0.245438
O O4 0.000000 0.000000 0.500000
O O5 0.376499 0.701750 0.180729
O O6 0.265169 0.985865 0.142298
O O7 0.025962 0.097683 0.020244
O O8 0.614660 0.095900 0.150656
O O9 0.757537 0.725076 0.975902
O O10 0.661395 0.983256 0.914531
O O11 0.735277 0.513627 0.626901
O O12 0.824304 0.414481 0.871600
O O13 0.087559 0.329455 0.096028
O O14 0.633256 0.334450 0.336442
O O15 0.681985 0.272666 0.558314
O O16 0.662656 0.496532 0.866314
O O17 0.500000 0.000000 0.500000
#
# Coordination Sequence:
#
# PCOD9102097 Si02
#       8
#     2   2   2   2   2   2   2   2
#     4  12  19  36  56  85 120 147 183 235 285 340
#     4  11  21  35  57  86 116 149 188 238 278 334
#     4  12  21  35  60  85 117 151 186 231 287 340
#     4  10  22  38  57  82 116 153 186 234 286 339
#     4  11  21  36  58  85 116 151 187 229 288 341
#     4   9  20  40  60  81 111 150 198 236 276 334
#     4  10  20  38  62  82 109 154 194 235 283 328
#     4  11  22  36  56  84 118 153 187 227 286 348
#
# _framework density 19.726096999999999
#
# number of rings (size 3 to 8) (size 9 to 14) (size 15 to 20)
#    0.000    1.250    5.000    2.250    1.750    1.000 
#    0.000    0.000    0.000    6.750    0.000    0.000 
#    0.000    0.000    0.000    0.000    0.000    0.000 
#
# Total GULP energy -89242.655902 kJ/mol
# GULP energy per Si atom -5577.665994 kJ/mol
# Density = 1.968120 g / cm^3
# Si number density = 19.726097 Si / 1000 Ang^3
#
#
#
# Elastic Constant Matrix: (Units=GPa)
#
#
# Indices 1 2 3 4 5 6 
#
# 1 24.7037 15.8738 8.0337 -0.2896 4.1598 -17.2734
# 2 15.8738 123.3291 24.2644 -3.1948 2.6722 -23.0946
# 3 8.0337 24.2644 87.8123 -2.4978 3.3203 -1.3631
# 4 -0.2896 -3.1948 -2.4978 40.3808 0.4678 8.0137
# 5 4.1598 2.6722 3.3203 0.4678 15.7399 -2.1284
# 6 -17.2734 -23.0946 -1.3631 8.0137 -2.1284 39.1844
#
#
#
# Elastic Compliance Matrix: (Units=1/GPa)
#
#
# Indices 1 2 3 4 5 6 
#
# 1 0.064459 -0.002138 -0.004584 -0.005298 -0.011838 0.027436
# 2 -0.002138 0.009750 -0.002437 -0.000347 0.000082 0.004795
# 3 -0.004584 -0.002437 0.012521 0.001232 -0.001506 -0.003355
# 4 -0.005298 -0.000347 0.001232 0.026355 -0.000655 -0.007923
# 5 -0.011838 0.000082 -0.001506 -0.000655 0.066787 -0.001461
# 6 0.027436 0.004795 -0.003355 -0.007923 -0.001461 0.041865
#
#
# Mechanical properties :
#
#
# Convention : Reuss Voigt Hill
#
# Bulk Modulus (GPa) = 14.61714 36.90989 25.76351
# Shear Modulus (GPa) = 19.02161 31.57258 25.29710
#
# Velocity S-wave (km/s) = 3.10867 4.00503 3.58497
# Velocity P-wave (km/s) = 4.50680 6.33552 5.49773
#
# Compressibility (1/GPa) = 0.06841284
#
# Stress axis : x y z
#
# Youngs Moduli (GPa) = 15.51363 102.56257 79.86823
#
# Poissons Ratio (x) = 0.21927 0.36609
# Poissons Ratio (y) = 0.03317 0.19465
# Poissons Ratio (z) = 0.07111 0.24996
#
# Static dielectric constant tensor:
#      x y z
#    x 1.580610 -0.021240 0.254920 
#    y -0.021240 1.746810 0.020530 
#    z 0.254920 0.020530 1.068250 
# 
# From -- ./inp_files/170446.got.cif
#   From: 2010.05.17/outbox.cif.g08.bks.cpg/sg2_86_cif.got.tgz:170446.got - 2010.06.03 11:33:40.
