data_PCOD9102184
_publ_section_title
;
Structure prediction by ZEFSAII (Michael W. Deem and Ramdas Pophale) SiO2 
 PCOD9102184
Probable space group: P -1
;
_chemical_formula_sum "Si O2"
_cell_formula_units_Z 10
_cell_length_a 7.224044
_cell_length_b 11.048630
_cell_length_c 9.438034
_cell_angle_alpha 125.178533
_cell_angle_beta 103.350975
_cell_angle_gamma 41.537338
_cell_volume 379.377300
_symmetry_space_group_name_H-M "P -1"
_symmetry_group_IT_number 2
_symmetry_cell_setting 'triclinic'
loop_
_space_group_symop_operation_xyz
x,y,z
-x,-y,-z
loop_
_atom_site_type_symbol
_atom_site_label
_atom_site_fract_x
_atom_site_fract_y
_atom_site_fract_z
Si Si1 0.967720 0.814756 0.454147
Si Si2 0.657976 0.722909 0.262842
Si Si3 0.592503 0.075624 0.958526
Si Si4 0.194862 0.813461 0.752778
Si Si5 0.852511 0.309567 0.921098
O O1 0.818680 0.744406 0.407130
O O2 0.221940 0.715912 0.540571
O O3 0.062159 0.744206 0.263016
O O4 0.675825 0.098430 0.610881
O O5 0.583563 0.820881 0.153687
O O6 0.874453 0.453489 0.100830
O O7 0.942716 0.867051 0.824848
O O8 0.500000 0.000000 0.000000
O O9 0.556673 0.260751 0.151705
O O10 0.031117 0.066677 0.854400
O O11 0.500000 0.500000 0.000000
#
# Coordination Sequence:
#
# PCOD9102184 Si02
#       5
#     2   2   2   2   2
#     4  10  21  38  62  94 120 154 206 254 297 363
#     4  10  22  40  65  90 119 161 205 249 307 356
#     4  10  20  38  62  87 122 166 196 244 310 362
#     4  10  22  39  63  90 122 159 204 250 303 360
#     4  12  21  37  63  94 121 155 202 257 303 355
#
# _framework density 26.358982999999998
#
# number of rings (size 3 to 8) (size 9 to 14) (size 15 to 20)
#    0.000    1.600    4.000    2.400    0.000    0.000 
#    0.000    1.000    0.000   26.400    0.000    0.000 
#    0.000    0.000    0.000    0.000    0.000    0.000 
#
# Total GULP energy -55874.400240 kJ/mol
# GULP energy per Si atom -5587.440024 kJ/mol
# Density = 2.629899 g / cm^3
# Si number density = 26.358983 Si / 1000 Ang^3
#
#
#
# Elastic Constant Matrix: (Units=GPa)
#
#
# Indices 1 2 3 4 5 6 
#
# 1 107.7472 21.3507 27.9901 -2.7381 23.7361 -4.1516
# 2 21.3507 111.6714 29.1591 -10.1410 2.7877 4.6545
# 3 27.9901 29.1591 180.7602 -4.8724 29.4620 -1.1905
# 4 -2.7381 -10.1410 -4.8724 32.9143 -13.3954 6.3011
# 5 23.7361 2.7877 29.4620 -13.3954 61.9763 -6.5317
# 6 -4.1516 4.6545 -1.1905 6.3011 -6.5317 39.6571
#
#
#
# Elastic Compliance Matrix: (Units=1/GPa)
#
#
# Indices 1 2 3 4 5 6 
#
# 1 0.010715 -0.001939 -0.000746 -0.001585 -0.003906 0.000936
# 2 -0.001939 0.010089 -0.001503 0.003721 0.001623 -0.001756
# 3 -0.000746 -0.001503 0.006330 -0.000723 -0.002818 -0.000061
# 4 -0.001585 0.003721 -0.000723 0.035464 0.007927 -0.004954
# 5 -0.003906 0.001623 -0.002818 0.007927 0.020767 0.001477
# 6 0.000936 -0.001756 -0.000061 -0.004954 0.001477 0.026549
#
#
# Mechanical properties :
#
#
# Convention : Reuss Voigt Hill
#
# Bulk Modulus (GPa) = 53.31439 61.90874 57.61157
# Shear Modulus (GPa) = 40.14705 48.35478 44.25091
#
# Velocity S-wave (km/s) = 3.90691 4.28772 4.10174
# Velocity P-wave (km/s) = 6.37355 6.93184 6.65855
#
# Compressibility (1/GPa) = 0.01875666
#
# Stress axis : x y z
#
# Youngs Moduli (GPa) = 93.32414 99.12122 157.98666
#
# Poissons Ratio (x) = 0.19222 0.11792
# Poissons Ratio (y) = 0.18098 0.23743
# Poissons Ratio (z) = 0.06965 0.14897
#
# Static dielectric constant tensor:
#      x y z
#    x 2.246760 -0.044310 0.056510 
#    y -0.044310 2.116780 -0.023320 
#    z 0.056510 -0.023320 2.114130 
# 
# From -- ./inp_files/190101.got.cif
#   From: 2010.05.17/outbox.cif.g08.bks.cpg/sg2_96_cif.got.tgz:190101.got - 2010.06.03 11:33:40.
