data_PCOD9102255
_publ_section_title
;
Structure prediction by ZEFSAII (Michael W. Deem and Ramdas Pophale) SiO2 
 PCOD9102255
Probable space group: P -1
;
_chemical_formula_sum "Si O2"
_cell_formula_units_Z 16
_cell_length_a 11.245637
_cell_length_b 24.384488
_cell_length_c 7.414879
_cell_angle_alpha 40.347145
_cell_angle_beta 120.965627
_cell_angle_gamma 147.515140
_cell_volume 657.064622
_symmetry_space_group_name_H-M "P -1"
_symmetry_group_IT_number 2
_symmetry_cell_setting 'triclinic'
loop_
_space_group_symop_operation_xyz
x,y,z
-x,-y,-z
loop_
_atom_site_type_symbol
_atom_site_label
_atom_site_fract_x
_atom_site_fract_y
_atom_site_fract_z
Si Si1 0.703670 0.064610 0.632971
Si Si2 0.558784 0.299890 0.733476
Si Si3 0.131126 0.681584 0.893154
Si Si4 0.775166 0.728075 0.507193
Si Si5 0.422349 0.866161 0.225948
Si Si6 0.917456 0.625457 0.253600
Si Si7 0.544272 0.576454 0.091101
Si Si8 0.667427 0.358065 0.243416
O O1 0.947325 0.143661 0.553150
O O2 0.500000 0.000000 0.500000
O O3 0.597717 0.946079 0.988376
O O4 0.790721 0.196745 0.458979
O O5 0.644522 0.257903 0.003914
O O6 0.303466 0.218678 0.759705
O O7 0.619500 0.324441 0.506320
O O8 0.741498 0.460066 0.555112
O O9 0.993778 0.654198 0.029992
O O10 0.941127 0.526672 0.036131
O O11 0.612858 0.634208 0.793476
O O12 0.673455 0.599087 0.631063
O O13 0.156263 0.736951 0.268682
O O14 0.420947 0.776899 0.559426
O O15 0.500000 0.000000 0.000000
O O16 0.776766 0.639367 0.168098
O O17 0.475325 0.633164 0.973273
#
# Coordination Sequence:
#
# PCOD9102255 Si02
#       8
#     2   2   2   2   2   2   2   2
#     4  12  21  35  57  85 118 143 178 229 285 325
#     4   9  16  27  58  88 110 129 188 236 269 318
#     4  11  16  31  59  87 105 136 192 231 261 318
#     4   9  16  28  49  89 116 135 167 237 288 312
#     4  12  25  39  53  78 118 155 179 220 286 340
#     4  10  16  32  56  83 108 144 180 223 275 325
#     4   9  15  28  56  85 106 136 187 231 267 321
#     4  10  17  33  55  82 109 145 190 222 270 330
#
# _framework density 24.350726999999999
#
# number of rings (size 3 to 8) (size 9 to 14) (size 15 to 20)
#    0.000    1.750    6.250    2.250    0.000    0.000 
#    0.000    8.125    0.000    3.000    0.000    0.000 
#    0.000    0.000    0.000    0.000    0.000    0.000 
#
# Total GULP energy -89255.615734 kJ/mol
# GULP energy per Si atom -5578.475983 kJ/mol
# Density = 2.429530 g / cm^3
# Si number density = 24.350727 Si / 1000 Ang^3
#
#
#
# Elastic Constant Matrix: (Units=GPa)
#
#
# Indices 1 2 3 4 5 6 
#
# 1 75.2350 53.7458 36.1371 -4.4648 18.0426 9.3596
# 2 53.7458 64.8974 17.3513 -5.7068 -3.5595 39.8032
# 3 36.1371 17.3513 114.5965 -0.6751 16.0524 9.0489
# 4 -4.4648 -5.7068 -0.6751 26.9915 0.2250 6.9756
# 5 18.0426 -3.5595 16.0524 0.2250 33.1789 6.8855
# 6 9.3596 39.8032 9.0489 6.9756 6.8855 47.0284
#
#
#
# Elastic Compliance Matrix: (Units=1/GPa)
#
#
# Indices 1 2 3 4 5 6 
#
# 1 -0.026894 0.056418 -0.000357 0.020097 0.031061 -0.049858
# 2 0.056418 -0.071647 -0.005082 -0.021204 -0.048343 0.060612
# 3 -0.000357 -0.005082 0.010157 -0.001748 -0.005991 0.003555
# 4 0.020097 -0.021204 -0.001748 0.032977 -0.014986 0.011586
# 5 0.031061 -0.048343 -0.005991 -0.014986 0.003253 0.037633
# 6 -0.049858 0.060612 0.003555 0.011586 0.037633 -0.028026
#
#
# Mechanical properties :
#
#
# Convention : Reuss Voigt Hill
#
# Bulk Modulus (GPa) = 73.67363 52.13303 62.90333
# Shear Modulus (GPa) = -28.15098 31.27274 1.56088
#
# Velocity S-wave (km/s) = -3.40378 3.58755 0.80149
# Velocity P-wave (km/s) = 3.85658 6.21421 5.17154
#
# Compressibility (1/GPa) = 0.01357338
#
# Stress axis : x y z
#
# Youngs Moduli (GPa) = -37.18296 -13.95737 98.45831
#
# Poissons Ratio (x) = 0.78745 0.03517
# Poissons Ratio (y) = 2.09779 0.50038
# Poissons Ratio (z) = -0.01328 -0.07093
#
# Static dielectric constant tensor:
#      x y z
#    x 2.205460 -0.063820 0.036530 
#    y -0.063820 1.923110 0.030530 
#    z 0.036530 0.030530 1.972710 
# 
# From -- ./inp_files/436079.got.cif
#   From: 2010.05.17/outbox.cif.g08.bks.cpg/sg2_219_cif.got.tgz:436079.got - 2010.06.03 11:33:40.
