data_PCOD9102164
_publ_section_title
;
Structure prediction by ZEFSAII (Michael W. Deem and Ramdas Pophale) SiO2 
 PCOD9102164
Probable space group: P -1
;
_chemical_formula_sum "Si O2"
_cell_formula_units_Z 16
_cell_length_a 13.412669
_cell_length_b 7.629613
_cell_length_c 9.934799
_cell_angle_alpha 108.480980
_cell_angle_beta 44.702846
_cell_angle_gamma 122.121221
_cell_volume 602.502940
_symmetry_space_group_name_H-M "P -1"
_symmetry_group_IT_number 2
_symmetry_cell_setting 'triclinic'
loop_
_space_group_symop_operation_xyz
x,y,z
-x,-y,-z
loop_
_atom_site_type_symbol
_atom_site_label
_atom_site_fract_x
_atom_site_fract_y
_atom_site_fract_z
Si Si1 0.468501 0.191910 0.406841
Si Si2 0.095509 0.021022 0.266116
Si Si3 0.067808 0.333799 0.879155
Si Si4 0.826296 0.265022 0.754465
Si Si5 0.293760 0.440097 0.919213
Si Si6 0.471601 0.202609 0.732265
Si Si7 0.190279 0.544729 0.564770
Si Si8 0.859680 0.135397 0.410398
O O1 0.569843 0.399180 0.274849
O O2 0.466563 0.202683 0.573403
O O3 0.531275 0.016067 0.277142
O O4 0.282577 0.094938 0.516111
O O5 0.048656 0.865342 0.141954
O O6 0.230953 0.966222 0.184156
O O7 0.034428 0.172990 0.291042
O O8 0.000000 0.000000 0.500000
O O9 0.143287 0.303732 0.934676
O O10 0.207181 0.452033 0.666192
O O11 0.000000 0.500000 0.000000
O O12 0.814514 0.242799 0.602239
O O13 0.016713 0.387458 0.636310
O O14 0.746848 0.400142 0.919412
O O15 0.346661 0.288003 0.912121
O O16 0.644676 0.387471 0.651778
O O17 0.169064 0.751801 0.661976
#
# Coordination Sequence:
#
# PCOD9102164 Si02
#       8
#     2   2   2   2   2   2   2   2
#     4  10  22  38  60  89 125 159 209 253 297 387
#     4   9  19  36  59  85 116 158 203 245 298 370
#     4  11  20  37  60  90 123 154 203 257 313 362
#     4  10  22  39  60  88 121 159 206 251 315 370
#     4  12  22  38  63  91 127 163 193 264 324 356
#     4  10  22  38  62  91 118 160 210 247 313 370
#     4  10  20  38  62  87 115 157 207 260 293 374
#     4  10  21  39  61  87 118 162 209 254 300 369
#
# _framework density 26.555889000000001
#
# number of rings (size 3 to 8) (size 9 to 14) (size 15 to 20)
#    0.000    1.750    3.750    1.500    3.500    0.500 
#    2.250    3.125    0.000    0.000    0.000    0.000 
#    0.000    0.000    0.000    0.000    0.000    0.000 
#
# Total GULP energy -89123.816203 kJ/mol
# GULP energy per Si atom -5570.238513 kJ/mol
# Density = 2.649545 g / cm^3
# Si number density = 26.555889 Si / 1000 Ang^3
#
#
#
# Elastic Constant Matrix: (Units=GPa)
#
#
# Indices 1 2 3 4 5 6 
#
# 1 90.4286 15.8102 31.1067 1.0382 -20.3271 -26.3517
# 2 15.8102 78.2772 20.5594 13.5262 -6.0961 -27.1329
# 3 31.1067 20.5594 89.9390 35.8893 -23.8222 -1.8473
# 4 1.0382 13.5262 35.8893 45.8283 -4.3700 -18.6700
# 5 -20.3271 -6.0961 -23.8222 -4.3700 44.5585 12.2678
# 6 -26.3517 -27.1329 -1.8473 -18.6700 12.2678 50.1896
#
#
#
# Elastic Compliance Matrix: (Units=1/GPa)
#
#
# Indices 1 2 3 4 5 6 
#
# 1 0.020755 0.003212 -0.015253 0.018212 -0.001769 0.019279
# 2 0.003212 0.018035 -0.008937 0.007243 -0.004218 0.014833
# 3 -0.015253 -0.008937 0.036065 -0.035377 0.015465 -0.028452
# 4 0.018212 0.007243 -0.035377 0.061282 -0.014188 0.038440
# 5 -0.001769 -0.004218 0.015465 -0.014188 0.032288 -0.015810
# 6 0.019279 0.014833 -0.028452 0.038440 -0.015810 0.055182
#
#
# Mechanical properties :
#
#
# Convention : Reuss Voigt Hill
#
# Bulk Modulus (GPa) = 30.39406 43.73306 37.06356
# Shear Modulus (GPa) = 18.08131 40.85985 29.47058
#
# Velocity S-wave (km/s) = 2.61219 3.92680 3.33492
# Velocity P-wave (km/s) = 4.53522 6.08800 5.36805
#
# Compressibility (1/GPa) = 0.03290117
#
# Stress axis : x y z
#
# Youngs Moduli (GPa) = 48.18074 55.44829 27.72737
#
# Poissons Ratio (x) = -0.17810 0.42291
# Poissons Ratio (y) = -0.15475 0.24779
# Poissons Ratio (z) = 0.73488 0.49552
#
# Static dielectric constant tensor:
#      x y z
#    x 2.089640 -0.049960 -0.008970 
#    y -0.049960 2.305970 -0.127020 
#    z -0.008970 -0.127020 2.213870 
# 
# From -- ./inp_files/258256.got.cif
#   From: 2010.05.17/outbox.cif.g08.bks.cpg/sg2_130_cif.got.tgz:258256.got - 2010.06.03 11:33:40.
