data_PCOD9102837
_publ_section_title
;
Structure prediction by ZEFSAII (Michael W. Deem and Ramdas Pophale) SiO2 
 PCOD9102837
Probable space group: P -1
;
_chemical_formula_sum "Si O2"
_cell_formula_units_Z 16
_cell_length_a 8.439768
_cell_length_b 20.862133
_cell_length_c 11.836849
_cell_angle_alpha 152.275571
_cell_angle_beta 106.748851
_cell_angle_gamma 88.723152
_cell_volume 791.573377
_symmetry_space_group_name_H-M "P -1"
_symmetry_group_IT_number 2
_symmetry_cell_setting 'triclinic'
loop_
_space_group_symop_operation_xyz
x,y,z
-x,-y,-z
loop_
_atom_site_type_symbol
_atom_site_label
_atom_site_fract_x
_atom_site_fract_y
_atom_site_fract_z
Si Si1 0.916254 0.446303 0.677902
Si Si2 0.575371 0.666814 0.349697
Si Si3 0.937080 0.106807 0.725324
Si Si4 0.719911 0.545034 0.600904
Si Si5 0.345274 0.828618 0.649810
Si Si6 0.688330 0.480462 0.236455
Si Si7 0.940606 0.232082 0.692629
Si Si8 0.280759 0.172754 0.597186
O O1 0.786354 0.466136 0.587453
O O2 0.803728 0.272615 0.439348
O O3 0.123870 0.494548 0.748422
O O4 0.962711 0.576470 0.988072
O O5 0.430502 0.720881 0.450981
O O6 0.661098 0.625353 0.411467
O O7 0.706394 0.806351 0.503094
O O8 0.500000 0.500000 0.000000
O O9 0.864401 0.173310 0.712902
O O10 0.788547 0.998302 0.623570
O O11 0.000000 0.000000 0.500000
O O12 0.128064 0.263003 0.057326
O O13 0.500000 0.500000 0.500000
O O14 0.729619 0.489495 0.391209
O O15 0.231211 0.851353 0.560483
O O16 0.500000 0.000000 0.000000
O O17 0.490765 0.311897 0.903893
O O18 0.115473 0.207027 0.657383
#
# Coordination Sequence:
#
# PCOD9102837 Si02
#       8
#     2   2   2   2   2   2   2   2
#     4  11  23  41  62  88 123 167 209 249 307 384
#     4  10  21  40  63  88 119 166 209 246 306 379
#     4   9  20  36  59  89 117 155 201 248 304 362
#     4  11  22  39  62  89 122 162 204 252 308 371
#     4  12  26  41  62  96 128 158 206 270 319 357
#     4  11  22  39  62  89 118 160 209 256 303 368
#     4  10  20  40  63  87 121 167 208 248 307 382
#     4  10  20  38  64  90 118 161 210 255 301 363
#
# _framework density 20.212909
#
# number of rings (size 3 to 8) (size 9 to 14) (size 15 to 20)
#    0.000    1.500    0.000    7.500    0.000    6.000 
#    0.000    7.500    0.000    0.000    0.000    0.000 
#    0.000    0.000    0.000    0.000    0.000    0.000 
#
# Total GULP energy -89270.122553 kJ/mol
# GULP energy per Si atom -5579.382660 kJ/mol
# Density = 2.016690 g / cm^3
# Si number density = 20.212909 Si / 1000 Ang^3
#
#
#
# Elastic Constant Matrix: (Units=GPa)
#
#
# Indices 1 2 3 4 5 6 
#
# 1 109.0096 19.1684 27.1956 1.5155 18.9524 -1.4708
# 2 19.1684 98.2394 53.8857 12.6371 34.3256 10.9681
# 3 27.1956 53.8857 112.9020 0.8787 27.9828 -4.8232
# 4 1.5155 12.6371 0.8787 36.0599 2.1478 7.7962
# 5 18.9524 34.3256 27.9828 2.1478 28.7565 -2.9527
# 6 -1.4708 10.9681 -4.8232 7.7962 -2.9527 26.8049
#
#
#
# Elastic Compliance Matrix: (Units=1/GPa)
#
#
# Indices 1 2 3 4 5 6 
#
# 1 0.010550 0.001459 -0.001454 -0.000261 -0.007365 -0.001015
# 2 0.001459 0.023517 -0.006105 -0.004108 -0.024027 -0.012093
# 3 -0.001454 -0.006105 0.013389 0.001284 -0.004472 0.003961
# 4 -0.000261 -0.004108 0.001284 0.030595 0.000832 -0.006909
# 5 -0.007365 -0.024027 -0.004472 0.000832 0.074300 0.016565
# 6 -0.001015 -0.012093 0.003961 -0.006909 0.016565 0.046746
#
#
# Mechanical properties :
#
#
# Convention : Reuss Voigt Hill
#
# Bulk Modulus (GPa) = 28.36322 57.85005 43.10664
# Shear Modulus (GPa) = 22.41654 32.98437 27.70046
#
# Velocity S-wave (km/s) = 3.33381 4.04399 3.70595
# Velocity P-wave (km/s) = 5.37417 7.10547 6.29958
#
# Compressibility (1/GPa) = 0.03525693
#
# Stress axis : x y z
#
# Youngs Moduli (GPa) = 94.78676 42.52186 74.68838
#
# Poissons Ratio (x) = -0.06205 0.10856
# Poissons Ratio (y) = -0.13831 0.45599
# Poissons Ratio (z) = 0.13778 0.25961
#
# Static dielectric constant tensor:
#      x y z
#    x 1.601510 0.062120 0.055570 
#    y 0.062120 1.764160 -0.008370 
#    z 0.055570 -0.008370 1.671870 
# 
# From -- ./inp_files/405124.got.cif
#   From: 2010.05.17/outbox.cif.g08.bks.cpg/sg2_203_cif.got.tgz:405124.got - 2010.06.03 11:33:40.
