data_PCOD9102193
_publ_section_title
;
Structure prediction by ZEFSAII (Michael W. Deem and Ramdas Pophale) SiO2 
 PCOD9102193
Probable space group: P -1
;
_chemical_formula_sum "Si O2"
_cell_formula_units_Z 15
_cell_length_a 8.781811
_cell_length_b 8.471933
_cell_length_c 18.187515
_cell_angle_alpha 49.277600
_cell_angle_beta 146.897633
_cell_angle_gamma 124.818891
_cell_volume 559.088606
_symmetry_space_group_name_H-M "P -1"
_symmetry_group_IT_number 2
_symmetry_cell_setting 'triclinic'
loop_
_space_group_symop_operation_xyz
x,y,z
-x,-y,-z
loop_
_atom_site_type_symbol
_atom_site_label
_atom_site_fract_x
_atom_site_fract_y
_atom_site_fract_z
Si Si1 0.000000 0.500000 0.000000
Si Si2 0.032283 0.522998 0.252945
Si Si3 0.259626 0.123156 0.527122
Si Si4 0.505643 0.658323 0.075933
Si Si5 0.758025 0.506341 0.503727
Si Si6 0.746255 0.242251 0.450097
Si Si7 0.170184 0.821853 0.085964
Si Si8 0.743798 0.966010 0.201021
O O1 0.330296 0.503486 0.105249
O O2 0.061369 0.730800 0.992095
O O3 0.712176 0.549386 0.137598
O O4 0.129670 0.288036 0.368923
O O5 0.193801 0.616351 0.364120
O O6 0.104102 0.628285 0.173245
O O7 0.378465 0.284325 0.587801
O O8 0.000000 0.000000 0.500000
O O9 0.414869 0.939732 0.606175
O O10 0.682557 0.828957 0.144548
O O11 0.277707 0.791689 0.901047
O O12 0.064142 0.592982 0.572301
O O13 0.612191 0.376541 0.418715
O O14 0.977559 0.114030 0.626481
O O15 0.482654 0.910438 0.166394
O O16 0.000000 0.000000 0.000000
#
# Coordination Sequence:
#
# PCOD9102193 Si02
#       8
#     1   2   2   2   2   2   2   2
#     4  10  26  38  56  84 114 152 194 230 282 352
#     4  10  19  37  58  83 116 150 185 241 281 334
#     4   8  17  31  52  84 110 140 190 230 276 332
#     4  10  20  37  57  85 116 148 192 237 286 342
#     4   8  18  31  53  86 108 143 192 232 276 335
#     4  10  16  32  56  82 108 149 189 228 281 340
#     4  11  23  41  54  85 122 150 191 238 281 342
#     4  10  20  34  59  85 114 155 189 231 290 343
#
# _framework density 26.829377999999998
#
# number of rings (size 3 to 8) (size 9 to 14) (size 15 to 20)
#    0.800    1.600    2.667    0.000    1.867    1.600 
#    0.000    0.667    0.000    0.000    3.467    5.600 
#    0.000    0.000    0.000    0.000    0.000    0.000 
#
# Total GULP energy -83608.248247 kJ/mol
# GULP energy per Si atom -5573.883216 kJ/mol
# Density = 2.676831 g / cm^3
# Si number density = 26.829378 Si / 1000 Ang^3
#
#
#
# Elastic Constant Matrix: (Units=GPa)
#
#
# Indices 1 2 3 4 5 6 
#
# 1 138.3082 51.3089 15.9373 -14.0419 16.3589 -16.4735
# 2 51.3089 110.1839 16.3292 -26.5977 18.5032 -44.5714
# 3 15.9373 16.3292 64.6742 -21.6485 -5.2010 -5.0328
# 4 -14.0419 -26.5977 -21.6485 38.1780 4.2941 3.5315
# 5 16.3589 18.5032 -5.2010 4.2941 41.9149 -8.7567
# 6 -16.4735 -44.5714 -5.0328 3.5315 -8.7567 43.3811
#
#
#
# Elastic Compliance Matrix: (Units=1/GPa)
#
#
# Indices 1 2 3 4 5 6 
#
# 1 0.009049 -0.004305 -0.001479 -0.000124 -0.002132 -0.001579
# 2 -0.004305 0.023566 0.000966 0.014150 -0.005797 0.020367
# 3 -0.001479 0.000966 0.019516 0.010774 0.001930 0.002208
# 4 -0.000124 0.014150 0.010774 0.041875 -0.006864 0.010947
# 5 -0.002132 -0.005797 0.001930 -0.006864 0.028128 -0.000306
# 6 -0.001579 0.020367 0.002208 0.010947 -0.000306 0.042681
#
#
# Mechanical properties :
#
#
# Convention : Reuss Voigt Hill
#
# Bulk Modulus (GPa) = 23.53203 53.36858 38.45030
# Shear Modulus (GPa) = 26.50893 40.00086 33.25489
#
# Velocity S-wave (km/s) = 3.14675 3.86545 3.52447
# Velocity P-wave (km/s) = 4.68964 6.31327 5.56103
#
# Compressibility (1/GPa) = 0.04249528
#
# Stress axis : x y z
#
# Youngs Moduli (GPa) = 110.50519 42.43477 51.23979
#
# Poissons Ratio (x) = 0.18270 0.07577
# Poissons Ratio (y) = 0.47577 -0.04951
# Poissons Ratio (z) = 0.16340 -0.04100
#
# Static dielectric constant tensor:
#      x y z
#    x 2.142350 0.035100 0.019540 
#    y 0.035100 2.528970 0.453200 
#    z 0.019540 0.453200 2.608070 
# 
# From -- ./inp_files/586619.got.cif
#   From: 2010.05.17/outbox.cif.g08.bks.cpg/sg2_294_cif.got.tgz:586619.got - 2010.06.03 11:33:40.
