data_PCOD9102026
_publ_section_title
;
Structure prediction by ZEFSAII (Michael W. Deem and Ramdas Pophale) SiO2 
 PCOD9102026
Probable space group: P -1
;
_chemical_formula_sum "Si O2"
_cell_formula_units_Z 16
_cell_length_a 12.489944
_cell_length_b 10.565214
_cell_length_c 13.073285
_cell_angle_alpha 43.625454
_cell_angle_beta 29.689516
_cell_angle_gamma 42.944865
_cell_volume 562.017148
_symmetry_space_group_name_H-M "P -1"
_symmetry_group_IT_number 2
_symmetry_cell_setting 'triclinic'
loop_
_space_group_symop_operation_xyz
x,y,z
-x,-y,-z
loop_
_atom_site_type_symbol
_atom_site_label
_atom_site_fract_x
_atom_site_fract_y
_atom_site_fract_z
Si Si1 0.214598 0.025086 0.927645
Si Si2 0.331268 0.647535 0.478321
Si Si3 0.168320 0.151485 0.281565
Si Si4 0.558765 0.351238 0.291852
Si Si5 0.707753 0.495746 0.752447
Si Si6 0.695923 0.123533 0.855610
Si Si7 0.952742 0.309265 0.834508
Si Si8 0.684201 0.023099 0.547442
O O1 0.482376 0.934596 0.747283
O O2 0.087876 0.878976 0.076297
O O3 0.164035 0.216139 0.788289
O O4 0.187785 0.049212 0.057790
O O5 0.500000 0.500000 0.500000
O O6 0.439265 0.539718 0.347871
O O7 0.367869 0.832016 0.397379
O O8 0.057029 0.689683 0.670200
O O9 0.200138 0.965651 0.287188
O O10 0.137938 0.140407 0.437489
O O11 0.421862 0.170500 0.048031
O O12 0.376003 0.342063 0.361248
O O13 0.759697 0.381454 0.038452
O O14 0.675413 0.161345 0.375809
O O15 0.735307 0.300992 0.779732
O O16 0.500000 0.500000 0.000000
O O17 0.910880 0.459540 0.688336
#
# Coordination Sequence:
#
# PCOD9102026 Si02
#       8
#     2   2   2   2   2   2   2   2
#     4   9  19  37  60  90 114 148 206 255 288 340
#     4  10  22  38  55  87 128 159 188 238 305 369
#     4  10  20  38  61  92 116 157 202 248 293 353
#     4  10  21  38  58  84 123 160 189 240 307 357
#     4   9  18  37  59  84 120 157 200 244 297 355
#     4   9  19  35  66  88 116 156 208 250 289 347
#     4   9  19  38  63  83 114 157 203 252 288 344
#     4  10  21  37  59  87 123 151 196 244 296 361
#
# _framework density 28.468882000000001
#
# number of rings (size 3 to 8) (size 9 to 14) (size 15 to 20)
#    0.000    2.500    0.000    1.125    3.500    0.500 
#   13.500    1.250    0.000    0.000    0.000    0.000 
#    0.000    0.000    0.000    0.000    0.000    0.000 
#
# Total GULP energy -89110.958353 kJ/mol
# GULP energy per Si atom -5569.434897 kJ/mol
# Density = 2.840409 g / cm^3
# Si number density = 28.468882 Si / 1000 Ang^3
#
#
#
# Elastic Constant Matrix: (Units=GPa)
#
#
# Indices 1 2 3 4 5 6 
#
# 1 218.5921 64.6464 65.7846 -0.3702 34.9475 -59.7613
# 2 64.6464 105.6932 46.8111 18.0050 17.3052 -6.4788
# 3 65.7846 46.8111 82.5570 17.2211 39.7098 -16.7819
# 4 -0.3702 18.0050 17.2211 61.4326 -13.0869 9.2703
# 5 34.9475 17.3052 39.7098 -13.0869 80.8802 -2.6892
# 6 -59.7613 -6.4788 -16.7819 9.2703 -2.6892 52.5775
#
#
#
# Elastic Compliance Matrix: (Units=1/GPa)
#
#
# Indices 1 2 3 4 5 6 
#
# 1 0.009174 -0.003636 -0.002740 0.000211 -0.001508 0.008990
# 2 -0.003636 0.014289 -0.006272 -0.001587 0.001202 -0.004032
# 3 -0.002740 -0.006272 0.026495 -0.008945 -0.011745 0.005546
# 4 0.000211 -0.001587 -0.008945 0.021896 0.007975 -0.006263
# 5 -0.001508 0.001202 -0.011745 0.007975 0.019625 -0.005717
# 6 0.008990 -0.004032 0.005546 -0.006263 -0.005717 0.031324
#
#
# Mechanical properties :
#
#
# Convention : Reuss Voigt Hill
#
# Bulk Modulus (GPa) = 40.54615 84.59183 62.56899
# Shear Modulus (GPa) = 31.98595 54.28472 43.13533
#
# Velocity S-wave (km/s) = 3.35556 4.37144 3.89675
# Velocity P-wave (km/s) = 5.41168 7.43355 6.50169
#
# Compressibility (1/GPa) = 0.02466325
#
# Stress axis : x y z
#
# Youngs Moduli (GPa) = 109.00629 69.98258 37.74289
#
# Poissons Ratio (x) = 0.25443 0.10341
# Poissons Ratio (y) = 0.39630 0.23672
# Poissons Ratio (z) = 0.29866 0.43893
#
# Static dielectric constant tensor:
#      x y z
#    x 2.056340 -0.003170 -0.075260 
#    y -0.003170 2.324600 0.019040 
#    z -0.075260 0.019040 2.391310 
# 
# From -- ./inp_files/425398.got.cif
#   From: 2010.05.17/outbox.cif.g08.bks.cpg/sg2_213_cif.got.tgz:425398.got - 2010.06.03 11:33:40.
