data_PCOD9102898
_publ_section_title
;
Structure prediction by ZEFSAII (Michael W. Deem and Ramdas Pophale) SiO2 
 PCOD9102898
Probable space group: P -1
;
_chemical_formula_sum "Si O2"
_cell_formula_units_Z 14
_cell_length_a 7.546505
_cell_length_b 8.354488
_cell_length_c 19.093310
_cell_angle_alpha 136.787090
_cell_angle_beta 127.124956
_cell_angle_gamma 82.658719
_cell_volume 539.204589
_symmetry_space_group_name_H-M "P -1"
_symmetry_group_IT_number 2
_symmetry_cell_setting 'triclinic'
loop_
_space_group_symop_operation_xyz
x,y,z
-x,-y,-z
loop_
_atom_site_type_symbol
_atom_site_label
_atom_site_fract_x
_atom_site_fract_y
_atom_site_fract_z
Si Si1 0.790863 0.478585 0.857275
Si Si2 0.165652 0.468302 0.348624
Si Si3 0.732832 0.260664 0.291562
Si Si4 0.172664 0.151312 0.750777
Si Si5 0.732655 0.290066 0.067521
Si Si6 0.608623 0.716785 0.426949
Si Si7 0.071745 0.906952 0.173510
O O1 0.544174 0.348284 0.703736
O O2 0.765869 0.234635 0.821734
O O3 0.059048 0.612481 0.916459
O O4 0.863564 0.737702 0.006816
O O5 0.427683 0.716087 0.447054
O O6 0.023014 0.461025 0.384616
O O7 0.918977 0.341974 0.194326
O O8 0.234583 0.237761 0.303263
O O9 0.648439 0.462275 0.362895
O O10 0.728847 0.055269 0.284226
O O11 0.514080 0.029731 0.109671
O O12 0.346073 0.481815 0.877189
O O13 0.074973 0.134916 0.801664
O O14 0.906252 0.003455 0.591950
#
# Coordination Sequence:
#
# PCOD9102898 Si02
#       7
#     2   2   2   2   2   2   2
#     4   9  19  35  61  91 123 163 208 252 310 371
#     4  10  22  38  63  93 124 161 209 258 313 365
#     4  11  22  39  64  92 125 166 211 256 305 372
#     4  10  23  40  62  92 128 168 206 254 318 369
#     4  10  20  38  64  92 125 167 210 256 309 371
#     4  11  23  42  65  92 129 165 204 259 315 373
#     4   9  18  35  57  91 123 156 207 253 300 368
#
# _framework density 25.964169999999999
#
# number of rings (size 3 to 8) (size 9 to 14) (size 15 to 20)
#    0.000    2.000    0.000    3.000    0.000   10.857 
#    0.000    5.000    0.000    5.143    0.000    0.000 
#    0.000    0.000    0.000    0.000    0.000    0.000 
#
# Total GULP energy -78338.053122 kJ/mol
# GULP energy per Si atom -5595.575223 kJ/mol
# Density = 2.590507 g / cm^3
# Si number density = 25.964170 Si / 1000 Ang^3
#
#
#
# Elastic Constant Matrix: (Units=GPa)
#
#
# Indices 1 2 3 4 5 6 
#
# 1 98.8847 20.4046 28.7642 2.2089 1.7858 9.2840
# 2 20.4046 64.2928 6.4719 -5.2456 -11.8440 -6.4502
# 3 28.7642 6.4719 107.3587 -9.5198 -5.7610 -6.8381
# 4 2.2089 -5.2456 -9.5198 29.7823 -8.0528 -1.4598
# 5 1.7858 -11.8440 -5.7610 -8.0528 25.6044 4.7504
# 6 9.2840 -6.4502 -6.8381 -1.4598 4.7504 30.0325
#
#
#
# Elastic Compliance Matrix: (Units=1/GPa)
#
#
# Indices 1 2 3 4 5 6 
#
# 1 0.013280 -0.005695 -0.004295 -0.005004 -0.005033 -0.005754
# 2 -0.005695 0.020546 0.001979 0.008159 0.011961 0.005129
# 3 -0.004295 0.001979 0.011369 0.005811 0.004886 0.003851
# 4 -0.005004 0.008159 0.005811 0.042304 0.018026 0.003827
# 5 -0.005033 0.011961 0.004886 0.018026 0.052103 -0.002128
# 6 -0.005754 0.005129 0.003851 0.003827 -0.002128 0.037577
#
#
# Mechanical properties :
#
#
# Convention : Reuss Voigt Hill
#
# Bulk Modulus (GPa) = 34.27816 42.42416 38.35116
# Shear Modulus (GPa) = 24.63963 31.41021 28.02492
#
# Velocity S-wave (km/s) = 3.08390 3.48192 3.28894
# Velocity P-wave (km/s) = 5.09032 5.70439 5.40608
#
# Compressibility (1/GPa) = 0.02917310
#
# Stress axis : x y z
#
# Youngs Moduli (GPa) = 75.30010 48.67175 87.96010
#
# Poissons Ratio (x) = 0.27719 0.37779
# Poissons Ratio (y) = 0.42884 -0.17410
# Poissons Ratio (z) = 0.32342 -0.09634
#
# Static dielectric constant tensor:
#      x y z
#    x 2.051230 -0.030250 0.010420 
#    y -0.030250 2.067860 0.002640 
#    z 0.010420 0.002640 2.008640 
# 
# From -- ./inp_files/158983.got.cif
#   From: 2010.05.17/outbox.cif.g08.bks.cpg/sg2_80_cif.got.tgz:158983.got - 2010.06.03 11:33:40.
