data_PCOD9102743
_publ_section_title
;
Structure prediction by ZEFSAII (Michael W. Deem and Ramdas Pophale) SiO2 
 PCOD9102743
Probable space group: P -1
;
_chemical_formula_sum "Si O2"
_cell_formula_units_Z 14
_cell_length_a 9.492457
_cell_length_b 12.724821
_cell_length_c 9.162787
_cell_angle_alpha 121.809209
_cell_angle_beta 55.638920
_cell_angle_gamma 139.534567
_cell_volume 582.998501
_symmetry_space_group_name_H-M "P -1"
_symmetry_group_IT_number 2
_symmetry_cell_setting 'triclinic'
loop_
_space_group_symop_operation_xyz
x,y,z
-x,-y,-z
loop_
_atom_site_type_symbol
_atom_site_label
_atom_site_fract_x
_atom_site_fract_y
_atom_site_fract_z
Si Si1 0.171914 0.077566 0.094278
Si Si2 0.523272 0.380954 0.486580
Si Si3 0.976431 0.478477 0.169053
Si Si4 0.321874 0.797449 0.394206
Si Si5 0.254915 0.049954 0.568407
Si Si6 0.368913 0.404894 0.152592
Si Si7 0.867259 0.195544 0.187185
O O1 0.997410 0.027086 0.291430
O O2 0.385609 0.273581 0.110208
O O3 0.253242 0.975051 0.950544
O O4 0.000000 0.000000 0.000000
O O5 0.500000 0.500000 0.500000
O O6 0.657018 0.815433 0.512258
O O7 0.426056 0.540765 0.326982
O O8 0.741507 0.424637 0.319722
O O9 0.169620 0.630003 0.270740
O O10 0.955054 0.325426 0.105086
O O11 0.000000 0.500000 0.000000
O O12 0.576048 0.865940 0.324996
O O13 0.257882 0.791935 0.599055
O O14 0.273290 0.909262 0.429089
O O15 0.100524 0.274723 0.190082
O O16 0.500000 0.500000 0.000000
#
# Coordination Sequence:
#
# PCOD9102743 Si02
#       7
#     2   2   2   2   2   2   2
#     4  10  20  38  64 107 129 162 216 282 335 389
#     4  12  26  45  63  99 140 181 223 270 340 410
#     4  12  27  46  62  98 141 181 224 275 347 401
#     4  11  22  45  74  99 128 175 230 292 328 392
#     4  11  22  42  75 101 133 171 233 281 338 391
#     4  11  23  41  73 103 131 174 228 277 333 396
#     4  11  21  43  69  97 131 169 228 284 326 398
#
# _framework density 24.013784000000001
#
# number of rings (size 3 to 8) (size 9 to 14) (size 15 to 20)
#    0.000    0.857    5.714    3.000    4.000    0.000 
#    2.571    2.143    0.000    0.000    0.000    0.000 
#    0.000    0.000    0.000    0.000    0.000    0.000 
#
# Total GULP energy -78063.667627 kJ/mol
# GULP energy per Si atom -5575.976259 kJ/mol
# Density = 2.395913 g / cm^3
# Si number density = 24.013784 Si / 1000 Ang^3
#
#
#
# Elastic Constant Matrix: (Units=GPa)
#
#
# Indices 1 2 3 4 5 6 
#
# 1 32.8435 13.0098 9.0107 -2.6435 6.2430 -12.9584
# 2 13.0098 149.4735 55.5825 1.5937 2.3527 -25.4109
# 3 9.0107 55.5825 126.4181 -16.3849 5.1723 4.1665
# 4 -2.6435 1.5937 -16.3849 44.2910 -5.2156 -8.8993
# 5 6.2430 2.3527 5.1723 -5.2156 12.7231 -6.0159
# 6 -12.9584 -25.4109 4.1665 -8.8993 -6.0159 38.5341
#
#
#
# Elastic Compliance Matrix: (Units=1/GPa)
#
#
# Indices 1 2 3 4 5 6 
#
# 1 0.038111 -0.000398 -0.002139 0.002506 -0.011240 0.011609
# 2 -0.000398 0.009612 -0.004610 -0.000196 0.003627 0.007224
# 3 -0.002139 -0.004610 0.010739 0.002587 -0.003722 -0.004904
# 4 0.002506 -0.000196 0.002587 0.026954 0.012905 0.008673
# 5 -0.011240 0.003627 -0.003722 0.012905 0.098456 0.017366
# 6 0.011609 0.007224 -0.004904 0.008673 0.017366 0.039863
#
#
# Mechanical properties :
#
#
# Convention : Reuss Voigt Hill
#
# Bulk Modulus (GPa) = 22.64098 51.54900 37.09499
# Shear Modulus (GPa) = 19.78228 34.51845 27.15037
#
# Velocity S-wave (km/s) = 2.87329 3.79548 3.36611
# Velocity P-wave (km/s) = 4.52288 6.38126 5.53069
#
# Compressibility (1/GPa) = 0.04416770
#
# Stress axis : x y z
#
# Youngs Moduli (GPa) = 26.23937 104.03607 93.12080
#
# Poissons Ratio (x) = 0.04138 0.19922
# Poissons Ratio (y) = 0.01044 0.42926
# Poissons Ratio (z) = 0.05614 0.47958
#
# Static dielectric constant tensor:
#      x y z
#    x 2.643830 -0.536710 -0.377050 
#    y -0.536710 2.337020 0.197550 
#    z -0.377050 0.197550 2.068610 
# 
# From -- ./inp_files/189831.got.cif
#   From: 2010.05.17/outbox.cif.g08.bks.cpg/sg2_95_cif.got.tgz:189831.got - 2010.06.03 11:33:40.
