data_PCOD9102819
_publ_section_title
;
Structure prediction by ZEFSAII (Michael W. Deem and Ramdas Pophale) SiO2 
 PCOD9102819
Probable space group: P -1
;
_chemical_formula_sum "Si O2"
_cell_formula_units_Z 14
_cell_length_a 9.997834
_cell_length_b 6.179869
_cell_length_c 13.361982
_cell_angle_alpha 65.669120
_cell_angle_beta 68.741753
_cell_angle_gamma 48.536295
_cell_volume 558.823511
_symmetry_space_group_name_H-M "P -1"
_symmetry_group_IT_number 2
_symmetry_cell_setting 'triclinic'
loop_
_space_group_symop_operation_xyz
x,y,z
-x,-y,-z
loop_
_atom_site_type_symbol
_atom_site_label
_atom_site_fract_x
_atom_site_fract_y
_atom_site_fract_z
Si Si1 0.109465 0.679674 0.915504
Si Si2 0.646094 0.156983 0.210681
Si Si3 0.641548 0.406690 0.638240
Si Si4 0.547736 0.967959 0.107650
Si Si5 0.857028 0.670592 0.843883
Si Si6 0.984923 0.127568 0.369200
Si Si7 0.611559 0.662439 0.396938
O O1 0.168996 0.885323 0.834599
O O2 0.268663 0.367888 0.876277
O O3 0.927335 0.780963 0.891342
O O4 0.115998 0.598996 0.046705
O O5 0.493983 0.439057 0.262538
O O6 0.590851 0.174570 0.107180
O O7 0.643048 0.894445 0.304848
O O8 0.844714 0.178990 0.666130
O O9 0.627417 0.635617 0.518014
O O10 0.571747 0.266301 0.609455
O O11 0.349702 0.098901 0.177090
O O12 0.500000 0.000000 0.000000
O O13 0.966671 0.649498 0.720346
O O14 0.000000 0.000000 0.500000
O O15 0.771539 0.335056 0.370948
#
# Coordination Sequence:
#
# PCOD9102819 Si02
#       7
#     2   2   2   2   2   2   2
#     4  10  23  41  62  91 130 171 214 268 326 386
#     4  12  21  39  70 100 129 171 223 271 324 392
#     4  10  22  41  65  95 132 174 214 266 330 388
#     4  10  23  42  62  90 132 171 213 270 327 384
#     4  10  20  41  63  86 127 173 210 258 327 386
#     4  10  20  38  64  89 122 169 212 258 319 383
#     4  10  22  41  64  94 135 171 212 271 328 385
#
# _framework density 25.052631000000002
#
# number of rings (size 3 to 8) (size 9 to 14) (size 15 to 20)
#    0.000    1.714    0.000    4.714    0.000    2.286 
#    0.000   25.714    0.000   17.143    0.000    1.000 
#    0.000    0.000    0.000    0.000    0.000    0.000 
#
# Total GULP energy -77984.217175 kJ/mol
# GULP energy per Si atom -5570.301227 kJ/mol
# Density = 2.499561 g / cm^3
# Si number density = 25.052631 Si / 1000 Ang^3
#
#
#
# Elastic Constant Matrix: (Units=GPa)
#
#
# Indices 1 2 3 4 5 6 
#
# 1 78.2876 5.7270 -4.2063 -1.1601 -17.8232 -2.2600
# 2 5.7270 52.2772 6.8291 7.5594 -1.7797 -7.7113
# 3 -4.2063 6.8291 134.7373 -19.8029 -12.7039 7.4191
# 4 -1.1601 7.5594 -19.8029 48.5342 -1.9831 -7.1421
# 5 -17.8232 -1.7797 -12.7039 -1.9831 49.5456 -4.0351
# 6 -2.2600 -7.7113 7.4191 -7.1421 -4.0351 31.7851
#
#
#
# Elastic Compliance Matrix: (Units=1/GPa)
#
#
# Indices 1 2 3 4 5 6 
#
# 1 0.014279 -0.001540 0.001191 0.001502 0.005562 0.001407
# 2 -0.001540 0.020696 -0.001845 -0.003340 -0.000044 0.004586
# 3 0.001191 -0.001845 0.008399 0.003675 0.002568 -0.001171
# 4 0.001502 -0.003340 0.003675 0.023359 0.002625 0.004021
# 5 0.005562 -0.000044 0.002568 0.002625 0.023217 0.003323
# 6 0.001407 0.004586 -0.001171 0.004021 0.003323 0.034273
#
#
# Mechanical properties :
#
#
# Convention : Reuss Voigt Hill
#
# Bulk Modulus (GPa) = 25.64877 31.33351 28.49114
# Shear Modulus (GPa) = 35.30932 43.10310 39.20621
#
# Velocity S-wave (km/s) = 3.75828 4.15239 3.96024
# Velocity P-wave (km/s) = 5.39380 5.96021 5.68406
#
# Compressibility (1/GPa) = 0.03898822
#
# Stress axis : x y z
#
# Youngs Moduli (GPa) = 70.03226 48.31746 119.05702
#
# Poissons Ratio (x) = 0.07442 -0.14185
# Poissons Ratio (y) = 0.10786 0.21961
# Poissons Ratio (z) = -0.08344 0.08913
#
# Static dielectric constant tensor:
#      x y z
#    x 1.993570 0.015150 -0.053180 
#    y 0.015150 2.055450 -0.031680 
#    z -0.053180 -0.031680 2.129030 
# 
# From -- ./inp_files/488131.got.cif
#   From: 2010.05.17/outbox.cif.g08.bks.cpg/sg2_245_cif.got.tgz:488131.got - 2010.06.03 11:33:40.
