data_PCOD9102257
_publ_section_title
;
Structure prediction by ZEFSAII (Michael W. Deem and Ramdas Pophale) SiO2 
 PCOD9102257
Probable space group: P -1
;
_chemical_formula_sum "Si O2"
_cell_formula_units_Z 14
_cell_length_a 23.833344
_cell_length_b 8.281281
_cell_length_c 9.205017
_cell_angle_alpha 48.652818
_cell_angle_beta 151.355670
_cell_angle_gamma 137.004414
_cell_volume 592.942234
_symmetry_space_group_name_H-M "P -1"
_symmetry_group_IT_number 2
_symmetry_cell_setting 'triclinic'
loop_
_space_group_symop_operation_xyz
x,y,z
-x,-y,-z
loop_
_atom_site_type_symbol
_atom_site_label
_atom_site_fract_x
_atom_site_fract_y
_atom_site_fract_z
Si Si1 0.118355 0.189176 0.749492
Si Si2 0.132653 0.531494 0.353171
Si Si3 0.557429 0.354213 0.315822
Si Si4 0.601262 0.187587 0.223055
Si Si5 0.591831 0.630551 0.768501
Si Si6 0.172413 0.257541 0.344661
Si Si7 0.987953 0.252974 0.687772
O O1 0.122762 0.435437 0.549612
O O2 0.072603 0.166942 0.823417
O O3 0.260836 0.201871 0.042459
O O4 0.000000 0.000000 0.500000
O O5 0.252393 0.786165 0.468061
O O6 0.175013 0.364002 0.446337
O O7 0.000000 0.500000 0.000000
O O8 0.565632 0.173299 0.320734
O O9 0.476254 0.264218 0.331606
O O10 0.699578 0.557111 0.553852
O O11 0.500000 0.500000 0.000000
O O12 0.604897 0.424384 0.015711
O O13 0.500000 0.000000 0.000000
O O14 0.500000 0.500000 0.500000
O O15 0.054889 0.277360 0.980324
O O16 0.147561 0.982564 0.467315
O O17 0.000000 0.500000 0.500000
#
# Coordination Sequence:
#
# PCOD9102257 Si02
#       7
#     2   2   2   2   2   2   2
#     4  11  22  39  59  89 128 157 207 266 314 379
#     4  10  20  38  62  89 124 162 207 255 323 379
#     4   9  19  39  66  84 120 170 212 253 319 387
#     4   9  20  39  60  89 122 154 210 264 307 382
#     4  10  21  39  61  87 120 166 207 253 315 376
#     4  10  21  41  65  91 126 170 211 259 318 387
#     4  11  23  40  63  95 130 164 211 264 322 380
#
# _framework density 23.611069000000001
#
# number of rings (size 3 to 8) (size 9 to 14) (size 15 to 20)
#    0.000    2.000    1.429    2.571    0.000    1.143 
#   20.571    0.714    0.000    0.000    0.000    0.000 
#    0.000    0.000    0.000    0.000    0.000    0.000 
#
# Total GULP energy -78083.948252 kJ/mol
# GULP energy per Si atom -5577.424875 kJ/mol
# Density = 2.355733 g / cm^3
# Si number density = 23.611069 Si / 1000 Ang^3
#
#
#
# Elastic Constant Matrix: (Units=GPa)
#
#
# Indices 1 2 3 4 5 6 
#
# 1 151.6700 33.1531 44.1474 30.5551 -10.4352 16.5767
# 2 33.1531 115.9425 50.7776 15.0894 -1.5986 8.4419
# 3 44.1474 50.7776 123.4610 35.9743 -6.5244 6.6359
# 4 30.5551 15.0894 35.9743 57.4247 9.0239 -11.6216
# 5 -10.4352 -1.5986 -6.5244 9.0239 41.2907 5.8759
# 6 16.5767 8.4419 6.6359 -11.6216 5.8759 21.0050
#
#
#
# Elastic Compliance Matrix: (Units=1/GPa)
#
#
# Indices 1 2 3 4 5 6 
#
# 1 0.011058 -0.000791 0.000817 -0.010782 0.007636 -0.016769
# 2 -0.000791 0.010821 -0.003808 -0.000660 0.000180 -0.002937
# 3 0.000817 -0.003808 0.013594 -0.011242 0.006285 -0.011387
# 4 -0.010782 -0.000660 -0.011242 0.041687 -0.019448 0.040830
# 5 0.007636 0.000180 0.006285 -0.019448 0.035493 -0.028772
# 6 -0.016769 -0.002937 -0.011387 0.040830 -0.028772 0.096258
#
#
# Mechanical properties :
#
#
# Convention : Reuss Voigt Hill
#
# Bulk Modulus (GPa) = 35.82909 71.91441 53.87175
# Shear Modulus (GPa) = 22.14572 41.47711 31.81142
#
# Velocity S-wave (km/s) = 3.06590 4.19582 3.67455
# Velocity P-wave (km/s) = 5.26694 7.34829 6.39288
#
# Compressibility (1/GPa) = 0.02791029
#
# Stress axis : x y z
#
# Youngs Moduli (GPa) = 90.42885 92.41240 73.56379
#
# Poissons Ratio (x) = 0.07306 -0.06013
# Poissons Ratio (y) = 0.07149 0.28015
# Poissons Ratio (z) = -0.07392 0.35193
#
# Static dielectric constant tensor:
#      x y z
#    x 1.939460 -0.012400 0.091290 
#    y -0.012400 1.993990 -0.041320 
#    z 0.091290 -0.041320 1.829050 
# 
# From -- ./inp_files/189598.got.cif
#   From: 2010.05.17/outbox.cif.g08.bks.cpg/sg2_95_cif.got.tgz:189598.got - 2010.06.03 11:33:40.
