data_PCOD9102652
_publ_section_title
;
Structure prediction by ZEFSAII (Michael W. Deem and Ramdas Pophale) SiO2 
 PCOD9102652
Probable space group: P -1
;
_chemical_formula_sum "Si O2"
_cell_formula_units_Z 16
_cell_length_a 7.157306
_cell_length_b 13.868289
_cell_length_c 19.199165
_cell_angle_alpha 149.833445
_cell_angle_beta 43.404870
_cell_angle_gamma 136.975370
_cell_volume 628.124632
_symmetry_space_group_name_H-M "P -1"
_symmetry_group_IT_number 2
_symmetry_cell_setting 'triclinic'
loop_
_space_group_symop_operation_xyz
x,y,z
-x,-y,-z
loop_
_atom_site_type_symbol
_atom_site_label
_atom_site_fract_x
_atom_site_fract_y
_atom_site_fract_z
Si Si1 0.063074 0.838550 0.700701
Si Si2 0.690575 0.475322 0.367467
Si Si3 0.490665 0.051095 0.115615
Si Si4 0.329652 0.274212 0.883849
Si Si5 0.845353 0.279608 0.932407
Si Si6 0.140318 0.210047 0.679612
Si Si7 0.790570 0.210883 0.633639
Si Si8 0.336125 0.535068 0.365063
O O1 0.207807 0.714555 0.533034
O O2 0.913805 0.676633 0.699831
O O3 0.275477 0.057549 0.801281
O O4 0.804709 0.888218 0.760932
O O5 0.500000 0.500000 0.500000
O O6 0.522148 0.519249 0.373063
O O7 0.002188 0.635621 0.379381
O O8 0.714040 0.252115 0.208803
O O9 0.466640 0.853087 0.044098
O O10 0.500000 0.000000 0.000000
O O11 0.016144 0.286215 0.961890
O O12 0.488671 0.243856 0.750958
O O13 0.500000 0.500000 0.000000
O O14 0.937975 0.163253 0.771428
O O15 0.000000 0.500000 0.000000
O O16 0.426150 0.400113 0.718830
O O17 0.946621 0.237579 0.683957
O O18 0.241702 0.015534 0.518946
#
# Coordination Sequence:
#
# PCOD9102652 Si02
#       8
#     2   2   2   2   2   2   2   2
#     4   9  19  37  61  85 112 158 205 246 303 369
#     4  10  21  38  60  88 121 160 204 249 306 371
#     4  10  23  40  63  85 121 166 205 248 307 374
#     4  11  23  40  59  89 125 162 204 255 313 370
#     4  11  25  41  63  91 121 165 215 259 299 374
#     4  10  20  38  63  94 122 155 205 254 309 370
#     4  10  21  37  64  90 124 162 196 254 321 368
#     4   9  18  37  64  87 118 157 201 254 309 366
#
# _framework density 25.472650999999999
#
# number of rings (size 3 to 8) (size 9 to 14) (size 15 to 20)
#    0.000    2.000    1.250    1.500    8.750    0.500 
#    9.000    0.000    0.000    2.250    0.000    0.000 
#    0.000    0.000    0.000    0.000    0.000    0.000 
#
# Total GULP energy -89283.883301 kJ/mol
# GULP energy per Si atom -5580.242706 kJ/mol
# Density = 2.541467 g / cm^3
# Si number density = 25.472651 Si / 1000 Ang^3
#
#
#
# Elastic Constant Matrix: (Units=GPa)
#
#
# Indices 1 2 3 4 5 6 
#
# 1 36.1114 8.6177 -4.2288 8.4699 9.9689 -0.0871
# 2 8.6177 217.9762 42.8269 20.2906 18.4444 -3.5800
# 3 -4.2288 42.8269 69.9321 21.8267 9.8404 -14.2793
# 4 8.4699 20.2906 21.8267 55.2226 -3.6597 4.4355
# 5 9.9689 18.4444 9.8404 -3.6597 25.2667 -5.2047
# 6 -0.0871 -3.5800 -14.2793 4.4355 -5.2047 23.4086
#
#
#
# Elastic Compliance Matrix: (Units=1/GPa)
#
#
# Indices 1 2 3 4 5 6 
#
# 1 0.036420 -0.000666 0.009165 -0.010458 -0.018236 0.003552
# 2 -0.000666 0.005519 -0.003067 -0.000788 -0.003004 -0.001548
# 3 0.009165 -0.003067 0.024855 -0.011938 -0.009733 0.014825
# 4 -0.010458 -0.000788 -0.011938 0.026256 0.011105 -0.009948
# 5 -0.018236 -0.003004 -0.009733 0.011105 0.055125 0.003688
# 6 0.003552 -0.001548 0.014825 -0.009948 0.003688 0.054244
#
#
# Mechanical properties :
#
#
# Convention : Reuss Voigt Hill
#
# Bulk Modulus (GPa) = 12.87696 46.49458 29.68577
# Shear Modulus (GPa) = 22.99489 39.23316 31.11402
#
# Velocity S-wave (km/s) = 3.00780 3.92880 3.49874
# Velocity P-wave (km/s) = 4.13868 6.23483 5.29158
#
# Compressibility (1/GPa) = 0.07765808
#
# Stress axis : x y z
#
# Youngs Moduli (GPa) = 27.45746 181.19880 40.23336
#
# Poissons Ratio (x) = 0.12063 -0.36875
# Poissons Ratio (y) = 0.01828 0.12341
# Poissons Ratio (z) = -0.25166 0.55582
#
# Static dielectric constant tensor:
#      x y z
#    x 2.091160 0.036830 -0.055430 
#    y 0.036830 2.088170 0.131770 
#    z -0.055430 0.131770 2.009090 
# 
# From -- ./inp_files/590304.got.cif
#   From: 2010.05.17/outbox.cif.g08.bks.cpg/sg2_296_cif.got.tgz:590304.got - 2010.06.03 11:33:40.
