data_PCOD9102656
_publ_section_title
;
Structure prediction by ZEFSAII (Michael W. Deem and Ramdas Pophale) SiO2 
 PCOD9102656
Probable space group: P -1
;
_chemical_formula_sum "Si O2"
_cell_formula_units_Z 14
_cell_length_a 9.519116
_cell_length_b 15.703339
_cell_length_c 9.074384
_cell_angle_alpha 32.873681
_cell_angle_beta 78.184467
_cell_angle_gamma 57.669790
_cell_volume 526.446452
_symmetry_space_group_name_H-M "P -1"
_symmetry_group_IT_number 2
_symmetry_cell_setting 'triclinic'
loop_
_space_group_symop_operation_xyz
x,y,z
-x,-y,-z
loop_
_atom_site_type_symbol
_atom_site_label
_atom_site_fract_x
_atom_site_fract_y
_atom_site_fract_z
Si Si1 0.600350 0.069608 0.465137
Si Si2 0.848029 0.914066 0.903172
Si Si3 0.021064 0.837060 0.574434
Si Si4 0.988727 0.605667 0.695137
Si Si5 0.379104 0.410945 0.810081
Si Si6 0.208768 0.498650 0.276795
Si Si7 0.381133 0.774288 0.248599
O O1 0.656578 0.005239 0.716778
O O2 0.500000 0.000000 0.500000
O O3 0.811710 0.954530 0.520250
O O4 0.461380 0.319860 0.089212
O O5 0.778056 0.004666 0.951549
O O6 0.921892 0.027471 0.660856
O O7 0.032673 0.665297 0.189046
O O8 0.002206 0.768951 0.519276
O O9 0.171856 0.645255 0.935551
O O10 0.820827 0.650317 0.571791
O O11 0.188779 0.443725 0.794311
O O12 0.000000 0.500000 0.000000
O O13 0.329701 0.627718 0.470611
O O14 0.551131 0.232328 0.920433
O O15 0.416157 0.367331 0.497581
#
# Coordination Sequence:
#
# PCOD9102656 Si02
#       7
#     2   2   2   2   2   2   2
#     4  11  23  39  67  98 130 165 223 281 317 379
#     4  11  22  41  66  95 126 173 222 266 321 385
#     4  10  20  38  63  94 123 168 220 271 320 377
#     4  10  21  39  63  91 127 165 214 273 323 372
#     4  11  23  44  61  99 136 167 218 270 327 393
#     4  10  22  40  62  95 131 167 220 269 324 383
#     4  11  25  41  67  96 136 176 212 264 330 400
#
# _framework density 26.593399000000002
#
# number of rings (size 3 to 8) (size 9 to 14) (size 15 to 20)
#    0.000    1.429    1.429    6.000    6.000    1.714 
#    2.571    5.000    0.000    0.000    0.000    0.000 
#    0.000    0.000    0.000    0.000    0.000    0.000 
#
# Total GULP energy -78410.257547 kJ/mol
# GULP energy per Si atom -5600.732682 kJ/mol
# Density = 2.653287 g / cm^3
# Si number density = 26.593399 Si / 1000 Ang^3
#
#
#
# Elastic Constant Matrix: (Units=GPa)
#
#
# Indices 1 2 3 4 5 6 
#
# 1 146.8184 32.9551 26.4686 7.0292 -9.6949 7.8552
# 2 32.9551 163.5918 13.2186 4.3406 -8.0781 1.0193
# 3 26.4686 13.2186 75.9665 19.8499 -0.7077 6.1266
# 4 7.0292 4.3406 19.8499 22.7489 10.4124 -2.7130
# 5 -9.6949 -8.0781 -0.7077 10.4124 40.0350 -0.8716
# 6 7.8552 1.0193 6.1266 -2.7130 -0.8716 50.0797
#
#
#
# Elastic Compliance Matrix: (Units=1/GPa)
#
#
# Indices 1 2 3 4 5 6 
#
# 1 0.007699 -0.001251 -0.002007 -0.001382 0.001914 -0.000978
# 2 -0.001251 0.006489 -0.000407 -0.001073 0.001280 0.000078
# 3 -0.002007 -0.000407 0.018977 -0.018244 0.004449 -0.002909
# 4 -0.001382 -0.001073 -0.018244 0.069875 -0.018918 0.005927
# 5 0.001914 0.001280 0.004449 -0.018918 0.030669 -0.001362
# 6 -0.000978 0.000078 -0.002909 0.005927 -0.001362 0.020773
#
#
# Mechanical properties :
#
#
# Convention : Reuss Voigt Hill
#
# Bulk Modulus (GPa) = 38.70918 59.07349 48.89134
# Shear Modulus (GPa) = 29.33858 43.48834 36.41346
#
# Velocity S-wave (km/s) = 3.32509 4.04828 3.70438
# Velocity P-wave (km/s) = 5.41564 6.64178 6.05980
#
# Compressibility (1/GPa) = 0.02583366
#
# Stress axis : x y z
#
# Youngs Moduli (GPa) = 129.89128 154.10837 52.69523
#
# Poissons Ratio (x) = 0.19286 0.10575
# Poissons Ratio (y) = 0.16255 0.02146
# Poissons Ratio (z) = 0.26068 0.06276
#
# Static dielectric constant tensor:
#      x y z
#    x 1.992650 0.005480 0.011280 
#    y 0.005480 2.205690 -0.015030 
#    z 0.011280 -0.015030 2.143660 
# 
# From -- ./inp_files/157397.got.cif
#   From: 2010.05.17/outbox.cif.g08.bks.cpg/sg2_79_cif.got.tgz:157397.got - 2010.06.03 11:33:40.
