data_PCOD9102655
_publ_section_title
;
Structure prediction by ZEFSAII (Michael W. Deem and Ramdas Pophale) SiO2 
 PCOD9102655
Probable space group: P -1
;
_chemical_formula_sum "Si O2"
_cell_formula_units_Z 16
_cell_length_a 11.739557
_cell_length_b 9.479874
_cell_length_c 7.511554
_cell_angle_alpha 94.840793
_cell_angle_beta 109.829940
_cell_angle_gamma 61.112242
_cell_volume 685.321727
_symmetry_space_group_name_H-M "P -1"
_symmetry_group_IT_number 2
_symmetry_cell_setting 'triclinic'
loop_
_space_group_symop_operation_xyz
x,y,z
-x,-y,-z
loop_
_atom_site_type_symbol
_atom_site_label
_atom_site_fract_x
_atom_site_fract_y
_atom_site_fract_z
Si Si1 0.347976 0.755250 0.881496
Si Si2 0.725263 0.921855 0.300094
Si Si3 0.778199 0.369215 0.748982
Si Si4 0.501831 0.871399 0.344545
Si Si5 0.483556 0.443722 0.707774
Si Si6 0.202850 0.976639 0.269270
Si Si7 0.020770 0.641347 0.438813
Si Si8 0.088360 0.753485 0.853556
O O1 0.372655 0.624758 0.723563
O O2 0.194662 0.820836 0.885415
O O3 0.352376 0.909605 0.826555
O O4 0.456799 0.650092 0.080312
O O5 0.614841 0.859219 0.261971
O O6 0.873820 0.780120 0.297611
O O7 0.765316 0.970768 0.516567
O O8 0.612342 0.449019 0.681720
O O9 0.817117 0.179994 0.730444
O O10 0.858301 0.412238 0.648024
O O11 0.833083 0.385987 0.974333
O O12 0.550009 0.688207 0.414980
O O13 0.339023 0.939737 0.225058
O O14 0.500000 0.000000 0.500000
O O15 0.060656 0.120237 0.138344
O O16 0.063866 0.707058 0.640740
O O17 0.000000 0.500000 0.500000
#
# Coordination Sequence:
#
# PCOD9102655 Si02
#       8
#     2   2   2   2   2   2   2   2
#     4  10  20  38  63  94 123 165 209 260 317 367
#     4  10  21  38  60  90 125 166 205 255 317 374
#     4  10  20  40  64  89 118 167 206 255 319 358
#     4   9  19  37  58  83 127 161 202 253 313 366
#     4   9  21  39  62  92 127 161 214 260 305 382
#     4   9  18  37  60  94 119 155 210 258 302 373
#     4  11  25  41  60  93 127 163 210 261 313 379
#     4  10  21  38  65  88 125 157 207 266 302 374
#
# _framework density 23.346698
#
# number of rings (size 3 to 8) (size 9 to 14) (size 15 to 20)
#    0.000    2.250    0.000    1.875    1.750    5.000 
#    9.000    3.750    0.000    0.000    0.000    0.000 
#    0.000    0.000    0.000    0.000    0.000    0.000 
#
# Total GULP energy -89330.175612 kJ/mol
# GULP energy per Si atom -5583.135976 kJ/mol
# Density = 2.329356 g / cm^3
# Si number density = 23.346698 Si / 1000 Ang^3
#
#
#
# Elastic Constant Matrix: (Units=GPa)
#
#
# Indices 1 2 3 4 5 6 
#
# 1 168.9726 51.4620 41.9231 -24.4914 -9.9894 4.9032
# 2 51.4620 94.1806 18.1647 -24.1678 -6.0360 9.1308
# 3 41.9231 18.1647 53.0633 -7.9167 -1.4092 9.0733
# 4 -24.4914 -24.1678 -7.9167 28.4854 -2.0378 -6.9061
# 5 -9.9894 -6.0360 -1.4092 -2.0378 31.0566 -2.0017
# 6 4.9032 9.1308 9.0733 -6.9061 -2.0017 41.3069
#
#
#
# Elastic Compliance Matrix: (Units=1/GPa)
#
#
# Indices 1 2 3 4 5 6 
#
# 1 0.008855 -0.002620 -0.005656 0.004389 0.002475 0.001624
# 2 -0.002620 0.015199 -0.001381 0.010230 0.002662 -0.000906
# 3 -0.005656 -0.001381 0.024463 -0.000427 -0.001298 -0.004531
# 4 0.004389 0.010230 -0.000427 0.049373 0.007001 0.005905
# 5 0.002475 0.002662 -0.001298 0.007001 0.034056 0.002224
# 6 0.001624 -0.000906 -0.004531 0.005905 0.002224 0.026307
#
#
# Mechanical properties :
#
#
# Convention : Reuss Voigt Hill
#
# Bulk Modulus (GPa) = 34.24322 59.92401 47.08361
# Shear Modulus (GPa) = 26.69482 33.81424 30.25453
#
# Velocity S-wave (km/s) = 3.38510 3.80985 3.60374
# Velocity P-wave (km/s) = 5.47518 6.71387 6.12592
#
# Compressibility (1/GPa) = 0.02920286
#
# Stress axis : x y z
#
# Youngs Moduli (GPa) = 112.93395 65.79189 40.87748
#
# Poissons Ratio (x) = 0.17238 0.23120
# Poissons Ratio (y) = 0.29589 0.05646
# Poissons Ratio (z) = 0.63876 0.09088
#
# Static dielectric constant tensor:
#      x y z
#    x 1.867710 -0.007940 0.009580 
#    y -0.007940 1.942570 0.065270 
#    z 0.009580 0.065270 2.031700 
# 
# From -- ./inp_files/243619.got.cif
#   From: 2010.05.17/outbox.cif.g08.bks.cpg/sg2_122_cif.got.tgz:243619.got - 2010.06.03 11:33:40.
