data_PCOD9102660
_publ_section_title
;
Structure prediction by ZEFSAII (Michael W. Deem and Ramdas Pophale) SiO2 
 PCOD9102660
Probable space group: P -1
;
_chemical_formula_sum "Si O2"
_cell_formula_units_Z 14
_cell_length_a 13.980084
_cell_length_b 8.417402
_cell_length_c 8.683550
_cell_angle_alpha 92.045221
_cell_angle_beta 132.441303
_cell_angle_gamma 61.130602
_cell_volume 590.084067
_symmetry_space_group_name_H-M "P -1"
_symmetry_group_IT_number 2
_symmetry_cell_setting 'triclinic'
loop_
_space_group_symop_operation_xyz
x,y,z
-x,-y,-z
loop_
_atom_site_type_symbol
_atom_site_label
_atom_site_fract_x
_atom_site_fract_y
_atom_site_fract_z
Si Si1 0.893413 0.679801 0.765927
Si Si2 0.550804 0.650923 0.728678
Si Si3 0.613809 0.955443 0.270364
Si Si4 0.750994 0.330865 0.695715
Si Si5 0.151923 0.538893 0.769918
Si Si6 0.881916 0.944628 0.007760
Si Si7 0.851486 0.837710 0.293413
O O1 0.031421 0.624681 0.790051
O O2 0.736340 0.744202 0.492805
O O3 0.828941 0.875100 0.804859
O O4 0.000000 0.500000 0.000000
O O5 0.494590 0.871065 0.715675
O O6 0.658651 0.547656 0.686565
O O7 0.394280 0.655253 0.545028
O O8 0.675016 0.518036 0.999076
O O9 0.743479 0.975036 0.325734
O O10 0.500000 0.000000 0.000000
O O11 0.918029 0.228332 0.777133
O O12 0.821582 0.164798 0.904572
O O13 0.171463 0.337245 0.742061
O O14 0.045119 0.711494 0.533790
O O15 0.807026 0.944554 0.086269
#
# Coordination Sequence:
#
# PCOD9102660 Si02
#       7
#     2   2   2   2   2   2   2
#     4  11  21  38  67  97 125 169 218 267 321 388
#     4  11  21  42  64  90 127 172 208 265 329 372
#     4  11  23  41  64  98 138 165 201 272 342 385
#     4  10  24  41  65  89 127 172 222 269 302 373
#     4  10  20  38  63  94 128 165 205 269 335 382
#     4  11  21  42  65  94 120 173 229 258 309 387
#     4  10  22  38  64  96 130 165 209 266 331 395
#
# _framework density 23.725434
#
# number of rings (size 3 to 8) (size 9 to 14) (size 15 to 20)
#    0.000    1.429    5.714    0.000    0.000    0.000 
#    2.571    9.286    0.000    0.000    0.000    0.000 
#    0.000    0.000    0.000    0.000    0.000    0.000 
#
# Total GULP energy -78063.412042 kJ/mol
# GULP energy per Si atom -5575.958003 kJ/mol
# Density = 2.367143 g / cm^3
# Si number density = 23.725434 Si / 1000 Ang^3
#
#
#
# Elastic Constant Matrix: (Units=GPa)
#
#
# Indices 1 2 3 4 5 6 
#
# 1 49.2950 15.0433 24.0510 -7.1064 -18.3555 -15.3818
# 2 15.0433 81.9891 26.6165 -9.6464 -11.5296 -20.1696
# 3 24.0510 26.6165 186.1060 1.8339 27.0687 -3.2931
# 4 -7.1064 -9.6464 1.8339 21.4589 0.4708 6.1230
# 5 -18.3555 -11.5296 27.0687 0.4708 52.0184 3.3873
# 6 -15.3818 -20.1696 -3.2931 6.1230 3.3873 18.2995
#
#
#
# Elastic Compliance Matrix: (Units=1/GPa)
#
#
# Indices 1 2 3 4 5 6 
#
# 1 0.040859 0.007229 -0.008386 0.007088 0.018034 0.035092
# 2 0.007229 0.019935 -0.004522 0.004653 0.007701 0.024252
# 3 -0.008386 -0.004522 0.008097 -0.003006 -0.007616 -0.008160
# 4 0.007088 0.004653 -0.003006 0.053560 0.005155 -0.008330
# 5 0.018034 0.007701 -0.007616 0.005155 0.030237 0.014954
# 6 0.035092 0.024252 -0.008160 -0.008330 0.014954 0.109424
#
#
# Mechanical properties :
#
#
# Convention : Reuss Voigt Hill
#
# Bulk Modulus (GPa) = 17.38180 49.86795 33.62487
# Shear Modulus (GPa) = 17.08533 35.13397 26.10965
#
# Velocity S-wave (km/s) = 2.68643 3.85236 3.32097
# Velocity P-wave (km/s) = 4.11882 6.39156 5.37665
#
# Compressibility (1/GPa) = 0.05753144
#
# Stress axis : x y z
#
# Youngs Moduli (GPa) = 24.47446 50.16334 123.50653
#
# Poissons Ratio (x) = -0.36261 1.03573
# Poissons Ratio (y) = -0.17691 0.55850
# Poissons Ratio (z) = 0.20524 0.22684
#
# Static dielectric constant tensor:
#      x y z
#    x 1.888060 -0.027520 0.072210 
#    y -0.027520 2.010740 -0.001370 
#    z 0.072210 -0.001370 1.963290 
# 
# From -- ./inp_files/155303.got.cif
#   From: 2010.05.17/outbox.cif.g08.bks.cpg/sg2_78_cif.got.tgz:155303.got - 2010.06.03 11:33:40.
