data_PCOD9102499
_publ_section_title
;
Structure prediction by ZEFSAII (Michael W. Deem and Ramdas Pophale) SiO2 
 PCOD9102499
Probable space group: P -1
;
_chemical_formula_sum "Si O2"
_cell_formula_units_Z 16
_cell_length_a 14.902828
_cell_length_b 9.497238
_cell_length_c 12.180518
_cell_angle_alpha 75.294106
_cell_angle_beta 60.363134
_cell_angle_gamma 124.744715
_cell_volume 814.344692
_symmetry_space_group_name_H-M "P -1"
_symmetry_group_IT_number 2
_symmetry_cell_setting 'triclinic'
loop_
_space_group_symop_operation_xyz
x,y,z
-x,-y,-z
loop_
_atom_site_type_symbol
_atom_site_label
_atom_site_fract_x
_atom_site_fract_y
_atom_site_fract_z
Si Si1 0.144938 0.515914 0.344944
Si Si2 0.139306 0.602613 0.556258
Si Si3 0.755557 0.554842 0.909237
Si Si4 0.175878 0.373438 0.728546
Si Si5 0.607184 0.839849 0.664090
Si Si6 0.438524 0.274529 0.533216
Si Si7 0.961069 0.112768 0.137291
Si Si8 0.853773 0.940455 0.653332
O O1 0.243722 0.682179 0.363009
O O2 0.239353 0.530002 0.190565
O O3 0.049423 0.540225 0.338333
O O4 0.979014 0.223245 0.552675
O O5 0.109646 0.429101 0.683874
O O6 0.255802 0.864741 0.492419
O O7 0.760735 0.733580 0.842664
O O8 0.931552 0.728973 0.845970
O O9 0.571725 0.313113 0.134803
O O10 0.398536 0.640600 0.542650
O O11 0.106674 0.135692 0.771791
O O12 0.095356 0.287800 0.917514
O O13 0.552561 0.711511 0.606090
O O14 0.710155 0.837450 0.674086
O O15 0.500000 0.500000 0.500000
O O16 0.223212 0.006273 0.743835
O O17 0.000000 0.000000 0.500000
#
# Coordination Sequence:
#
# PCOD9102499 Si02
#       8
#     2   2   2   2   2   2   2   2
#     4   9  20  38  59  85 114 154 197 241 291 351
#     4  10  21  39  59  81 120 158 195 235 296 355
#     4  11  20  36  60  88 119 151 197 246 293 350
#     4  10  21  39  62  88 114 157 198 244 291 352
#     4  11  22  37  55  88 123 154 193 245 292 357
#     4  10  21  39  60  86 120 150 195 252 293 337
#     4  10  20  38  63  88 117 147 201 248 296 338
#     4   9  18  34  60  85 109 150 196 242 296 337
#
# _framework density 19.647701999999999
#
# number of rings (size 3 to 8) (size 9 to 14) (size 15 to 20)
#    0.000    2.000    1.250    3.375    0.000    4.000 
#    2.250    1.250    0.000    0.000    0.000    0.000 
#    0.000    0.000    0.000    0.000    0.000    0.000 
#
# Total GULP energy -89200.241584 kJ/mol
# GULP energy per Si atom -5575.015099 kJ/mol
# Density = 1.960298 g / cm^3
# Si number density = 19.647702 Si / 1000 Ang^3
#
#
#
# Elastic Constant Matrix: (Units=GPa)
#
#
# Indices 1 2 3 4 5 6 
#
# 1 88.3773 22.1033 15.5525 -12.9356 7.4791 -9.3674
# 2 22.1033 89.4368 20.1479 20.3494 3.5551 9.7436
# 3 15.5525 20.1479 46.9858 5.1066 -1.3502 -11.0644
# 4 -12.9356 20.3494 5.1066 22.5960 -1.6023 0.2782
# 5 7.4791 3.5551 -1.3502 -1.6023 27.9053 1.0636
# 6 -9.3674 9.7436 -11.0644 0.2782 1.0636 23.2435
#
#
#
# Elastic Compliance Matrix: (Units=1/GPa)
#
#
# Indices 1 2 3 4 5 6 
#
# 1 0.018057 -0.009374 -0.001656 0.018811 -0.003039 0.010333
# 2 -0.009374 0.022586 -0.007966 -0.023806 -0.001481 -0.016685
# 3 -0.001656 -0.007966 0.029242 -0.000428 0.002220 0.016495
# 4 0.018811 -0.023806 -0.000428 0.076482 0.001738 0.016362
# 5 -0.003039 -0.001481 0.002220 0.001738 0.037094 -0.001265
# 6 0.010333 -0.016685 0.016495 0.016362 -0.001265 0.061895
#
#
# Mechanical properties :
#
#
# Convention : Reuss Voigt Hill
#
# Bulk Modulus (GPa) = 31.35639 37.82303 34.58971
# Shear Modulus (GPa) = 17.00807 25.88204 21.44505
#
# Velocity S-wave (km/s) = 2.94539 3.63341 3.30734
# Velocity P-wave (km/s) = 5.24986 6.07409 5.67696
#
# Compressibility (1/GPa) = 0.03189143
#
# Stress axis : x y z
#
# Youngs Moduli (GPa) = 55.38110 44.27601 34.19774
#
# Poissons Ratio (x) = 0.41506 0.05662
# Poissons Ratio (y) = 0.51916 0.27243
# Poissons Ratio (z) = 0.09169 0.35271
#
# Static dielectric constant tensor:
#      x y z
#    x 1.682350 0.008980 -0.027490 
#    y 0.008980 1.719980 0.000250 
#    z -0.027490 0.000250 1.701040 
# 
# From -- ./inp_files/425651.got.cif
#   From: 2010.05.17/outbox.cif.g08.bks.cpg/sg2_213_cif.got.tgz:425651.got - 2010.06.03 11:33:40.
