data_PCOD9102575
_publ_section_title
;
Structure prediction by ZEFSAII (Michael W. Deem and Ramdas Pophale) SiO2 
 PCOD9102575
Probable space group: P -1
;
_chemical_formula_sum "Si O2"
_cell_formula_units_Z 12
_cell_length_a 7.076116
_cell_length_b 12.008929
_cell_length_c 6.530084
_cell_angle_alpha 77.338916
_cell_angle_beta 113.214222
_cell_angle_gamma 89.309028
_cell_volume 494.568548
_symmetry_space_group_name_H-M "P -1"
_symmetry_group_IT_number 2
_symmetry_cell_setting 'triclinic'
loop_
_space_group_symop_operation_xyz
x,y,z
-x,-y,-z
loop_
_atom_site_type_symbol
_atom_site_label
_atom_site_fract_x
_atom_site_fract_y
_atom_site_fract_z
Si Si1 0.099313 0.388681 0.470612
Si Si2 0.092220 0.725330 0.906329
Si Si3 0.343579 0.060954 0.077964
Si Si4 0.019173 0.012640 0.263776
Si Si5 0.639945 0.495986 0.765293
Si Si6 0.316436 0.310271 0.994882
O O1 0.168589 0.448700 0.272044
O O2 0.269969 0.335098 0.725446
O O3 0.000000 0.500000 0.500000
O O4 0.964608 0.297358 0.347558
O O5 0.099706 0.860226 0.882920
O O6 0.284750 0.632808 0.080616
O O7 0.907342 0.699917 0.992089
O O8 0.251825 0.006794 0.269231
O O9 0.425795 0.181737 0.119493
O O10 0.500000 0.000000 0.000000
O O11 0.122115 0.076628 0.859259
O O12 0.000000 0.000000 0.500000
O O13 0.500000 0.500000 0.500000
O O14 0.581800 0.588754 0.883676
#
# Coordination Sequence:
#
# PCOD9102575 Si02
#       6
#     2   2   2   2   2   2
#     4  11  18  36  63  85 119 167 204 248 326 390
#     4  10  20  38  63  91 126 166 213 263 323 397
#     4  10  23  43  65  96 133 172 222 274 325 391
#     4  10  22  43  68  97 128 175 223 274 332 391
#     4  11  23  37  57  96 130 160 210 266 327 390
#     4  10  20  40  64  88 127 169 213 263 325 393
#
# _framework density 24.263570999999999
#
# number of rings (size 3 to 8) (size 9 to 14) (size 15 to 20)
#    0.000    1.667    3.333    2.000    0.000    2.667 
#    3.000    0.000    0.000    0.000    0.000    0.000 
#    0.000    0.000    0.000    0.000    0.000    0.000 
#
# Total GULP energy -66849.352708 kJ/mol
# GULP energy per Si atom -5570.779392 kJ/mol
# Density = 2.420835 g / cm^3
# Si number density = 24.263571 Si / 1000 Ang^3
#
#
#
# Elastic Constant Matrix: (Units=GPa)
#
#
# Indices 1 2 3 4 5 6 
#
# 1 102.1111 44.0276 26.1158 2.4826 -32.4997 -19.8350
# 2 44.0276 145.9479 46.4368 21.5884 -2.2505 -9.7692
# 3 26.1158 46.4368 144.0519 14.2176 -11.1415 -5.9019
# 4 2.4826 21.5884 14.2176 42.0133 4.6492 -6.2754
# 5 -32.4997 -2.2505 -11.1415 4.6492 46.1060 6.0150
# 6 -19.8350 -9.7692 -5.9019 -6.2754 6.0150 32.2644
#
#
#
# Elastic Compliance Matrix: (Units=1/GPa)
#
#
# Indices 1 2 3 4 5 6 
#
# 1 0.016367 -0.004313 -0.000645 0.001397 0.010113 0.007024
# 2 -0.004313 0.009273 -0.002079 -0.003574 -0.002675 -0.000420
# 3 -0.000645 -0.002079 0.008023 -0.001816 0.001593 -0.000209
# 4 0.001397 -0.003574 -0.001816 0.027307 -0.003077 0.005330
# 5 0.010113 -0.002675 0.001593 -0.003077 0.029433 -0.000387
# 6 0.007024 -0.000420 -0.000209 0.005330 -0.000387 0.036256
#
#
# Mechanical properties :
#
#
# Convention : Reuss Voigt Hill
#
# Bulk Modulus (GPa) = 51.04547 69.47458 60.26002
# Shear Modulus (GPa) = 33.95299 42.44546 38.19922
#
# Velocity S-wave (km/s) = 3.74483 4.18706 3.97211
# Velocity P-wave (km/s) = 6.30729 7.21601 6.77690
#
# Compressibility (1/GPa) = 0.01959038
#
# Stress axis : x y z
#
# Youngs Moduli (GPa) = 61.09810 107.83461 124.64275
#
# Poissons Ratio (x) = 0.46507 0.08038
# Poissons Ratio (y) = 0.26350 0.25912
# Poissons Ratio (z) = 0.03940 0.22418
#
# Static dielectric constant tensor:
#      x y z
#    x 2.150470 0.092100 -0.091150 
#    y 0.092100 2.144900 -0.025650 
#    z -0.091150 -0.025650 2.041200 
# 
# From -- ./inp_files/24805.got.cif
#   From: 2010.05.17/outbox.cif.g08.bks.cpg/sg2_13_cif.got.tgz:24805.got - 2010.06.03 11:33:40.
