data_PCOD9102628
_publ_section_title
;
Structure prediction by ZEFSAII (Michael W. Deem and Ramdas Pophale) SiO2 
 PCOD9102628
Probable space group: P -1
;
_chemical_formula_sum "Si O2"
_cell_formula_units_Z 16
_cell_length_a 13.691953
_cell_length_b 9.042439
_cell_length_c 12.312307
_cell_angle_alpha 147.617161
_cell_angle_beta 130.600498
_cell_angle_gamma 52.337593
_cell_volume 612.760092
_symmetry_space_group_name_H-M "P -1"
_symmetry_group_IT_number 2
_symmetry_cell_setting 'triclinic'
loop_
_space_group_symop_operation_xyz
x,y,z
-x,-y,-z
loop_
_atom_site_type_symbol
_atom_site_label
_atom_site_fract_x
_atom_site_fract_y
_atom_site_fract_z
Si Si1 0.892076 0.472220 0.494026
Si Si2 0.708414 0.538125 0.692736
Si Si3 0.187089 0.705792 0.991648
Si Si4 0.322378 0.363703 0.714937
Si Si5 0.859275 0.031059 0.356617
Si Si6 0.531808 0.092079 0.845397
Si Si7 0.341343 0.386997 0.057845
Si Si8 0.074700 0.195462 0.059513
O O1 0.755512 0.637186 0.453440
O O2 0.876038 0.161771 0.329292
O O3 0.931605 0.601293 0.714113
O O4 0.000000 0.500000 0.500000
O O5 0.753305 0.256788 0.484067
O O6 0.844707 0.660201 0.878305
O O7 0.616556 0.788320 0.720229
O O8 0.643595 0.519276 0.750623
O O9 0.149010 0.917352 0.995694
O O10 0.212321 0.414023 0.761351
O O11 0.317212 0.654962 0.126782
O O12 0.076787 0.811029 0.066946
O O13 0.431709 0.128884 0.695182
O O14 0.386087 0.649872 0.939934
O O15 0.790579 0.756554 0.130152
O O16 0.000000 0.000000 0.500000
O O17 0.453142 0.165120 0.946751
#
# Coordination Sequence:
#
# PCOD9102628 Si02
#       8
#     2   2   2   2   2   2   2   2
#     4  11  22  39  67  97 127 168 211 277 337 384
#     4  11  23  43  65  94 135 177 222 275 327 394
#     4  10  20  38  63  93 124 171 214 272 331 393
#     4  10  20  40  69  96 128 167 221 280 328 385
#     4  11  27  43  65 102 139 172 222 276 339 402
#     4  10  22  41  70  93 132 182 226 267 324 398
#     4  11  24  43  67  93 134 181 224 266 335 395
#     4  10  21  36  62  96 129 160 223 268 334 396
#
# _framework density 26.111360999999999
#
# number of rings (size 3 to 8) (size 9 to 14) (size 15 to 20)
#    0.000    1.500    2.500    2.625    1.750    3.500 
#    0.000    3.750    2.750    0.000    0.000    0.000 
#    0.000    0.000    0.000    0.000    0.000    0.000 
#
# Total GULP energy -89332.758480 kJ/mol
# GULP energy per Si atom -5583.297405 kJ/mol
# Density = 2.605193 g / cm^3
# Si number density = 26.111361 Si / 1000 Ang^3
#
#
#
# Elastic Constant Matrix: (Units=GPa)
#
#
# Indices 1 2 3 4 5 6 
#
# 1 125.9265 32.8312 15.5362 -3.9460 -9.5599 1.8367
# 2 32.8312 132.7574 23.1327 5.2876 -14.4951 -11.5103
# 3 15.5362 23.1327 54.9088 7.6388 6.7682 0.6066
# 4 -3.9460 5.2876 7.6388 30.9330 1.7674 -6.1501
# 5 -9.5599 -14.4951 6.7682 1.7674 26.5328 0.9980
# 6 1.8367 -11.5103 0.6066 -6.1501 0.9980 49.0297
#
#
#
# Elastic Compliance Matrix: (Units=1/GPa)
#
#
# Indices 1 2 3 4 5 6 
#
# 1 0.008938 -0.001582 -0.002456 0.001750 0.002886 -0.000515
# 2 -0.001582 0.009478 -0.004168 -0.000690 0.005637 0.002135
# 3 -0.002456 -0.004168 0.022419 -0.004973 -0.008489 -0.001615
# 4 0.001750 -0.000690 -0.004973 0.034790 -0.000954 0.004217
# 5 0.002886 0.005637 -0.008489 -0.000954 0.044026 0.000304
# 6 -0.000515 0.002135 -0.001615 0.004217 0.000304 0.021459
#
#
# Mechanical properties :
#
#
# Convention : Reuss Voigt Hill
#
# Bulk Modulus (GPa) = 40.94391 50.73256 45.83824
# Shear Modulus (GPa) = 30.18190 37.43859 33.81025
#
# Velocity S-wave (km/s) = 3.40353 3.79067 3.60230
# Velocity P-wave (km/s) = 5.58210 6.21533 5.90721
#
# Compressibility (1/GPa) = 0.02442365
#
# Stress axis : x y z
#
# Youngs Moduli (GPa) = 111.88274 105.50791 44.60529
#
# Poissons Ratio (x) = 0.16688 0.10955
# Poissons Ratio (y) = 0.17696 0.18591
# Poissons Ratio (z) = 0.27479 0.43974
#
# Static dielectric constant tensor:
#      x y z
#    x 2.220350 0.039790 0.058730 
#    y 0.039790 2.084700 0.033910 
#    z 0.058730 0.033910 2.114890 
# 
# From -- ./inp_files/187650.got.cif
#   From: 2010.05.17/outbox.cif.g08.bks.cpg/sg2_94_cif.got.tgz:187650.got - 2010.06.03 11:33:40.
