data_PCOD9102286
_publ_section_title
;
Structure prediction by ZEFSAII (Michael W. Deem and Ramdas Pophale) SiO2 
 PCOD9102286
Probable space group: P -1
;
_chemical_formula_sum "Si O2"
_cell_formula_units_Z 16
_cell_length_a 26.712990
_cell_length_b 13.873548
_cell_length_c 6.149147
_cell_angle_alpha 130.821672
_cell_angle_beta 51.032530
_cell_angle_gamma 156.150465
_cell_volume 693.712415
_symmetry_space_group_name_H-M "P -1"
_symmetry_group_IT_number 2
_symmetry_cell_setting 'triclinic'
loop_
_space_group_symop_operation_xyz
x,y,z
-x,-y,-z
loop_
_atom_site_type_symbol
_atom_site_label
_atom_site_fract_x
_atom_site_fract_y
_atom_site_fract_z
Si Si1 0.256738 0.308516 0.255247
Si Si2 0.275466 0.198648 0.447870
Si Si3 0.509442 0.454921 0.150962
Si Si4 0.342881 0.684303 0.281600
Si Si5 0.928625 0.147750 0.135640
Si Si6 0.796538 0.376452 0.733394
Si Si7 0.130499 0.745881 0.885803
Si Si8 0.592421 0.985645 0.073731
O O1 0.284975 0.339383 0.477552
O O2 0.285411 0.487660 0.321113
O O3 0.347746 0.354130 0.968233
O O4 0.115150 0.028598 0.183908
O O5 0.414149 0.394750 0.442279
O O6 0.166486 0.032961 0.673582
O O7 0.219810 0.988760 0.141116
O O8 0.500000 0.500000 0.000000
O O9 0.438125 0.202372 0.019689
O O10 0.254507 0.583987 0.185488
O O11 0.380108 0.870734 0.594839
O O12 0.467797 0.828332 0.067583
O O13 0.902473 0.238244 0.225386
O O14 0.068412 0.373971 0.165007
O O15 0.808538 0.284519 0.387377
O O16 0.703054 0.172100 0.874681
O O17 0.000000 0.500000 0.000000
#
# Coordination Sequence:
#
# PCOD9102286 Si02
#       8
#     2   2   2   2   2   2   2   2
#     4   9  22  41  58  88 125 164 212 256 304 364
#     4  10  20  38  62  90 125 162 206 256 314 369
#     4   9  18  37  65  90 120 158 200 254 315 365
#     4  10  23  43  64  90 125 166 212 260 305 362
#     4  11  24  38  60  92 125 164 207 254 312 372
#     4  12  24  37  65  94 125 165 207 254 312 373
#     4  11  23  38  61  91 128 157 199 257 313 373
#     4  10  22  41  66  94 125 158 211 261 309 366
#
# _framework density 23.064312000000001
#
# number of rings (size 3 to 8) (size 9 to 14) (size 15 to 20)
#    0.000    1.750    1.250    2.250    3.500    2.000 
#    0.000   13.750    0.000    0.000    0.000    0.000 
#    0.000    0.000    0.000    0.000    0.000    0.000 
#
# Total GULP energy -89399.627927 kJ/mol
# GULP energy per Si atom -5587.476745 kJ/mol
# Density = 2.301182 g / cm^3
# Si number density = 23.064312 Si / 1000 Ang^3
#
#
#
# Elastic Constant Matrix: (Units=GPa)
#
#
# Indices 1 2 3 4 5 6 
#
# 1 156.4482 69.3910 5.2686 0.9479 -2.5844 15.9496
# 2 69.3910 125.6671 14.9855 -18.2548 1.1337 -3.8118
# 3 5.2686 14.9855 39.5712 -13.7420 -10.8636 0.2157
# 4 0.9479 -18.2548 -13.7420 50.5206 -1.2776 10.4556
# 5 -2.5844 1.1337 -10.8636 -1.2776 15.0120 2.7210
# 6 15.9496 -3.8118 0.2157 10.4556 2.7210 40.3947
#
#
#
# Elastic Compliance Matrix: (Units=1/GPa)
#
#
# Indices 1 2 3 4 5 6 
#
# 1 0.009348 -0.005647 0.001768 -0.000740 0.004034 -0.004314
# 2 -0.005647 0.012117 -0.004507 0.002472 -0.005506 0.003128
# 3 0.001768 -0.004507 0.039149 0.011074 0.031058 -0.006291
# 4 -0.000740 0.002472 0.011074 0.025414 0.011106 -0.006860
# 5 0.004034 -0.005506 0.031058 0.011106 0.093216 -0.011432
# 6 -0.004314 0.003128 -0.006291 -0.006860 -0.011432 0.029333
#
#
# Mechanical properties :
#
#
# Convention : Reuss Voigt Hill
#
# Bulk Modulus (GPa) = 22.80966 55.66405 39.23685
# Shear Modulus (GPa) = 20.83646 36.65491 28.74569
#
# Velocity S-wave (km/s) = 3.00893 3.99086 3.53417
# Velocity P-wave (km/s) = 4.68856 6.73963 5.80540
#
# Compressibility (1/GPa) = 0.04384108
#
# Stress axis : x y z
#
# Youngs Moduli (GPa) = 106.97353 82.52875 25.54353
#
# Poissons Ratio (x) = 0.46608 -0.04516
# Poissons Ratio (y) = 0.60413 0.11512
# Poissons Ratio (z) = -0.18912 0.37195
#
# Static dielectric constant tensor:
#      x y z
#    x 1.888390 0.018840 0.041210 
#    y 0.018840 1.824990 0.007710 
#    z 0.041210 0.007710 1.921280 
# 
# From -- ./inp_files/123763.got.cif
#   From: 2010.05.17/outbox.cif.g08.bks.cpg/sg2_62_cif.got.tgz:123763.got - 2010.06.03 11:33:40.
