data_PCOD9102178
_publ_section_title
;
Structure prediction by ZEFSAII (Michael W. Deem and Ramdas Pophale) SiO2 
 PCOD9102178
Probable space group: P -1
;
_chemical_formula_sum "Si O2"
_cell_formula_units_Z 16
_cell_length_a 5.321309
_cell_length_b 15.352643
_cell_length_c 22.977966
_cell_angle_alpha 34.404216
_cell_angle_beta 132.190675
_cell_angle_gamma 107.312817
_cell_volume 621.040122
_symmetry_space_group_name_H-M "P -1"
_symmetry_group_IT_number 2
_symmetry_cell_setting 'triclinic'
loop_
_space_group_symop_operation_xyz
x,y,z
-x,-y,-z
loop_
_atom_site_type_symbol
_atom_site_label
_atom_site_fract_x
_atom_site_fract_y
_atom_site_fract_z
Si Si1 0.390515 0.010567 0.544799
Si Si2 0.583987 0.721969 0.969960
Si Si3 0.052279 0.414575 0.118591
Si Si4 0.622128 0.280519 0.867764
Si Si5 0.791191 0.428017 0.265666
Si Si6 0.130731 0.145689 0.674808
Si Si7 0.452285 0.435710 0.631473
Si Si8 0.953168 0.126109 0.790321
O O1 0.790709 0.802946 0.745937
O O2 0.500000 0.000000 0.500000
O O3 0.000000 0.000000 0.500000
O O4 0.223719 0.220159 0.428265
O O5 0.601053 0.607989 0.091945
O O6 0.670998 0.580952 0.008452
O O7 0.976580 0.730511 0.039899
O O8 0.206039 0.950141 0.774294
O O9 0.442625 0.388748 0.228433
O O10 0.000000 0.500000 0.000000
O O11 0.225866 0.480020 0.726310
O O12 0.605850 0.296270 0.787481
O O13 0.714095 0.082666 0.012564
O O14 0.514500 0.144197 0.708857
O O15 0.685514 0.359466 0.478429
O O16 0.137272 0.125981 0.757178
O O17 0.796946 0.314275 0.701024
O O18 0.000000 0.500000 0.500000
#
# Coordination Sequence:
#
# PCOD9102178 Si02
#       8
#     2   2   2   2   2   2   2   2
#     4  10  20  38  62  87 121 161 201 245 295 359
#     4  10  20  39  60  86 122 160 201 246 297 367
#     4  10  22  38  62  91 121 157 201 251 303 353
#     4  10  21  39  62  88 115 164 208 242 301 366
#     4  10  20  39  63  83 123 159 202 247 295 365
#     4  10  21  39  62  88 124 158 198 253 309 353
#     4  10  22  41  60  89 124 155 200 260 305 351
#     4  10  20  40  62  87 118 163 204 247 300 367
#
# _framework density 25.763228000000002
#
# number of rings (size 3 to 8) (size 9 to 14) (size 15 to 20)
#    0.000    2.000    2.500    0.750    0.000    1.500 
#    9.000    5.000    0.000    0.000    0.000    0.000 
#    0.000    0.000    0.000    0.000    0.000    0.000 
#
# Total GULP energy -89464.230913 kJ/mol
# GULP energy per Si atom -5591.514432 kJ/mol
# Density = 2.570459 g / cm^3
# Si number density = 25.763228 Si / 1000 Ang^3
#
#
#
# Elastic Constant Matrix: (Units=GPa)
#
#
# Indices 1 2 3 4 5 6 
#
# 1 74.8241 26.4384 15.4029 -5.0739 5.6211 1.9081
# 2 26.4384 127.9501 2.2399 -34.0916 7.7631 10.8429
# 3 15.4029 2.2399 112.4840 -35.7224 1.8823 5.3125
# 4 -5.0739 -34.0916 -35.7224 54.0290 -7.8423 -8.5660
# 5 5.6211 7.7631 1.8823 -7.8423 52.3124 0.4782
# 6 1.9081 10.8429 5.3125 -8.5660 0.4782 49.1192
#
#
#
# Elastic Compliance Matrix: (Units=1/GPa)
#
#
# Indices 1 2 3 4 5 6 
#
# 1 0.015238 -0.003863 -0.003002 -0.003193 -0.001435 0.000043
# 2 -0.003863 0.010870 0.003000 0.008293 -0.000052 -0.001127
# 3 -0.003002 0.003000 0.012379 0.009903 0.000918 -0.000167
# 4 -0.003193 0.008293 0.009903 0.030886 0.003363 0.002576
# 5 -0.001435 -0.000052 0.000918 0.003363 0.019746 0.000362
# 6 0.000043 -0.001127 -0.000167 0.002576 0.000362 0.021069
#
#
# Mechanical properties :
#
#
# Convention : Reuss Voigt Hill
#
# Bulk Modulus (GPa) = 32.51249 44.82451 38.66850
# Shear Modulus (GPa) = 39.01116 49.17059 44.09087
#
# Velocity S-wave (km/s) = 3.89552 4.37344 4.14138
# Velocity P-wave (km/s) = 5.73416 6.55279 6.15709
#
# Compressibility (1/GPa) = 0.03075741
#
# Stress axis : x y z
#
# Youngs Moduli (GPa) = 65.62608 91.99885 80.78325
#
# Poissons Ratio (x) = 0.35542 0.24248
# Poissons Ratio (y) = 0.25353 -0.24239
# Poissons Ratio (z) = 0.19698 -0.27604
#
# Static dielectric constant tensor:
#      x y z
#    x 2.078080 0.063080 0.059910 
#    y 0.063080 2.026740 -0.042250 
#    z 0.059910 -0.042250 2.024040 
# 
# From -- ./inp_files/39517.got.cif
#   From: 2010.05.17/outbox.cif.g08.bks.cpg/sg2_20_cif.got.tgz:39517.got - 2010.06.03 11:33:40.
