data_PCOD9102106
_publ_section_title
;
Structure prediction by ZEFSAII (Michael W. Deem and Ramdas Pophale) SiO2 
 PCOD9102106
Probable space group: P -1
;
_chemical_formula_sum "Si O2"
_cell_formula_units_Z 12
_cell_length_a 9.396502
_cell_length_b 13.041177
_cell_length_c 13.376759
_cell_angle_alpha 53.037235
_cell_angle_beta 150.164598
_cell_angle_gamma 106.907396
_cell_volume 530.578629
_symmetry_space_group_name_H-M "P -1"
_symmetry_group_IT_number 2
_symmetry_cell_setting 'triclinic'
loop_
_space_group_symop_operation_xyz
x,y,z
-x,-y,-z
loop_
_atom_site_type_symbol
_atom_site_label
_atom_site_fract_x
_atom_site_fract_y
_atom_site_fract_z
Si Si1 0.522545 0.373286 0.310419
Si Si2 0.519849 0.116797 0.370170
Si Si3 0.312280 0.892725 0.011254
Si Si4 0.485942 0.573919 0.343878
Si Si5 0.986828 0.602319 0.522978
Si Si6 0.837992 0.920532 0.007385
O O1 0.500000 0.500000 0.500000
O O2 0.938545 0.034059 0.658451
O O3 0.872549 0.538603 0.580523
O O4 0.852307 0.236381 0.657203
O O5 0.353752 0.120426 0.162728
O O6 0.350277 0.286472 0.219092
O O7 0.500000 0.000000 0.500000
O O8 0.254959 0.762681 0.093730
O O9 0.647398 0.786148 0.206384
O O10 0.401315 0.957154 0.122805
O O11 0.630147 0.483954 0.787523
O O12 0.000000 0.500000 0.500000
O O13 0.663985 0.407868 0.276624
O O14 0.000000 0.000000 0.000000
#
# Coordination Sequence:
#
# PCOD9102106 Si02
#       6
#     2   2   2   2   2   2
#     4  10  20  38  62  83 121 156 191 243 293 339
#     4  11  22  35  57  89 123 151 193 242 292 348
#     4   9  20  37  61  84 119 149 198 234 296 339
#     4   9  18  34  65  87 109 154 198 238 290 342
#     4   8  18  37  62  85 118 155 192 239 295 344
#     4  11  20  36  58  85 118 153 194 240 289 345
#
# _framework density 22.616816
#
# number of rings (size 3 to 8) (size 9 to 14) (size 15 to 20)
#    1.000    1.333    3.333    1.000    0.000    2.667 
#    0.000    5.833    0.000    4.000    0.000    0.000 
#    0.000    0.000    0.000    0.000    0.000    0.000 
#
# Total GULP energy -66865.485579 kJ/mol
# GULP energy per Si atom -5572.123798 kJ/mol
# Density = 2.256534 g / cm^3
# Si number density = 22.616816 Si / 1000 Ang^3
#
#
#
# Elastic Constant Matrix: (Units=GPa)
#
#
# Indices 1 2 3 4 5 6 
#
# 1 120.8240 22.1622 9.1513 0.9289 3.1204 7.3332
# 2 22.1622 179.2453 39.8503 16.8107 -0.3852 -9.3422
# 3 9.1513 39.8503 48.5709 10.7874 -2.6309 -20.0203
# 4 0.9289 16.8107 10.7874 40.0445 -2.7599 4.5092
# 5 3.1204 -0.3852 -2.6309 -2.7599 25.2174 -6.2937
# 6 7.3332 -9.3422 -20.0203 4.5092 -6.2937 40.6445
#
#
#
# Elastic Compliance Matrix: (Units=1/GPa)
#
#
# Indices 1 2 3 4 5 6 
#
# 1 0.008914 -0.000748 -0.002983 0.001177 -0.002227 -0.003725
# 2 -0.000748 0.007032 -0.005846 -0.001292 -0.000829 -0.001113
# 3 -0.002983 -0.005846 0.036295 -0.008881 0.007907 0.019282
# 4 0.001177 -0.001292 -0.008881 0.028791 0.000045 -0.008071
# 5 -0.002227 -0.000829 0.007907 0.000045 0.043451 0.010829
# 6 -0.003725 -0.001113 0.019282 -0.008071 0.010829 0.037090
#
#
# Mechanical properties :
#
#
# Convention : Reuss Voigt Hill
#
# Bulk Modulus (GPa) = 30.22245 54.55197 42.38721
# Shear Modulus (GPa) = 26.07470 39.67969 32.87720
#
# Velocity S-wave (km/s) = 3.39911 4.19314 3.81683
# Velocity P-wave (km/s) = 5.36629 6.90041 6.18113
#
# Compressibility (1/GPa) = 0.03308799
#
# Stress axis : x y z
#
# Youngs Moduli (GPa) = 112.18015 142.19814 27.55201
#
# Poissons Ratio (x) = 0.10641 0.08219
# Poissons Ratio (y) = 0.08394 0.16106
# Poissons Ratio (z) = 0.33463 0.83122
#
# Static dielectric constant tensor:
#      x y z
#    x 1.928770 0.041860 0.069060 
#    y 0.041860 1.910730 -0.004980 
#    z 0.069060 -0.004980 1.867020 
# 
# From -- ./inp_files/390106.got.cif
#   From: 2010.05.17/outbox.cif.g08.bks.cpg/sg2_196_cif.got.tgz:390106.got - 2010.06.03 11:33:40.
