data_PCOD9102971
_publ_section_title
;
Structure prediction by ZEFSAII (Michael W. Deem and Ramdas Pophale) SiO2 
 PCOD9102971
Probable space group: P -1
;
_chemical_formula_sum "Si O2"
_cell_formula_units_Z 16
_cell_length_a 9.216324
_cell_length_b 18.155779
_cell_length_c 13.196520
_cell_angle_alpha 33.028058
_cell_angle_beta 140.476064
_cell_angle_gamma 141.927674
_cell_volume 700.278340
_symmetry_space_group_name_H-M "P -1"
_symmetry_group_IT_number 2
_symmetry_cell_setting 'triclinic'
loop_
_space_group_symop_operation_xyz
x,y,z
-x,-y,-z
loop_
_atom_site_type_symbol
_atom_site_label
_atom_site_fract_x
_atom_site_fract_y
_atom_site_fract_z
Si Si1 0.757705 0.855835 0.848436
Si Si2 0.743014 0.361217 0.500039
Si Si3 0.218359 0.228863 0.366764
Si Si4 0.432057 0.159795 0.030702
Si Si5 0.674649 0.407125 0.183585
Si Si6 0.911333 0.410327 0.950928
Si Si7 0.209161 0.968057 0.515733
Si Si8 0.287074 0.918666 0.061724
O O1 0.767383 0.845532 0.986449
O O2 0.505453 0.722826 0.833833
O O3 0.755931 0.996267 0.625019
O O4 0.008733 0.849187 0.947198
O O5 0.474892 0.367999 0.367857
O O6 0.731408 0.347007 0.388974
O O7 0.702429 0.216290 0.711285
O O8 0.000000 0.500000 0.500000
O O9 0.252845 0.113462 0.439959
O O10 0.024641 0.286963 0.149401
O O11 0.077364 0.139705 0.492116
O O12 0.614585 0.319295 0.901714
O O13 0.607490 0.099859 0.260722
O O14 0.313171 0.048492 0.004209
O O15 0.500000 0.500000 0.000000
O O16 0.940530 0.487444 0.179353
O O17 0.000000 0.500000 0.000000
O O18 0.500000 0.000000 0.000000
#
# Coordination Sequence:
#
# PCOD9102971 Si02
#       8
#     2   2   2   2   2   2   2   2
#     4  12  23  41  68  97 134 177 222 286 343 403
#     4  12  25  41  66 100 134 174 229 284 337 401
#     4  10  20  38  64  94 131 164 225 280 326 398
#     4  11  24  43  68  96 141 172 227 287 347 409
#     4  12  23  42  69  98 131 178 235 282 335 406
#     4  11  23  40  67 102 133 173 222 283 349 402
#     4  10  20  39  69  96 123 171 231 282 335 399
#     4  12  28  44  68  99 140 184 228 279 345 412
#
# _framework density 22.848058999999999
#
# number of rings (size 3 to 8) (size 9 to 14) (size 15 to 20)
#    0.000    0.750    5.000    2.250    7.000    0.000 
#    0.000    0.000    0.000    1.500    0.000    0.000 
#    0.000    0.000    0.000    0.000    0.000    0.000 
#
# Total GULP energy -89304.847418 kJ/mol
# GULP energy per Si atom -5581.552964 kJ/mol
# Density = 2.279606 g / cm^3
# Si number density = 22.848059 Si / 1000 Ang^3
#
#
#
# Elastic Constant Matrix: (Units=GPa)
#
#
# Indices 1 2 3 4 5 6 
#
# 1 126.6895 52.4454 23.5730 -11.7186 -29.9649 34.7772
# 2 52.4454 112.1710 -2.3063 -1.5904 -22.4784 28.8684
# 3 23.5730 -2.3063 58.6632 -4.7371 -24.9436 13.4461
# 4 -11.7186 -1.5904 -4.7371 26.1030 11.6320 -5.5500
# 5 -29.9649 -22.4784 -24.9436 11.6320 36.5804 -8.6138
# 6 34.7772 28.8684 13.4461 -5.5500 -8.6138 51.9820
#
#
#
# Elastic Compliance Matrix: (Units=1/GPa)
#
#
# Indices 1 2 3 4 5 6 
#
# 1 0.012365 -0.003509 -0.001666 0.001707 0.005150 -0.004857
# 2 -0.003509 0.014768 0.008176 -0.006000 0.012129 -0.006599
# 3 -0.001666 0.008176 0.029585 -0.007392 0.024339 -0.007835
# 4 0.001707 -0.006000 -0.007392 0.048060 -0.021267 0.005709
# 5 0.005150 0.012129 0.024339 -0.021267 0.060306 -0.008755
# 6 -0.004857 -0.006599 -0.007835 0.005709 -0.008755 0.027337
#
#
# Mechanical properties :
#
#
# Convention : Reuss Voigt Hill
#
# Bulk Modulus (GPa) = 15.94386 49.43864 32.69125
# Shear Modulus (GPa) = 24.11650 37.85387 30.98518
#
# Velocity S-wave (km/s) = 3.25240 4.07475 3.68658
# Velocity P-wave (km/s) = 4.59320 6.61990 5.69739
#
# Compressibility (1/GPa) = 0.06272006
#
# Stress axis : x y z
#
# Youngs Moduli (GPa) = 80.87068 67.71515 33.80078
#
# Poissons Ratio (x) = 0.23764 0.05631
# Poissons Ratio (y) = 0.28381 -0.27636
# Poissons Ratio (z) = 0.13472 -0.55365
#
# Static dielectric constant tensor:
#      x y z
#    x 1.929010 0.037120 0.002460 
#    y 0.037120 1.944500 -0.002800 
#    z 0.002460 -0.002800 1.942810 
# 
# From -- ./inp_files/402915.got.cif
#   From: 2010.05.17/outbox.cif.g08.bks.cpg/sg2_202_cif.got.tgz:402915.got - 2010.06.03 11:33:40.
