data_PCOD9102731
_publ_section_title
;
Structure prediction by ZEFSAII (Michael W. Deem and Ramdas Pophale) SiO2 
 PCOD9102731
Probable space group: P -1
;
_chemical_formula_sum "Si O2"
_cell_formula_units_Z 14
_cell_length_a 9.279299
_cell_length_b 15.789698
_cell_length_c 9.162878
_cell_angle_alpha 55.047739
_cell_angle_beta 101.839272
_cell_angle_gamma 143.189085
_cell_volume 564.686830
_symmetry_space_group_name_H-M "P -1"
_symmetry_group_IT_number 2
_symmetry_cell_setting 'triclinic'
loop_
_space_group_symop_operation_xyz
x,y,z
-x,-y,-z
loop_
_atom_site_type_symbol
_atom_site_label
_atom_site_fract_x
_atom_site_fract_y
_atom_site_fract_z
Si Si1 0.800729 0.037173 0.000625
Si Si2 0.719120 0.700088 0.651404
Si Si3 0.165749 0.724264 0.183699
Si Si4 0.822705 0.321067 0.432034
Si Si5 0.640170 0.862116 0.653286
Si Si6 0.341024 0.562143 0.127307
Si Si7 0.271525 0.231378 0.712118
O O1 0.896600 0.195613 0.952169
O O2 0.006215 0.136352 0.810692
O O3 0.477827 0.872375 0.058616
O O4 0.811481 0.935106 0.189373
O O5 0.656705 0.760922 0.676854
O O6 0.649169 0.543685 0.843138
O O7 0.578766 0.628639 0.532428
O O8 0.050676 0.910998 0.477239
O O9 0.165909 0.722293 0.362974
O O10 0.944635 0.509680 0.293871
O O11 0.517199 0.151290 0.470119
O O12 0.028692 0.391943 0.289766
O O13 0.454997 0.723172 0.893334
O O14 0.531238 0.669176 0.206374
#
# Coordination Sequence:
#
# PCOD9102731 Si02
#       7
#     2   2   2   2   2   2   2
#     4  10  20  38  64 102 130 166 215 282 328 382
#     4  11  26  46  69 100 132 179 221 272 334 395
#     4  10  22  40  63 102 131 172 224 270 330 391
#     4  11  24  42  65  94 139 174 218 275 327 395
#     4  11  26  47  66  95 143 174 219 271 335 401
#     4  12  25  45  69 102 132 177 222 274 332 393
#     4  11  22  41  73  98 133 165 226 283 319 387
#
# _framework density 24.792501999999999
#
# number of rings (size 3 to 8) (size 9 to 14) (size 15 to 20)
#    0.000    1.143    1.429    4.714    4.000    1.714 
#   10.286    0.000    0.000    0.000    0.000    0.000 
#    0.000    0.000    0.000    0.000    0.000    0.000 
#
# Total GULP energy -78408.479208 kJ/mol
# GULP energy per Si atom -5600.605658 kJ/mol
# Density = 2.473607 g / cm^3
# Si number density = 24.792502 Si / 1000 Ang^3
#
#
#
# Elastic Constant Matrix: (Units=GPa)
#
#
# Indices 1 2 3 4 5 6 
#
# 1 120.0510 6.3284 14.8612 -6.6765 -3.3931 -4.5746
# 2 6.3284 43.5098 3.9014 6.1231 2.7067 9.1123
# 3 14.8612 3.9014 51.7065 -7.0570 -1.6154 -8.5566
# 4 -6.6765 6.1231 -7.0570 24.1450 -6.2988 1.3187
# 5 -3.3931 2.7067 -1.6154 -6.2988 34.1637 -10.2796
# 6 -4.5746 9.1123 -8.5566 1.3187 -10.2796 26.4948
#
#
#
# Elastic Compliance Matrix: (Units=1/GPa)
#
#
# Indices 1 2 3 4 5 6 
#
# 1 0.008974 -0.002311 -0.001470 0.003113 0.002371 0.002635
# 2 -0.002311 0.029345 -0.006003 -0.011502 -0.009654 -0.015603
# 3 -0.001470 -0.006003 0.023570 0.009094 0.006589 0.011527
# 4 0.003113 -0.011502 0.009094 0.050983 0.014177 0.010393
# 5 0.002371 -0.009654 0.006589 0.014177 0.039339 0.020415
# 6 0.002635 -0.015603 0.011527 0.010393 0.020415 0.054691
#
#
# Mechanical properties :
#
#
# Convention : Reuss Voigt Hill
#
# Bulk Modulus (GPa) = 23.62935 29.49435 26.56185
# Shear Modulus (GPa) = 20.78338 29.63912 25.21125
#
# Velocity S-wave (km/s) = 2.89847 3.46133 3.19233
# Velocity P-wave (km/s) = 4.55555 5.28174 4.93203
#
# Compressibility (1/GPa) = 0.04232026
#
# Stress axis : x y z
#
# Youngs Moduli (GPa) = 111.43171 34.07776 42.42686
#
# Poissons Ratio (x) = 0.07875 0.06237
# Poissons Ratio (y) = 0.25749 0.25471
# Poissons Ratio (z) = 0.16381 0.20458
#
# Static dielectric constant tensor:
#      x y z
#    x 1.952800 -0.003790 -0.009610 
#    y -0.003790 1.963050 -0.018140 
#    z -0.009610 -0.018140 1.933540 
# 
# From -- ./inp_files/206000.got.cif
#   From: 2010.05.17/outbox.cif.g08.bks.cpg/sg2_103_cif.got.tgz:206000.got - 2010.06.03 11:33:40.
