data_PCOD9102359
_publ_section_title
;
Structure prediction by ZEFSAII (Michael W. Deem and Ramdas Pophale) SiO2 
 PCOD9102359
Probable space group: P -1
;
_chemical_formula_sum "Si O2"
_cell_formula_units_Z 16
_cell_length_a 13.841654
_cell_length_b 9.724740
_cell_length_c 7.489120
_cell_angle_alpha 96.380390
_cell_angle_beta 122.488487
_cell_angle_gamma 56.823678
_cell_volume 687.438176
_symmetry_space_group_name_H-M "P -1"
_symmetry_group_IT_number 2
_symmetry_cell_setting 'triclinic'
loop_
_space_group_symop_operation_xyz
x,y,z
-x,-y,-z
loop_
_atom_site_type_symbol
_atom_site_label
_atom_site_fract_x
_atom_site_fract_y
_atom_site_fract_z
Si Si1 0.847095 0.932724 0.827718
Si Si2 0.578979 0.018942 0.745252
Si Si3 0.926172 0.366809 0.507285
Si Si4 0.679228 0.657430 0.860765
Si Si5 0.598522 0.649947 0.155117
Si Si6 0.003032 0.419390 0.220927
Si Si7 0.606008 0.504763 0.481262
Si Si8 0.900698 0.144287 0.680054
O O1 0.693774 0.043822 0.780180
O O2 0.884594 0.746861 0.800486
O O3 0.864572 0.011910 0.676281
O O4 0.964648 0.909656 0.075030
O O5 0.661027 0.833722 0.891712
O O6 0.500000 0.000000 0.500000
O O7 0.479361 0.162897 0.811267
O O8 0.766831 0.528449 0.336440
O O9 0.015034 0.350046 0.423024
O O10 0.931499 0.199855 0.530277
O O11 0.973686 0.432893 0.725593
O O12 0.626687 0.638850 0.615853
O O13 0.589265 0.652365 0.932712
O O14 0.843165 0.502773 0.016865
O O15 0.554014 0.559396 0.234426
O O16 0.500000 0.500000 0.500000
O O17 0.756965 0.324888 0.614785
#
# Coordination Sequence:
#
# PCOD9102359 Si02
#       8
#     2   2   2   2   2   2   2   2
#     4  11  23  37  62  89 122 163 204 252 308 376
#     4  12  23  38  62  93 126 163 206 259 317 367
#     4   9  20  38  63  88 124 159 201 261 304 366
#     4  11  23  39  65  90 120 165 207 262 310 368
#     4  10  22  41  60  92 125 158 207 258 306 375
#     4  10  20  38  62  93 119 160 209 250 312 370
#     4  11  22  41  65  88 125 165 209 258 311 375
#     4  10  22  39  59  90 122 162 204 251 313 368
#
# _framework density 23.274822
#
# number of rings (size 3 to 8) (size 9 to 14) (size 15 to 20)
#    0.000    1.500    2.500    2.625    1.750    2.000 
#    0.000    1.250    0.000    0.000    0.000    0.000 
#    0.000    0.000    0.000    0.000    0.000    0.000 
#
# Total GULP energy -89326.734755 kJ/mol
# GULP energy per Si atom -5582.920922 kJ/mol
# Density = 2.322185 g / cm^3
# Si number density = 23.274822 Si / 1000 Ang^3
#
#
#
# Elastic Constant Matrix: (Units=GPa)
#
#
# Indices 1 2 3 4 5 6 
#
# 1 100.5947 2.3851 15.2672 -6.1925 -24.3114 6.8823
# 2 2.3851 75.6134 13.5458 -13.0622 -2.2922 -0.6106
# 3 15.2672 13.5458 42.6523 -7.1501 -17.3626 -2.1348
# 4 -6.1925 -13.0622 -7.1501 21.8107 0.2896 -3.5145
# 5 -24.3114 -2.2922 -17.3626 0.2896 30.9091 -2.2953
# 6 6.8823 -0.6106 -2.1348 -3.5145 -2.2953 39.7116
#
#
#
# Elastic Compliance Matrix: (Units=1/GPa)
#
#
# Indices 1 2 3 4 5 6 
#
# 1 0.012612 0.000526 -0.000210 0.003485 0.009710 -0.001319
# 2 0.000526 0.015302 -0.003937 0.008131 -0.000694 0.000612
# 3 -0.000210 -0.003937 0.034202 0.009143 0.018945 0.003719
# 4 0.003485 0.008131 0.009143 0.055465 0.008361 0.005405
# 5 0.009710 -0.000694 0.018945 0.008361 0.050725 0.002997
# 6 -0.001319 0.000612 0.003719 0.005405 0.002997 0.026271
#
#
# Mechanical properties :
#
#
# Convention : Reuss Voigt Hill
#
# Bulk Modulus (GPa) = 18.22394 31.25073 24.73734
# Shear Modulus (GPa) = 22.71576 30.99708 26.85642
#
# Velocity S-wave (km/s) = 3.12746 3.65332 3.40057
# Velocity P-wave (km/s) = 4.57036 5.59032 5.10587
#
# Compressibility (1/GPa) = 0.05487289
#
# Stress axis : x y z
#
# Youngs Moduli (GPa) = 79.29068 65.34938 29.23820
#
# Poissons Ratio (x) = -0.03435 0.00615
# Poissons Ratio (y) = -0.04168 0.11510
# Poissons Ratio (z) = 0.01669 0.25726
#
# Static dielectric constant tensor:
#      x y z
#    x 1.905470 0.046670 -0.069970 
#    y 0.046670 1.879200 -0.022010 
#    z -0.069970 -0.022010 1.885610 
# 
# From -- ./inp_files/239346.got.cif
#   From: 2010.05.17/outbox.cif.g08.bks.cpg/sg2_120_cif.got.tgz:239346.got - 2010.06.03 11:33:40.
