data_PCOD9102968
_publ_section_title
;
Structure prediction by ZEFSAII (Michael W. Deem and Ramdas Pophale) SiO2 
 PCOD9102968
Probable space group: P -1
;
_chemical_formula_sum "Si O2"
_cell_formula_units_Z 16
_cell_length_a 8.793717
_cell_length_b 9.543258
_cell_length_c 11.055046
_cell_angle_alpha 83.050216
_cell_angle_beta 83.565817
_cell_angle_gamma 128.544351
_cell_volume 698.972591
_symmetry_space_group_name_H-M "P -1"
_symmetry_group_IT_number 2
_symmetry_cell_setting 'triclinic'
loop_
_space_group_symop_operation_xyz
x,y,z
-x,-y,-z
loop_
_atom_site_type_symbol
_atom_site_label
_atom_site_fract_x
_atom_site_fract_y
_atom_site_fract_z
Si Si1 0.668853 0.377945 0.665354
Si Si2 0.623805 0.465528 0.911016
Si Si3 0.280994 0.186661 0.579767
Si Si4 0.615640 0.163552 0.074107
Si Si5 0.996218 0.201004 0.077374
Si Si6 0.262132 0.910294 0.284288
Si Si7 0.993396 0.799642 0.555574
Si Si8 0.087421 0.170695 0.824213
O O1 0.557012 0.381602 0.791153
O O2 0.512497 0.290831 0.575470
O O3 0.719703 0.247680 0.707847
O O4 0.877036 0.583886 0.604893
O O5 0.840761 0.664377 0.852060
O O6 0.500000 0.500000 0.000000
O O7 0.645701 0.333389 0.995482
O O8 0.193345 0.208296 0.464685
O O9 0.220546 0.259895 0.683712
O O10 0.137267 0.962512 0.623332
O O11 0.819794 0.206747 0.083120
O O12 0.483658 0.096312 0.214706
O O13 0.500000 0.000000 0.000000
O O14 0.914422 0.994707 0.121562
O O15 0.120740 0.276361 0.931947
O O16 0.129318 0.905006 0.193151
O O17 0.150422 0.878225 0.422042
#
# Coordination Sequence:
#
# PCOD9102968 Si02
#       8
#     2   2   2   2   2   2   2   2
#     4  12  23  43  67  96 132 173 220 278 337 390
#     4  12  26  40  65 103 135 170 225 275 329 404
#     4  10  22  41  66  92 128 171 219 278 335 393
#     4  12  23  43  65  96 135 176 218 267 337 396
#     4  11  22  38  66  95 134 175 219 270 329 402
#     4  11  23  41  65  93 133 173 220 273 325 400
#     4  10  24  44  65  95 126 171 229 273 327 399
#     4  10  20  38  64  94 130 177 213 265 342 391
#
# _framework density 22.890739
#
# number of rings (size 3 to 8) (size 9 to 14) (size 15 to 20)
#    0.000    1.000    2.500    4.125    1.750    2.500 
#    0.000    3.750    0.000    0.000    0.000    0.000 
#    0.000    0.000    0.000    0.000    0.000    0.000 
#
# Total GULP energy -89329.606328 kJ/mol
# GULP energy per Si atom -5583.100396 kJ/mol
# Density = 2.283864 g / cm^3
# Si number density = 22.890739 Si / 1000 Ang^3
#
#
#
# Elastic Constant Matrix: (Units=GPa)
#
#
# Indices 1 2 3 4 5 6 
#
# 1 109.6409 21.3359 8.6073 18.3392 2.2502 0.9994
# 2 21.3359 61.1852 4.0201 4.2912 1.2768 13.1739
# 3 8.6073 4.0201 56.5470 8.8071 -14.7785 4.9794
# 4 18.3392 4.2912 8.8071 36.1404 1.8497 3.9330
# 5 2.2502 1.2768 -14.7785 1.8497 23.4714 -1.3854
# 6 0.9994 13.1739 4.9794 3.9330 -1.3854 33.0735
#
#
#
# Elastic Compliance Matrix: (Units=1/GPa)
#
#
# Indices 1 2 3 4 5 6 
#
# 1 0.010749 -0.003715 -0.001025 -0.004915 -0.000977 0.001853
# 2 -0.003715 0.019312 -0.000661 0.000666 -0.001613 -0.007627
# 3 -0.001025 -0.000661 0.022777 -0.005507 0.014800 -0.001860
# 4 -0.004915 0.000666 -0.005507 0.032086 -0.005758 -0.003344
# 5 -0.000977 -0.001613 0.014800 -0.005758 0.052637 0.001334
# 6 0.001853 -0.007627 -0.001860 -0.003344 0.001334 0.033951
#
#
# Mechanical properties :
#
#
# Convention : Reuss Voigt Hill
#
# Bulk Modulus (GPa) = 23.78928 32.81109 28.30018
# Shear Modulus (GPa) = 25.46773 31.43105 28.44939
#
# Velocity S-wave (km/s) = 3.33915 3.70954 3.52921
# Velocity P-wave (km/s) = 5.02809 5.71949 5.38489
#
# Compressibility (1/GPa) = 0.04203574
#
# Stress axis : x y z
#
# Youngs Moduli (GPa) = 93.02829 51.78155 43.90443
#
# Poissons Ratio (x) = 0.19236 0.04501
# Poissons Ratio (y) = 0.34559 0.02903
# Poissons Ratio (z) = 0.09536 0.03424
#
# Static dielectric constant tensor:
#      x y z
#    x 1.842800 0.020560 0.002910 
#    y 0.020560 1.850510 0.010820 
#    z 0.002910 0.010820 1.953340 
# 
# From -- ./inp_files/245852.got.cif
#   From: 2010.05.17/outbox.cif.g08.bks.cpg/sg2_123_cif.got.tgz:245852.got - 2010.06.03 11:33:40.
