data_PCOD9102961
_publ_section_title
;
Structure prediction by ZEFSAII (Michael W. Deem and Ramdas Pophale) SiO2 
 PCOD9102961
Probable space group: P -1
;
_chemical_formula_sum "Si O2"
_cell_formula_units_Z 14
_cell_length_a 5.194283
_cell_length_b 8.497888
_cell_length_c 13.120335
_cell_angle_alpha 78.029294
_cell_angle_beta 89.849289
_cell_angle_gamma 109.995798
_cell_volume 530.683753
_symmetry_space_group_name_H-M "P -1"
_symmetry_group_IT_number 2
_symmetry_cell_setting 'triclinic'
loop_
_space_group_symop_operation_xyz
x,y,z
-x,-y,-z
loop_
_atom_site_type_symbol
_atom_site_label
_atom_site_fract_x
_atom_site_fract_y
_atom_site_fract_z
Si Si1 0.264826 0.418348 0.798350
Si Si2 0.234030 0.555553 0.079471
Si Si3 0.861197 0.107480 0.415650
Si Si4 0.470846 0.764674 0.432915
Si Si5 0.676657 0.570637 0.617086
Si Si6 0.945727 0.980538 0.126438
Si Si7 0.520506 0.116820 0.084327
O O1 0.538232 0.505583 0.857284
O O2 0.383036 0.514629 0.681319
O O3 0.969074 0.416212 0.837054
O O4 0.222969 0.215478 0.820405
O O5 0.448582 0.709518 0.994123
O O6 0.000000 0.500000 0.000000
O O7 0.693401 0.184691 0.482886
O O8 0.088177 0.275993 0.345781
O O9 0.659694 0.952920 0.367227
O O10 0.000000 0.000000 0.500000
O O11 0.656711 0.667467 0.499292
O O12 0.285897 0.612087 0.380491
O O13 0.251534 0.039244 0.161912
O O14 0.795603 0.112828 0.135966
O O15 0.000000 0.000000 0.000000
O O16 0.500000 0.000000 0.000000
#
# Coordination Sequence:
#
# PCOD9102961 Si02
#       7
#     2   2   2   2   2   2   2
#     4  12  23  39  62  93 124 162 213 272 312 380
#     4  12  24  40  60  87 122 166 211 262 331 380
#     4   9  18  37  65  88 130 170 207 258 316 398
#     4   9  19  40  64  94 126 175 209 250 331 396
#     4  10  22  36  64  95 128 168 214 265 324 387
#     4  10  16  32  59  79 108 151 204 242 303 357
#     4  10  16  34  60  77 104 153 204 240 299 374
#
# _framework density 26.381060000000002
#
# number of rings (size 3 to 8) (size 9 to 14) (size 15 to 20)
#    0.000    1.714    5.714    0.857    2.000    0.000 
#    0.000    2.857    0.000    0.000    0.000    0.000 
#    0.000    0.000    0.000    0.000    0.000    0.000 
#
# Total GULP energy -77976.735277 kJ/mol
# GULP energy per Si atom -5569.766805 kJ/mol
# Density = 2.632102 g / cm^3
# Si number density = 26.381060 Si / 1000 Ang^3
#
#
#
# Elastic Constant Matrix: (Units=GPa)
#
#
# Indices 1 2 3 4 5 6 
#
# 1 128.1911 21.1240 16.8345 4.1564 -15.9653 6.1473
# 2 21.1240 160.5011 50.4061 -15.4111 -20.9645 23.9127
# 3 16.8345 50.4061 81.1700 -15.1242 -8.4540 6.0710
# 4 4.1564 -15.4111 -15.1242 35.7217 11.2491 -12.8674
# 5 -15.9653 -20.9645 -8.4540 11.2491 35.2611 -7.0813
# 6 6.1473 23.9127 6.0710 -12.8674 -7.0813 42.3278
#
#
#
# Elastic Compliance Matrix: (Units=1/GPa)
#
#
# Indices 1 2 3 4 5 6 
#
# 1 0.008801 -0.000163 -0.001866 -0.003737 0.004367 -0.001324
# 2 -0.000163 0.008736 -0.004886 -0.000748 0.003411 -0.003868
# 3 -0.001866 -0.004886 0.016621 0.006423 -0.001337 0.002377
# 4 -0.003737 -0.000748 0.006423 0.037685 -0.010668 0.009715
# 5 0.004367 0.003411 -0.001337 -0.010668 0.035514 0.000329
# 6 -0.001324 -0.003868 0.002377 0.009715 0.000329 0.028670
#
#
# Mechanical properties :
#
#
# Convention : Reuss Voigt Hill
#
# Bulk Modulus (GPa) = 49.19609 60.73239 54.96424
# Shear Modulus (GPa) = 31.92135 41.42862 36.67498
#
# Velocity S-wave (km/s) = 3.48229 3.96712 3.73259
# Velocity P-wave (km/s) = 5.90400 6.63741 6.28142
#
# Compressibility (1/GPa) = 0.02032682
#
# Stress axis : x y z
#
# Youngs Moduli (GPa) = 113.61905 114.46245 60.16449
#
# Poissons Ratio (x) = 0.01871 0.11229
# Poissons Ratio (y) = 0.01857 0.29398
# Poissons Ratio (z) = 0.21205 0.55929
#
# Static dielectric constant tensor:
#      x y z
#    x 2.221400 0.116960 0.049840 
#    y 0.116960 2.169970 0.115300 
#    z 0.049840 0.115300 2.079360 
# 
# From -- ./inp_files/480415.got.cif
#   From: 2010.05.17/outbox.cif.g08.bks.cpg/sg2_241_cif.got.tgz:480415.got - 2010.06.03 11:33:40.
