data_PCOD9102892
_publ_section_title
;
Structure prediction by ZEFSAII (Michael W. Deem and Ramdas Pophale) SiO2 
 PCOD9102892
Probable space group: P -1
;
_chemical_formula_sum "Si O2"
_cell_formula_units_Z 16
_cell_length_a 9.785718
_cell_length_b 12.680815
_cell_length_c 12.183369
_cell_angle_alpha 107.874649
_cell_angle_beta 136.888350
_cell_angle_gamma 52.084394
_cell_volume 786.491255
_symmetry_space_group_name_H-M "P -1"
_symmetry_group_IT_number 2
_symmetry_cell_setting 'triclinic'
loop_
_space_group_symop_operation_xyz
x,y,z
-x,-y,-z
loop_
_atom_site_type_symbol
_atom_site_label
_atom_site_fract_x
_atom_site_fract_y
_atom_site_fract_z
Si Si1 0.370445 0.424397 0.893875
Si Si2 0.827246 0.666263 0.577373
Si Si3 0.574130 0.930710 0.639071
Si Si4 0.404972 0.185037 0.739860
Si Si5 0.897173 0.588664 0.075921
Si Si6 0.234151 0.135194 0.850752
Si Si7 0.170242 0.894139 0.470672
Si Si8 0.418633 0.402080 0.435714
O O1 0.498495 0.274327 0.864297
O O2 0.318385 0.402687 0.981716
O O3 0.108105 0.528089 0.707319
O O4 0.500000 0.500000 0.000000
O O5 0.792611 0.770890 0.687282
O O6 0.763400 0.736128 0.442296
O O7 0.611568 0.647974 0.479334
O O8 0.329927 0.943676 0.536617
O O9 0.500000 0.000000 0.500000
O O10 0.604097 0.024982 0.767706
O O11 0.257768 0.179839 0.755576
O O12 0.831185 0.738898 0.071132
O O13 0.133686 0.499392 0.264733
O O14 0.000000 0.500000 0.000000
O O15 0.021607 0.111835 0.719230
O O16 0.500000 0.000000 0.000000
O O17 0.393627 0.732180 0.572154
O O18 0.000000 0.000000 0.500000
O O19 0.500000 0.500000 0.500000
#
# Coordination Sequence:
#
# PCOD9102892 Si02
#       8
#     2   2   2   2   2   2   2   2
#     4  10  22  41  59  91 123 157 201 246 306 367
#     4   9  20  37  66  87 122 159 198 255 300 357
#     4   9  19  38  61  88 119 153 203 248 297 353
#     4  10  20  41  61  85 119 160 202 248 303 355
#     4  10  23  42  59  87 127 165 197 250 311 361
#     4  11  24  40  60  92 129 157 202 262 312 360
#     4  11  21  37  64  93 118 160 207 252 303 365
#     4  10  20  38  64  92 121 156 210 254 297 363
#
# _framework density 20.343519000000001
#
# number of rings (size 3 to 8) (size 9 to 14) (size 15 to 20)
#    0.000    2.000    2.500    0.375    1.750    2.000 
#   13.500    0.625    0.000    0.000    0.000    0.000 
#    0.000    0.000    0.000    0.000    0.000    0.000 
#
# Total GULP energy -89077.812978 kJ/mol
# GULP energy per Si atom -5567.363311 kJ/mol
# Density = 2.029722 g / cm^3
# Si number density = 20.343519 Si / 1000 Ang^3
#
#
#
# Elastic Constant Matrix: (Units=GPa)
#
#
# Indices 1 2 3 4 5 6 
#
# 1 70.5187 54.3567 20.7925 16.4547 -5.5592 3.9735
# 2 54.3567 177.3644 29.3987 28.7952 7.3916 -6.4083
# 3 20.7925 29.3987 31.8412 10.1149 3.9895 7.7384
# 4 16.4547 28.7952 10.1149 41.8730 0.5098 1.2634
# 5 -5.5592 7.3916 3.9895 0.5098 27.5675 3.3562
# 6 3.9735 -6.4083 7.7384 1.2634 3.3562 32.2301
#
#
#
# Elastic Compliance Matrix: (Units=1/GPa)
#
#
# Indices 1 2 3 4 5 6 
#
# 1 0.022355 -0.005236 -0.009217 -0.002981 0.007576 -0.002256
# 2 -0.005236 0.008693 -0.004190 -0.002985 -0.003192 0.003829
# 3 -0.009217 -0.004190 0.045788 -0.004185 -0.006080 -0.009893
# 4 -0.002981 -0.002985 -0.004185 0.028124 0.000328 -0.000358
# 5 0.007576 -0.003192 -0.006080 0.000328 0.040054 -0.004293
# 6 -0.002256 0.003829 -0.009893 -0.000358 -0.004293 0.034903
#
#
# Mechanical properties :
#
#
# Convention : Reuss Voigt Hill
#
# Bulk Modulus (GPa) = 25.28399 54.31336 39.79868
# Shear Modulus (GPa) = 21.70272 32.01254 26.85763
#
# Velocity S-wave (km/s) = 3.26975 3.97116 3.63741
# Velocity P-wave (km/s) = 5.16823 6.91252 6.10301
#
# Compressibility (1/GPa) = 0.03955072
#
# Stress axis : x y z
#
# Youngs Moduli (GPa) = 44.73367 115.03023 21.83977
#
# Poissons Ratio (x) = 0.60236 0.20129
# Poissons Ratio (y) = 0.23425 0.09150
# Poissons Ratio (z) = 0.41229 0.48192
#
# Static dielectric constant tensor:
#      x y z
#    x 1.838180 0.053840 -0.078270 
#    y 0.053840 1.826080 -0.005890 
#    z -0.078270 -0.005890 1.779660 
# 
# From -- ./inp_files/353376.got.cif
#   From: 2010.05.17/outbox.cif.g08.bks.cpg/sg2_177_cif.got.tgz:353376.got - 2010.06.03 11:33:40.
