data_PCOD9102990
_publ_section_title
;
Structure prediction by ZEFSAII (Michael W. Deem and Ramdas Pophale) SiO2 
 PCOD9102990
Probable space group: P -1
;
_chemical_formula_sum "Si O2"
_cell_formula_units_Z 16
_cell_length_a 22.379911
_cell_length_b 8.757742
_cell_length_c 23.124746
_cell_angle_alpha 29.781895
_cell_angle_beta 161.449866
_cell_angle_gamma 146.930690
_cell_volume 712.883214
_symmetry_space_group_name_H-M "P -1"
_symmetry_group_IT_number 2
_symmetry_cell_setting 'triclinic'
loop_
_space_group_symop_operation_xyz
x,y,z
-x,-y,-z
loop_
_atom_site_type_symbol
_atom_site_label
_atom_site_fract_x
_atom_site_fract_y
_atom_site_fract_z
Si Si1 0.742882 0.379963 0.358403
Si Si2 0.391582 0.332782 0.746016
Si Si3 0.282634 0.642022 0.885034
Si Si4 0.942433 0.458134 0.694094
Si Si5 0.917076 0.786707 0.864511
Si Si6 0.813154 0.722631 0.195295
Si Si7 0.660178 0.746274 0.539999
Si Si8 0.967328 0.402161 0.136741
O O1 0.703978 0.608537 0.299031
O O2 0.716832 0.526255 0.224064
O O3 0.964299 0.332675 0.582364
O O4 0.623484 0.050221 0.369923
O O5 0.274285 0.501788 0.534926
O O6 0.374462 0.968816 0.837680
O O7 0.605985 0.436849 0.928132
O O8 0.274076 0.394629 0.906927
O O9 0.071586 0.686058 0.696725
O O10 0.988122 0.534923 0.776784
O O11 0.017414 0.126164 0.856399
O O12 0.755014 0.871743 0.645149
O O13 0.000000 0.500000 0.000000
O O14 0.869809 0.657504 0.927035
O O15 0.833911 0.086936 0.107140
O O16 0.500000 0.500000 0.500000
O O17 0.825416 0.606430 0.700578
#
# Coordination Sequence:
#
# PCOD9102990 Si02
#       8
#     2   2   2   2   2   2   2   2
#     4  10  20  38  64  95 126 167 231 265 331 407
#     4  11  24  39  61  99 133 177 225 262 347 407
#     4  11  24  40  64  97 137 179 215 285 332 406
#     4  12  22  44  68  91 139 181 220 280 339 407
#     4  10  21  42  65  92 126 173 232 265 331 403
#     4  10  21  39  68  98 125 176 224 275 336 394
#     4  10  21  40  62  95 129 174 220 280 330 392
#     4  10  23  40  67 100 127 176 229 272 339 404
#
# _framework density 22.444068000000001
#
# number of rings (size 3 to 8) (size 9 to 14) (size 15 to 20)
#    0.000    1.500    2.500    3.000    5.250    3.500 
#    2.250    0.625    0.000    0.000    0.000    0.000 
#    0.000    0.000    0.000    0.000    0.000    0.000 
#
# Total GULP energy -89168.127109 kJ/mol
# GULP energy per Si atom -5573.007944 kJ/mol
# Density = 2.239298 g / cm^3
# Si number density = 22.444068 Si / 1000 Ang^3
#
#
#
# Elastic Constant Matrix: (Units=GPa)
#
#
# Indices 1 2 3 4 5 6 
#
# 1 114.2398 63.3327 31.6393 6.9348 -31.7124 0.2628
# 2 63.3327 142.8696 23.8400 3.5466 -14.5379 1.0309
# 3 31.6393 23.8400 46.3345 -7.5327 -16.9680 2.7802
# 4 6.9348 3.5466 -7.5327 25.0369 -0.9635 -8.8264
# 5 -31.7124 -14.5379 -16.9680 -0.9635 31.7054 4.2488
# 6 0.2628 1.0309 2.7802 -8.8264 4.2488 43.0493
#
#
#
# Elastic Compliance Matrix: (Units=1/GPa)
#
#
# Indices 1 2 3 4 5 6 
#
# 1 0.016630 -0.005160 -0.005293 -0.005709 0.011522 -0.001944
# 2 -0.005160 0.009463 -0.002188 -0.000642 -0.002015 0.000013
# 3 -0.005293 -0.002188 0.032507 0.011737 0.011557 -0.000749
# 4 -0.005709 -0.000642 0.011737 0.048395 0.000519 0.009163
# 5 0.011522 -0.002015 0.011557 0.000519 0.049079 -0.005506
# 6 -0.001944 0.000013 -0.000749 0.009163 -0.005506 0.025711
#
#
# Mechanical properties :
#
#
# Convention : Reuss Voigt Hill
#
# Bulk Modulus (GPa) = 30.01416 60.11865 45.06641
# Shear Modulus (GPa) = 22.91752 32.26712 27.59232
#
# Velocity S-wave (km/s) = 3.19892 3.79577 3.51006
# Velocity P-wave (km/s) = 5.20058 6.78636 6.04569
#
# Compressibility (1/GPa) = 0.03331760
#
# Stress axis : x y z
#
# Youngs Moduli (GPa) = 60.13390 105.67581 30.76224
#
# Poissons Ratio (x) = 0.54533 0.16281
# Poissons Ratio (y) = 0.31032 0.06731
# Poissons Ratio (z) = 0.31826 0.23124
#
# Static dielectric constant tensor:
#      x y z
#    x 1.819640 0.027590 0.036990 
#    y 0.027590 1.936980 -0.018170 
#    z 0.036990 -0.018170 1.933310 
# 
# From -- ./inp_files/283451.got.cif
#   From: 2010.05.17/outbox.cif.g08.bks.cpg/sg2_142_cif.got.tgz:283451.got - 2010.06.03 11:33:40.
