data_PCOD9102274
_publ_section_title
;
Structure prediction by ZEFSAII (Michael W. Deem and Ramdas Pophale) SiO2 
 PCOD9102274
Probable space group: P -1
;
_chemical_formula_sum "Si O2"
_cell_formula_units_Z 14
_cell_length_a 7.896573
_cell_length_b 21.651086
_cell_length_c 10.795735
_cell_angle_alpha 30.951223
_cell_angle_beta 41.786833
_cell_angle_gamma 37.238867
_cell_volume 562.602522
_symmetry_space_group_name_H-M "P -1"
_symmetry_group_IT_number 2
_symmetry_cell_setting 'triclinic'
loop_
_space_group_symop_operation_xyz
x,y,z
-x,-y,-z
loop_
_atom_site_type_symbol
_atom_site_label
_atom_site_fract_x
_atom_site_fract_y
_atom_site_fract_z
Si Si1 0.314182 0.391378 0.406664
Si Si2 0.506368 0.524156 0.601275
Si Si3 0.931857 0.335765 0.070290
Si Si4 0.955371 0.812598 0.397363
Si Si5 0.887040 0.994435 0.893315
Si Si6 0.260957 0.348028 0.100066
Si Si7 0.212049 0.172032 0.956243
O O1 0.291451 0.448467 0.461392
O O2 0.648276 0.333912 0.283064
O O3 0.207480 0.278745 0.670956
O O4 0.159381 0.510002 0.188028
O O5 0.500000 0.500000 0.500000
O O6 0.227608 0.668903 0.516228
O O7 0.513121 0.388143 0.887522
O O8 0.178648 0.301720 0.095998
O O9 0.049895 0.243401 0.045408
O O10 0.986697 0.877763 0.142223
O O11 0.709635 0.765151 0.623379
O O12 0.947185 0.917790 0.325186
O O13 0.897896 0.927941 0.870149
O O14 0.551395 0.089274 0.941114
O O15 0.000000 0.500000 0.000000
#
# Coordination Sequence:
#
# PCOD9102274 Si02
#       7
#     2   2   2   2   2   2   2
#     4  11  23  40  62  97 129 156 201 270 313 376
#     4  11  22  37  67  94 125 157 203 262 326 366
#     4  11  23  39  64  93 129 158 207 262 321 369
#     4  10  21  42  64  86 127 158 212 257 306 366
#     4  10  23  41  64  87 123 175 207 257 295 372
#     4  10  20  38  62  90 120 157 197 260 314 362
#     4  11  23  42  64  88 124 169 214 247 316 367
#
# _framework density 24.884350999999999
#
# number of rings (size 3 to 8) (size 9 to 14) (size 15 to 20)
#    0.000    1.429    4.286    1.286    6.000    0.000 
#    0.000    7.143    3.143    0.000    0.000    0.000 
#    0.000    0.000    0.000    0.000    0.000    0.000 
#
# Total GULP energy -78264.117694 kJ/mol
# GULP energy per Si atom -5590.294121 kJ/mol
# Density = 2.482771 g / cm^3
# Si number density = 24.884351 Si / 1000 Ang^3
#
#
#
# Elastic Constant Matrix: (Units=GPa)
#
#
# Indices 1 2 3 4 5 6 
#
# 1 57.6477 24.4541 20.1767 -5.5644 -16.8202 18.1742
# 2 24.4541 100.6267 27.7779 -1.0256 -11.4432 25.5229
# 3 20.1767 27.7779 136.7708 -6.4562 -22.6124 8.5117
# 4 -5.5644 -1.0256 -6.4562 22.9627 2.4018 -0.6501
# 5 -16.8202 -11.4432 -22.6124 2.4018 44.4855 -10.6416
# 6 18.1742 25.5229 8.5117 -0.6501 -10.6416 36.2248
#
#
#
# Elastic Compliance Matrix: (Units=1/GPa)
#
#
# Indices 1 2 3 4 5 6 
#
# 1 0.023426 -0.002666 -0.001327 0.004399 0.005368 -0.007907
# 2 -0.002666 0.012945 -0.001869 -0.000766 -0.000373 -0.007468
# 3 -0.001327 -0.001869 0.008476 0.001643 0.003487 0.001045
# 4 0.004399 -0.000766 0.001643 0.045052 -0.000461 -0.001381
# 5 0.005368 -0.000373 0.003487 -0.000461 0.027353 0.004777
# 6 -0.007907 -0.007468 0.001045 -0.001381 0.004777 0.037967
#
#
# Mechanical properties :
#
#
# Convention : Reuss Voigt Hill
#
# Bulk Modulus (GPa) = 30.19033 48.87364 39.53199
# Shear Modulus (GPa) = 28.09244 35.57702 31.83473
#
# Velocity S-wave (km/s) = 3.36359 3.78523 3.58062
# Velocity P-wave (km/s) = 5.21953 6.22792 5.74589
#
# Compressibility (1/GPa) = 0.03312319
#
# Stress axis : x y z
#
# Youngs Moduli (GPa) = 42.68812 77.24780 117.98129
#
# Poissons Ratio (x) = 0.20592 0.15658
# Poissons Ratio (y) = 0.11379 0.22051
# Poissons Ratio (z) = 0.05665 0.14438
#
# Static dielectric constant tensor:
#      x y z
#    x 2.031240 -0.085540 -0.019850 
#    y -0.085540 2.094240 0.091340 
#    z -0.019850 0.091340 2.001380 
# 
# From -- ./inp_files/190765.got.cif
#   From: 2010.05.17/outbox.cif.g08.bks.cpg/sg2_96_cif.got.tgz:190765.got - 2010.06.03 11:33:40.
