data_PCOD9102849
_publ_section_title
;
Structure prediction by ZEFSAII (Michael W. Deem and Ramdas Pophale) SiO2 
 PCOD9102849
Probable space group: P -1
;
_chemical_formula_sum "Si O2"
_cell_formula_units_Z 12
_cell_length_a 18.963879
_cell_length_b 13.193337
_cell_length_c 12.189921
_cell_angle_alpha 41.263636
_cell_angle_beta 22.122455
_cell_angle_gamma 27.543953
_cell_volume 486.725975
_symmetry_space_group_name_H-M "P -1"
_symmetry_group_IT_number 2
_symmetry_cell_setting 'triclinic'
loop_
_space_group_symop_operation_xyz
x,y,z
-x,-y,-z
loop_
_atom_site_type_symbol
_atom_site_label
_atom_site_fract_x
_atom_site_fract_y
_atom_site_fract_z
Si Si1 0.028421 0.433454 0.725676
Si Si2 0.213120 0.640645 0.229006
Si Si3 0.390555 0.283545 0.711865
Si Si4 0.211269 0.183824 0.877795
Si Si5 0.698542 0.376330 0.133636
Si Si6 0.919305 0.067493 0.433661
O O1 0.151343 0.497642 0.428783
O O2 0.250437 0.245545 0.655741
O O3 0.938757 0.335637 0.872600
O O4 0.742305 0.666016 0.018711
O O5 0.246880 0.683302 0.024219
O O6 0.500000 0.500000 0.000000
O O7 0.956360 0.885119 0.466048
O O8 0.413468 0.120226 0.734991
O O9 0.650737 0.242151 0.370121
O O10 0.122360 0.550275 0.826142
O O11 0.157887 0.036989 0.066514
O O12 0.400404 0.662303 0.339879
O O13 0.000000 0.000000 0.500000
#
# Coordination Sequence:
#
# PCOD9102849 Si02
#       6
#     2   2   2   2   2   2
#     4  10  20  38  64  90 125 159 201 250 310 355
#     4  12  24  40  62  90 125 161 204 251 299 364
#     4   8  16  34  64  88 113 162 200 239 299 358
#     4   8  17  34  62  86 114 158 202 242 288 363
#     4  11  22  39  66  90 123 161 198 257 307 352
#     4  11  22  39  64  91 121 158 211 245 301 365
#
# _framework density 24.654529
#
# number of rings (size 3 to 8) (size 9 to 14) (size 15 to 20)
#    1.000    1.000    1.667    3.000    0.000    0.667 
#    0.000    4.167    0.000    0.000    0.000    0.000 
#    0.000    0.000    0.000    0.000    0.000    0.000 
#
# Total GULP energy -67087.536434 kJ/mol
# GULP energy per Si atom -5590.628036 kJ/mol
# Density = 2.459841 g / cm^3
# Si number density = 24.654529 Si / 1000 Ang^3
#
#
#
# Elastic Constant Matrix: (Units=GPa)
#
#
# Indices 1 2 3 4 5 6 
#
# 1 70.1094 -5.6175 13.9089 16.2261 -4.8902 18.8041
# 2 -5.6175 52.5878 23.2316 -2.3501 -15.3510 7.5620
# 3 13.9089 23.2316 90.5553 -6.8021 -12.4019 -9.0958
# 4 16.2261 -2.3501 -6.8021 40.8734 5.0038 -2.1459
# 5 -4.8902 -15.3510 -12.4019 5.0038 35.6619 -14.6666
# 6 18.8041 7.5620 -9.0958 -2.1459 -14.6666 29.2162
#
#
#
# Elastic Compliance Matrix: (Units=1/GPa)
#
#
# Indices 1 2 3 4 5 6 
#
# 1 0.026950 0.009453 -0.010931 -0.012736 -0.005260 -0.026771
# 2 0.009453 0.027472 -0.009687 -0.005097 0.004596 -0.014277
# 3 -0.010931 -0.009687 0.018856 0.006974 0.008140 0.020011
# 4 -0.012736 -0.005097 0.006974 0.031140 -0.000173 0.013888
# 5 -0.005260 0.004596 0.008140 -0.000173 0.042964 0.026285
# 6 -0.026771 -0.014277 0.020011 0.013888 0.026285 0.075599
#
#
# Mechanical properties :
#
#
# Convention : Reuss Voigt Hill
#
# Bulk Modulus (GPa) = 19.62785 30.69984 25.16384
# Shear Modulus (GPa) = 19.06263 33.26559 26.16411
#
# Velocity S-wave (km/s) = 2.78365 3.67722 3.26119
# Velocity P-wave (km/s) = 4.27902 5.52344 4.94056
#
# Compressibility (1/GPa) = 0.05094802
#
# Stress axis : x y z
#
# Youngs Moduli (GPa) = 37.10521 36.40066 53.03400
#
# Poissons Ratio (x) = -0.34408 0.57969
# Poissons Ratio (y) = -0.35074 0.51375
# Poissons Ratio (z) = 0.40558 0.35262
#
# Static dielectric constant tensor:
#      x y z
#    x 1.912880 0.008130 -0.040160 
#    y 0.008130 1.978620 0.087400 
#    z -0.040160 0.087400 2.025920 
# 
# From -- ./inp_files/464341.got.cif
#   From: 2010.05.17/outbox.cif.g08.bks.cpg/sg2_233_cif.got.tgz:464341.got - 2010.06.03 11:33:40.
