data_PCOD9102432
_publ_section_title
;
Structure prediction by ZEFSAII (Michael W. Deem and Ramdas Pophale) SiO2 
 PCOD9102432
Probable space group: P -1
;
_chemical_formula_sum "Si O2"
_cell_formula_units_Z 16
_cell_length_a 11.730595
_cell_length_b 7.772219
_cell_length_c 11.217336
_cell_angle_alpha 124.484863
_cell_angle_beta 125.844286
_cell_angle_gamma 85.588584
_cell_volume 631.777811
_symmetry_space_group_name_H-M "P -1"
_symmetry_group_IT_number 2
_symmetry_cell_setting 'triclinic'
loop_
_space_group_symop_operation_xyz
x,y,z
-x,-y,-z
loop_
_atom_site_type_symbol
_atom_site_label
_atom_site_fract_x
_atom_site_fract_y
_atom_site_fract_z
Si Si1 0.440789 0.970595 0.664709
Si Si2 0.864606 0.698831 0.525568
Si Si3 0.772095 0.120435 0.014238
Si Si4 0.048491 0.861825 0.088571
Si Si5 0.522804 0.551368 0.176113
Si Si6 0.820267 0.386628 0.757665
Si Si7 0.011472 0.409371 0.657812
Si Si8 0.353431 0.058065 0.899500
O O1 0.347196 0.747943 0.447271
O O2 0.602238 0.981275 0.813523
O O3 0.480169 0.203514 0.708099
O O4 0.339721 0.995555 0.726550
O O5 0.686352 0.575898 0.337498
O O6 0.951296 0.753656 0.473310
O O7 0.917196 0.530739 0.571818
O O8 0.902663 0.924612 0.712231
O O9 0.889866 0.070835 0.981572
O O10 0.824282 0.389342 0.140913
O O11 0.776229 0.075136 0.139214
O O12 0.151367 0.725443 0.149263
O O13 0.883241 0.657187 0.911235
O O14 0.500000 0.500000 0.000000
O O15 0.396234 0.321631 0.055985
O O16 0.928324 0.338885 0.703993
O O17 0.500000 0.000000 0.000000
#
# Coordination Sequence:
#
# PCOD9102432 Si02
#       8
#     2   2   2   2   2   2   2   2
#     4  10  20  38  69  94 132 167 221 269 323 377
#     4  11  22  41  68  95 131 174 213 276 321 388
#     4  10  22  42  65  99 129 178 208 271 323 396
#     4  10  23  45  65  91 142 169 220 260 333 391
#     4  10  20  38  62  98 132 162 210 277 323 372
#     4  10  22  42  66  97 126 184 209 273 320 392
#     4  10  24  39  69  96 131 167 226 263 331 376
#     4   9  19  34  64  93 131 164 214 268 322 372
#
# _framework density 25.325357
#
# number of rings (size 3 to 8) (size 9 to 14) (size 15 to 20)
#    0.000    2.000    1.250    2.250    7.000    3.000 
#    0.000    5.625    0.000    0.000    0.000    0.000 
#    0.000    0.000    0.000    0.000    0.000    0.000 
#
# Total GULP energy -89497.506040 kJ/mol
# GULP energy per Si atom -5593.594128 kJ/mol
# Density = 2.526772 g / cm^3
# Si number density = 25.325357 Si / 1000 Ang^3
#
#
#
# Elastic Constant Matrix: (Units=GPa)
#
#
# Indices 1 2 3 4 5 6 
#
# 1 97.1834 3.5213 28.9769 6.1656 -16.7025 18.5529
# 2 3.5213 51.8591 13.2050 12.2641 -3.5702 11.9117
# 3 28.9769 13.2050 203.4658 10.7112 9.5060 0.0574
# 4 6.1656 12.2641 10.7112 35.5724 -7.8807 -1.5171
# 5 -16.7025 -3.5702 9.5060 -7.8807 43.4550 -1.9198
# 6 18.5529 11.9117 0.0574 -1.5171 -1.9198 26.1452
#
#
#
# Elastic Compliance Matrix: (Units=1/GPa)
#
#
# Indices 1 2 3 4 5 6 
#
# 1 0.014027 0.003037 -0.002329 -0.002078 0.005285 -0.011065
# 2 0.003037 0.024888 -0.001637 -0.008910 0.001340 -0.013909
# 3 -0.002329 -0.001637 0.005521 -0.001122 -0.002346 0.002149
# 4 -0.002078 -0.008910 -0.001122 0.033348 0.005109 0.007847
# 5 0.005285 0.001340 -0.002346 0.005109 0.026500 -0.002113
# 6 -0.011065 -0.013909 0.002149 0.007847 -0.002113 0.052732
#
#
# Mechanical properties :
#
#
# Convention : Reuss Voigt Hill
#
# Bulk Modulus (GPa) = 23.48670 49.32386 36.40528
# Shear Modulus (GPa) = 28.89059 41.48819 35.18939
#
# Velocity S-wave (km/s) = 3.38120 4.05187 3.73163
# Velocity P-wave (km/s) = 4.95353 6.43495 5.74221
#
# Compressibility (1/GPa) = 0.04257729
#
# Stress axis : x y z
#
# Youngs Moduli (GPa) = 71.29281 40.17996 181.13022
#
# Poissons Ratio (x) = -0.12204 0.42188
# Poissons Ratio (y) = -0.21655 0.29659
# Poissons Ratio (z) = 0.16605 0.06579
#
# Static dielectric constant tensor:
#      x y z
#    x 2.037210 -0.026960 0.015480 
#    y -0.026960 2.066230 -0.010130 
#    z 0.015480 -0.010130 1.969200 
# 
# From -- ./inp_files/420111.got.cif
#   From: 2010.05.17/outbox.cif.g08.bks.cpg/sg2_211_cif.got.tgz:420111.got - 2010.06.03 11:33:40.
