data_PCOD9102204
_publ_section_title
;
Structure prediction by ZEFSAII (Michael W. Deem and Ramdas Pophale) SiO2 
 PCOD9102204
Probable space group: P -1
;
_chemical_formula_sum "Si O2"
_cell_formula_units_Z 15
_cell_length_a 9.064079
_cell_length_b 15.199548
_cell_length_c 12.362978
_cell_angle_alpha 158.968393
_cell_angle_beta 92.628869
_cell_angle_gamma 82.269542
_cell_volume 590.308656
_symmetry_space_group_name_H-M "P -1"
_symmetry_group_IT_number 2
_symmetry_cell_setting 'triclinic'
loop_
_space_group_symop_operation_xyz
x,y,z
-x,-y,-z
loop_
_atom_site_type_symbol
_atom_site_label
_atom_site_fract_x
_atom_site_fract_y
_atom_site_fract_z
Si Si1 0.770375 0.765674 0.648698
Si Si2 0.608498 0.670385 0.739475
Si Si3 0.446190 0.856583 0.165373
Si Si4 0.362511 0.335475 0.859961
Si Si5 0.069175 0.204153 0.797151
Si Si6 0.745846 0.444373 0.094812
Si Si7 0.000000 0.000000 0.000000
Si Si8 0.920391 0.696145 0.848688
O O1 0.649488 0.794234 0.772998
O O2 0.697262 0.693009 0.452889
O O3 0.849724 0.993561 0.910981
O O4 0.920441 0.522482 0.393750
O O5 0.500000 0.500000 0.500000
O O6 0.781938 0.559440 0.666574
O O7 0.517150 0.827415 0.016273
O O8 0.554719 0.638879 0.996207
O O9 0.446154 0.106447 0.520193
O O10 0.285843 0.781463 0.091792
O O11 0.207939 0.266282 0.811662
O O12 0.324186 0.565733 0.038365
O O13 0.110569 0.154645 0.868000
O O14 0.000000 0.000000 0.500000
O O15 0.920690 0.437625 0.067623
O O16 0.923063 0.884327 0.966699
#
# Coordination Sequence:
#
# PCOD9102204 Si02
#       8
#     2   2   2   2   2   2   1   2
#     4  10  23  41  65  92 128 165 211 272 322 376
#     4  11  20  40  66  90 125 172 210 255 332 384
#     4  11  23  43  64  90 134 170 210 271 319 392
#     4  11  24  43  64  92 129 173 215 262 325 379
#     4  11  22  41  67  95 127 166 214 269 318 376
#     4  11  23  41  66  96 123 169 218 265 322 385
#     4  10  20  38  62  88 120 160 210 250 312 384
#     4  10  23  43  64  93 129 167 210 269 329 371
#
# _framework density 25.410437000000002
#
# number of rings (size 3 to 8) (size 9 to 14) (size 15 to 20)
#    0.000    1.333    4.000    2.400    1.867    0.000 
#    2.400    6.000    0.000    0.000    0.000    0.000 
#    0.000    0.000    0.000    0.000    0.000    0.000 
#
# Total GULP energy -83520.392550 kJ/mol
# GULP energy per Si atom -5568.026170 kJ/mol
# Density = 2.535260 g / cm^3
# Si number density = 25.410437 Si / 1000 Ang^3
#
#
#
# Elastic Constant Matrix: (Units=GPa)
#
#
# Indices 1 2 3 4 5 6 
#
# 1 120.0356 38.9557 39.9534 -5.8884 15.0035 26.1149
# 2 38.9557 118.2118 50.8439 -44.4068 -5.9913 14.8721
# 3 39.9534 50.8439 93.0707 -42.4639 11.8972 18.9276
# 4 -5.8884 -44.4068 -42.4639 42.2433 3.4576 2.7726
# 5 15.0035 -5.9913 11.8972 3.4576 50.7133 -1.6928
# 6 26.1149 14.8721 18.9276 2.7726 -1.6928 54.0843
#
#
#
# Elastic Compliance Matrix: (Units=1/GPa)
#
#
# Indices 1 2 3 4 5 6 
#
# 1 0.012123 -0.004581 -0.006067 -0.008910 -0.002167 -0.002082
# 2 -0.004581 0.016975 0.002463 0.019858 0.001286 -0.004296
# 3 -0.006067 0.002463 0.030464 0.033678 -0.007704 -0.010377
# 4 -0.008910 0.019858 0.033678 0.079021 -0.008883 -0.017274
# 5 -0.002167 0.001286 -0.007704 -0.008883 0.023077 0.004566
# 6 -0.002082 -0.004296 -0.010377 -0.017274 0.004566 0.025336
#
#
# Mechanical properties :
#
#
# Convention : Reuss Voigt Hill
#
# Bulk Modulus (GPa) = 23.15145 65.64713 44.39929
# Shear Modulus (GPa) = 22.96060 42.84586 32.90323
#
# Velocity S-wave (km/s) = 3.00924 4.11073 3.60234
# Velocity P-wave (km/s) = 4.60487 6.95857 5.90027
#
# Compressibility (1/GPa) = 0.04319384
#
# Stress axis : x y z
#
# Youngs Moduli (GPa) = 82.48466 58.90968 32.82511
#
# Poissons Ratio (x) = 0.26985 0.19914
# Poissons Ratio (y) = 0.37784 -0.08084
# Poissons Ratio (z) = 0.50040 -0.14507
#
# Static dielectric constant tensor:
#      x y z
#    x 2.141210 -0.213790 -0.079240 
#    y -0.213790 2.058750 0.015640 
#    z -0.079240 0.015640 2.047860 
# 
# From -- ./inp_files/396749.got.cif
#   From: 2010.05.17/outbox.cif.g08.bks.cpg/sg2_199_cif.got.tgz:396749.got - 2010.06.03 11:33:40.
