data_PCOD9102999
_publ_section_title
;
Structure prediction by ZEFSAII (Michael W. Deem and Ramdas Pophale) SiO2 
 PCOD9102999
Probable space group: P -1
;
_chemical_formula_sum "Si O2"
_cell_formula_units_Z 16
_cell_length_a 11.005995
_cell_length_b 13.932459
_cell_length_c 13.667871
_cell_angle_alpha 39.944662
_cell_angle_beta 147.368413
_cell_angle_gamma 121.128841
_cell_volume 673.623294
_symmetry_space_group_name_H-M "P -1"
_symmetry_group_IT_number 2
_symmetry_cell_setting 'triclinic'
loop_
_space_group_symop_operation_xyz
x,y,z
-x,-y,-z
loop_
_atom_site_type_symbol
_atom_site_label
_atom_site_fract_x
_atom_site_fract_y
_atom_site_fract_z
Si Si1 0.648299 0.663864 0.573418
Si Si2 0.965846 0.871153 0.332414
Si Si3 0.218321 0.078225 0.221346
Si Si4 0.371920 0.480741 0.641474
Si Si5 0.423579 0.628767 0.933876
Si Si6 0.868880 0.742510 0.164098
Si Si7 0.395207 0.818636 0.091570
Si Si8 0.980920 0.674284 0.956675
O O1 0.455435 0.588113 0.538582
O O2 0.521856 0.787747 0.307128
O O3 0.757052 0.726592 0.688995
O O4 0.876607 0.516302 0.800057
O O5 0.161330 0.753463 0.629997
O O6 0.901133 0.781636 0.267463
O O7 0.089053 0.978811 0.271770
O O8 0.745906 0.989699 0.156207
O O9 0.117208 0.257437 0.058074
O O10 0.500000 0.000000 0.500000
O O11 0.159342 0.107572 0.044131
O O12 0.421422 0.307457 0.760672
O O13 0.102905 0.586479 0.413291
O O14 0.550002 0.451116 0.879169
O O15 0.500000 0.500000 0.000000
O O16 0.622221 0.711387 0.007621
O O17 0.176606 0.749555 0.997529
#
# Coordination Sequence:
#
# PCOD9102999 Si02
#       8
#     2   2   2   2   2   2   2   2
#     4  10  20  38  64  95 131 164 216 267 328 382
#     4  11  25  44  66  97 133 173 211 280 329 381
#     4  11  22  37  65  98 130 165 213 269 333 378
#     4  11  23  42  69  93 128 179 219 265 320 390
#     4  12  27  47  65  94 135 175 230 265 313 395
#     4  12  25  44  70  95 132 173 223 270 329 385
#     4  10  22  43  64  99 133 161 216 278 326 383
#     4   9  20  35  58  95 131 168 199 265 330 381
#
# _framework density 23.752147999999998
#
# number of rings (size 3 to 8) (size 9 to 14) (size 15 to 20)
#    0.000    1.250    2.500    4.500    5.250    0.500 
#    2.250    0.625    0.000    0.000    0.000    0.000 
#    0.000    0.000    0.000    0.000    0.000    0.000 
#
# Total GULP energy -89567.989459 kJ/mol
# GULP energy per Si atom -5597.999341 kJ/mol
# Density = 2.369809 g / cm^3
# Si number density = 23.752148 Si / 1000 Ang^3
#
#
#
# Elastic Constant Matrix: (Units=GPa)
#
#
# Indices 1 2 3 4 5 6 
#
# 1 80.1971 10.3350 43.7323 4.1683 1.9267 2.6040
# 2 10.3350 70.7405 34.4968 17.9309 4.8029 -14.8152
# 3 43.7323 34.4968 163.5994 5.2201 -7.7641 -15.4862
# 4 4.1683 17.9309 5.2201 29.2250 -3.0596 -4.5862
# 5 1.9267 4.8029 -7.7641 -3.0596 40.2450 6.2284
# 6 2.6040 -14.8152 -15.4862 -4.5862 6.2284 26.9853
#
#
#
# Elastic Compliance Matrix: (Units=1/GPa)
#
#
# Indices 1 2 3 4 5 6 
#
# 1 0.015162 -0.000447 -0.004352 -0.001889 -0.000991 -0.004299
# 2 -0.000447 0.020944 -0.003344 -0.011349 -0.005369 0.008933
# 3 -0.004352 -0.003344 0.008316 0.001891 0.001853 0.003250
# 4 -0.001889 -0.011349 0.001891 0.041778 0.004828 0.001023
# 5 -0.000991 -0.005369 0.001853 0.004828 0.027389 -0.007290
# 6 -0.004299 0.008933 0.003250 0.001023 -0.007290 0.046098
#
#
# Mechanical properties :
#
#
# Convention : Reuss Voigt Hill
#
# Bulk Modulus (GPa) = 35.54143 54.62946 45.08544
# Shear Modulus (GPa) = 26.97570 34.35592 30.66581
#
# Velocity S-wave (km/s) = 3.37370 3.80733 3.59705
# Velocity P-wave (km/s) = 5.49288 6.50979 6.02284
#
# Compressibility (1/GPa) = 0.02813618
#
# Stress axis : x y z
#
# Youngs Moduli (GPa) = 65.95522 47.74580 120.24560
#
# Poissons Ratio (x) = 0.02133 0.52335
# Poissons Ratio (y) = 0.02947 0.40210
# Poissons Ratio (z) = 0.28706 0.15966
#
# Static dielectric constant tensor:
#      x y z
#    x 1.911530 0.038740 0.010230 
#    y 0.038740 1.939800 -0.005300 
#    z 0.010230 -0.005300 1.889210 
# 
# From -- ./inp_files/518794.got.cif
#   From: 2010.05.17/outbox.cif.g08.bks.cpg/sg2_260_cif.got.tgz:518794.got - 2010.06.03 11:33:40.
