data_PCOD9102724
_publ_section_title
;
Structure prediction by ZEFSAII (Michael W. Deem and Ramdas Pophale) SiO2 
 PCOD9102724
Probable space group: P -1
;
_chemical_formula_sum "Si O2"
_cell_formula_units_Z 11
_cell_length_a 9.552863
_cell_length_b 10.808311
_cell_length_c 10.371364
_cell_angle_alpha 63.592059
_cell_angle_beta 152.396825
_cell_angle_gamma 119.473915
_cell_volume 431.855636
_symmetry_space_group_name_H-M "P -1"
_symmetry_group_IT_number 2
_symmetry_cell_setting 'triclinic'
loop_
_space_group_symop_operation_xyz
x,y,z
-x,-y,-z
loop_
_atom_site_type_symbol
_atom_site_label
_atom_site_fract_x
_atom_site_fract_y
_atom_site_fract_z
Si Si1 0.000000 0.500000 0.000000
Si Si2 0.387091 0.294029 0.508490
Si Si3 0.129247 0.169246 0.756991
Si Si4 0.484312 0.541381 0.119432
Si Si5 0.865739 0.358270 0.656253
Si Si6 0.580369 0.002275 0.215936
O O1 0.090256 0.351286 0.202559
O O2 0.371414 0.584578 0.273067
O O3 0.580886 0.278245 0.545090
O O4 0.347841 0.145173 0.615659
O O5 0.417849 0.289618 0.880177
O O6 0.981318 0.251830 0.706492
O O7 0.873881 0.114676 0.464368
O O8 0.271207 0.047291 0.994191
O O9 0.750960 0.478963 0.429644
O O10 0.500000 0.500000 0.000000
O O11 0.143847 0.449443 0.932020
O O12 0.500000 0.000000 0.000000
#
# Coordination Sequence:
#
# PCOD9102724 Si02
#       6
#     1   2   2   2   2   2
#     4  10  24  46  68  94 134 176 222 280 338 396
#     4  11  25  45  69 102 132 175 232 279 340 402
#     4  11  23  42  69  98 136 184 220 278 347 393
#     4  10  20  38  64 100 136 171 218 270 336 403
#     4  11  22  40  69 103 136 169 227 290 330 394
#     4  12  27  45  66  96 139 185 232 273 332 424
#
# _framework density 25.471475999999999
#
# number of rings (size 3 to 8) (size 9 to 14) (size 15 to 20)
#    0.000    1.091    0.000    8.182    0.000    7.273 
#    0.000    1.818    0.000    0.000    0.000    0.000 
#    0.000    0.000    0.000    0.000    0.000    0.000 
#
# Total GULP energy -61447.453940 kJ/mol
# GULP energy per Si atom -5586.132176 kJ/mol
# Density = 2.541350 g / cm^3
# Si number density = 25.471476 Si / 1000 Ang^3
#
#
#
# Elastic Constant Matrix: (Units=GPa)
#
#
# Indices 1 2 3 4 5 6 
#
# 1 88.7446 43.5158 32.0099 -13.4160 15.7885 -11.3332
# 2 43.5158 122.6947 72.7575 -19.5141 -16.0009 -30.6696
# 3 32.0099 72.7575 245.6209 -22.9317 -2.7348 -13.5945
# 4 -13.4160 -19.5141 -22.9317 66.2702 -7.3881 0.3468
# 5 15.7885 -16.0009 -2.7348 -7.3881 43.9297 -6.2910
# 6 -11.3332 -30.6696 -13.5945 0.3468 -6.2910 28.8960
#
#
#
# Elastic Compliance Matrix: (Units=1/GPa)
#
#
# Indices 1 2 3 4 5 6 
#
# 1 0.016381 -0.008065 -0.000097 -0.000125 -0.009459 -0.004239
# 2 -0.008065 0.020547 -0.003334 0.004702 0.013834 0.020032
# 3 -0.000097 -0.003334 0.005042 0.000644 -0.000961 -0.001421
# 4 -0.000125 0.004702 0.000644 0.017263 0.005596 0.006255
# 5 -0.009459 0.013834 -0.000961 0.005596 0.034662 0.018001
# 6 -0.004239 0.020032 -0.001421 0.006255 0.018001 0.057381
#
#
# Mechanical properties :
#
#
# Convention : Reuss Voigt Hill
#
# Bulk Modulus (GPa) = 52.69304 83.73629 68.21467
# Shear Modulus (GPa) = 27.68658 48.40431 38.04544
#
# Velocity S-wave (km/s) = 3.30049 4.36401 3.86897
# Velocity P-wave (km/s) = 5.93770 7.63798 6.84087
#
# Compressibility (1/GPa) = 0.01897784
#
# Stress axis : x y z
#
# Youngs Moduli (GPa) = 61.04747 48.66954 198.32483
#
# Poissons Ratio (x) = 0.39252 0.01931
# Poissons Ratio (y) = 0.49235 0.66113
# Poissons Ratio (z) = 0.00594 0.16224
#
# Static dielectric constant tensor:
#      x y z
#    x 2.365650 0.048620 -0.079080 
#    y 0.048620 2.015360 0.024850 
#    z -0.079080 0.024850 1.955190 
# 
# From -- ./inp_files/425364.got.cif
#   From: 2010.05.17/outbox.cif.g08.bks.cpg/sg2_213_cif.got.tgz:425364.got - 2010.06.03 11:33:40.
