data_PCOD9102464
_publ_section_title
;
Structure prediction by ZEFSAII (Michael W. Deem and Ramdas Pophale) SiO2 
 PCOD9102464
Probable space group: P -1
;
_chemical_formula_sum "Si O2"
_cell_formula_units_Z 16
_cell_length_a 6.331319
_cell_length_b 15.691131
_cell_length_c 17.669354
_cell_angle_alpha 156.892887
_cell_angle_beta 79.892787
_cell_angle_gamma 96.955679
_cell_volume 674.505674
_symmetry_space_group_name_H-M "P -1"
_symmetry_group_IT_number 2
_symmetry_cell_setting 'triclinic'
loop_
_space_group_symop_operation_xyz
x,y,z
-x,-y,-z
loop_
_atom_site_type_symbol
_atom_site_label
_atom_site_fract_x
_atom_site_fract_y
_atom_site_fract_z
Si Si1 0.990015 0.318133 0.480956
Si Si2 0.466605 0.663017 0.239722
Si Si3 0.155638 0.050534 0.601177
Si Si4 0.557038 0.599654 0.784359
Si Si5 0.641859 0.804817 0.534756
Si Si6 0.676576 0.359617 0.323816
Si Si7 0.293955 0.965980 0.813489
Si Si8 0.271986 0.745995 0.159498
O O1 0.119214 0.249559 0.492500
O O2 0.134214 0.482231 0.563264
O O3 0.770068 0.465365 0.629211
O O4 0.923810 0.099890 0.266210
O O5 0.664472 0.802755 0.320369
O O6 0.323618 0.649822 0.160884
O O7 0.290890 0.820725 0.428954
O O8 0.591518 0.420351 0.040995
O O9 0.986461 0.191473 0.782482
O O10 0.000000 0.000000 0.500000
O O11 0.427403 0.412312 0.676693
O O12 0.409262 0.682434 0.789347
O O13 0.645559 0.790284 0.982194
O O14 0.490640 0.853283 0.657767
O O15 0.632253 0.021967 0.664458
O O16 0.500000 0.500000 0.500000
O O17 0.721788 0.138347 0.187520
#
# Coordination Sequence:
#
# PCOD9102464 Si02
#       8
#     2   2   2   2   2   2   2   2
#     4  10  21  38  59  83 118 156 195 248 302 355
#     4   9  19  37  64  88 118 153 202 248 300 356
#     4   9  18  35  58  93 121 145 194 249 295 361
#     4  10  23  39  60  87 117 156 203 247 300 356
#     4  10  23  42  57  82 128 157 194 246 301 359
#     4  11  19  38  63  84 119 153 195 259 301 344
#     4  11  22  39  60  86 118 155 202 245 299 362
#     4  10  20  38  63  85 118 163 196 248 303 357
#
# _framework density 23.721077999999999
#
# number of rings (size 3 to 8) (size 9 to 14) (size 15 to 20)
#    0.000    2.000    3.750    1.125    0.000    4.500 
#    9.000    0.000    0.000    0.000    0.000    0.000 
#    0.000    0.000    0.000    0.000    0.000    0.000 
#
# Total GULP energy -89257.143322 kJ/mol
# GULP energy per Si atom -5578.571458 kJ/mol
# Density = 2.366709 g / cm^3
# Si number density = 23.721078 Si / 1000 Ang^3
#
#
#
# Elastic Constant Matrix: (Units=GPa)
#
#
# Indices 1 2 3 4 5 6 
#
# 1 132.5507 21.7690 63.9989 -0.3470 5.6555 14.6059
# 2 21.7690 45.5244 32.8960 8.6133 -4.4202 12.6584
# 3 63.9989 32.8960 167.1065 9.7606 13.4106 11.2409
# 4 -0.3470 8.6133 9.7606 30.0554 2.7042 4.5552
# 5 5.6555 -4.4202 13.4106 2.7042 47.5148 2.3531
# 6 14.6059 12.6584 11.2409 4.5552 2.3531 27.7531
#
#
#
# Elastic Compliance Matrix: (Units=1/GPa)
#
#
# Indices 1 2 3 4 5 6 
#
# 1 0.009819 -0.001871 -0.003269 0.002250 -0.000383 -0.003327
# 2 -0.001871 0.030919 -0.004718 -0.006216 0.005311 -0.010637
# 3 -0.003269 -0.004718 0.008373 -0.001327 -0.002382 0.000901
# 4 0.002250 -0.006216 -0.001327 0.036263 -0.002359 -0.003563
# 5 -0.000383 0.005311 -0.002382 -0.002359 0.022530 -0.002779
# 6 -0.003327 -0.010637 0.000901 -0.003563 -0.002779 0.043090
#
#
# Mechanical properties :
#
#
# Convention : Reuss Voigt Hill
#
# Bulk Modulus (GPa) = 34.01829 64.72326 49.37078
# Shear Modulus (GPa) = 27.69964 36.16584 31.93274
#
# Velocity S-wave (km/s) = 3.42090 3.90889 3.67301
# Velocity P-wave (km/s) = 5.47499 6.90774 6.23267
#
# Compressibility (1/GPa) = 0.02939595
#
# Stress axis : x y z
#
# Youngs Moduli (GPa) = 101.84639 32.34208 119.43172
#
# Poissons Ratio (x) = 0.06051 0.39042
# Poissons Ratio (y) = 0.19054 0.56346
# Poissons Ratio (z) = 0.33293 0.15258
#
# Static dielectric constant tensor:
#      x y z
#    x 1.899950 -0.025090 -0.002440 
#    y -0.025090 1.973850 -0.011920 
#    z -0.002440 -0.011920 1.956890 
# 
# From -- ./inp_files/51079.got.cif
#   From: 2010.05.17/outbox.cif.g08.bks.cpg/sg2_26_cif.got.tgz:51079.got - 2010.06.03 11:33:40.
