data_PCOD9102496
_publ_section_title
;
Structure prediction by ZEFSAII (Michael W. Deem and Ramdas Pophale) SiO2 
 PCOD9102496
Probable space group: P -1
;
_chemical_formula_sum "Si O2"
_cell_formula_units_Z 16
_cell_length_a 8.893429
_cell_length_b 17.467917
_cell_length_c 14.073136
_cell_angle_alpha 32.865098
_cell_angle_beta 121.498260
_cell_angle_gamma 142.961643
_cell_volume 637.176245
_symmetry_space_group_name_H-M "P -1"
_symmetry_group_IT_number 2
_symmetry_cell_setting 'triclinic'
loop_
_space_group_symop_operation_xyz
x,y,z
-x,-y,-z
loop_
_atom_site_type_symbol
_atom_site_label
_atom_site_fract_x
_atom_site_fract_y
_atom_site_fract_z
Si Si1 0.047165 0.588507 0.073205
Si Si2 0.595269 0.821430 0.575938
Si Si3 0.388817 0.843663 0.729606
Si Si4 0.546698 0.973043 0.939199
Si Si5 0.703456 0.355226 0.507453
Si Si6 0.961143 0.864229 0.771390
Si Si7 0.902632 0.986399 0.816618
Si Si8 0.181684 0.278185 0.780083
O O1 0.225591 0.692889 0.926574
O O2 0.949000 0.688723 0.948737
O O3 0.288673 0.710634 0.103009
O O4 0.780635 0.326125 0.238208
O O5 0.642258 0.007656 0.435289
O O6 0.300040 0.626330 0.626846
O O7 0.679756 0.757483 0.745918
O O8 0.803805 0.933842 0.435902
O O9 0.700379 0.978533 0.711454
O O10 0.530810 0.105302 0.732015
O O11 0.856613 0.107212 0.883027
O O12 0.500000 0.000000 0.000000
O O13 0.643852 0.470458 0.413558
O O14 0.000000 0.500000 0.500000
O O15 0.003139 0.951314 0.799886
O O16 0.731540 0.782707 0.048702
O O17 0.142675 0.202123 0.738470
#
# Coordination Sequence:
#
# PCOD9102496 Si02
#       8
#     2   2   2   2   2   2   2   2
#     4  10  20  39  62  89 120 166 209 252 316 378
#     4  10  21  43  64  92 130 167 207 270 320 370
#     4  10  20  38  63  87 126 161 206 262 314 377
#     4  11  20  40  66  90 125 168 213 260 311 384
#     4  10  20  40  64  90 125 166 213 261 317 376
#     4  10  22  39  66  89 126 166 209 262 322 377
#     4  11  22  42  62  92 131 165 214 268 319 374
#     4  10  23  39  64  92 127 171 211 264 319 374
#
# _framework density 25.110790000000001
#
# number of rings (size 3 to 8) (size 9 to 14) (size 15 to 20)
#    0.000    1.750    3.750    1.500    1.750    1.000 
#    6.750    0.625    0.000    0.000    0.000    0.000 
#    0.000    0.000    0.000    0.000    0.000    0.000 
#
# Total GULP energy -89444.511438 kJ/mol
# GULP energy per Si atom -5590.281965 kJ/mol
# Density = 2.505364 g / cm^3
# Si number density = 25.110790 Si / 1000 Ang^3
#
#
#
# Elastic Constant Matrix: (Units=GPa)
#
#
# Indices 1 2 3 4 5 6 
#
# 1 97.3360 45.9424 10.2128 3.9009 8.8241 -19.4347
# 2 45.9424 178.8352 29.2546 7.3738 8.1146 -27.7200
# 3 10.2128 29.2546 39.6528 11.4750 -5.3561 -0.5166
# 4 3.9009 7.3738 11.4750 36.3842 4.2951 4.8283
# 5 8.8241 8.1146 -5.3561 4.2951 41.0721 0.8379
# 6 -19.4347 -27.7200 -0.5166 4.8283 0.8379 53.9064
#
#
#
# Elastic Compliance Matrix: (Units=1/GPa)
#
#
# Indices 1 2 3 4 5 6 
#
# 1 0.012437 -0.002264 -0.001675 -0.000506 -0.002460 0.003388
# 2 -0.002264 0.007579 -0.005258 0.000171 -0.001777 0.003043
# 3 -0.001675 -0.005258 0.033239 -0.009745 0.006798 -0.002222
# 4 -0.000506 0.000171 -0.009745 0.031491 -0.004429 -0.002939
# 5 -0.002460 -0.001777 0.006798 -0.004429 0.026612 -0.001752
# 6 0.003388 0.003043 -0.002222 -0.002939 -0.001752 0.021606
#
#
# Mechanical properties :
#
#
# Convention : Reuss Voigt Hill
#
# Bulk Modulus (GPa) = 28.68490 54.07151 41.37820
# Shear Modulus (GPa) = 30.67899 41.63348 36.15623
#
# Velocity S-wave (km/s) = 3.49914 4.07626 3.79868
# Velocity P-wave (km/s) = 5.27005 6.61320 5.97946
#
# Compressibility (1/GPa) = 0.03486155
#
# Stress axis : x y z
#
# Youngs Moduli (GPa) = 80.40216 131.95003 30.08510
#
# Poissons Ratio (x) = 0.29868 0.05040
# Poissons Ratio (y) = 0.18200 0.15819
# Poissons Ratio (z) = 0.13468 0.69381
#
# Static dielectric constant tensor:
#      x y z
#    x 2.084800 0.046550 -0.071890 
#    y 0.046550 2.120470 0.017850 
#    z -0.071890 0.017850 2.059070 
# 
# From -- ./inp_files/176382.got.cif
#   From: 2010.05.17/outbox.cif.g08.bks.cpg/sg2_89_cif.got.tgz:176382.got - 2010.06.03 11:33:40.
