data_PCOD9102851
_publ_section_title
;
Structure prediction by ZEFSAII (Michael W. Deem and Ramdas Pophale) SiO2 
 PCOD9102851
Probable space group: P -1
;
_chemical_formula_sum "Si O2"
_cell_formula_units_Z 15
_cell_length_a 20.330768
_cell_length_b 13.544275
_cell_length_c 5.533337
_cell_angle_alpha 72.161133
_cell_angle_beta 108.269583
_cell_angle_gamma 158.010293
_cell_volume 541.245684
_symmetry_space_group_name_H-M "P -1"
_symmetry_group_IT_number 2
_symmetry_cell_setting 'triclinic'
loop_
_space_group_symop_operation_xyz
x,y,z
-x,-y,-z
loop_
_atom_site_type_symbol
_atom_site_label
_atom_site_fract_x
_atom_site_fract_y
_atom_site_fract_z
Si Si1 0.581959 0.540514 0.357081
Si Si2 0.609133 0.405776 0.857463
Si Si3 0.349278 0.894390 0.437572
Si Si4 0.000000 0.000000 0.000000
Si Si5 0.986642 0.602262 0.336575
Si Si6 0.055636 0.888699 0.534270
Si Si7 0.696551 0.945772 0.909849
Si Si8 0.701288 0.344180 0.759457
O O1 0.500000 0.500000 0.500000
O O2 0.627204 0.490960 0.561062
O O3 0.428417 0.312440 0.158942
O O4 0.773086 0.853978 0.297762
O O5 0.621806 0.299423 0.921557
O O6 0.779766 0.676551 0.002892
O O7 0.416556 0.174816 0.900412
O O8 0.280375 0.751838 0.210680
O O9 0.223566 0.670681 0.667008
O O10 0.322019 0.978894 0.338350
O O11 0.554651 0.164404 0.520071
O O12 0.965577 0.050324 0.735030
O O13 0.068188 0.796738 0.475692
O O14 0.000000 0.500000 0.500000
O O15 0.092280 0.774669 0.083092
O O16 0.884416 0.652071 0.682386
#
# Coordination Sequence:
#
# PCOD9102851 Si02
#       8
#     2   2   2   1   2   2   2   2
#     4  11  23  41  65  90 127 172 212 263 321 380
#     4  11  25  39  61  98 126 169 212 256 330 381
#     4   9  19  38  67  88 120 170 209 264 314 371
#     4  10  24  38  58  96 136 164 208 266 314 388
#     4   9  19  38  67  90 121 167 219 264 319 369
#     4  10  21  40  63  97 125 172 213 258 327 380
#     4  11  21  40  64  93 128 164 213 270 313 382
#     4  10  20  38  64  90 126 167 211 257 316 383
#
# _framework density 27.713847999999999
#
# number of rings (size 3 to 8) (size 9 to 14) (size 15 to 20)
#    0.000    1.867    2.667    0.800    1.867    2.133 
#    0.000    0.667    0.000    0.000    0.000    0.000 
#    0.000    0.000    0.000    0.000    0.000    0.000 
#
# Total GULP energy -83585.653966 kJ/mol
# GULP energy per Si atom -5572.376931 kJ/mol
# Density = 2.765077 g / cm^3
# Si number density = 27.713848 Si / 1000 Ang^3
#
#
#
# Elastic Constant Matrix: (Units=GPa)
#
#
# Indices 1 2 3 4 5 6 
#
# 1 119.4028 49.9337 43.5859 2.2859 -3.3354 -6.9881
# 2 49.9337 217.2658 63.6494 -23.5232 -4.7244 23.8784
# 3 43.5859 63.6494 69.1777 2.6067 7.0249 5.4377
# 4 2.2859 -23.5232 2.6067 43.5845 12.8385 -4.0438
# 5 -3.3354 -4.7244 7.0249 12.8385 48.7808 -4.4635
# 6 -6.9881 23.8784 5.4377 -4.0438 -4.4635 52.8255
#
#
#
# Elastic Compliance Matrix: (Units=1/GPa)
#
#
# Indices 1 2 3 4 5 6 
#
# 1 0.011503 -0.001082 -0.006651 -0.001180 0.002206 0.002791
# 2 -0.001082 0.007350 -0.006058 0.004093 0.000203 -0.002511
# 3 -0.006651 -0.006058 0.024839 -0.003393 -0.003843 -0.001283
# 4 -0.001180 0.004093 -0.003393 0.027289 -0.006388 -0.000108
# 5 0.002206 0.000203 -0.003843 -0.006388 0.023093 0.002058
# 6 0.002791 -0.002511 -0.001283 -0.000108 0.002058 0.020732
#
#
# Mechanical properties :
#
#
# Convention : Reuss Voigt Hill
#
# Bulk Modulus (GPa) = 62.07511 80.02047 71.04779
# Shear Modulus (GPa) = 33.83914 45.61665 39.72789
#
# Velocity S-wave (km/s) = 3.49810 4.06148 3.79027
# Velocity P-wave (km/s) = 6.22598 7.13657 6.69677
#
# Compressibility (1/GPa) = 0.01610952
#
# Stress axis : x y z
#
# Youngs Moduli (GPa) = 86.93535 136.06175 40.25932
#
# Poissons Ratio (x) = 0.14719 0.26776
# Poissons Ratio (y) = 0.09405 0.24390
# Poissons Ratio (z) = 0.57821 0.82428
#
# Static dielectric constant tensor:
#      x y z
#    x 2.403740 0.056200 -0.046970 
#    y 0.056200 2.153700 -0.064360 
#    z -0.046970 -0.064360 2.222220 
# 
# From -- ./inp_files/124033.got.cif
#   From: 2010.05.17/outbox.cif.g08.bks.cpg/sg2_63_cif.got.tgz:124033.got - 2010.06.03 11:33:40.
