data_PCOD9102444
_publ_section_title
;
Structure prediction by ZEFSAII (Michael W. Deem and Ramdas Pophale) SiO2 
 PCOD9102444
Probable space group: P -1
;
_chemical_formula_sum "Si O2"
_cell_formula_units_Z 16
_cell_length_a 7.448991
_cell_length_b 18.957950
_cell_length_c 11.482068
_cell_angle_alpha 35.546011
_cell_angle_beta 123.408627
_cell_angle_gamma 100.112348
_cell_volume 651.215240
_symmetry_space_group_name_H-M "P -1"
_symmetry_group_IT_number 2
_symmetry_cell_setting 'triclinic'
loop_
_space_group_symop_operation_xyz
x,y,z
-x,-y,-z
loop_
_atom_site_type_symbol
_atom_site_label
_atom_site_fract_x
_atom_site_fract_y
_atom_site_fract_z
Si Si1 0.952812 0.519862 0.818320
Si Si2 0.912253 0.819202 0.392440
Si Si3 0.790893 0.205704 0.787354
Si Si4 0.294957 0.788788 0.982293
Si Si5 0.486113 0.475861 0.717916
Si Si6 0.494877 0.634683 0.874206
Si Si7 0.683581 0.050494 0.796815
Si Si8 0.785666 0.915412 0.488222
O O1 0.898435 0.678653 0.555241
O O2 0.716329 0.500516 0.742765
O O3 0.222954 0.401369 0.008672
O O4 0.000000 0.500000 0.000000
O O5 0.727102 0.944450 0.065348
O O6 0.855986 0.866115 0.444444
O O7 0.211496 0.771430 0.547824
O O8 0.760886 0.359786 0.567269
O O9 0.055799 0.063032 0.028492
O O10 0.737771 0.186435 0.925830
O O11 0.604534 0.198786 0.637222
O O12 0.318250 0.914302 0.767936
O O13 0.515599 0.621878 0.253858
O O14 0.029217 0.822659 0.783684
O O15 0.531767 0.381790 0.975692
O O16 0.500000 0.500000 0.000000
O O17 0.458876 0.091483 0.571255
#
# Coordination Sequence:
#
# PCOD9102444 Si02
#       8
#     2   2   2   2   2   2   2   2
#     4  11  21  35  66 104 134 180 223 279 350 400
#     4  11  20  41  68  98 136 173 230 292 334 401
#     4  11  25  45  69 101 139 175 228 299 338 401
#     4  11  25  46  67  94 139 188 221 281 346 417
#     4  12  23  44  64 101 143 179 227 280 348 409
#     4  10  20  38  63 101 140 175 220 291 340 400
#     4  11  25  44  71 102 132 178 237 289 341 403
#     4  11  23  45  69  94 131 188 231 268 352 413
#
# _framework density 24.569451000000001
#
# number of rings (size 3 to 8) (size 9 to 14) (size 15 to 20)
#    0.000    1.000    5.000    3.000    1.750    0.500 
#    4.500    0.625    0.000    0.000    0.000    0.000 
#    0.000    0.000    0.000    0.000    0.000    0.000 
#
# Total GULP energy -89464.705819 kJ/mol
# GULP energy per Si atom -5591.544114 kJ/mol
# Density = 2.451353 g / cm^3
# Si number density = 24.569451 Si / 1000 Ang^3
#
#
#
# Elastic Constant Matrix: (Units=GPa)
#
#
# Indices 1 2 3 4 5 6 
#
# 1 86.6203 23.7312 8.5961 -1.1084 13.7884 -19.3967
# 2 23.7312 118.3854 27.4444 -24.5241 7.4088 -10.1832
# 3 8.5961 27.4444 90.3928 -27.8939 -8.8143 -7.0808
# 4 -1.1084 -24.5241 -27.8939 51.9520 0.5729 -2.1525
# 5 13.7884 7.4088 -8.8143 0.5729 41.9037 -0.5912
# 6 -19.3967 -10.1832 -7.0808 -2.1525 -0.5912 25.1210
#
#
#
# Elastic Compliance Matrix: (Units=1/GPa)
#
#
# Indices 1 2 3 4 5 6 
#
# 1 0.015233 -0.001764 -0.000638 -0.000354 -0.004679 0.010727
# 2 -0.001764 0.010366 -0.001665 0.004091 -0.001621 0.002683
# 3 -0.000638 -0.001665 0.014428 0.007057 0.003494 0.003586
# 4 -0.000354 0.004091 0.007057 0.025184 0.000612 0.005546
# 5 -0.004679 -0.001621 0.003494 0.000612 0.026380 -0.002612
# 6 0.010727 0.002683 0.003586 0.005546 -0.002612 0.050602
#
#
# Mechanical properties :
#
#
# Convention : Reuss Voigt Hill
#
# Bulk Modulus (GPa) = 31.35394 46.10464 38.72929
# Shear Modulus (GPa) = 31.06359 39.50380 35.28370
#
# Velocity S-wave (km/s) = 3.55958 4.01414 3.79368
# Velocity P-wave (km/s) = 5.44823 6.34746 5.91496
#
# Compressibility (1/GPa) = 0.03189392
#
# Stress axis : x y z
#
# Youngs Moduli (GPa) = 65.64492 96.46747 69.30765
#
# Poissons Ratio (x) = 0.17012 0.04425
# Poissons Ratio (y) = 0.11577 0.11540
# Poissons Ratio (z) = 0.04191 0.16063
#
# Static dielectric constant tensor:
#      x y z
#    x 2.107750 0.039680 0.042030 
#    y 0.039680 1.966350 -0.003750 
#    z 0.042030 -0.003750 2.019640 
# 
# From -- ./inp_files/402886.got.cif
#   From: 2010.05.17/outbox.cif.g08.bks.cpg/sg2_202_cif.got.tgz:402886.got - 2010.06.03 11:33:40.
