data_PCOD9102766
_publ_section_title
;
Structure prediction by ZEFSAII (Michael W. Deem and Ramdas Pophale) SiO2 
 PCOD9102766
Probable space group: P -1
;
_chemical_formula_sum "Si O2"
_cell_formula_units_Z 16
_cell_length_a 9.031007
_cell_length_b 15.719017
_cell_length_c 8.955074
_cell_angle_alpha 33.181328
_cell_angle_beta 92.829640
_cell_angle_gamma 102.021887
_cell_volume 661.683118
_symmetry_space_group_name_H-M "P -1"
_symmetry_group_IT_number 2
_symmetry_cell_setting 'triclinic'
loop_
_space_group_symop_operation_xyz
x,y,z
-x,-y,-z
loop_
_atom_site_type_symbol
_atom_site_label
_atom_site_fract_x
_atom_site_fract_y
_atom_site_fract_z
Si Si1 0.838252 0.897500 0.342820
Si Si2 0.845261 0.680028 0.163262
Si Si3 0.398486 0.672389 0.278204
Si Si4 0.637679 0.161083 0.429645
Si Si5 0.411591 0.285283 0.076612
Si Si6 0.174147 0.009381 0.124410
Si Si7 0.819225 0.183089 0.105723
Si Si8 0.508235 0.648938 0.644230
O O1 0.684520 0.743139 0.565731
O O2 0.009608 0.878824 0.357779
O O3 0.846898 0.012964 0.315752
O O4 0.815317 0.991771 0.051286
O O5 0.735976 0.501403 0.462053
O O6 0.767277 0.740284 0.928021
O O7 0.017676 0.685088 0.121086
O O8 0.844094 0.814925 0.089597
O O9 0.508293 0.672547 0.143600
O O10 0.489198 0.701865 0.394335
O O11 0.312430 0.801596 0.037802
O O12 0.685202 0.025483 0.726824
O O13 0.761862 0.206188 0.234831
O O14 0.621382 0.293582 0.356100
O O15 0.474584 0.145733 0.356380
O O16 0.476097 0.455452 0.917680
#
# Coordination Sequence:
#
# PCOD9102766 Si02
#       8
#     2   2   2   2   2   2   2   2
#     4  10  22  40  63  86 116 154 195 240 287 342
#     4  10  20  38  64  86 116 154 195 240 288 341
#     4  10  20  39  65  89 113 149 199 244 285 340
#     4  11  25  40  57  88 123 154 194 238 289 349
#     4  10  22  40  61  88 117 151 193 241 295 344
#     4  10  22  40  61  89 117 150 194 241 291 343
#     4  10  23  39  59  89 120 154 193 237 290 345
#     4  11  22  40  62  85 117 155 196 240 288 341
#
# _framework density 24.180758000000001
#
# number of rings (size 3 to 8) (size 9 to 14) (size 15 to 20)
#    0.000    1.750    0.000    4.500    0.000    9.000 
#    0.000    8.125    0.000    0.000    0.000    0.000 
#    0.000    0.000    0.000    0.000    0.000    0.000 
#
# Total GULP energy -89451.797409 kJ/mol
# GULP energy per Si atom -5590.737338 kJ/mol
# Density = 2.412572 g / cm^3
# Si number density = 24.180758 Si / 1000 Ang^3
#
#
#
# Elastic Constant Matrix: (Units=GPa)
#
#
# Indices 1 2 3 4 5 6 
#
# 1 114.8527 29.6610 29.5064 5.1582 -12.4988 -1.4623
# 2 29.6610 118.3242 17.6975 -0.0768 -13.2239 -17.4422
# 3 29.5064 17.6975 91.7014 7.7790 -0.1702 -5.5077
# 4 5.1582 -0.0768 7.7790 34.7515 11.7101 0.3621
# 5 -12.4988 -13.2239 -0.1702 11.7101 40.2291 2.2037
# 6 -1.4623 -17.4422 -5.5077 0.3621 2.2037 49.3236
#
#
#
# Elastic Compliance Matrix: (Units=1/GPa)
#
#
# Indices 1 2 3 4 5 6 
#
# 1 0.010361 -0.001939 -0.002836 -0.001974 0.003189 -0.000823
# 2 -0.001939 0.009852 -0.001051 -0.000351 0.002558 0.003197
# 3 -0.002836 -0.001051 0.012257 -0.002131 -0.000607 0.000956
# 4 -0.001974 -0.000351 -0.002131 0.033032 -0.010341 -0.000201
# 5 0.003189 0.002558 -0.000607 -0.010341 0.029715 -0.000320
# 6 -0.000823 0.003197 0.000956 -0.000201 -0.000320 0.021503
#
#
# Mechanical properties :
#
#
# Convention : Reuss Voigt Hill
#
# Bulk Modulus (GPa) = 48.03430 53.17868 50.60649
# Shear Modulus (GPa) = 36.95193 41.39507 39.17350
#
# Velocity S-wave (km/s) = 3.91340 4.14200 4.02932
# Velocity P-wave (km/s) = 6.35039 6.70185 6.52848
#
# Compressibility (1/GPa) = 0.02081846
#
# Stress axis : x y z
#
# Youngs Moduli (GPa) = 96.51195 101.50563 81.58464
#
# Poissons Ratio (x) = 0.19686 0.23135
# Poissons Ratio (y) = 0.18718 0.08572
# Poissons Ratio (z) = 0.27369 0.10665
#
# Static dielectric constant tensor:
#      x y z
#    x 1.919170 0.015420 -0.020820 
#    y 0.015420 1.975740 0.039160 
#    z -0.020820 0.039160 1.993370 
# 
# From -- ./inp_files/205264.got.cif
#   From: 2010.05.17/outbox.cif.g08.bks.cpg/sg2_103_cif.got.tgz:205264.got - 2010.06.03 11:33:40.
