data_PCOD9102385
_publ_section_title
;
Structure prediction by ZEFSAII (Michael W. Deem and Ramdas Pophale) SiO2 
 PCOD9102385
Probable space group: P -1
;
_chemical_formula_sum "Si O2"
_cell_formula_units_Z 16
_cell_length_a 8.379078
_cell_length_b 21.794119
_cell_length_c 17.211785
_cell_angle_alpha 20.666594
_cell_angle_beta 139.996618
_cell_angle_gamma 140.045229
_cell_volume 695.676909
_symmetry_space_group_name_H-M "P -1"
_symmetry_group_IT_number 2
_symmetry_cell_setting 'triclinic'
loop_
_space_group_symop_operation_xyz
x,y,z
-x,-y,-z
loop_
_atom_site_type_symbol
_atom_site_label
_atom_site_fract_x
_atom_site_fract_y
_atom_site_fract_z
Si Si1 0.079538 0.914440 0.847582
Si Si2 0.306890 0.963903 0.221523
Si Si3 0.972055 0.414753 0.714973
Si Si4 0.485738 0.359702 0.380041
Si Si5 0.252103 0.238841 0.758223
Si Si6 0.490684 0.228960 0.692700
Si Si7 0.540338 0.928526 0.686072
Si Si8 0.997607 0.853838 0.604946
O O1 0.328091 0.033351 0.840589
O O2 0.040990 0.027274 0.625041
O O3 0.083569 0.707582 0.083453
O O4 0.820029 0.889886 0.829876
O O5 0.400534 0.818104 0.377430
O O6 0.423944 0.950811 0.365910
O O7 0.004247 0.908062 0.182645
O O8 0.375783 0.152141 0.978931
O O9 0.846677 0.585070 0.466719
O O10 0.799743 0.283201 0.743747
O O11 0.272730 0.483272 0.733393
O O12 0.409645 0.356603 0.445585
O O13 0.238159 0.316364 0.284104
O O14 0.405331 0.269178 0.699322
O O15 0.500000 0.000000 0.500000
O O16 0.269150 0.799800 0.758615
O O17 0.000000 0.000000 0.500000
#
# Coordination Sequence:
#
# PCOD9102385 Si02
#       8
#     2   2   2   2   2   2   2   2
#     4  10  23  39  66  93 125 166 217 261 315 387
#     4  10  20  38  62  94 128 166 208 256 320 382
#     4  11  24  41  59  95 135 168 201 265 327 375
#     4  10  23  38  61  92 131 166 210 265 315 375
#     4  10  23  38  62  94 132 166 206 257 318 388
#     4  11  22  39  62  93 126 173 211 249 315 395
#     4  10  20  38  65  91 118 163 222 261 304 373
#     4  10  20  39  66  92 117 166 223 265 314 372
#
# _framework density 22.999181
#
# number of rings (size 3 to 8) (size 9 to 14) (size 15 to 20)
#    0.000    1.750    2.500    1.125    5.250    2.000 
#    0.000    2.500    0.000    3.000    0.000    0.000 
#    0.000    0.000    0.000    0.000    0.000    0.000 
#
# Total GULP energy -89119.011742 kJ/mol
# GULP energy per Si atom -5569.938234 kJ/mol
# Density = 2.294683 g / cm^3
# Si number density = 22.999181 Si / 1000 Ang^3
#
#
#
# Elastic Constant Matrix: (Units=GPa)
#
#
# Indices 1 2 3 4 5 6 
#
# 1 102.6165 62.0842 10.1619 -2.0947 -10.9178 18.5636
# 2 62.0842 169.4617 31.5209 0.5333 -13.2218 35.4183
# 3 10.1619 31.5209 53.2043 -20.5446 -12.3274 -2.0479
# 4 -2.0947 0.5333 -20.5446 33.6774 9.1325 -5.0402
# 5 -10.9178 -13.2218 -12.3274 9.1325 19.9674 4.0510
# 6 18.5636 35.4183 -2.0479 -5.0402 4.0510 46.0185
#
#
#
# Elastic Compliance Matrix: (Units=1/GPa)
#
#
# Indices 1 2 3 4 5 6 
#
# 1 0.013174 -0.003906 0.000818 -0.000682 0.006017 -0.002876
# 2 -0.003906 0.011129 -0.007997 -0.008185 0.005816 -0.008754
# 3 0.000818 -0.007997 0.032501 0.020260 0.004099 0.009130
# 4 -0.000682 -0.008185 0.020260 0.049427 -0.018843 0.014549
# 5 0.006017 0.005816 0.004099 -0.018843 0.071430 -0.015073
# 6 -0.002876 -0.008754 0.009130 0.014549 -0.015073 0.032955
#
#
# Mechanical properties :
#
#
# Convention : Reuss Voigt Hill
#
# Bulk Modulus (GPa) = 28.87354 59.20183 44.03768
# Shear Modulus (GPa) = 20.46414 34.70035 27.58224
#
# Velocity S-wave (km/s) = 2.98615 3.88850 3.46681
# Velocity P-wave (km/s) = 4.94680 6.77918 5.93414
#
# Compressibility (1/GPa) = 0.03463379
#
# Stress axis : x y z
#
# Youngs Moduli (GPa) = 75.90944 89.85859 30.76781
#
# Poissons Ratio (x) = 0.35096 -0.02517
# Poissons Ratio (y) = 0.29648 0.24606
# Poissons Ratio (z) = -0.06209 0.71862
#
# Static dielectric constant tensor:
#      x y z
#    x 1.917670 0.043120 0.001330 
#    y 0.043120 1.924330 0.040410 
#    z 0.001330 0.040410 1.926560 
# 
# From -- ./inp_files/563283.got.cif
#   From: 2010.05.17/outbox.cif.g08.bks.cpg/sg2_282_cif.got.tgz:563283.got - 2010.06.03 11:33:40.
