data_PCOD9102901
_publ_section_title
;
Structure prediction by ZEFSAII (Michael W. Deem and Ramdas Pophale) SiO2 
 PCOD9102901
Probable space group: P -1
;
_chemical_formula_sum "Si O2"
_cell_formula_units_Z 16
_cell_length_a 7.991179
_cell_length_b 14.197099
_cell_length_c 14.299978
_cell_angle_alpha 134.337917
_cell_angle_beta 138.247042
_cell_angle_gamma 41.084745
_cell_volume 674.520335
_symmetry_space_group_name_H-M "P -1"
_symmetry_group_IT_number 2
_symmetry_cell_setting 'triclinic'
loop_
_space_group_symop_operation_xyz
x,y,z
-x,-y,-z
loop_
_atom_site_type_symbol
_atom_site_label
_atom_site_fract_x
_atom_site_fract_y
_atom_site_fract_z
Si Si1 0.314334 0.809150 0.190684
Si Si2 0.030231 0.350881 0.624418
Si Si3 0.699500 0.701388 0.726832
Si Si4 0.720384 0.828962 0.007344
Si Si5 0.041016 0.169633 0.335328
Si Si6 0.861338 0.180374 0.071577
Si Si7 0.600932 0.135724 0.458243
Si Si8 0.893970 0.812171 0.273227
O O1 0.630177 0.709764 0.293781
O O2 0.052850 0.782783 0.093690
O O3 0.187443 0.988227 0.280714
O O4 0.361048 0.769439 0.071239
O O5 0.943447 0.256194 0.451857
O O6 0.001704 0.322500 0.702670
O O7 0.845365 0.525724 0.646087
O O8 0.437602 0.792771 0.611017
O O9 0.911352 0.767405 0.831061
O O10 0.649647 0.732110 0.837450
O O11 0.720636 0.814654 0.109773
O O12 0.500000 0.000000 0.000000
O O13 0.296819 0.199179 0.425285
O O14 0.817070 0.218411 0.189291
O O15 0.000000 0.000000 0.000000
O O16 0.834809 0.165197 0.627644
O O17 0.709424 0.960179 0.362712
#
# Coordination Sequence:
#
# PCOD9102901 Si02
#       8
#     2   2   2   2   2   2   2   2
#     4  10  21  38  64  94 124 165 217 265 308 379
#     4  12  25  38  62  99 136 166 204 268 330 377
#     4  10  23  42  63  94 133 165 210 267 323 378
#     4  11  23  42  68  91 122 172 220 264 316 377
#     4  10  20  38  64  92 126 169 211 261 314 377
#     4   8  18  36  61  87 121 159 210 258 302 368
#     4  10  21  41  64  91 128 164 219 262 305 384
#     4  11  24  38  64  94 124 171 214 263 314 377
#
# _framework density 23.720559999999999
#
# number of rings (size 3 to 8) (size 9 to 14) (size 15 to 20)
#    0.000    1.750    2.500    1.125    3.500    6.000 
#    0.000    1.250    0.000    3.000    0.000    0.000 
#    0.000    0.000    0.000    0.000    0.000    0.000 
#
# Total GULP energy -89408.259548 kJ/mol
# GULP energy per Si atom -5588.016222 kJ/mol
# Density = 2.366657 g / cm^3
# Si number density = 23.720560 Si / 1000 Ang^3
#
#
#
# Elastic Constant Matrix: (Units=GPa)
#
#
# Indices 1 2 3 4 5 6 
#
# 1 88.6441 -12.4275 14.6477 7.1619 -6.2495 13.2983
# 2 -12.4275 45.6356 22.5169 10.8073 -2.9353 13.3340
# 3 14.6477 22.5169 100.3314 -33.8967 -28.0056 -12.1262
# 4 7.1619 10.8073 -33.8967 18.1133 2.2549 -10.3213
# 5 -6.2495 -2.9353 -28.0056 2.2549 35.9425 -7.5937
# 6 13.2983 13.3340 -12.1262 -10.3213 -7.5937 16.6267
#
#
#
# Elastic Compliance Matrix: (Units=1/GPa)
#
#
# Indices 1 2 3 4 5 6 
#
# 1 0.009120 -0.002722 0.004139 0.008166 0.005207 0.005354
# 2 -0.002722 0.009920 0.007733 0.016512 0.008260 0.013884
# 3 0.004139 0.007733 0.001696 -0.012034 0.000111 -0.015695
# 4 0.008166 0.016512 -0.012034 0.002263 -0.013819 -0.033457
# 5 0.005207 0.008260 0.000111 -0.013819 0.029088 -0.006001
# 6 0.005354 0.013884 -0.015695 -0.033457 -0.006001 0.009772
#
#
# Mechanical properties :
#
#
# Convention : Reuss Voigt Hill
#
# Bulk Modulus (GPa) = 25.61735 31.56503 28.59119
# Shear Modulus (GPa) = 88.38623 28.12808 58.25715
#
# Velocity S-wave (km/s) = 6.11084 3.44730 4.96116
# Velocity P-wave (km/s) = 7.78543 5.40195 6.70052
#
# Compressibility (1/GPa) = 0.03903604
#
# Stress axis : x y z
#
# Youngs Moduli (GPa) = 109.65157 100.80493 589.73887
#
# Poissons Ratio (x) = 0.27436 -2.44073
# Poissons Ratio (y) = 0.29844 -4.56060
# Poissons Ratio (z) = -0.45381 -0.77955
#
# Static dielectric constant tensor:
#      x y z
#    x 2.033090 0.020820 0.041500 
#    y 0.020820 1.820550 -0.019150 
#    z 0.041500 -0.019150 1.989400 
# 
# From -- ./inp_files/505640.got.cif
#   From: 2010.05.17/outbox.cif.g08.bks.cpg/sg2_253_cif.got.tgz:505640.got - 2010.06.03 11:33:40.
