data_PCOD9102996
_publ_section_title
;
Structure prediction by ZEFSAII (Michael W. Deem and Ramdas Pophale) SiO2 
 PCOD9102996
Probable space group: P -1
;
_chemical_formula_sum "Si O2"
_cell_formula_units_Z 16
_cell_length_a 10.124548
_cell_length_b 11.106633
_cell_length_c 6.545029
_cell_angle_alpha 75.967678
_cell_angle_beta 105.377027
_cell_angle_gamma 98.772165
_cell_volume 685.395036
_symmetry_space_group_name_H-M "P -1"
_symmetry_group_IT_number 2
_symmetry_cell_setting 'triclinic'
loop_
_space_group_symop_operation_xyz
x,y,z
-x,-y,-z
loop_
_atom_site_type_symbol
_atom_site_label
_atom_site_fract_x
_atom_site_fract_y
_atom_site_fract_z
Si Si1 0.708091 0.776445 0.363019
Si Si2 0.224386 0.968762 0.908370
Si Si3 0.042335 0.776196 0.142992
Si Si4 0.235878 0.615259 0.027550
Si Si5 0.770804 0.681016 0.844959
Si Si6 0.798782 0.218373 0.406107
Si Si7 0.539602 0.637063 0.047304
Si Si8 0.561168 0.106468 0.636097
O O1 0.791061 0.745048 0.608665
O O2 0.652870 0.652769 0.265881
O O3 0.567694 0.830632 0.356337
O O4 0.777642 0.888144 0.209450
O O5 0.224081 0.889694 0.730114
O O6 0.094227 0.905894 0.003386
O O7 0.352699 0.948855 0.119565
O O8 0.072109 0.788151 0.389612
O O9 0.145636 0.680052 0.129279
O O10 0.893388 0.726379 0.026190
O O11 0.184541 0.653873 0.767195
O O12 0.231295 0.468179 0.117101
O O13 0.395175 0.673930 0.058617
O O14 0.623020 0.709123 0.867887
O O15 0.667521 0.199065 0.510437
O O16 0.500000 0.500000 0.000000
O O17 0.500000 0.000000 0.500000
#
# Coordination Sequence:
#
# PCOD9102996 Si02
#       8
#     2   2   2   2   2   2   2   2
#     4  12  24  39  66  96 139 171 213 276 329 392
#     4  10  23  39  64 100 125 168 221 270 324 390
#     4  10  23  43  67  93 131 175 231 267 320 391
#     4  10  22  42  67  94 129 169 233 272 321 388
#     4  11  26  42  63  97 134 181 217 264 336 394
#     4  10  20  38  64  95 129 166 219 284 315 371
#     4  10  24  42  63  95 133 168 214 268 331 389
#     4  11  22  37  69  98 130 168 223 268 332 388
#
# _framework density 23.344201999999999
#
# number of rings (size 3 to 8) (size 9 to 14) (size 15 to 20)
#    0.000    1.500    1.250    3.750    3.500    7.000 
#    0.000    1.250    0.000    0.000    0.000    0.000 
#    0.000    0.000    0.000    0.000    0.000    0.000 
#
# Total GULP energy -89479.308264 kJ/mol
# GULP energy per Si atom -5592.456766 kJ/mol
# Density = 2.329107 g / cm^3
# Si number density = 23.344202 Si / 1000 Ang^3
#
#
#
# Elastic Constant Matrix: (Units=GPa)
#
#
# Indices 1 2 3 4 5 6 
#
# 1 96.9391 36.8703 32.4136 5.3575 8.1035 -2.5054
# 2 36.8703 105.2350 54.7844 2.3398 13.7252 1.2702
# 3 32.4136 54.7844 142.0742 6.5644 15.6375 7.0033
# 4 5.3575 2.3398 6.5644 38.0810 9.7764 0.4122
# 5 8.1035 13.7252 15.6375 9.7764 23.9019 9.2820
# 6 -2.5054 1.2702 7.0033 0.4122 9.2820 26.0156
#
#
#
# Elastic Compliance Matrix: (Units=1/GPa)
#
#
# Indices 1 2 3 4 5 6 
#
# 1 0.012326 -0.003353 -0.001386 -0.000812 -0.001961 0.002436
# 2 -0.003353 0.013395 -0.003981 0.001706 -0.005427 0.002004
# 3 -0.001386 -0.003981 0.009264 -0.000497 -0.002508 -0.001530
# 4 -0.000812 0.001706 -0.000497 0.030018 -0.014466 0.004658
# 5 -0.001961 -0.005427 -0.002508 -0.014466 0.061287 -0.020886
# 6 0.002436 0.002004 -0.001530 0.004658 -0.020886 0.046365
#
#
# Mechanical properties :
#
#
# Convention : Reuss Voigt Hill
#
# Bulk Modulus (GPa) = 56.99064 65.82054 61.40559
# Shear Modulus (GPa) = 25.51752 32.27840 28.89796
#
# Velocity S-wave (km/s) = 3.30979 3.72252 3.52221
# Velocity P-wave (km/s) = 6.25080 6.83616 6.55002
#
# Compressibility (1/GPa) = 0.01754674
#
# Stress axis : x y z
#
# Youngs Moduli (GPa) = 81.12835 74.65388 107.94282
#
# Poissons Ratio (x) = 0.25029 0.14962
# Poissons Ratio (y) = 0.27199 0.42968
# Poissons Ratio (z) = 0.11245 0.29717
#
# Static dielectric constant tensor:
#      x y z
#    x 1.937050 -0.023500 -0.017310 
#    y -0.023500 1.864000 0.013550 
#    z -0.017310 0.013550 1.879980 
# 
# From -- ./inp_files/70063.got.cif
#   From: 2010.05.17/outbox.cif.g08.bks.cpg/sg2_36_cif.got.tgz:70063.got - 2010.06.03 11:33:40.
