data_PCOD9102061
_publ_section_title
;
Structure prediction by ZEFSAII (Michael W. Deem and Ramdas Pophale) SiO2 
 PCOD9102061
Probable space group: P -1
;
_chemical_formula_sum "Si O2"
_cell_formula_units_Z 16
_cell_length_a 16.003418
_cell_length_b 11.239327
_cell_length_c 9.353312
_cell_angle_alpha 101.606428
_cell_angle_beta 59.330073
_cell_angle_gamma 49.869235
_cell_volume 655.075048
_symmetry_space_group_name_H-M "P -1"
_symmetry_group_IT_number 2
_symmetry_cell_setting 'triclinic'
loop_
_space_group_symop_operation_xyz
x,y,z
-x,-y,-z
loop_
_atom_site_type_symbol
_atom_site_label
_atom_site_fract_x
_atom_site_fract_y
_atom_site_fract_z
Si Si1 0.916683 0.392049 0.145226
Si Si2 0.869525 0.057990 0.731888
Si Si3 0.489847 0.632638 0.192515
Si Si4 0.183079 0.896209 0.900372
Si Si5 0.438310 0.383951 0.538694
Si Si6 0.782751 0.506531 0.774101
Si Si7 0.099291 0.215473 0.649741
Si Si8 0.156719 0.372601 0.457794
O O1 0.674352 0.619418 0.387445
O O2 0.935324 0.443526 0.288362
O O3 0.043489 0.310266 0.884152
O O4 0.018687 0.145230 0.006689
O O5 0.619936 0.361498 0.000170
O O6 0.907998 0.052215 0.860820
O O7 0.000000 0.000000 0.500000
O O8 0.991314 0.795886 0.552512
O O9 0.523400 0.637266 0.330069
O O10 0.244031 0.933163 0.451016
O O11 0.622307 0.577733 0.964691
O O12 0.309471 0.645938 0.660974
O O13 0.341201 0.833184 0.781896
O O14 0.701116 0.693515 0.775678
O O15 0.868986 0.461083 0.838273
O O16 0.222933 0.180931 0.444180
O O17 0.000000 0.500000 0.500000
#
# Coordination Sequence:
#
# PCOD9102061 Si02
#       8
#     2   2   2   2   2   2   2   2
#     4  12  21  41  67  92 123 168 215 259 319 369
#     4   9  19  37  63  89 128 169 199 251 316 380
#     4  10  20  38  61  94 129 159 208 258 312 379
#     4  10  20  38  62  95 132 161 203 255 316 379
#     4  10  21  37  62  98 131 160 202 259 314 383
#     4  10  20  42  62  87 128 167 207 258 314 375
#     4  11  23  39  65  90 120 170 216 263 313 364
#     4  10  24  44  65  89 124 171 217 267 314 368
#
# _framework density 24.424679999999999
#
# number of rings (size 3 to 8) (size 9 to 14) (size 15 to 20)
#    0.000    1.750    3.750    0.750    0.000    1.000 
#    2.250    3.125    0.000    0.000    0.000    0.000 
#    0.000    0.000    0.000    0.000    0.000    0.000 
#
# Total GULP energy -89143.696345 kJ/mol
# GULP energy per Si atom -5571.481022 kJ/mol
# Density = 2.436909 g / cm^3
# Si number density = 24.424680 Si / 1000 Ang^3
#
#
#
# Elastic Constant Matrix: (Units=GPa)
#
#
# Indices 1 2 3 4 5 6 
#
# 1 68.8833 22.0212 37.1238 -5.3110 3.2911 2.1495
# 2 22.0212 111.1829 35.1744 -12.3704 -3.8005 7.1225
# 3 37.1238 35.1744 86.0190 -19.6594 -0.4586 -2.2381
# 4 -5.3110 -12.3704 -19.6594 41.4150 3.3995 0.8428
# 5 3.2911 -3.8005 -0.4586 3.3995 26.2284 -9.8415
# 6 2.1495 7.1225 -2.2381 0.8428 -9.8415 25.3466
#
#
#
# Elastic Compliance Matrix: (Units=1/GPa)
#
#
# Indices 1 2 3 4 5 6 
#
# 1 0.019641 -0.001308 -0.008388 -0.001459 -0.003931 -0.003516
# 2 -0.001308 0.010758 -0.003601 0.001376 0.000295 -0.003161
# 3 -0.008388 -0.003601 0.018267 0.006330 0.001408 0.003672
# 4 -0.001459 0.001376 0.006330 0.027739 -0.003906 -0.002143
# 5 -0.003931 0.000295 0.001408 -0.003906 0.046099 0.018404
# 6 -0.003516 -0.003161 0.003672 -0.002143 0.018404 0.048181
#
#
# Mechanical properties :
#
#
# Convention : Reuss Voigt Hill
#
# Bulk Modulus (GPa) = 45.30292 50.52488 47.91390
# Shear Modulus (GPa) = 24.43361 30.04906 27.24134
#
# Velocity S-wave (km/s) = 3.16629 3.51133 3.34326
# Velocity P-wave (km/s) = 5.65291 6.09673 5.87901
#
# Compressibility (1/GPa) = 0.02207363
#
# Stress axis : x y z
#
# Youngs Moduli (GPa) = 50.91404 92.95267 54.74231
#
# Poissons Ratio (x) = 0.12159 0.45916
# Poissons Ratio (y) = 0.06660 0.19711
# Poissons Ratio (z) = 0.42705 0.33470
#
# Static dielectric constant tensor:
#      x y z
#    x 2.077250 -0.049130 -0.064690 
#    y -0.049130 2.013350 0.044550 
#    z -0.064690 0.044550 1.997770 
# 
# From -- ./inp_files/307947.got.cif
#   From: 2010.05.17/outbox.cif.g08.bks.cpg/sg2_154_cif.got.tgz:307947.got - 2010.06.03 11:33:40.
