data_PCOD9102245
_publ_section_title
;
Structure prediction by ZEFSAII (Michael W. Deem and Ramdas Pophale) SiO2 
 PCOD9102245
Probable space group: P -1
;
_chemical_formula_sum "Si O2"
_cell_formula_units_Z 16
_cell_length_a 13.239070
_cell_length_b 8.602132
_cell_length_c 7.874037
_cell_angle_alpha 73.259086
_cell_angle_beta 105.038174
_cell_angle_gamma 116.929975
_cell_volume 756.812831
_symmetry_space_group_name_H-M "P -1"
_symmetry_group_IT_number 2
_symmetry_cell_setting 'triclinic'
loop_
_space_group_symop_operation_xyz
x,y,z
-x,-y,-z
loop_
_atom_site_type_symbol
_atom_site_label
_atom_site_fract_x
_atom_site_fract_y
_atom_site_fract_z
Si Si1 0.561097 0.926435 0.693383
Si Si2 0.853670 0.731552 0.613553
Si Si3 0.858966 0.271545 0.379787
Si Si4 0.596109 0.690770 0.527024
Si Si5 0.369800 0.953751 0.774792
Si Si6 0.938612 0.419886 0.737524
Si Si7 0.077698 0.004946 0.731842
Si Si8 0.779376 0.086427 0.946490
O O1 0.558081 0.747007 0.669937
O O2 0.500000 0.000000 0.500000
O O3 0.483617 0.918956 0.824273
O O4 0.694113 0.035261 0.765642
O O5 0.722248 0.694071 0.595551
O O6 0.877403 0.555753 0.686074
O O7 0.942107 0.885714 0.726605
O O8 0.890413 0.815483 0.414824
O O9 0.907164 0.318151 0.575436
O O10 0.886798 0.119647 0.344145
O O11 0.926827 0.453539 0.248335
O O12 0.722749 0.191810 0.343515
O O13 0.500000 0.500000 0.500000
O O14 0.606582 0.848709 0.347747
O O15 0.303285 0.914964 0.934867
O O16 0.885767 0.273086 0.903202
O O17 0.156267 0.034384 0.921972
#
# Coordination Sequence:
#
# PCOD9102245 Si02
#       8
#     2   2   2   2   2   2   2   2
#     4  10  23  40  64  87 115 166 212 247 300 370
#     4  10  20  38  62  89 120 164 204 244 313 366
#     4   9  18  37  59  92 120 159 203 247 290 373
#     4  11  23  39  65  87 123 162 215 250 300 370
#     4  10  21  40  63  87 121 162 207 254 305 354
#     4  10  21  32  66  93 122 157 208 250 299 360
#     4   9  20  39  66  83 123 164 200 251 315 368
#     4  11  21  39  67  93 123 156 207 262 302 363
#
# _framework density 21.141290999999999
#
# number of rings (size 3 to 8) (size 9 to 14) (size 15 to 20)
#    0.000    2.000    2.500    1.875    5.250    4.500 
#    0.000    1.250    5.500    0.000    0.000    0.000 
#    0.000    0.000    0.000    0.000    0.000    0.000 
#
# Total GULP energy -89194.660064 kJ/mol
# GULP energy per Si atom -5574.666254 kJ/mol
# Density = 2.109317 g / cm^3
# Si number density = 21.141291 Si / 1000 Ang^3
#
#
#
# Elastic Constant Matrix: (Units=GPa)
#
#
# Indices 1 2 3 4 5 6 
#
# 1 106.3819 35.3179 10.1480 3.3068 11.0401 27.8590
# 2 35.3179 81.5341 17.9112 -0.5987 -1.3182 23.4369
# 3 10.1480 17.9112 68.7419 1.5756 6.4513 12.7160
# 4 3.3068 -0.5987 1.5756 30.9487 9.1895 0.2465
# 5 11.0401 -1.3182 6.4513 9.1895 35.2863 3.7735
# 6 27.8590 23.4369 12.7160 0.2465 3.7735 35.3130
#
#
#
# Elastic Compliance Matrix: (Units=1/GPa)
#
#
# Indices 1 2 3 4 5 6 
#
# 1 0.012904 -0.003605 0.000787 -0.000423 -0.003382 -0.007707
# 2 -0.003605 0.016639 -0.002692 -0.000001 0.003050 -0.007556
# 3 0.000787 -0.002692 0.016207 -0.000089 -0.002819 -0.004369
# 4 -0.000423 -0.000001 -0.000089 0.035054 -0.009097 0.001094
# 5 -0.003382 0.003050 -0.002819 -0.009097 0.032584 -0.001760
# 6 -0.007707 -0.007556 -0.004369 0.001094 -0.001760 0.041166
#
#
# Mechanical properties :
#
#
# Convention : Reuss Voigt Hill
#
# Bulk Modulus (GPa) = 28.79304 42.60133 35.69718
# Shear Modulus (GPa) = 28.22452 33.19498 30.70975
#
# Velocity S-wave (km/s) = 3.65779 3.96681 3.81543
# Velocity P-wave (km/s) = 5.61143 6.41680 6.02758
#
# Compressibility (1/GPa) = 0.03473061
#
# Stress axis : x y z
#
# Youngs Moduli (GPa) = 77.49431 60.10023 61.70142
#
# Poissons Ratio (x) = 0.21666 -0.04856
# Poissons Ratio (y) = 0.27937 0.16608
# Poissons Ratio (z) = -0.06099 0.16177
#
# Static dielectric constant tensor:
#      x y z
#    x 1.828420 0.033030 0.007720 
#    y 0.033030 1.754110 0.039000 
#    z 0.007720 0.039000 1.863340 
# 
# From -- ./inp_files/297950.got.cif
#   From: 2010.05.17/outbox.cif.g08.bks.cpg/sg2_149_cif.got.tgz:297950.got - 2010.06.03 11:33:40.
