data_PCOD9102853
_publ_section_title
;
Structure prediction by ZEFSAII (Michael W. Deem and Ramdas Pophale) SiO2 
 PCOD9102853
Probable space group: P -1
;
_chemical_formula_sum "Si O2"
_cell_formula_units_Z 16
_cell_length_a 9.673643
_cell_length_b 11.770664
_cell_length_c 15.347663
_cell_angle_alpha 148.512237
_cell_angle_beta 97.698849
_cell_angle_gamma 69.527108
_cell_volume 805.486373
_symmetry_space_group_name_H-M "P -1"
_symmetry_group_IT_number 2
_symmetry_cell_setting 'triclinic'
loop_
_space_group_symop_operation_xyz
x,y,z
-x,-y,-z
loop_
_atom_site_type_symbol
_atom_site_label
_atom_site_fract_x
_atom_site_fract_y
_atom_site_fract_z
Si Si1 0.751521 0.250443 0.599649
Si Si2 0.864734 0.647788 0.516057
Si Si3 0.589943 0.121057 0.842295
Si Si4 0.203425 0.612416 0.972289
Si Si5 0.835094 0.241389 0.131579
Si Si6 0.499584 0.784325 0.916482
Si Si7 0.082250 0.965280 0.346775
Si Si8 0.413123 0.066555 0.628509
O O1 0.654527 0.531111 0.747552
O O2 0.795206 0.183140 0.662340
O O3 0.635066 0.141732 0.492347
O O4 0.913738 0.104920 0.468036
O O5 0.823815 0.456073 0.335729
O O6 0.000000 0.500000 0.500000
O O7 0.730936 0.854858 0.698238
O O8 0.892321 0.821069 0.560321
O O9 0.521351 0.088912 0.725706
O O10 0.649379 0.325061 0.968605
O O11 0.482817 0.182467 0.957201
O O12 0.145359 0.693876 0.923676
O O13 0.259910 0.326037 0.789668
O O14 0.095442 0.771756 0.146154
O O15 0.670467 0.220665 0.110538
O O16 0.000000 0.000000 0.000000
O O17 0.500000 0.000000 0.000000
O O18 0.500000 0.000000 0.500000
#
# Coordination Sequence:
#
# PCOD9102853 Si02
#       8
#     2   2   2   2   2   2   2   2
#     4  11  24  41  64  93 136 169 221 266 339 393
#     4  11  22  40  68  92 127 169 223 268 318 394
#     4  10  21  38  60  92 120 166 214 265 330 381
#     4  10  20  38  64  90 127 163 218 265 325 386
#     4  11  23  41  65  98 123 170 228 267 322 394
#     4  11  25  45  64  95 134 178 215 280 332 387
#     4  10  23  42  64  95 130 180 209 275 331 389
#     4  12  21  37  64  95 125 166 216 275 325 396
#
# _framework density 19.863776000000001
#
# number of rings (size 3 to 8) (size 9 to 14) (size 15 to 20)
#    0.000    1.250    0.000    8.625    3.500    0.500 
#    4.500    1.250    0.000    0.000    0.000    0.000 
#    0.000    0.000    0.000    0.000    0.000    0.000 
#
# Total GULP energy -89249.438533 kJ/mol
# GULP energy per Si atom -5578.089908 kJ/mol
# Density = 1.981857 g / cm^3
# Si number density = 19.863776 Si / 1000 Ang^3
#
#
#
# Elastic Constant Matrix: (Units=GPa)
#
#
# Indices 1 2 3 4 5 6 
#
# 1 31.9724 17.8757 16.8992 -0.4997 -10.4303 3.0590
# 2 17.8757 95.7181 28.8002 7.1829 -2.1046 -4.8071
# 3 16.8992 28.8002 105.0198 0.8745 -6.4742 16.5002
# 4 -0.4997 7.1829 0.8745 45.5058 -7.9155 -1.5575
# 5 -10.4303 -2.1046 -6.4742 -7.9155 31.0357 -1.1119
# 6 3.0590 -4.8071 16.5002 -1.5575 -1.1119 26.6703
#
#
#
# Elastic Compliance Matrix: (Units=1/GPa)
#
#
# Indices 1 2 3 4 5 6 
#
# 1 0.041839 -0.006889 -0.003551 0.003901 0.013739 -0.003043
# 2 -0.006889 0.013137 -0.003423 -0.002356 -0.002559 0.005031
# 3 -0.003551 -0.003423 0.012308 0.000156 0.000903 -0.007778
# 4 0.003901 -0.002356 0.000156 0.023672 0.007247 0.000716
# 5 0.013739 -0.002559 0.000903 0.007247 0.038681 -0.000560
# 6 -0.003043 0.005031 -0.007778 0.000716 -0.000560 0.043581
#
#
# Mechanical properties :
#
#
# Convention : Reuss Voigt Hill
#
# Bulk Modulus (GPa) = 25.27788 39.98448 32.63118
# Shear Modulus (GPa) = 23.35024 31.91805 27.63415
#
# Velocity S-wave (km/s) = 3.43230 4.01290 3.73390
# Velocity P-wave (km/s) = 5.33487 6.45323 5.92052
#
# Compressibility (1/GPa) = 0.03956028
#
# Stress axis : x y z
#
# Youngs Moduli (GPa) = 23.90088 76.12139 81.24514
#
# Poissons Ratio (x) = 0.52438 0.28849
# Poissons Ratio (y) = 0.16465 0.27808
# Poissons Ratio (z) = 0.08487 0.26054
#
# Static dielectric constant tensor:
#      x y z
#    x 1.691250 0.022140 0.087190 
#    y 0.022140 1.678170 -0.103230 
#    z 0.087190 -0.103230 1.484390 
# 
# From -- ./inp_files/501228.got.cif
#   From: 2010.05.17/outbox.cif.g08.bks.cpg/sg2_251_cif.got.tgz:501228.got - 2010.06.03 11:33:40.
