data_PCOD9102751
_publ_section_title
;
Structure prediction by ZEFSAII (Michael W. Deem and Ramdas Pophale) SiO2 
 PCOD9102751
Probable space group: P -1
;
_chemical_formula_sum "Si O2"
_cell_formula_units_Z 11
_cell_length_a 6.756161
_cell_length_b 9.399058
_cell_length_c 11.481404
_cell_angle_alpha 46.476199
_cell_angle_beta 103.511112
_cell_angle_gamma 78.494143
_cell_volume 441.801777
_symmetry_space_group_name_H-M "P -1"
_symmetry_group_IT_number 2
_symmetry_cell_setting 'triclinic'
loop_
_space_group_symop_operation_xyz
x,y,z
-x,-y,-z
loop_
_atom_site_type_symbol
_atom_site_label
_atom_site_fract_x
_atom_site_fract_y
_atom_site_fract_z
Si Si1 0.038248 0.756399 0.817901
Si Si2 0.832962 0.823025 0.161145
Si Si3 0.821840 0.856990 0.404436
Si Si4 0.500000 0.000000 0.500000
Si Si5 0.701495 0.524239 0.194560
Si Si6 0.215898 0.686731 0.126851
O O1 0.232689 0.538049 0.894986
O O2 0.778734 0.867223 0.664839
O O3 0.136559 0.929479 0.721546
O O4 0.052691 0.703924 0.986158
O O5 0.794729 0.789766 0.308358
O O6 0.675472 0.763575 0.090790
O O7 0.103915 0.657727 0.245126
O O8 0.792816 0.073871 0.997698
O O9 0.069086 0.660581 0.600759
O O10 0.609063 0.923334 0.425741
O O11 0.480029 0.507691 0.221196
#
# Coordination Sequence:
#
# PCOD9102751 Si02
#       6
#     2   2   2   1   2   2
#     4  10  23  41  62  90 120 157 200 244 296 354
#     4  10  23  40  59  89 122 160 200 237 297 358
#     4  10  23  41  62  90 121 156 199 246 296 352
#     4  10  20  38  64  84 114 156 198 240 290 348
#     4  11  21  37  63  91 119 156 201 245 292 352
#     4  10  23  41  60  87 125 159 193 247 301 347
#
# _framework density 24.898045
#
# number of rings (size 3 to 8) (size 9 to 14) (size 15 to 20)
#    0.000    1.818    0.000    3.818    0.000   14.545 
#    0.000    0.000    0.000    0.000    0.000    0.000 
#    0.000    0.000    0.000    0.000    0.000    0.000 
#
# Total GULP energy -61325.959181 kJ/mol
# GULP energy per Si atom -5575.087198 kJ/mol
# Density = 2.484138 g / cm^3
# Si number density = 24.898045 Si / 1000 Ang^3
#
#
#
# Elastic Constant Matrix: (Units=GPa)
#
#
# Indices 1 2 3 4 5 6 
#
# 1 168.4969 66.7478 19.8044 13.6821 19.4017 -53.8672
# 2 66.7478 160.5137 37.2422 28.3623 -7.3952 -27.1451
# 3 19.8044 37.2422 36.2765 4.7751 -0.8999 -12.4384
# 4 13.6821 28.3623 4.7751 23.2972 -5.0793 -9.0715
# 5 19.4017 -7.3952 -0.8999 -5.0793 39.1837 -0.0879
# 6 -53.8672 -27.1451 -12.4384 -9.0715 -0.0879 55.5944
#
#
#
# Elastic Compliance Matrix: (Units=1/GPa)
#
#
# Indices 1 2 3 4 5 6 
#
# 1 0.010709 -0.003299 0.000447 -0.000222 -0.005924 0.008820
# 2 -0.003299 0.011324 -0.008889 -0.010035 0.002263 -0.001290
# 3 0.000447 -0.008889 0.037619 0.004824 -0.000398 0.005296
# 4 -0.000222 -0.010035 0.004824 0.057644 0.005811 0.005380
# 5 -0.005924 0.002263 -0.000398 0.005811 0.029617 -0.003729
# 6 0.008820 -0.001290 0.005296 0.005380 -0.003729 0.027960
#
#
# Mechanical properties :
#
#
# Convention : Reuss Voigt Hill
#
# Bulk Modulus (GPa) = 27.64829 68.09732 47.87281
# Shear Modulus (GPa) = 23.76301 39.71456 31.73878
#
# Velocity S-wave (km/s) = 3.09271 3.99819 3.57424
# Velocity P-wave (km/s) = 4.88690 6.98025 6.02518
#
# Compressibility (1/GPa) = 0.03616860
#
# Stress axis : x y z
#
# Youngs Moduli (GPa) = 93.38000 88.31123 26.58232
#
# Poissons Ratio (x) = 0.29135 -0.01188
# Poissons Ratio (y) = 0.30807 0.23630
# Poissons Ratio (z) = -0.04174 0.78503
#
# Static dielectric constant tensor:
#      x y z
#    x 2.094360 0.134960 -0.258780 
#    y 0.134960 2.159960 -0.325560 
#    z -0.258780 -0.325560 2.417190 
# 
# From -- ./inp_files/16975.got.cif
#   From: 2010.05.17/outbox.cif.g08.bks.cpg/sg2_9_cif.got.tgz:16975.got - 2010.06.03 11:33:40.
