data_PCOD9102903
_publ_section_title
;
Structure prediction by ZEFSAII (Michael W. Deem and Ramdas Pophale) SiO2 
 PCOD9102903
Probable space group: P -1
;
_chemical_formula_sum "Si O2"
_cell_formula_units_Z 16
_cell_length_a 7.746215
_cell_length_b 20.227448
_cell_length_c 13.734522
_cell_angle_alpha 20.993022
_cell_angle_beta 52.084952
_cell_angle_gamma 56.109583
_cell_volume 607.245573
_symmetry_space_group_name_H-M "P -1"
_symmetry_group_IT_number 2
_symmetry_cell_setting 'triclinic'
loop_
_space_group_symop_operation_xyz
x,y,z
-x,-y,-z
loop_
_atom_site_type_symbol
_atom_site_label
_atom_site_fract_x
_atom_site_fract_y
_atom_site_fract_z
Si Si1 0.794378 0.490889 0.656578
Si Si2 0.135062 0.160927 0.176335
Si Si3 0.305937 0.108513 0.865386
Si Si4 0.015395 0.449159 0.276214
Si Si5 0.449566 0.896755 0.398189
Si Si6 0.769514 0.399909 0.256284
Si Si7 0.631279 0.713370 0.758813
Si Si8 0.891018 0.096755 0.152065
O O1 0.657626 0.669586 0.431453
O O2 0.000000 0.500000 0.500000
O O3 0.907325 0.545658 0.646449
O O4 0.733641 0.269302 0.970621
O O5 0.053344 0.153833 0.104485
O O6 0.380866 0.099682 0.169315
O O7 0.080048 0.350751 0.981127
O O8 0.000000 0.000000 0.500000
O O9 0.337248 0.085125 0.769797
O O10 0.056294 0.068555 0.043492
O O11 0.500000 0.000000 0.000000
O O12 0.823584 0.339016 0.431605
O O13 0.230468 0.390928 0.226679
O O14 0.286958 0.778313 0.545596
O O15 0.443902 0.787649 0.652722
O O16 0.602060 0.557660 0.065606
O O17 0.000000 0.500000 0.000000
O O18 0.761182 0.902085 0.486823
#
# Coordination Sequence:
#
# PCOD9102903 Si02
#       8
#     2   2   2   2   2   2   2   2
#     4   9  20  41  65  97 129 175 214 271 328 392
#     4  11  21  39  63  94 131 177 215 272 334 390
#     4  11  22  41  69  99 129 171 221 275 330 389
#     4  10  20  38  64  92 127 172 217 259 334 388
#     4  12  24  42  65  98 137 170 229 281 325 391
#     4  10  22  40  66  92 131 176 221 270 326 395
#     4  11  22  42  66 102 128 179 227 268 326 400
#     4  10  22  42  70  93 139 173 216 270 336 398
#
# _framework density 26.348483000000002
#
# number of rings (size 3 to 8) (size 9 to 14) (size 15 to 20)
#    0.000    1.500    2.500    4.125    0.000    0.500 
#    2.250    1.250    0.000    3.750    0.000    0.000 
#    0.000    0.000    0.000    0.000    0.000    0.000 
#
# Total GULP energy -89309.028786 kJ/mol
# GULP energy per Si atom -5581.814299 kJ/mol
# Density = 2.628851 g / cm^3
# Si number density = 26.348483 Si / 1000 Ang^3
#
#
#
# Elastic Constant Matrix: (Units=GPa)
#
#
# Indices 1 2 3 4 5 6 
#
# 1 111.1330 18.9664 26.0059 -19.5012 8.7443 20.8547
# 2 18.9664 112.5041 28.2431 -27.6852 21.3201 -11.7142
# 3 26.0059 28.2431 128.0966 -35.6375 23.8442 -8.5067
# 4 -19.5012 -27.6852 -35.6375 56.1028 -14.1684 18.0231
# 5 8.7443 21.3201 23.8442 -14.1684 36.9958 -16.3087
# 6 20.8547 -11.7142 -8.5067 18.0231 -16.3087 40.7996
#
#
#
# Elastic Compliance Matrix: (Units=1/GPa)
#
#
# Indices 1 2 3 4 5 6 
#
# 1 0.012962 -0.000770 -0.000560 0.006272 -0.005035 -0.011746
# 2 -0.000770 0.010869 -0.000381 0.003735 -0.004392 0.000029
# 3 -0.000560 -0.000381 0.010381 0.005616 -0.005158 -0.002202
# 4 0.006272 0.003735 0.005616 0.029609 -0.002555 -0.015064
# 5 -0.005035 -0.004392 -0.005158 -0.002555 0.040908 0.017718
# 6 -0.011746 0.000029 -0.002202 -0.015064 0.017718 0.043800
#
#
# Mechanical properties :
#
#
# Convention : Reuss Voigt Hill
#
# Bulk Modulus (GPa) = 32.47932 55.35162 43.91547
# Shear Modulus (GPa) = 30.82368 45.34753 38.08561
#
# Velocity S-wave (km/s) = 3.42401 4.15308 3.80604
# Velocity P-wave (km/s) = 5.29012 6.63706 6.00150
#
# Compressibility (1/GPa) = 0.03078882
#
# Stress axis : x y z
#
# Youngs Moduli (GPa) = 77.15066 92.00810 96.33306
#
# Poissons Ratio (x) = 0.07086 0.05390
# Poissons Ratio (y) = 0.05941 0.03674
# Poissons Ratio (z) = 0.04317 0.03509
#
# Static dielectric constant tensor:
#      x y z
#    x 2.268850 -0.110840 0.075180 
#    y -0.110840 2.154420 0.038790 
#    z 0.075180 0.038790 2.157580 
# 
# From -- ./inp_files/419499.got.cif
#   From: 2010.05.17/outbox.cif.g08.bks.cpg/sg2_210_cif.got.tgz:419499.got - 2010.06.03 11:33:40.
