data_PCOD9102277
_publ_section_title
;
Structure prediction by ZEFSAII (Michael W. Deem and Ramdas Pophale) SiO2 
 PCOD9102277
Probable space group: P -1
;
_chemical_formula_sum "Si O2"
_cell_formula_units_Z 16
_cell_length_a 9.725151
_cell_length_b 27.344495
_cell_length_c 13.774224
_cell_angle_alpha 21.975580
_cell_angle_beta 47.544250
_cell_angle_gamma 34.385034
_cell_volume 699.930676
_symmetry_space_group_name_H-M "P -1"
_symmetry_group_IT_number 2
_symmetry_cell_setting 'triclinic'
loop_
_space_group_symop_operation_xyz
x,y,z
-x,-y,-z
loop_
_atom_site_type_symbol
_atom_site_label
_atom_site_fract_x
_atom_site_fract_y
_atom_site_fract_z
Si Si1 0.592329 0.720143 0.827370
Si Si2 0.308885 0.172738 0.852073
Si Si3 0.777003 0.779042 0.796434
Si Si4 0.977048 0.098209 0.165996
Si Si5 0.960069 0.129018 0.613200
Si Si6 0.412130 0.691881 0.790335
Si Si7 0.520906 0.055314 0.181963
Si Si8 0.627753 0.569740 0.692986
O O1 0.774689 0.654926 0.955124
O O2 0.639457 0.608573 0.915721
O O3 0.315919 0.797951 0.853707
O O4 0.555270 0.883410 0.501125
O O5 0.239898 0.357151 0.520437
O O6 0.048952 0.213023 0.915725
O O7 0.458998 0.104367 0.009351
O O8 0.500000 0.000000 0.000000
O O9 0.989986 0.778464 0.659533
O O10 0.722644 0.775635 0.941175
O O11 0.500000 0.000000 0.500000
O O12 0.193482 0.917093 0.466379
O O13 0.014103 0.016482 0.192391
O O14 0.650588 0.291749 0.491459
O O15 0.197222 0.023357 0.772439
O O16 0.543721 0.616934 0.759738
O O17 0.263516 0.631989 0.000287
#
# Coordination Sequence:
#
# PCOD9102277 Si02
#       8
#     2   2   2   2   2   2   2   2
#     4  10  16  32  56  84 101 128 186 226 254 301
#     4  12  22  33  52  80 113 134 178 217 259 312
#     4   8  15  28  51  83 104 120 173 234 259 292
#     4  11  18  32  59  84  99 136 181 223 257 304
#     4   9  16  33  54  78 105 136 176 215 265 308
#     4  10  20  33  57  73 109 142 176 216 265 306
#     4  10  18  31  54  84 105 131 170 234 264 292
#     4  10  22  37  46  78 114 147 170 209 265 325
#
# _framework density 22.859406
#
# number of rings (size 3 to 8) (size 9 to 14) (size 15 to 20)
#    0.000    2.250    7.500    0.375    0.000    0.500 
#    0.000    3.125    0.000    0.750    0.000    0.000 
#    0.000    0.000    0.000    0.000    0.000    0.000 
#
# Total GULP energy -89229.324208 kJ/mol
# GULP energy per Si atom -5576.832763 kJ/mol
# Density = 2.280738 g / cm^3
# Si number density = 22.859406 Si / 1000 Ang^3
#
#
#
# Elastic Constant Matrix: (Units=GPa)
#
#
# Indices 1 2 3 4 5 6 
#
# 1 164.1826 17.5461 39.9745 14.2374 -6.7425 2.8229
# 2 17.5461 36.3541 24.7197 11.8658 -1.3610 -8.4714
# 3 39.9745 24.7197 88.0480 22.4597 -26.1296 -9.6564
# 4 14.2374 11.8658 22.4597 19.9470 -7.8832 1.2124
# 5 -6.7425 -1.3610 -26.1296 -7.8832 40.0987 17.3547
# 6 2.8229 -8.4714 -9.6564 1.2124 17.3547 40.7364
#
#
#
# Elastic Compliance Matrix: (Units=1/GPa)
#
#
# Indices 1 2 3 4 5 6 
#
# 1 0.007016 -0.001486 -0.002716 -0.001109 -0.000307 -0.001275
# 2 -0.001486 0.044337 -0.009123 -0.021908 -0.015176 0.014278
# 3 -0.002716 -0.009123 0.021542 -0.012364 0.011293 -0.001045
# 4 -0.001109 -0.021908 -0.012364 0.084654 0.014655 -0.016173
# 5 -0.000307 -0.015176 0.011293 0.014655 0.042911 -0.019175
# 6 -0.001275 0.014278 -0.001045 -0.016173 -0.019175 0.036008
#
#
# Mechanical properties :
#
#
# Convention : Reuss Voigt Hill
#
# Bulk Modulus (GPa) = 21.62330 50.34058 35.98194
# Shear Modulus (GPa) = 17.95112 33.91269 25.93190
#
# Velocity S-wave (km/s) = 2.80533 3.85584 3.37175
# Velocity P-wave (km/s) = 4.46911 6.47248 5.56174
#
# Compressibility (1/GPa) = 0.04624642
#
# Stress axis : x y z
#
# Youngs Moduli (GPa) = 142.52183 22.55444 46.41998
#
# Poissons Ratio (x) = 0.03352 0.12609
# Poissons Ratio (y) = 0.21180 0.42347
# Poissons Ratio (z) = 0.38712 0.20575
#
# Static dielectric constant tensor:
#      x y z
#    x 1.948690 0.027200 0.028910 
#    y 0.027200 1.927560 -0.028440 
#    z 0.028910 -0.028440 1.863270 
# 
# From -- ./inp_files/509182.got.cif
#   From: 2010.05.17/outbox.cif.g08.bks.cpg/sg2_255_cif.got.tgz:509182.got - 2010.06.03 11:33:40.
