data_PCOD9102288
_publ_section_title
;
Structure prediction by ZEFSAII (Michael W. Deem and Ramdas Pophale) SiO2 
 PCOD9102288
Probable space group: P -1
;
_chemical_formula_sum "Si O2"
_cell_formula_units_Z 16
_cell_length_a 18.745354
_cell_length_b 10.153788
_cell_length_c 7.107792
_cell_angle_alpha 49.202122
_cell_angle_beta 136.253197
_cell_angle_gamma 132.222288
_cell_volume 654.445713
_symmetry_space_group_name_H-M "P -1"
_symmetry_group_IT_number 2
_symmetry_cell_setting 'triclinic'
loop_
_space_group_symop_operation_xyz
x,y,z
-x,-y,-z
loop_
_atom_site_type_symbol
_atom_site_label
_atom_site_fract_x
_atom_site_fract_y
_atom_site_fract_z
Si Si1 0.141128 0.052882 0.139087
Si Si2 0.449672 0.054408 0.089088
Si Si3 0.118459 0.538961 0.283315
Si Si4 0.213754 0.922099 0.951529
Si Si5 0.782165 0.708734 0.549245
Si Si6 0.390724 0.131427 0.498215
Si Si7 0.013126 0.760819 0.431255
Si Si8 0.482109 0.459549 0.783435
O O1 0.164923 0.188861 0.246257
O O2 0.261854 0.086539 0.255524
O O3 0.057842 0.107170 0.798604
O O4 0.071982 0.838753 0.272479
O O5 0.528650 0.945303 0.390305
O O6 0.394759 0.030633 0.797985
O O7 0.515367 0.279139 0.995978
O O8 0.341439 0.981444 0.080071
O O9 0.175476 0.433818 0.349072
O O10 0.081225 0.440114 0.508413
O O11 0.187753 0.760835 0.209260
O O12 0.000000 0.500000 0.000000
O O13 0.120474 0.807801 0.724592
O O14 0.201508 0.122244 0.723968
O O15 0.650559 0.607941 0.438908
O O16 0.450123 0.357197 0.380074
O O17 0.500000 0.500000 0.000000
#
# Coordination Sequence:
#
# PCOD9102288 Si02
#       8
#     2   2   2   2   2   2   2   2
#     4  10  20  38  62  90 125 163 201 249 309 366
#     4  10  21  40  67  93 120 163 206 251 310 368
#     4  10  21  36  63  89 120 161 204 250 297 360
#     4   9  18  39  61  90 121 157 202 245 308 359
#     4  10  21  40  62  87 121 166 198 248 312 364
#     4  11  21  39  66  91 124 161 205 256 307 370
#     4   9  19  36  61  89 121 158 205 249 297 358
#     4  11  24  40  64  91 126 161 205 254 310 371
#
# _framework density 24.448169
#
# number of rings (size 3 to 8) (size 9 to 14) (size 15 to 20)
#    0.000    2.000    3.750    1.125    1.750    5.000 
#    0.000    2.500    8.250    1.500    0.000    0.000 
#    0.000    0.000    0.000    0.000    0.000    0.000 
#
# Total GULP energy -89205.001303 kJ/mol
# GULP energy per Si atom -5575.312581 kJ/mol
# Density = 2.439252 g / cm^3
# Si number density = 24.448169 Si / 1000 Ang^3
#
#
#
# Elastic Constant Matrix: (Units=GPa)
#
#
# Indices 1 2 3 4 5 6 
#
# 1 74.4356 55.2097 26.7075 -16.8911 20.5299 16.0005
# 2 55.2097 125.3279 53.6664 -38.5791 13.1844 25.7048
# 3 26.7075 53.6664 81.1153 -17.0432 15.0477 17.4757
# 4 -16.8911 -38.5791 -17.0432 50.9514 2.2737 -18.6076
# 5 20.5299 13.1844 15.0477 2.2737 46.1400 -5.2556
# 6 16.0005 25.7048 17.4757 -18.6076 -5.2556 44.8254
#
#
#
# Elastic Compliance Matrix: (Units=1/GPa)
#
#
# Indices 1 2 3 4 5 6 
#
# 1 0.022816 -0.008498 0.000664 0.000091 -0.008455 -0.004483
# 2 -0.008498 0.017069 -0.006858 0.007451 0.000669 -0.000910
# 3 0.000664 -0.006858 0.018395 -0.000094 -0.004795 -0.004077
# 4 0.000091 0.007451 -0.000094 0.027950 -0.002717 0.007015
# 5 -0.008455 0.000669 -0.004795 -0.002717 0.027696 0.006623
# 6 -0.004483 -0.000910 -0.004077 0.007015 0.006623 0.029709
#
#
# Mechanical properties :
#
#
# Convention : Reuss Voigt Hill
#
# Bulk Modulus (GPa) = 34.60729 61.33843 47.97286
# Shear Modulus (GPa) = 27.37484 38.06971 32.72227
#
# Velocity S-wave (km/s) = 3.34984 3.95037 3.66243
# Velocity P-wave (km/s) = 5.39889 6.77871 6.12776
#
# Compressibility (1/GPa) = 0.02889565
#
# Stress axis : x y z
#
# Youngs Moduli (GPa) = 43.82944 58.58663 54.36377
#
# Poissons Ratio (x) = 0.49786 -0.03608
# Poissons Ratio (y) = 0.37246 0.37280
# Poissons Ratio (z) = -0.02909 0.40176
#
# Static dielectric constant tensor:
#      x y z
#    x 2.041200 -0.101240 -0.063720 
#    y -0.101240 1.990560 0.012680 
#    z -0.063720 0.012680 1.972850 
# 
# From -- ./inp_files/345001.got.cif
#   From: 2010.05.17/outbox.cif.g08.bks.cpg/sg2_173_cif.got.tgz:345001.got - 2010.06.03 11:33:40.
