data_PCOD9102869
_publ_section_title
;
Structure prediction by ZEFSAII (Michael W. Deem and Ramdas Pophale) SiO2 
 PCOD9102869
Probable space group: P -1
;
_chemical_formula_sum "Si O2"
_cell_formula_units_Z 16
_cell_length_a 6.792603
_cell_length_b 10.710651
_cell_length_c 13.247927
_cell_angle_alpha 94.904449
_cell_angle_beta 123.753980
_cell_angle_gamma 64.750737
_cell_volume 709.932454
_symmetry_space_group_name_H-M "P -1"
_symmetry_group_IT_number 2
_symmetry_cell_setting 'triclinic'
loop_
_space_group_symop_operation_xyz
x,y,z
-x,-y,-z
loop_
_atom_site_type_symbol
_atom_site_label
_atom_site_fract_x
_atom_site_fract_y
_atom_site_fract_z
Si Si1 0.184317 0.160889 0.631035
Si Si2 0.640586 0.277991 0.537438
Si Si3 0.433383 0.516501 0.646542
Si Si4 0.253479 0.152172 0.418924
Si Si5 0.700262 0.597644 0.223693
Si Si6 0.922100 0.201060 0.923228
Si Si7 0.804050 0.951921 0.806653
Si Si8 0.019038 0.551831 0.119237
O O1 0.128867 0.188159 0.497194
O O2 0.198885 0.292989 0.698451
O O3 0.934951 0.147568 0.608034
O O4 0.479654 0.031855 0.720193
O O5 0.560855 0.357399 0.626735
O O6 0.663336 0.384315 0.470413
O O7 0.400936 0.245308 0.439433
O O8 0.240966 0.519827 0.681495
O O9 0.677814 0.533233 0.763772
O O10 0.105022 0.133830 0.277953
O O11 0.500000 0.000000 0.500000
O O12 0.833053 0.539041 0.150779
O O13 0.381007 0.684359 0.129676
O O14 0.044179 0.284423 0.898924
O O15 0.082928 0.142867 0.068588
O O16 0.900086 0.072928 0.852038
O O17 0.000000 0.500000 0.000000
#
# Coordination Sequence:
#
# PCOD9102869 Si02
#       8
#     2   2   2   2   2   2   2   2
#     4  10  20  38  64  91 120 166 200 249 317 363
#     4  11  22  39  62  96 122 162 207 244 312 372
#     4  10  23  39  63  90 128 158 203 259 300 376
#     4  10  22  37  61  91 127 157 202 260 298 361
#     4  10  20  41  65  88 123 165 202 246 318 365
#     4   9  21  42  64  90 123 164 207 253 307 361
#     4   9  20  41  64  89 128 159 206 263 299 356
#     4  11  24  41  65  91 124 162 207 258 305 364
#
# _framework density 22.537354000000001
#
# number of rings (size 3 to 8) (size 9 to 14) (size 15 to 20)
#    0.000    2.000    2.500    0.000    3.500    5.500 
#    2.250    9.375    0.000    0.000    0.000    0.000 
#    0.000    0.000    0.000    0.000    0.000    0.000 
#
# Total GULP energy -89406.833375 kJ/mol
# GULP energy per Si atom -5587.927086 kJ/mol
# Density = 2.248606 g / cm^3
# Si number density = 22.537354 Si / 1000 Ang^3
#
#
#
# Elastic Constant Matrix: (Units=GPa)
#
#
# Indices 1 2 3 4 5 6 
#
# 1 116.1968 21.4360 42.1445 7.0289 -29.8503 -0.3838
# 2 21.4360 28.6299 18.6591 3.0603 -11.0144 0.5216
# 3 42.1445 18.6591 135.9758 12.7506 -15.0485 -9.6715
# 4 7.0289 3.0603 12.7506 33.6287 -3.6557 -9.6170
# 5 -29.8503 -11.0144 -15.0485 -3.6557 37.0001 -1.2206
# 6 -0.3838 0.5216 -9.6715 -9.6170 -1.2206 21.9741
#
#
#
# Elastic Compliance Matrix: (Units=1/GPa)
#
#
# Indices 1 2 3 4 5 6 
#
# 1 0.012272 -0.004734 -0.002309 -0.000600 0.007475 -0.000537
# 2 -0.004734 0.044074 -0.003820 -0.001651 0.007482 -0.003117
# 3 -0.002309 -0.003820 0.009052 -0.001564 0.000639 0.003385
# 4 -0.000600 -0.001651 -0.001564 0.035102 0.002346 0.014833
# 5 0.007475 0.007482 0.000639 0.002346 0.035884 0.003254
# 6 -0.000537 -0.003117 0.003385 0.014833 0.003254 0.053735
#
#
# Mechanical properties :
#
#
# Convention : Reuss Voigt Hill
#
# Bulk Modulus (GPa) = 22.89716 49.47574 36.18645
# Shear Modulus (GPa) = 22.08478 31.75811 26.92145
#
# Velocity S-wave (km/s) = 3.13376 3.75791 3.45994
# Velocity P-wave (km/s) = 4.82449 6.38981 5.66151
#
# Compressibility (1/GPa) = 0.04367353
#
# Stress axis : x y z
#
# Youngs Moduli (GPa) = 81.48957 22.68925 110.47119
#
# Poissons Ratio (x) = 0.10741 0.25502
# Poissons Ratio (y) = 0.38575 0.42196
# Poissons Ratio (z) = 0.18812 0.08666
#
# Static dielectric constant tensor:
#      x y z
#    x 1.881370 0.000550 0.043360 
#    y 0.000550 1.920270 0.017630 
#    z 0.043360 0.017630 1.874350 
# 
# From -- ./inp_files/364362.got.cif
#   From: 2010.05.17/outbox.cif.g08.bks.cpg/sg2_183_cif.got.tgz:364362.got - 2010.06.03 11:33:40.
