data_PCOD9102390
_publ_section_title
;
Structure prediction by ZEFSAII (Michael W. Deem and Ramdas Pophale) SiO2 
 PCOD9102390
Probable space group: P -1
;
_chemical_formula_sum "Si O2"
_cell_formula_units_Z 15
_cell_length_a 8.629545
_cell_length_b 14.701829
_cell_length_c 5.583751
_cell_angle_alpha 71.337939
_cell_angle_beta 116.281818
_cell_angle_gamma 84.191843
_cell_volume 576.662032
_symmetry_space_group_name_H-M "P -1"
_symmetry_group_IT_number 2
_symmetry_cell_setting 'triclinic'
loop_
_space_group_symop_operation_xyz
x,y,z
-x,-y,-z
loop_
_atom_site_type_symbol
_atom_site_label
_atom_site_fract_x
_atom_site_fract_y
_atom_site_fract_z
Si Si1 0.467470 0.751445 0.362583
Si Si2 0.930618 0.667611 0.190022
Si Si3 0.316209 0.621421 0.687965
Si Si4 0.842285 0.219133 0.210395
Si Si5 0.707456 0.568086 0.419560
Si Si6 0.000000 0.500000 0.000000
Si Si7 0.755416 0.848778 0.664232
Si Si8 0.111119 0.971936 0.346735
O O1 0.455037 0.677215 0.634502
O O2 0.568190 0.671783 0.298224
O O3 0.585951 0.825047 0.445850
O O4 0.274048 0.804342 0.069001
O O5 0.883589 0.598953 0.423355
O O6 0.132417 0.667789 0.369758
O O7 0.916508 0.606442 0.995302
O O8 0.799095 0.778903 0.989815
O O9 0.242803 0.667700 0.853966
O O10 0.355388 0.504073 0.745726
O O11 0.816455 0.146844 0.469702
O O12 0.054125 0.195192 0.313857
O O13 0.793871 0.505107 0.761122
O O14 0.746318 0.963484 0.606844
O O15 0.000000 0.000000 0.500000
O O16 0.000000 0.000000 0.000000
#
# Coordination Sequence:
#
# PCOD9102390 Si02
#       8
#     2   2   2   2   2   1   2   2
#     4  12  26  44  67 108 144 189 244 297 369 437
#     4  11  22  40  69  97 135 186 240 290 361 423
#     4  11  24  42  66  99 145 191 240 303 357 431
#     4  11  26  47  74 100 146 185 246 301 370 435
#     4  11  25  40  67 101 142 194 244 290 366 427
#     4  10  20  38  62  94 132 174 240 284 342 420
#     4  11  24  48  74 103 146 185 240 302 371 442
#     4  10  24  49  81 113 143 194 247 303 378 450
#
# _framework density 26.011769000000001
#
# number of rings (size 3 to 8) (size 9 to 14) (size 15 to 20)
#    0.000    1.067    2.667    3.600    5.600    2.133 
#    0.000    0.667    0.000    0.000    0.000    0.000 
#    0.000    0.000    0.000    0.000    0.000    0.000 
#
# Total GULP energy -83640.202050 kJ/mol
# GULP energy per Si atom -5576.013470 kJ/mol
# Density = 2.595257 g / cm^3
# Si number density = 26.011769 Si / 1000 Ang^3
#
#
#
# Elastic Constant Matrix: (Units=GPa)
#
#
# Indices 1 2 3 4 5 6 
#
# 1 95.5344 48.1637 19.3851 8.8631 -2.5558 32.5468
# 2 48.1637 146.4109 26.8759 9.1095 -8.9400 37.1742
# 3 19.3851 26.8759 74.0931 22.9255 6.2962 29.6940
# 4 8.8631 9.1095 22.9255 51.0663 20.2001 4.6718
# 5 -2.5558 -8.9400 6.2962 20.2001 27.3000 4.8430
# 6 32.5468 37.1742 29.6940 4.6718 4.8430 48.3053
#
#
#
# Elastic Compliance Matrix: (Units=1/GPa)
#
#
# Indices 1 2 3 4 5 6 
#
# 1 0.015007 -0.002285 0.001451 -0.003925 0.004886 -0.009355
# 2 -0.002285 0.009812 0.000112 -0.003454 0.006667 -0.006414
# 3 0.001451 0.000112 0.021503 -0.010940 0.005756 -0.013801
# 4 -0.003925 -0.003454 -0.010940 0.035550 -0.027289 0.011326
# 5 0.004886 0.006667 0.005756 -0.027289 0.060872 -0.015425
# 6 -0.009355 -0.006414 -0.013801 0.011326 -0.015425 0.040876
#
#
# Mechanical properties :
#
#
# Convention : Reuss Voigt Hill
#
# Bulk Modulus (GPa) = 22.28313 56.09866 39.19090
# Shear Modulus (GPa) = 24.99709 40.10856 32.55283
#
# Velocity S-wave (km/s) = 3.10335 3.93101 3.54144
# Velocity P-wave (km/s) = 4.62884 6.49748 5.64108
#
# Compressibility (1/GPa) = 0.04487699
#
# Stress axis : x y z
#
# Youngs Moduli (GPa) = 66.63539 101.91581 46.50492
#
# Poissons Ratio (x) = 0.23291 -0.06748
# Poissons Ratio (y) = 0.15228 -0.00519
# Poissons Ratio (z) = -0.09669 -0.01138
#
# Static dielectric constant tensor:
#      x y z
#    x 2.140110 -0.037920 -0.106700 
#    y -0.037920 2.083520 -0.067640 
#    z -0.106700 -0.067640 2.261440 
# 
# From -- ./inp_files/37705.got.cif
#   From: 2010.05.17/outbox.cif.g08.bks.cpg/sg2_19_cif.got.tgz:37705.got - 2010.06.03 11:33:40.
