data_PCOD9102393
_publ_section_title
;
Structure prediction by ZEFSAII (Michael W. Deem and Ramdas Pophale) SiO2 
 PCOD9102393
Probable space group: P -1
;
_chemical_formula_sum "Si O2"
_cell_formula_units_Z 16
_cell_length_a 11.498783
_cell_length_b 11.190972
_cell_length_c 8.651756
_cell_angle_alpha 53.658088
_cell_angle_beta 128.257496
_cell_angle_gamma 98.073635
_cell_volume 657.489297
_symmetry_space_group_name_H-M "P -1"
_symmetry_group_IT_number 2
_symmetry_cell_setting 'triclinic'
loop_
_space_group_symop_operation_xyz
x,y,z
-x,-y,-z
loop_
_atom_site_type_symbol
_atom_site_label
_atom_site_fract_x
_atom_site_fract_y
_atom_site_fract_z
Si Si1 0.570472 0.839389 0.077720
Si Si2 0.956004 0.744526 0.171034
Si Si3 0.977832 0.891102 0.396844
Si Si4 0.226480 0.774168 0.173768
Si Si5 0.838990 0.708753 0.611255
Si Si6 0.646448 0.005054 0.719687
Si Si7 0.308520 0.696401 0.958693
Si Si8 0.171746 0.450608 0.972850
O O1 0.700755 0.706187 0.387133
O O2 0.446356 0.760543 0.984659
O O3 0.500000 0.000000 0.000000
O O4 0.640920 0.899833 0.944260
O O5 0.988109 0.772589 0.352691
O O6 0.875261 0.615922 0.170135
O O7 0.117790 0.703786 0.238441
O O8 0.823315 0.910558 0.872813
O O9 0.862606 0.868866 0.452697
O O10 0.149671 0.829978 0.659658
O O11 0.899346 0.062690 0.126536
O O12 0.302438 0.680629 0.152858
O O13 0.346123 0.829244 0.335728
O O14 0.790957 0.687669 0.761268
O O15 0.011095 0.581301 0.809666
O O16 0.500000 0.000000 0.500000
O O17 0.301580 0.532703 0.009965
#
# Coordination Sequence:
#
# PCOD9102393 Si02
#       8
#     2   2   2   2   2   2   2   2
#     4  12  24  43  67  96 131 168 207 269 326 376
#     4  11  23  41  66  92 132 169 208 266 321 378
#     4  10  20  38  62  95 122 161 217 267 316 365
#     4  11  21  40  63  97 123 166 214 270 318 369
#     4  10  20  42  64  90 127 165 221 259 306 373
#     4  11  25  42  63 100 134 164 205 260 341 386
#     4  11  24  39  64  94 125 169 219 257 312 378
#     4  10  24  42  65  93 124 178 218 260 306 374
#
# _framework density 24.334997999999999
#
# number of rings (size 3 to 8) (size 9 to 14) (size 15 to 20)
#    0.000    1.250    3.750    4.125    5.250    3.500 
#    0.000    1.875    0.000    0.000    0.000    0.000 
#    0.000    0.000    0.000    0.000    0.000    0.000 
#
# Total GULP energy -89440.772862 kJ/mol
# GULP energy per Si atom -5590.048304 kJ/mol
# Density = 2.427961 g / cm^3
# Si number density = 24.334998 Si / 1000 Ang^3
#
#
#
# Elastic Constant Matrix: (Units=GPa)
#
#
# Indices 1 2 3 4 5 6 
#
# 1 64.9367 23.0355 2.6219 2.8928 4.3853 27.2873
# 2 23.0355 133.1977 1.7545 31.3213 -10.6986 21.4644
# 3 2.6219 1.7545 78.7650 25.7623 3.9394 11.9414
# 4 2.8928 31.3213 25.7623 37.7159 13.5456 6.1316
# 5 4.3853 -10.6986 3.9394 13.5456 29.7100 11.9295
# 6 27.2873 21.4644 11.9414 6.1316 11.9295 35.6782
#
#
#
# Elastic Compliance Matrix: (Units=1/GPa)
#
#
# Indices 1 2 3 4 5 6 
#
# 1 0.023601 0.000418 0.003042 -0.003004 0.005987 -0.020806
# 2 0.000418 0.020295 0.011565 -0.031643 0.028348 -0.020440
# 3 0.003042 0.011565 0.024498 -0.031543 0.022746 -0.019669
# 4 -0.003004 -0.031643 -0.031543 0.091256 -0.063394 0.037405
# 5 0.005987 0.028348 0.022746 -0.063394 0.088062 -0.047796
# 6 -0.020806 -0.020440 -0.019669 0.037405 -0.047796 0.072374
#
#
# Mechanical properties :
#
#
# Convention : Reuss Voigt Hill
#
# Bulk Modulus (GPa) = 10.15790 36.85814 23.50802
# Shear Modulus (GPa) = 15.48710 37.25331 26.37020
#
# Velocity S-wave (km/s) = 2.52546 3.91686 3.29543
# Velocity P-wave (km/s) = 3.56191 5.96948 4.91538
#
# Compressibility (1/GPa) = 0.09844552
#
# Stress axis : x y z
#
# Youngs Moduli (GPa) = 42.37140 49.27399 40.81892
#
# Poissons Ratio (x) = -0.02062 -0.12419
# Poissons Ratio (y) = -0.01773 -0.47207
# Poissons Ratio (z) = -0.12891 -0.56985
#
# Static dielectric constant tensor:
#      x y z
#    x 1.936900 -0.000130 0.030470 
#    y -0.000130 2.033970 -0.028700 
#    z 0.030470 -0.028700 1.964580 
# 
# From -- ./inp_files/244210.got.cif
#   From: 2010.05.17/outbox.cif.g08.bks.cpg/sg2_123_cif.got.tgz:244210.got - 2010.06.03 11:33:40.
