data_PCOD9102103
_publ_section_title
;
Structure prediction by ZEFSAII (Michael W. Deem and Ramdas Pophale) SiO2 
 PCOD9102103
Probable space group: P -1
;
_chemical_formula_sum "Si O2"
_cell_formula_units_Z 14
_cell_length_a 9.423189
_cell_length_b 14.769063
_cell_length_c 12.295999
_cell_angle_alpha 132.321376
_cell_angle_beta 38.098514
_cell_angle_gamma 111.902892
_cell_volume 733.122446
_symmetry_space_group_name_H-M "P -1"
_symmetry_group_IT_number 2
_symmetry_cell_setting 'triclinic'
loop_
_space_group_symop_operation_xyz
x,y,z
-x,-y,-z
loop_
_atom_site_type_symbol
_atom_site_label
_atom_site_fract_x
_atom_site_fract_y
_atom_site_fract_z
Si Si1 0.091909 0.114697 0.136569
Si Si2 0.766151 0.952480 0.242227
Si Si3 0.857628 0.680075 0.065851
Si Si4 0.311134 0.312290 0.228859
Si Si5 0.604876 0.345344 0.607699
Si Si6 0.614466 0.436373 0.264980
Si Si7 0.208698 0.480955 0.223994
O O1 0.866147 0.242087 0.335979
O O2 0.258379 0.178072 0.154954
O O3 0.951855 0.031687 0.217564
O O4 0.238420 0.044524 0.884696
O O5 0.886492 0.802624 0.085810
O O6 0.500000 0.000000 0.500000
O O7 0.593338 0.725188 0.318583
O O8 0.828545 0.572854 0.913301
O O9 0.093396 0.613685 0.943415
O O10 0.523992 0.320019 0.185170
O O11 0.333136 0.355505 0.125623
O O12 0.068898 0.431838 0.506537
O O13 0.496598 0.454715 0.671357
O O14 0.651453 0.418459 0.748043
O O15 0.500000 0.500000 0.500000
#
# Coordination Sequence:
#
# PCOD9102103 Si02
#       7
#     2   2   2   2   2   2   2
#     4  10  20  38  62  83 113 149 194 240 281 323
#     4  11  22  37  59  88 109 149 199 243 273 326
#     4  12  20  35  55  88 119 146 191 234 287 342
#     4   9  17  34  55  84 114 148 188 228 285 345
#     4  10  21  35  57  88 116 146 185 237 293 348
#     4  11  21  34  55  85 122 152 180 226 297 351
#     4   9  17  31  56  84 112 144 186 235 287 339
#
# _framework density 19.096402000000001
#
# number of rings (size 3 to 8) (size 9 to 14) (size 15 to 20)
#    0.000    1.714    4.286    2.571    0.000    0.000 
#    0.000    0.714    0.000    0.857    0.000    0.000 
#    0.000    0.000    0.000    0.000    0.000    0.000 
#
# Total GULP energy -77976.626999 kJ/mol
# GULP energy per Si atom -5569.759071 kJ/mol
# Density = 1.905294 g / cm^3
# Si number density = 19.096402 Si / 1000 Ang^3
#
#
#
# Elastic Constant Matrix: (Units=GPa)
#
#
# Indices 1 2 3 4 5 6 
#
# 1 117.5645 28.5881 27.7811 -8.7568 -7.5086 32.9675
# 2 28.5881 98.9962 13.6618 -9.1229 -3.0074 31.8886
# 3 27.7811 13.6618 62.7270 -7.1746 0.0903 14.2611
# 4 -8.7568 -9.1229 -7.1746 20.7878 4.3583 -6.9423
# 5 -7.5086 -3.0074 0.0903 4.3583 21.1949 -0.5348
# 6 32.9675 31.8886 14.2611 -6.9423 -0.5348 29.8097
#
#
#
# Elastic Compliance Matrix: (Units=1/GPa)
#
#
# Indices 1 2 3 4 5 6 
#
# 1 0.013267 0.001451 -0.002889 -0.000742 0.004694 -0.014932
# 2 0.001451 0.015671 0.000195 0.001052 0.002062 -0.018180
# 3 -0.002889 0.000195 0.018808 0.004087 -0.002045 -0.005096
# 4 -0.000742 0.001052 0.004087 0.055527 -0.011285 0.010469
# 5 0.004694 0.002062 -0.002045 -0.011285 0.051261 -0.008127
# 6 -0.014932 -0.018180 -0.005096 0.010469 -0.008127 0.074239
#
#
# Mechanical properties :
#
#
# Convention : Reuss Voigt Hill
#
# Bulk Modulus (GPa) = 22.09385 46.59441 34.34413
# Shear Modulus (GPa) = 20.29666 28.30894 24.30280
#
# Velocity S-wave (km/s) = 3.26368 3.85440 3.57127
# Velocity P-wave (km/s) = 5.07906 6.65290 5.91853
#
# Compressibility (1/GPa) = 0.04526145
#
# Stress axis : x y z
#
# Youngs Moduli (GPa) = 75.37218 63.81114 53.16836
#
# Poissons Ratio (x) = -0.09262 0.15360
# Poissons Ratio (y) = -0.10940 -0.01036
# Poissons Ratio (z) = 0.21774 -0.01243
#
# Static dielectric constant tensor:
#      x y z
#    x 1.653860 0.027440 0.027190 
#    y 0.027440 1.756970 -0.048080 
#    z 0.027190 -0.048080 1.721290 
# 
# From -- ./inp_files/178979.got.cif
#   From: 2010.05.17/outbox.cif.g08.bks.cpg/sg2_90_cif.got.tgz:178979.got - 2010.06.03 11:33:40.
