data_PCOD9102729
_publ_section_title
;
Structure prediction by ZEFSAII (Michael W. Deem and Ramdas Pophale) SiO2 
 PCOD9102729
Probable space group: P -1
;
_chemical_formula_sum "Si O2"
_cell_formula_units_Z 15
_cell_length_a 9.636584
_cell_length_b 8.128033
_cell_length_c 12.498142
_cell_angle_alpha 101.939155
_cell_angle_beta 38.208482
_cell_angle_gamma 85.956058
_cell_volume 546.695000
_symmetry_space_group_name_H-M "P -1"
_symmetry_group_IT_number 2
_symmetry_cell_setting 'triclinic'
loop_
_space_group_symop_operation_xyz
x,y,z
-x,-y,-z
loop_
_atom_site_type_symbol
_atom_site_label
_atom_site_fract_x
_atom_site_fract_y
_atom_site_fract_z
Si Si1 0.104153 0.518116 0.109146
Si Si2 0.267164 0.875991 0.280522
Si Si3 0.000000 0.000000 0.000000
Si Si4 0.434330 0.296998 0.347593
Si Si5 0.619888 0.603171 0.298769
Si Si6 0.626700 0.909817 0.240474
Si Si7 0.233440 0.862887 0.060530
Si Si8 0.903626 0.438400 0.658055
O O1 0.117534 0.715652 0.136301
O O2 0.833380 0.541193 0.246341
O O3 0.186750 0.430931 0.165527
O O4 0.268274 0.431191 0.894217
O O5 0.469153 0.910861 0.232840
O O6 0.278454 0.926890 0.157282
O O7 0.269341 0.671775 0.268386
O O8 0.000000 0.000000 0.500000
O O9 0.081409 0.175137 0.949296
O O10 0.076218 0.003698 0.086325
O O11 0.459846 0.483680 0.388570
O O12 0.168840 0.302229 0.522691
O O13 0.627136 0.119415 0.269390
O O14 0.518235 0.255032 0.168452
O O15 0.517309 0.824052 0.387416
O O16 0.000000 0.500000 0.500000
#
# Coordination Sequence:
#
# PCOD9102729 Si02
#       8
#     2   2   1   2   2   2   2   2
#     4   9  20  39  64  93 132 172 213 277 330 390
#     4  11  23  44  63  92 137 177 208 271 340 385
#     4  10  20  38  64 102 124 160 224 274 312 390
#     4  10  22  39  65  96 131 169 221 278 314 398
#     4  10  20  41  67  94 131 173 217 271 340 386
#     4  11  22  40  68  99 131 170 222 271 328 394
#     4   9  20  40  65  93 131 169 218 274 325 389
#     4  11  23  43  63  91 134 174 224 269 325 396
#
# _framework density 27.437601000000001
#
# number of rings (size 3 to 8) (size 9 to 14) (size 15 to 20)
#    0.000    1.867    2.667    0.800    1.867    3.733 
#    4.800    8.000    0.000    0.000    0.000    0.000 
#    0.000    0.000    0.000    0.000    0.000    0.000 
#
# Total GULP energy -83651.974174 kJ/mol
# GULP energy per Si atom -5576.798278 kJ/mol
# Density = 2.737515 g / cm^3
# Si number density = 27.437601 Si / 1000 Ang^3
#
#
#
# Elastic Constant Matrix: (Units=GPa)
#
#
# Indices 1 2 3 4 5 6 
#
# 1 172.6108 31.8334 54.6420 -21.0908 7.6895 16.8105
# 2 31.8334 125.9755 19.2647 -29.2874 2.2318 15.2330
# 3 54.6420 19.2647 130.0200 -37.7162 20.5410 3.8202
# 4 -21.0908 -29.2874 -37.7162 32.9189 -1.5299 -10.0153
# 5 7.6895 2.2318 20.5410 -1.5299 46.1292 -23.5843
# 6 16.8105 15.2330 3.8202 -10.0153 -23.5843 50.9455
#
#
#
# Elastic Compliance Matrix: (Units=1/GPa)
#
#
# Indices 1 2 3 4 5 6 
#
# 1 0.007091 -0.001141 -0.002631 -0.000275 -0.001196 -0.002409
# 2 -0.001141 0.010629 0.002414 0.010874 -0.001927 -0.001737
# 3 -0.002631 0.002414 0.014012 0.016173 -0.005526 -0.000283
# 4 -0.000275 0.010874 0.016173 0.060219 -0.002448 0.006332
# 5 -0.001196 -0.001927 -0.005526 -0.002448 0.032506 0.015952
# 6 -0.002409 -0.001737 -0.000283 0.006332 0.015952 0.029594
#
#
# Mechanical properties :
#
#
# Convention : Reuss Voigt Hill
#
# Bulk Modulus (GPa) = 34.46259 71.12073 52.79166
# Shear Modulus (GPa) = 30.04111 47.52313 38.78212
#
# Velocity S-wave (km/s) = 3.31250 4.16630 3.76369
# Velocity P-wave (km/s) = 5.21707 7.00865 6.17815
#
# Compressibility (1/GPa) = 0.02901697
#
# Stress axis : x y z
#
# Youngs Moduli (GPa) = 141.02414 94.07929 71.36728
#
# Poissons Ratio (x) = 0.10734 0.18777
# Poissons Ratio (y) = 0.16090 -0.17230
# Poissons Ratio (z) = 0.37104 -0.22713
#
# Static dielectric constant tensor:
#      x y z
#    x 1.668500 -0.063800 0.745900 
#    y -0.063800 2.455830 0.258710 
#    z 0.745900 0.258710 1.359350 
# 
# From -- ./inp_files/263303.got.cif
#   From: 2010.05.17/outbox.cif.g08.bks.cpg/sg2_132_cif.got.tgz:263303.got - 2010.06.03 11:33:40.
