data_PCOD9102684
_publ_section_title
;
Structure prediction by ZEFSAII (Michael W. Deem and Ramdas Pophale) SiO2 
 PCOD9102684
Probable space group: P -1
;
_chemical_formula_sum "Si O2"
_cell_formula_units_Z 14
_cell_length_a 17.998872
_cell_length_b 7.820546
_cell_length_c 7.665335
_cell_angle_alpha 53.911678
_cell_angle_beta 143.074154
_cell_angle_gamma 123.217180
_cell_volume 517.222793
_symmetry_space_group_name_H-M "P -1"
_symmetry_group_IT_number 2
_symmetry_cell_setting 'triclinic'
loop_
_space_group_symop_operation_xyz
x,y,z
-x,-y,-z
loop_
_atom_site_type_symbol
_atom_site_label
_atom_site_fract_x
_atom_site_fract_y
_atom_site_fract_z
Si Si1 0.415540 0.176972 0.791024
Si Si2 0.688814 0.238320 0.721822
Si Si3 0.979065 0.301367 0.213148
Si Si4 0.948213 0.862517 0.221412
Si Si5 0.420469 0.214572 0.388267
Si Si6 0.649826 0.433742 0.205555
Si Si7 0.189603 0.905878 0.449707
O O1 0.403160 0.281657 0.515529
O O2 0.282114 0.049501 0.671726
O O3 0.505314 0.314134 0.011043
O O4 0.500000 0.000000 0.000000
O O5 0.570951 0.233949 0.630468
O O6 0.694392 0.445545 0.480874
O O7 0.643033 0.024796 0.646815
O O8 0.833925 0.254493 0.037137
O O9 0.067804 0.301147 0.548863
O O10 0.997470 0.093259 0.262057
O O11 0.000000 0.500000 0.000000
O O12 0.057232 0.804147 0.338636
O O13 0.841457 0.925287 0.857682
O O14 0.359315 0.366228 0.052324
O O15 0.735982 0.275801 0.373114
#
# Coordination Sequence:
#
# PCOD9102684 Si02
#       7
#     2   2   2   2   2   2   2
#     4  10  20  38  63  95 131 161 207 262 323 388
#     4  11  24  42  64  95 134 168 212 266 321 387
#     4  11  25  45  67  96 126 173 230 265 317 384
#     4  10  23  45  67  91 130 177 217 271 324 369
#     4  11  23  40  67  96 131 173 204 262 338 376
#     4  11  22  40  64  98 130 165 213 262 321 396
#     4  10  21  43  67  94 134 171 214 270 328 380
#
# _framework density 27.067639
#
# number of rings (size 3 to 8) (size 9 to 14) (size 15 to 20)
#    0.000    1.429    4.286    0.857    4.000    4.571 
#    2.571    1.429    0.000    0.000    0.000    0.000 
#    0.000    0.000    0.000    0.000    0.000    0.000 
#
# Total GULP energy -78351.610922 kJ/mol
# GULP energy per Si atom -5596.543637 kJ/mol
# Density = 2.700603 g / cm^3
# Si number density = 27.067639 Si / 1000 Ang^3
#
#
#
# Elastic Constant Matrix: (Units=GPa)
#
#
# Indices 1 2 3 4 5 6 
#
# 1 93.3548 12.0308 46.8110 -2.6434 13.7505 14.6654
# 2 12.0308 80.5406 41.0308 -12.1571 1.4800 13.6730
# 3 46.8110 41.0308 169.5765 -16.1020 -5.5598 18.1914
# 4 -2.6434 -12.1571 -16.1020 48.5994 10.7984 -5.1526
# 5 13.7505 1.4800 -5.5598 10.7984 67.9044 -6.6418
# 6 14.6654 13.6730 18.1914 -5.1526 -6.6418 29.9097
#
#
#
# Elastic Compliance Matrix: (Units=1/GPa)
#
#
# Indices 1 2 3 4 5 6 
#
# 1 0.013821 0.000771 -0.003499 -0.000017 -0.003669 -0.005818
# 2 0.000771 0.015232 -0.003130 0.002621 -0.001686 -0.005360
# 3 -0.003499 -0.003130 0.007906 0.001274 0.001105 -0.001197
# 4 -0.000017 0.002621 0.001274 0.022536 -0.003420 0.001158
# 5 -0.003669 -0.001686 0.001105 -0.003420 0.016630 0.005001
# 6 -0.005818 -0.005360 -0.001197 0.001158 0.005001 0.040776
#
#
# Mechanical properties :
#
#
# Convention : Reuss Voigt Hill
#
# Bulk Modulus (GPa) = 39.61563 60.35745 49.98654
# Shear Modulus (GPa) = 36.48813 45.52262 41.00538
#
# Velocity S-wave (km/s) = 3.67554 4.10544 3.89642
# Velocity P-wave (km/s) = 5.71668 6.69477 6.22496
#
# Compressibility (1/GPa) = 0.02524256
#
# Stress axis : x y z
#
# Youngs Moduli (GPa) = 72.35298 65.65125 126.48758
#
# Poissons Ratio (x) = -0.05061 0.44264
# Poissons Ratio (y) = -0.05578 0.39586
# Poissons Ratio (z) = 0.25320 0.20547
#
# Static dielectric constant tensor:
#      x y z
#    x 2.219070 -0.034470 -0.070080 
#    y -0.034470 2.157910 0.011040 
#    z -0.070080 0.011040 2.148190 
# 
# From -- ./inp_files/343359.got.cif
#   From: 2010.05.17/outbox.cif.g08.bks.cpg/sg2_172_cif.got.tgz:343359.got - 2010.06.03 11:33:40.
