data_PCOD9102424
_publ_section_title
;
Structure prediction by ZEFSAII (Michael W. Deem and Ramdas Pophale) SiO2 
 PCOD9102424
Probable space group: P -1
;
_chemical_formula_sum "Si O2"
_cell_formula_units_Z 16
_cell_length_a 8.830688
_cell_length_b 19.764976
_cell_length_c 16.933305
_cell_angle_alpha 31.426109
_cell_angle_beta 40.575276
_cell_angle_gamma 29.628688
_cell_volume 760.013768
_symmetry_space_group_name_H-M "P -1"
_symmetry_group_IT_number 2
_symmetry_cell_setting 'triclinic'
loop_
_space_group_symop_operation_xyz
x,y,z
-x,-y,-z
loop_
_atom_site_type_symbol
_atom_site_label
_atom_site_fract_x
_atom_site_fract_y
_atom_site_fract_z
Si Si1 0.190540 0.154172 0.601480
Si Si2 0.475061 0.393544 0.177937
Si Si3 0.136722 0.917302 0.779474
Si Si4 0.042743 0.152022 0.922766
Si Si5 0.177530 0.487643 0.666812
Si Si6 0.333539 0.811286 0.551290
Si Si7 0.520966 0.756307 0.353217
Si Si8 0.306424 0.780563 0.151136
O O1 0.437174 0.163791 0.527933
O O2 0.963220 0.318079 0.472083
O O3 0.985402 0.175175 0.733016
O O4 0.298808 0.985955 0.682472
O O5 0.650840 0.214629 0.241109
O O6 0.630754 0.328566 0.267603
O O7 0.117062 0.497571 0.227650
O O8 0.500000 0.500000 0.000000
O O9 0.801346 0.077831 0.720330
O O10 0.066887 0.839005 0.954188
O O11 0.232662 0.214895 0.774664
O O12 0.744854 0.245697 0.891569
O O13 0.263917 0.950920 0.009431
O O14 0.343925 0.399752 0.604813
O O15 0.399160 0.374907 0.763506
O O16 0.447662 0.742388 0.485767
O O17 0.000000 0.000000 0.500000
#
# Coordination Sequence:
#
# PCOD9102424 Si02
#       8
#     2   2   2   2   2   2   2   2
#     4  10  22  43  65  94 134 166 225 272 327 390
#     4  11  26  46  66  98 140 169 220 277 338 390
#     4  11  23  43  69  97 129 182 216 265 336 400
#     4  10  21  37  66  98 128 171 222 270 317 401
#     4  11  24  40  68  97 130 174 216 284 326 384
#     4  11  24  44  69  99 131 183 216 276 329 396
#     4  12  22  40  71  99 128 174 232 262 331 398
#     4  10  20  38  62  97 130 171 212 274 335 372
#
# _framework density 21.052250000000001
#
# number of rings (size 3 to 8) (size 9 to 14) (size 15 to 20)
#    0.000    1.250    5.000    1.500    1.750    4.000 
#    2.250    0.625    0.000    0.000    0.000    0.000 
#    0.000    0.000    0.000    0.000    0.000    0.000 
#
# Total GULP energy -89395.818651 kJ/mol
# GULP energy per Si atom -5587.238666 kJ/mol
# Density = 2.100433 g / cm^3
# Si number density = 21.052250 Si / 1000 Ang^3
#
#
#
# Elastic Constant Matrix: (Units=GPa)
#
#
# Indices 1 2 3 4 5 6 
#
# 1 60.3752 16.7948 11.9938 6.6568 31.2318 -9.8103
# 2 16.7948 84.2704 5.9274 8.8115 17.7553 -3.9012
# 3 11.9938 5.9274 94.5119 7.5996 30.3517 -0.7844
# 4 6.6568 8.8115 7.5996 19.8089 6.6564 7.8763
# 5 31.2318 17.7553 30.3517 6.6564 41.9044 7.4626
# 6 -9.8103 -3.9012 -0.7844 7.8763 7.4626 26.9403
#
#
#
# Elastic Compliance Matrix: (Units=1/GPa)
#
#
# Indices 1 2 3 4 5 6 
#
# 1 0.045660 0.003757 0.010907 -0.019888 -0.046823 0.036274
# 2 0.003757 0.014685 0.003091 -0.008829 -0.011526 0.009359
# 3 0.010907 0.003091 0.017247 -0.009547 -0.022919 0.014061
# 4 -0.019888 -0.008829 -0.009547 0.072028 0.020359 -0.035497
# 5 -0.046823 -0.011526 -0.022919 0.020359 0.085755 -0.049094
# 6 0.036274 0.009359 0.014061 -0.035497 -0.049094 0.076070
#
#
# Mechanical properties :
#
#
# Convention : Reuss Voigt Hill
#
# Bulk Modulus (GPa) = 8.84146 34.28772 21.56459
# Shear Modulus (GPa) = 15.94210 31.36015 23.65113
#
# Velocity S-wave (km/s) = 2.75483 3.86377 3.35543
# Velocity P-wave (km/s) = 3.78519 6.01891 5.02767
#
# Compressibility (1/GPa) = 0.11310355
#
# Stress axis : x y z
#
# Youngs Moduli (GPa) = 21.90121 68.09591 57.98019
#
# Poissons Ratio (x) = -0.25586 -0.63240
# Poissons Ratio (y) = -0.08229 -0.17923
# Poissons Ratio (z) = -0.23888 -0.21050
#
# Static dielectric constant tensor:
#      x y z
#    x 1.782650 0.017840 0.007720 
#    y 0.017840 1.733830 -0.017880 
#    z 0.007720 -0.017880 1.816620 
# 
# From -- ./inp_files/562618.got.cif
#   From: 2010.05.17/outbox.cif.g08.bks.cpg/sg2_282_cif.got.tgz:562618.got - 2010.06.03 11:33:40.
