data_PCOD9102442
_publ_section_title
;
Structure prediction by ZEFSAII (Michael W. Deem and Ramdas Pophale) SiO2 
 PCOD9102442
Probable space group: P -1
;
_chemical_formula_sum "Si O2"
_cell_formula_units_Z 14
_cell_length_a 17.082801
_cell_length_b 8.531942
_cell_length_c 5.506166
_cell_angle_alpha 104.687820
_cell_angle_beta 104.682534
_cell_angle_gamma 46.543406
_cell_volume 559.925654
_symmetry_space_group_name_H-M "P -1"
_symmetry_group_IT_number 2
_symmetry_cell_setting 'triclinic'
loop_
_space_group_symop_operation_xyz
x,y,z
-x,-y,-z
loop_
_atom_site_type_symbol
_atom_site_label
_atom_site_fract_x
_atom_site_fract_y
_atom_site_fract_z
Si Si1 0.411997 0.058022 0.644143
Si Si2 0.737724 0.882005 0.817012
Si Si3 0.917084 0.539055 0.149722
Si Si4 0.563916 0.285594 0.170754
Si Si5 0.659621 0.535948 0.997367
Si Si6 0.099100 0.141785 0.366817
Si Si7 0.739820 0.313555 0.468431
O O1 0.447290 0.837426 0.680227
O O2 0.605670 0.781348 0.106130
O O3 0.500000 0.000000 0.500000
O O4 0.300754 0.173494 0.459124
O O5 0.814383 0.926062 0.801089
O O6 0.804111 0.682542 0.978123
O O7 0.635212 0.099991 0.949859
O O8 0.902489 0.698226 0.399959
O O9 0.978537 0.302761 0.220291
O O10 0.000000 0.500000 0.000000
O O11 0.438215 0.468427 0.064033
O O12 0.639734 0.319601 0.365340
O O13 0.712253 0.452285 0.742054
O O14 0.737534 0.400706 0.237467
O O15 0.149235 0.929113 0.475993
#
# Coordination Sequence:
#
# PCOD9102442 Si02
#       7
#     2   2   2   2   2   2   2
#     4  12  25  42  64  92 135 183 231 268 314 392
#     4  11  20  38  67  94 129 166 226 281 320 377
#     4   9  19  35  65  98 125 156 222 287 332 376
#     4  12  24  42  67  91 132 180 237 266 317 390
#     4  12  28  41  62  99 140 183 216 270 336 397
#     4  10  20  38  63 101 124 166 217 287 332 385
#     4  12  25  43  66  96 139 173 220 278 340 390
#
# _framework density 25.003316999999999
#
# number of rings (size 3 to 8) (size 9 to 14) (size 15 to 20)
#    0.000    0.857    4.286    3.000    4.000    0.000 
#    0.000    0.000    0.000    1.714    0.000    0.000 
#    0.000    0.000    0.000    0.000    0.000    0.000 
#
# Total GULP energy -78382.806335 kJ/mol
# GULP energy per Si atom -5598.771881 kJ/mol
# Density = 2.494641 g / cm^3
# Si number density = 25.003317 Si / 1000 Ang^3
#
#
#
# Elastic Constant Matrix: (Units=GPa)
#
#
# Indices 1 2 3 4 5 6 
#
# 1 35.7461 -1.4877 4.8335 9.2508 4.0113 5.0093
# 2 -1.4877 142.3422 47.6821 -30.0269 12.9375 -6.5594
# 3 4.8335 47.6821 129.7226 -6.0358 11.0444 -1.9265
# 4 9.2508 -30.0269 -6.0358 58.3335 -9.0682 2.4921
# 5 4.0113 12.9375 11.0444 -9.0682 38.1653 1.7501
# 6 5.0093 -6.5594 -1.9265 2.4921 1.7501 25.2038
#
#
#
# Elastic Compliance Matrix: (Units=1/GPa)
#
#
# Indices 1 2 3 4 5 6 
#
# 1 0.030733 -0.000416 -0.001003 -0.005559 -0.003869 -0.005475
# 2 -0.000416 0.009108 -0.003002 0.004165 -0.001273 0.001900
# 3 -0.001003 -0.003002 0.008961 -0.000729 -0.001657 0.000290
# 4 -0.005559 0.004165 -0.000729 0.020775 0.004330 -0.000222
# 5 -0.003869 -0.001273 -0.001657 0.004330 0.028645 -0.002106
# 6 -0.005475 0.001900 0.000290 -0.000222 -0.002106 0.041450
#
#
# Mechanical properties :
#
#
# Convention : Reuss Voigt Hill
#
# Bulk Modulus (GPa) = 25.02462 45.54075 35.28268
# Shear Modulus (GPa) = 30.89563 41.45937 36.17750
#
# Velocity S-wave (km/s) = 3.51901 4.07646 3.80795
# Velocity P-wave (km/s) = 5.15184 6.35690 5.78583
#
# Compressibility (1/GPa) = 0.03996065
#
# Stress axis : x y z
#
# Youngs Moduli (GPa) = 32.53782 109.78804 111.59416
#
# Poissons Ratio (x) = 0.04571 0.11189
# Poissons Ratio (y) = 0.01355 0.33502
# Poissons Ratio (z) = 0.03263 0.32960
#
# Static dielectric constant tensor:
#      x y z
#    x 1.999370 0.008240 -0.030220 
#    y 0.008240 2.006350 -0.077790 
#    z -0.030220 -0.077790 2.003830 
# 
# From -- ./inp_files/123445.got.cif
#   From: 2010.05.17/outbox.cif.g08.bks.cpg/sg2_62_cif.got.tgz:123445.got - 2010.06.03 11:33:40.
