data_PCOD9102998
_publ_section_title
;
Structure prediction by ZEFSAII (Michael W. Deem and Ramdas Pophale) SiO2 
 PCOD9102998
Probable space group: P -1
;
_chemical_formula_sum "Si O2"
_cell_formula_units_Z 12
_cell_length_a 9.124558
_cell_length_b 8.742528
_cell_length_c 8.659555
_cell_angle_alpha 103.113676
_cell_angle_beta 128.483274
_cell_angle_gamma 86.284934
_cell_volume 523.989329
_symmetry_space_group_name_H-M "P -1"
_symmetry_group_IT_number 2
_symmetry_cell_setting 'triclinic'
loop_
_space_group_symop_operation_xyz
x,y,z
-x,-y,-z
loop_
_atom_site_type_symbol
_atom_site_label
_atom_site_fract_x
_atom_site_fract_y
_atom_site_fract_z
Si Si1 0.431833 0.619771 0.775175
Si Si2 0.691938 0.095077 0.719312
Si Si3 0.738798 0.413218 0.996036
Si Si4 0.869975 0.939763 0.542347
Si Si5 0.507433 0.034234 0.190117
Si Si6 0.092543 0.408092 0.401376
O O1 0.349541 0.633451 0.900332
O O2 0.425055 0.780945 0.713679
O O3 0.306217 0.484166 0.567624
O O4 0.639954 0.567162 0.920196
O O5 0.500000 0.000000 0.500000
O O6 0.853831 0.062644 0.699441
O O7 0.689647 0.007265 0.862775
O O8 0.689386 0.275721 0.807166
O O9 0.962625 0.433906 0.175420
O O10 0.918814 0.775351 0.605368
O O11 0.660888 0.924707 0.329251
O O12 0.000000 0.000000 0.500000
O O13 0.500000 0.000000 0.000000
O O14 0.000000 0.500000 0.500000
#
# Coordination Sequence:
#
# PCOD9102998 Si02
#       6
#     2   2   2   2   2   2
#     4  10  20  38  67  95 135 171 216 266 333 398
#     4  10  22  41  66  97 134 171 225 272 321 395
#     4  10  20  38  64  95 130 179 214 267 329 391
#     4  11  24  43  64  95 132 172 221 278 326 381
#     4  11  22  40  68  99 126 173 220 264 333 397
#     4  10  22  39  64  95 131 173 218 270 330 391
#
# _framework density 22.901226000000001
#
# number of rings (size 3 to 8) (size 9 to 14) (size 15 to 20)
#    0.000    1.667    1.667    4.000    4.667    0.667 
#    0.000    9.167    0.000   17.000    0.000    0.000 
#    0.000    0.000    0.000    0.000    0.000    0.000 
#
# Total GULP energy -66964.422348 kJ/mol
# GULP energy per Si atom -5580.368529 kJ/mol
# Density = 2.284910 g / cm^3
# Si number density = 22.901226 Si / 1000 Ang^3
#
#
#
# Elastic Constant Matrix: (Units=GPa)
#
#
# Indices 1 2 3 4 5 6 
#
# 1 101.0125 13.5850 20.5003 3.1913 -20.5955 -11.8743
# 2 13.5850 81.8892 22.4163 0.6502 8.7788 -25.7991
# 3 20.5003 22.4163 96.0703 -1.1186 4.4143 -25.6250
# 4 3.1913 0.6502 -1.1186 38.2203 -14.4663 0.3281
# 5 -20.5955 8.7788 4.4143 -14.4663 30.7607 4.2425
# 6 -11.8743 -25.7991 -25.6250 0.3281 4.2425 26.6774
#
#
#
# Elastic Compliance Matrix: (Units=1/GPa)
#
#
# Indices 1 2 3 4 5 6 
#
# 1 0.013087 -0.003436 -0.003190 0.003514 0.012204 -0.002546
# 2 -0.003436 0.021266 0.002840 -0.005821 -0.014853 0.024199
# 3 -0.003190 0.002840 0.015528 -0.002874 -0.008968 0.017704
# 4 0.003514 -0.005821 -0.002874 0.034325 0.022052 -0.010755
# 5 0.012204 -0.014853 -0.008968 0.022052 0.060358 -0.027415
# 6 -0.002546 0.024199 0.017704 -0.010755 -0.027415 0.081251
#
#
# Mechanical properties :
#
#
# Convention : Reuss Voigt Hill
#
# Bulk Modulus (GPa) = 23.63520 43.55282 33.59401
# Shear Modulus (GPa) = 20.20286 33.96304 27.08295
#
# Velocity S-wave (km/s) = 2.97336 3.85518 3.44262
# Velocity P-wave (km/s) = 4.70433 6.23502 5.52296
#
# Compressibility (1/GPa) = 0.04230978
#
# Stress axis : x y z
#
# Youngs Moduli (GPa) = 76.40958 47.02258 64.40106
#
# Poissons Ratio (x) = 0.16158 0.20543
# Poissons Ratio (y) = 0.26257 -0.18292
# Poissons Ratio (z) = 0.24374 -0.13356
#
# Static dielectric constant tensor:
#      x y z
#    x 1.975630 0.049480 0.032570 
#    y 0.049480 1.834560 -0.016130 
#    z 0.032570 -0.016130 1.891830 
# 
# From -- ./inp_files/159804.got.cif
#   From: 2010.05.17/outbox.cif.g08.bks.cpg/sg2_80_cif.got.tgz:159804.got - 2010.06.03 11:33:40.
