data_PCOD9102962
_publ_section_title
;
Structure prediction by ZEFSAII (Michael W. Deem and Ramdas Pophale) SiO2 
 PCOD9102962
Probable space group: P -1
;
_chemical_formula_sum "Si O2"
_cell_formula_units_Z 14
_cell_length_a 17.166285
_cell_length_b 19.677047
_cell_length_c 7.622041
_cell_angle_alpha 107.612993
_cell_angle_beta 59.643385
_cell_angle_gamma 159.116455
_cell_volume 660.687881
_symmetry_space_group_name_H-M "P -1"
_symmetry_group_IT_number 2
_symmetry_cell_setting 'triclinic'
loop_
_space_group_symop_operation_xyz
x,y,z
-x,-y,-z
loop_
_atom_site_type_symbol
_atom_site_label
_atom_site_fract_x
_atom_site_fract_y
_atom_site_fract_z
Si Si1 0.827684 0.057766 0.738218
Si Si2 0.392161 0.266676 0.843853
Si Si3 0.300874 0.626007 0.250433
Si Si4 0.581483 0.135709 0.099110
Si Si5 0.862462 0.368163 0.321098
Si Si6 0.426303 0.521792 0.528870
Si Si7 0.087464 0.010169 0.649120
O O1 0.952714 0.088287 0.500158
O O2 0.086337 0.281029 0.739053
O O3 0.683539 0.009589 0.744225
O O4 0.570821 0.834493 0.975050
O O5 0.646836 0.407234 0.729407
O O6 0.501035 0.412174 0.708907
O O7 0.193346 0.073287 0.778819
O O8 0.188298 0.146063 0.131272
O O9 0.304838 0.698539 0.427049
O O10 0.002959 0.412216 0.315930
O O11 0.672435 0.196973 0.245006
O O12 0.860188 0.380716 0.877864
O O13 0.500000 0.000000 0.000000
O O14 0.500000 0.500000 0.500000
O O15 0.642665 0.741556 0.539037
#
# Coordination Sequence:
#
# PCOD9102962 Si02
#       7
#     2   2   2   2   2   2   2
#     4  11  23  37  63  92 123 164 207 255 309 373
#     4   9  20  39  64  84 127 168 206 254 306 370
#     4  10  20  38  64  94 124 171 208 246 320 371
#     4  10  22  40  66  93 120 161 213 259 312 368
#     4   9  21  41  65  86 130 165 202 262 310 370
#     4  10  22  38  60  90 123 159 208 262 302 363
#     4   9  21  41  59  87 124 170 202 252 307 367
#
# _framework density 21.190037
#
# number of rings (size 3 to 8) (size 9 to 14) (size 15 to 20)
#    0.857    1.429    0.000    1.714    2.000    5.143 
#    0.000    7.857    6.286    0.000    0.000    0.000 
#    0.000    0.000    0.000    0.000    0.000    0.000 
#
# Total GULP energy -78109.419122 kJ/mol
# GULP energy per Si atom -5579.244223 kJ/mol
# Density = 2.114181 g / cm^3
# Si number density = 21.190037 Si / 1000 Ang^3
#
#
#
# Elastic Constant Matrix: (Units=GPa)
#
#
# Indices 1 2 3 4 5 6 
#
# 1 139.1811 56.8815 34.4288 4.2381 -22.3350 30.9038
# 2 56.8815 84.3769 22.0328 5.4790 -8.9672 5.5714
# 3 34.4288 22.0328 83.3490 8.3182 -14.5497 13.1430
# 4 4.2381 5.4790 8.3182 23.5882 5.4571 2.7592
# 5 -22.3350 -8.9672 -14.5497 5.4571 22.3960 -2.8818
# 6 30.9038 5.5714 13.1430 2.7592 -2.8818 27.0496
#
#
#
# Elastic Compliance Matrix: (Units=1/GPa)
#
#
# Indices 1 2 3 4 5 6 
#
# 1 0.015673 -0.008354 0.000158 -0.001702 0.010882 -0.014929
# 2 -0.008354 0.017632 -0.002335 -0.002304 -0.001308 0.007143
# 3 0.000158 -0.002335 0.015968 -0.006900 0.010553 -0.005630
# 4 -0.001702 -0.002304 -0.006900 0.050363 -0.019561 -0.001449
# 5 0.010882 -0.001308 0.010553 -0.019561 0.065532 -0.008314
# 6 -0.014929 0.007143 -0.005630 -0.001449 -0.008314 0.054552
#
#
# Mechanical properties :
#
#
# Convention : Reuss Voigt Hill
#
# Bulk Modulus (GPa) = 35.44670 59.28814 47.36742
# Shear Modulus (GPa) = 19.98506 27.51103 23.74805
#
# Velocity S-wave (km/s) = 3.07438 3.60710 3.35134
# Velocity P-wave (km/s) = 5.41911 6.73708 6.11371
#
# Compressibility (1/GPa) = 0.02821137
#
# Stress axis : x y z
#
# Youngs Moduli (GPa) = 63.80370 56.71465 62.62383
#
# Poissons Ratio (x) = 0.47381 -0.00989
# Poissons Ratio (y) = 0.53303 0.14621
# Poissons Ratio (z) = -0.01008 0.13242
#
# Static dielectric constant tensor:
#      x y z
#    x 1.803600 0.011020 0.039350 
#    y 0.011020 1.767030 -0.034590 
#    z 0.039350 -0.034590 1.748740 
# 
# From -- ./inp_files/337269.got.cif
#   From: 2010.05.17/outbox.cif.g08.bks.cpg/sg2_169_cif.got.tgz:337269.got - 2010.06.03 11:33:40.
