data_PCOD9102301
_publ_section_title
;
Structure prediction by ZEFSAII (Michael W. Deem and Ramdas Pophale) SiO2 
 PCOD9102301
Probable space group: P -1
;
_chemical_formula_sum "Si O2"
_cell_formula_units_Z 16
_cell_length_a 12.727697
_cell_length_b 15.097380
_cell_length_c 15.300979
_cell_angle_alpha 146.740870
_cell_angle_beta 27.528237
_cell_angle_gamma 130.845469
_cell_volume 699.437756
_symmetry_space_group_name_H-M "P -1"
_symmetry_group_IT_number 2
_symmetry_cell_setting 'triclinic'
loop_
_space_group_symop_operation_xyz
x,y,z
-x,-y,-z
loop_
_atom_site_type_symbol
_atom_site_label
_atom_site_fract_x
_atom_site_fract_y
_atom_site_fract_z
Si Si1 0.460726 0.043078 0.754789
Si Si2 0.235346 0.227928 0.403386
Si Si3 0.630311 0.306933 0.495943
Si Si4 0.982754 0.796519 0.129299
Si Si5 0.425594 0.566807 0.708572
Si Si6 0.795822 0.524063 0.941746
Si Si7 0.657299 0.035178 0.042911
Si Si8 0.897643 0.609666 0.753222
O O1 0.370140 0.887072 0.662208
O O2 0.749353 0.955413 0.461690
O O3 0.364310 0.076551 0.952422
O O4 0.343420 0.223582 0.943032
O O5 0.390298 0.330268 0.323920
O O6 0.250106 0.070708 0.200823
O O7 0.962412 0.347954 0.717672
O O8 0.387412 0.161469 0.323778
O O9 0.475769 0.416295 0.618081
O O10 0.483507 0.411083 0.773651
O O11 0.894276 0.316512 0.309510
O O12 0.892691 0.667142 0.031871
O O13 0.158978 0.863234 0.995180
O O14 0.150308 0.693800 0.001532
O O15 0.500000 0.500000 0.500000
O O16 0.849000 0.504445 0.783791
O O17 0.000000 0.500000 0.500000
#
# Coordination Sequence:
#
# PCOD9102301 Si02
#       8
#     2   2   2   2   2   2   2   2
#     4  11  25  40  66  94 128 166 217 261 317 386
#     4  10  20  38  62  90 131 168 207 260 315 379
#     4  11  25  40  68  98 122 173 215 267 321 370
#     4  10  23  39  65 100 127 168 204 265 322 379
#     4  11  19  39  69  95 138 167 208 258 321 389
#     4  11  23  41  66  96 124 166 220 263 312 391
#     4  10  22  39  59  92 130 169 204 260 321 374
#     4  12  26  46  66  87 131 175 218 268 319 375
#
# _framework density 22.875516000000001
#
# number of rings (size 3 to 8) (size 9 to 14) (size 15 to 20)
#    0.000    1.250    2.500    3.375    1.750    5.500 
#    0.000    1.875    0.000    0.000    0.000    0.000 
#    0.000    0.000    0.000    0.000    0.000    0.000 
#
# Total GULP energy -89454.532816 kJ/mol
# GULP energy per Si atom -5590.908301 kJ/mol
# Density = 2.282345 g / cm^3
# Si number density = 22.875516 Si / 1000 Ang^3
#
#
#
# Elastic Constant Matrix: (Units=GPa)
#
#
# Indices 1 2 3 4 5 6 
#
# 1 49.0666 -0.1490 16.9995 1.8354 6.2887 -5.9489
# 2 -0.1490 22.2255 -0.7818 5.2199 -1.3023 -6.6402
# 3 16.9995 -0.7818 115.8736 7.6127 -12.7469 1.7182
# 4 1.8354 5.2199 7.6127 29.8851 -5.9972 4.4601
# 5 6.2887 -1.3023 -12.7469 -5.9972 27.8750 -0.3657
# 6 -5.9489 -6.6402 1.7182 4.4601 -0.3657 17.7436
#
#
#
# Elastic Compliance Matrix: (Units=1/GPa)
#
#
# Indices 1 2 3 4 5 6 
#
# 1 0.024419 0.003827 -0.004325 -0.004326 -0.008095 0.010959
# 2 0.003827 0.055975 0.000270 -0.014084 -0.000818 0.025728
# 3 -0.004325 0.000270 0.009942 -0.000957 0.005303 -0.001962
# 4 -0.004326 -0.014084 -0.000957 0.040603 0.008397 -0.016661
# 5 -0.008095 -0.000818 0.005303 0.008397 0.041831 -0.004782
# 6 0.010959 0.025728 -0.001962 -0.016661 -0.004782 0.073940
#
#
# Mechanical properties :
#
#
# Convention : Reuss Voigt Hill
#
# Bulk Modulus (GPa) = 11.12600 24.36702 17.74651
# Shear Modulus (GPa) = 18.04238 26.50721 22.27480
#
# Velocity S-wave (km/s) = 2.81146 3.40775 3.12387
# Velocity P-wave (km/s) = 3.92599 5.11457 4.55918
#
# Compressibility (1/GPa) = 0.08987954
#
# Stress axis : x y z
#
# Youngs Moduli (GPa) = 40.95239 17.86510 100.58522
#
# Poissons Ratio (x) = -0.06838 0.43507
# Poissons Ratio (y) = -0.15674 -0.02716
# Poissons Ratio (z) = 0.17713 -0.00482
#
# Static dielectric constant tensor:
#      x y z
#    x 1.851300 0.017790 0.008050 
#    y 0.017790 1.848790 0.008190 
#    z 0.008050 0.008190 1.867910 
# 
# From -- ./inp_files/522469.got.cif
#   From: 2010.05.17/outbox.cif.g08.bks.cpg/sg2_262_cif.got.tgz:522469.got - 2010.06.03 11:33:40.
