data_PCOD9102433
_publ_section_title
;
Structure prediction by ZEFSAII (Michael W. Deem and Ramdas Pophale) SiO2 
 PCOD9102433
Probable space group: P -1
;
_chemical_formula_sum "Si O2"
_cell_formula_units_Z 15
_cell_length_a 11.561589
_cell_length_b 8.871037
_cell_length_c 13.803393
_cell_angle_alpha 56.811535
_cell_angle_beta 64.498894
_cell_angle_gamma 111.345282
_cell_volume 650.240290
_symmetry_space_group_name_H-M "P -1"
_symmetry_group_IT_number 2
_symmetry_cell_setting 'triclinic'
loop_
_space_group_symop_operation_xyz
x,y,z
-x,-y,-z
loop_
_atom_site_type_symbol
_atom_site_label
_atom_site_fract_x
_atom_site_fract_y
_atom_site_fract_z
Si Si1 0.198612 0.770361 0.092298
Si Si2 0.500000 0.500000 0.500000
Si Si3 0.319222 0.129405 0.373184
Si Si4 0.870985 0.704587 0.208022
Si Si5 0.963078 0.631394 0.534522
Si Si6 0.589394 0.448773 0.694249
Si Si7 0.720722 0.359982 0.191178
Si Si8 0.945398 0.277442 0.202745
O O1 0.170465 0.590320 0.247471
O O2 0.037642 0.753962 0.178127
O O3 0.113192 0.594811 0.083926
O O4 0.429823 0.104605 0.881252
O O5 0.709803 0.609976 0.373397
O O6 0.505916 0.471159 0.626255
O O7 0.422237 0.438332 0.245533
O O8 0.497065 0.173646 0.298004
O O9 0.171664 0.946997 0.587066
O O10 0.176853 0.946140 0.394680
O O11 0.745134 0.452863 0.259627
O O12 0.000000 0.000000 0.000000
O O13 0.823441 0.630300 0.537545
O O14 0.000000 0.500000 0.500000
O O15 0.771402 0.202940 0.234804
O O16 0.910757 0.656370 0.953308
#
# Coordination Sequence:
#
# PCOD9102433 Si02
#       8
#     2   1   2   2   2   2   2   2
#     4  10  22  45  69  97 139 178 230 282 340 417
#     4  12  24  38  68 102 140 174 216 282 358 394
#     4  11  23  44  67  99 137 177 231 286 338 408
#     4  11  21  38  61 103 140 174 222 282 345 406
#     4  11  26  48  70  96 135 189 238 280 342 420
#     4  12  25  44  70 102 137 183 229 287 346 406
#     4  10  20  38  62  98 139 175 234 271 343 407
#     4   9  22  37  66  97 136 184 215 284 341 412
#
# _framework density 23.068394999999999
#
# number of rings (size 3 to 8) (size 9 to 14) (size 15 to 20)
#    0.000    1.333    2.667    2.000    3.733    1.067 
#    2.400    0.667    0.000    0.000    0.000    0.000 
#    0.000    0.000    0.000    0.000    0.000    0.000 
#
# Total GULP energy -83645.383941 kJ/mol
# GULP energy per Si atom -5576.358929 kJ/mol
# Density = 2.301589 g / cm^3
# Si number density = 23.068395 Si / 1000 Ang^3
#
#
#
# Elastic Constant Matrix: (Units=GPa)
#
#
# Indices 1 2 3 4 5 6 
#
# 1 126.0862 15.0578 3.2451 -7.1557 -24.5096 20.5671
# 2 15.0578 58.2161 21.4550 -6.3198 -4.4798 9.0741
# 3 3.2451 21.4550 47.8783 6.4774 -23.6377 1.8053
# 4 -7.1557 -6.3198 6.4774 41.9079 0.1891 -10.6548
# 5 -24.5096 -4.4798 -23.6377 0.1891 36.8284 0.3202
# 6 20.5671 9.0741 1.8053 -10.6548 0.3202 29.6147
#
#
#
# Elastic Compliance Matrix: (Units=1/GPa)
#
#
# Indices 1 2 3 4 5 6 
#
# 1 0.011849 -0.003815 0.007587 -0.001901 0.012374 -0.008341
# 2 -0.003815 0.024167 -0.016091 0.005055 -0.009937 -0.001848
# 3 0.007587 -0.016091 0.045069 -0.010033 0.032132 -0.007043
# 4 -0.001901 0.005055 -0.010033 0.028619 -0.007330 0.010759
# 5 0.012374 -0.009937 0.032132 -0.007330 0.054933 -0.010739
# 6 -0.008341 -0.001848 -0.007043 0.010759 -0.010739 0.044542
#
#
# Mechanical properties :
#
#
# Convention : Reuss Voigt Hill
#
# Bulk Modulus (GPa) = 17.71573 34.63293 26.17433
# Shear Modulus (GPa) = 19.79157 34.49837 27.14497
#
# Velocity S-wave (km/s) = 2.93226 3.87134 3.43405
# Velocity P-wave (km/s) = 4.37727 5.91851 5.20525
#
# Compressibility (1/GPa) = 0.05644703
#
# Stress axis : x y z
#
# Youngs Moduli (GPa) = 84.39269 41.37949 22.18810
#
# Poissons Ratio (x) = 0.15787 -0.16835
# Poissons Ratio (y) = 0.32198 0.35703
# Poissons Ratio (z) = -0.64031 0.66584
#
# Static dielectric constant tensor:
#      x y z
#    x 1.844040 -0.038070 0.025510 
#    y -0.038070 1.905980 -0.056790 
#    z 0.025510 -0.056790 1.892170 
# 
# From -- ./inp_files/472343.got.cif
#   From: 2010.05.17/outbox.cif.g08.bks.cpg/sg2_237_cif.got.tgz:472343.got - 2010.06.03 11:33:40.
