data_PCOD9102846
_publ_section_title
;
Structure prediction by ZEFSAII (Michael W. Deem and Ramdas Pophale) SiO2 
 PCOD9102846
Probable space group: P -1
;
_chemical_formula_sum "Si O2"
_cell_formula_units_Z 15
_cell_length_a 11.628146
_cell_length_b 8.396220
_cell_length_c 9.002993
_cell_angle_alpha 99.634013
_cell_angle_beta 88.787541
_cell_angle_gamma 52.055518
_cell_volume 674.640397
_symmetry_space_group_name_H-M "P -1"
_symmetry_group_IT_number 2
_symmetry_cell_setting 'triclinic'
loop_
_space_group_symop_operation_xyz
x,y,z
-x,-y,-z
loop_
_atom_site_type_symbol
_atom_site_label
_atom_site_fract_x
_atom_site_fract_y
_atom_site_fract_z
Si Si1 0.127466 0.916278 0.267667
Si Si2 0.429429 0.813220 0.725382
Si Si3 0.665429 0.821645 0.030388
Si Si4 0.199114 0.406734 0.581550
Si Si5 0.802111 0.211041 0.414053
Si Si6 0.375929 0.487310 0.061493
Si Si7 0.500000 0.000000 0.500000
Si Si8 0.116652 0.302249 0.260311
O O1 0.189398 0.850367 0.424111
O O2 0.225845 0.714974 0.131950
O O3 0.139062 0.089987 0.239387
O O4 0.955676 0.021447 0.303200
O O5 0.336827 0.747200 0.652931
O O6 0.554934 0.639165 0.806100
O O7 0.502448 0.849763 0.597408
O O8 0.318138 0.033454 0.847908
O O9 0.655023 0.644759 0.056535
O O10 0.787387 0.717579 0.881117
O O11 0.500000 0.000000 0.000000
O O12 0.201486 0.592946 0.569175
O O13 0.348516 0.204743 0.610140
O O14 0.171247 0.329963 0.418799
O O15 0.057636 0.506863 0.708010
O O16 0.500000 0.500000 0.000000
#
# Coordination Sequence:
#
# PCOD9102846 Si02
#       8
#     2   2   2   2   2   2   1   2
#     4  10  20  38  64  90 124 165 206 257 315 372
#     4  11  25  41  63  93 128 165 211 262 312 374
#     4  10  21  40  62  88 123 164 207 253 311 373
#     4  10  22  38  62  91 122 162 209 260 312 368
#     4  10  22  39  61  93 126 161 209 262 314 368
#     4  11  24  42  65  91 123 166 211 257 312 377
#     4  12  24  40  60  92 126 160 204 262 318 364
#     4  10  20  40  64  88 121 165 213 256 307 375
#
# _framework density 22.234069999999999
#
# number of rings (size 3 to 8) (size 9 to 14) (size 15 to 20)
#    0.000    1.600    0.000    5.600    0.000    8.533 
#    0.000    8.667    0.000    0.000    0.000    0.000 
#    0.000    0.000    0.000    0.000    0.000    0.000 
#
# Total GULP energy -83620.568943 kJ/mol
# GULP energy per Si atom -5574.704596 kJ/mol
# Density = 2.218346 g / cm^3
# Si number density = 22.234070 Si / 1000 Ang^3
#
#
#
# Elastic Constant Matrix: (Units=GPa)
#
#
# Indices 1 2 3 4 5 6 
#
# 1 67.0277 22.3654 20.9724 5.3680 -12.2481 7.0439
# 2 22.3654 108.5519 13.2962 35.8744 -12.3304 -5.0493
# 3 20.9724 13.2962 38.9859 15.5909 -19.9901 -3.4465
# 4 5.3680 35.8744 15.5909 37.5321 -0.6439 -10.3196
# 5 -12.2481 -12.3304 -19.9901 -0.6439 37.6101 0.1012
# 6 7.0439 -5.0493 -3.4465 -10.3196 0.1012 27.1114
#
#
#
# Elastic Compliance Matrix: (Units=1/GPa)
#
#
# Indices 1 2 3 4 5 6 
#
# 1 0.020456 -0.004924 -0.012927 0.005537 -0.001713 -0.005761
# 2 -0.004924 0.016146 0.008457 -0.018586 0.007871 -0.001742
# 3 -0.012927 0.008457 0.055251 -0.028431 0.027440 0.001033
# 4 0.005537 -0.018586 -0.028431 0.058959 -0.018429 0.013996
# 5 -0.001713 0.007871 0.027440 -0.018429 0.042885 -0.001776
# 6 -0.005761 -0.001742 0.001033 0.013996 -0.001776 0.043523
#
#
# Mechanical properties :
#
#
# Convention : Reuss Voigt Hill
#
# Bulk Modulus (GPa) = 13.68649 36.42595 25.05622
# Shear Modulus (GPa) = 17.83408 30.97950 24.40679
#
# Velocity S-wave (km/s) = 2.83522 3.73679 3.31678
# Velocity P-wave (km/s) = 4.10938 5.91917 5.09527
#
# Compressibility (1/GPa) = 0.07306477
#
# Stress axis : x y z
#
# Youngs Moduli (GPa) = 48.88587 61.93466 18.09925
#
# Poissons Ratio (x) = 0.30494 0.23397
# Poissons Ratio (y) = 0.24070 -0.15306
# Poissons Ratio (z) = 0.63194 -0.52376
#
# Static dielectric constant tensor:
#      x y z
#    x 1.831260 0.000090 0.029660 
#    y 0.000090 1.804100 0.004260 
#    z 0.029660 0.004260 1.857730 
# 
# From -- ./inp_files/239732.got.cif
#   From: 2010.05.17/outbox.cif.g08.bks.cpg/sg2_120_cif.got.tgz:239732.got - 2010.06.03 11:33:40.
