data_PCOD9102186
_publ_section_title
;
Structure prediction by ZEFSAII (Michael W. Deem and Ramdas Pophale) SiO2 
 PCOD9102186
Probable space group: P -1
;
_chemical_formula_sum "Si O2"
_cell_formula_units_Z 16
_cell_length_a 10.799684
_cell_length_b 12.338899
_cell_length_c 8.430011
_cell_angle_alpha 68.969808
_cell_angle_beta 57.699674
_cell_angle_gamma 57.739029
_cell_volume 798.668791
_symmetry_space_group_name_H-M "P -1"
_symmetry_group_IT_number 2
_symmetry_cell_setting 'triclinic'
loop_
_space_group_symop_operation_xyz
x,y,z
-x,-y,-z
loop_
_atom_site_type_symbol
_atom_site_label
_atom_site_fract_x
_atom_site_fract_y
_atom_site_fract_z
Si Si1 0.256305 0.866396 0.458035
Si Si2 0.101234 0.877797 0.883563
Si Si3 0.841262 0.893608 0.812169
Si Si4 0.910801 0.304833 0.463932
Si Si5 0.166717 0.460707 0.809626
Si Si6 0.253745 0.643524 0.137062
Si Si7 0.606553 0.590045 0.047032
Si Si8 0.392824 0.195589 0.871397
O O1 0.200793 0.903777 0.657659
O O2 0.208529 0.751476 0.503257
O O3 0.442487 0.836648 0.317049
O O4 0.166000 0.979319 0.332747
O O5 0.966811 0.851268 0.892729
O O6 0.215678 0.753456 0.972717
O O7 0.000000 0.000000 0.000000
O O8 0.915369 0.783757 0.685337
O O9 0.669290 0.909583 0.986050
O O10 0.862779 0.449709 0.367060
O O11 0.890191 0.301590 0.666556
O O12 0.302324 0.479193 0.816713
O O13 0.248323 0.307621 0.812385
O O14 0.000000 0.500000 0.000000
O O15 0.423271 0.612949 0.127609
O O16 0.283348 0.507182 0.111352
O O17 0.600599 0.729836 0.009762
#
# Coordination Sequence:
#
# PCOD9102186 Si02
#       8
#     2   2   2   2   2   2   2   2
#     4  11  22  39  65  93 113 164 214 248 294 360
#     4  11  24  40  64  90 125 153 205 256 303 360
#     4  11  22  40  66  89 120 161 207 255 299 353
#     4  11  19  37  65  92 118 153 213 248 288 371
#     4  10  20  38  62  87 123 155 204 248 305 347
#     4  11  21  36  59  93 126 159 195 251 311 349
#     4   9  21  36  58  87 127 157 194 247 306 347
#     4  10  22  39  64  90 123 159 201 257 298 362
#
# _framework density 20.033337
#
# number of rings (size 3 to 8) (size 9 to 14) (size 15 to 20)
#    0.750    0.750    2.500    4.875    0.000    4.000 
#    0.000    3.125    8.250    0.000    0.000    0.000 
#    0.000    0.000    0.000    0.000    0.000    0.000 
#
# Total GULP energy -89122.021208 kJ/mol
# GULP energy per Si atom -5570.126325 kJ/mol
# Density = 1.998774 g / cm^3
# Si number density = 20.033337 Si / 1000 Ang^3
#
#
#
# Elastic Constant Matrix: (Units=GPa)
#
#
# Indices 1 2 3 4 5 6 
#
# 1 32.7661 14.6139 27.3935 -0.1218 -9.8309 -6.9580
# 2 14.6139 48.9151 31.0080 6.3395 -1.4912 -7.2889
# 3 27.3935 31.0080 117.6037 5.4683 -15.6749 4.1860
# 4 -0.1218 6.3395 5.4683 41.2272 -2.2974 3.3304
# 5 -9.8309 -1.4912 -15.6749 -2.2974 32.0945 5.6758
# 6 -6.9580 -7.2889 4.1860 3.3304 5.6758 31.9635
#
#
#
# Elastic Compliance Matrix: (Units=1/GPa)
#
#
# Indices 1 2 3 4 5 6 
#
# 1 0.044200 -0.007328 -0.007607 0.002147 0.008357 0.007239
# 2 -0.007328 0.028254 -0.006556 -0.004395 -0.005718 0.007180
# 3 -0.007607 -0.006556 0.012822 -0.000001 0.004627 -0.005652
# 4 0.002147 -0.004395 -0.000001 0.025400 0.002926 -0.003701
# 5 0.008357 -0.005718 0.004627 0.002926 0.037158 -0.006994
# 6 0.007239 0.007180 -0.005652 -0.003701 -0.006994 0.036867
#
#
# Mechanical properties :
#
#
# Convention : Reuss Voigt Hill
#
# Bulk Modulus (GPa) = 23.64422 38.36839 31.00631
# Shear Modulus (GPa) = 20.67997 29.47501 25.07749
#
# Velocity S-wave (km/s) = 3.21639 3.83991 3.54190
# Velocity P-wave (km/s) = 5.06178 6.23328 5.67782
#
# Compressibility (1/GPa) = 0.04229364
#
# Stress axis : x y z
#
# Youngs Moduli (GPa) = 22.62446 35.39324 77.99364
#
# Poissons Ratio (x) = 0.25935 0.59331
# Poissons Ratio (y) = 0.16578 0.51133
# Poissons Ratio (z) = 0.17211 0.23204
#
# Static dielectric constant tensor:
#      x y z
#    x 1.721640 -0.003150 -0.002930 
#    y -0.003150 1.754070 0.024520 
#    z -0.002930 0.024520 1.691170 
# 
# From -- ./inp_files/267056.got.cif
#   From: 2010.05.17/outbox.cif.g08.bks.cpg/sg2_134_cif.got.tgz:267056.got - 2010.06.03 11:33:40.
