data_PCOD9102541
_publ_section_title
;
Structure prediction by ZEFSAII (Michael W. Deem and Ramdas Pophale) SiO2 
 PCOD9102541
Probable space group: P -1
;
_chemical_formula_sum "Si O2"
_cell_formula_units_Z 16
_cell_length_a 14.003578
_cell_length_b 14.298399
_cell_length_c 9.061350
_cell_angle_alpha 120.594036
_cell_angle_beta 66.482851
_cell_angle_gamma 150.008007
_cell_volume 777.011226
_symmetry_space_group_name_H-M "P -1"
_symmetry_group_IT_number 2
_symmetry_cell_setting 'triclinic'
loop_
_space_group_symop_operation_xyz
x,y,z
-x,-y,-z
loop_
_atom_site_type_symbol
_atom_site_label
_atom_site_fract_x
_atom_site_fract_y
_atom_site_fract_z
Si Si1 0.176611 0.477239 0.253977
Si Si2 0.162957 0.205254 0.472978
Si Si3 0.591372 0.760029 0.542825
Si Si4 0.929938 0.362097 0.066216
Si Si5 0.532279 0.648553 0.163311
Si Si6 0.239778 0.605841 0.644812
Si Si7 0.967515 0.079854 0.179323
Si Si8 0.968588 0.227920 0.695274
O O1 0.367657 0.586566 0.164192
O O2 0.222512 0.583242 0.460904
O O3 0.083799 0.473324 0.187521
O O4 0.039300 0.254475 0.201756
O O5 0.338202 0.274801 0.421430
O O6 0.152987 0.308675 0.654227
O O7 0.000000 0.000000 0.500000
O O8 0.087771 0.169075 0.328151
O O9 0.519536 0.637430 0.340454
O O10 0.424643 0.695313 0.643092
O O11 0.778864 0.996624 0.578806
O O12 0.757849 0.273617 0.184644
O O13 0.908170 0.229313 0.887440
O O14 0.000000 0.500000 0.000000
O O15 0.740671 0.878349 0.183837
O O16 0.500000 0.500000 0.000000
O O17 0.046178 0.381637 0.651280
O O18 0.000000 0.000000 0.000000
#
# Coordination Sequence:
#
# PCOD9102541 Si02
#       8
#     2   2   2   2   2   2   2   2
#     4  11  23  41  66  87 126 168 205 263 313 366
#     4  10  20  38  63  89 131 167 194 250 310 376
#     4  10  22  37  63  91 125 165 206 245 310 376
#     4  10  24  43  67  90 120 164 215 268 313 361
#     4  11  22  38  59  94 133 163 201 252 306 381
#     4  10  21  43  61  91 118 163 215 255 303 369
#     4  12  23  40  61  97 132 168 209 243 315 384
#     4  10  20  39  62  86 127 161 197 257 312 354
#
# _framework density 20.591723999999999
#
# number of rings (size 3 to 8) (size 9 to 14) (size 15 to 20)
#    0.000    1.500    5.000    0.375    5.250    1.000 
#    4.500    2.500    0.000    9.000    0.000    0.000 
#    0.000    0.000    0.000    0.000    0.000    0.000 
#
# Total GULP energy -89176.107262 kJ/mol
# GULP energy per Si atom -5573.506704 kJ/mol
# Density = 2.054486 g / cm^3
# Si number density = 20.591724 Si / 1000 Ang^3
#
#
#
# Elastic Constant Matrix: (Units=GPa)
#
#
# Indices 1 2 3 4 5 6 
#
# 1 157.3467 40.3811 62.8816 -16.1973 -5.0985 24.6089
# 2 40.3811 71.3471 0.1604 -5.5365 12.1418 24.1475
# 3 62.8816 0.1604 112.6070 -14.1760 -31.0721 23.1188
# 4 -16.1973 -5.5365 -14.1760 19.6488 6.4102 -2.3888
# 5 -5.0985 12.1418 -31.0721 6.4102 34.0270 -15.7326
# 6 24.6089 24.1475 23.1188 -2.3888 -15.7326 30.7257
#
#
#
# Elastic Compliance Matrix: (Units=1/GPa)
#
#
# Indices 1 2 3 4 5 6 
#
# 1 0.010490 -0.003660 -0.005986 0.004513 -0.004912 -0.003186
# 2 -0.003660 0.041140 0.004067 0.017846 -0.038314 -0.050692
# 3 -0.005986 0.004067 0.016499 0.004405 0.009231 -0.005747
# 4 0.004513 0.017846 0.004405 0.068458 -0.028553 -0.030252
# 5 -0.004912 -0.038314 0.009231 -0.028553 0.088615 0.070254
# 6 -0.003186 -0.050692 -0.005747 -0.030252 0.070254 0.112881
#
#
# Mechanical properties :
#
#
# Convention : Reuss Voigt Hill
#
# Bulk Modulus (GPa) = 17.55252 60.90522 39.22887
# Shear Modulus (GPa) = 13.57841 32.73880 23.15860
#
# Velocity S-wave (km/s) = 2.57069 3.99168 3.35723
# Velocity P-wave (km/s) = 4.16579 7.13347 5.84124
#
# Compressibility (1/GPa) = 0.05697188
#
# Stress axis : x y z
#
# Youngs Moduli (GPa) = 95.32459 24.30722 60.61043
#
# Poissons Ratio (x) = 0.08895 0.36281
# Poissons Ratio (y) = 0.34884 -0.24648
# Poissons Ratio (z) = 0.57060 -0.09885
#
# Static dielectric constant tensor:
#      x y z
#    x 1.795230 0.008010 -0.059160 
#    y 0.008010 1.650940 0.052960 
#    z -0.059160 0.052960 1.768730 
# 
# From -- ./inp_files/313838.got.cif
#   From: 2010.05.17/outbox.cif.g08.bks.cpg/sg2_157_cif.got.tgz:313838.got - 2010.06.03 11:33:40.
