data_PCOD9102910
_publ_section_title
;
Structure prediction by ZEFSAII (Michael W. Deem and Ramdas Pophale) SiO2 
 PCOD9102910
Probable space group: P -1
;
_chemical_formula_sum "Si O2"
_cell_formula_units_Z 14
_cell_length_a 12.273448
_cell_length_b 6.596379
_cell_length_c 11.516610
_cell_angle_alpha 105.257417
_cell_angle_beta 75.646811
_cell_angle_gamma 130.960563
_cell_volume 675.639286
_symmetry_space_group_name_H-M "P -1"
_symmetry_group_IT_number 2
_symmetry_cell_setting 'triclinic'
loop_
_space_group_symop_operation_xyz
x,y,z
-x,-y,-z
loop_
_atom_site_type_symbol
_atom_site_label
_atom_site_fract_x
_atom_site_fract_y
_atom_site_fract_z
Si Si1 0.609706 0.748968 0.719187
Si Si2 0.078250 0.172585 0.661084
Si Si3 0.069255 0.855330 0.943180
Si Si4 0.697333 0.766711 0.243525
Si Si5 0.371206 0.001620 0.490337
Si Si6 0.127789 0.738739 0.164469
Si Si7 0.818293 0.612439 0.589684
O O1 0.458250 0.515990 0.783727
O O2 0.584708 0.805514 0.603222
O O3 0.701488 0.640169 0.673958
O O4 0.708973 0.036551 0.801718
O O5 0.197478 0.291682 0.745657
O O6 0.156145 0.289589 0.535647
O O7 0.972126 0.241247 0.720362
O O8 0.973864 0.844817 0.640900
O O9 0.944058 0.572136 0.871577
O O10 0.214460 0.027972 0.853789
O O11 0.108401 0.811383 0.052248
O O12 0.000000 0.000000 0.000000
O O13 0.674463 0.903669 0.376439
O O14 0.500000 0.000000 0.500000
O O15 0.241541 0.693184 0.438475
#
# Coordination Sequence:
#
# PCOD9102910 Si02
#       7
#     2   2   2   2   2   2   2
#     4  11  24  41  63  96 131 164 212 261 312 384
#     4  10  20  38  64  92 130 163 214 257 313 375
#     4  11  24  45  69  92 124 166 217 267 315 373
#     4  12  23  40  66  94 130 170 208 262 315 374
#     4  12  23  38  64  94 135 172 204 249 326 375
#     4  10  24  45  67  92 124 167 216 267 314 370
#     4  10  21  38  59  95 130 168 205 260 309 383
#
# _framework density 20.721115000000001
#
# number of rings (size 3 to 8) (size 9 to 14) (size 15 to 20)
#    0.000    1.143    4.286    2.143    2.000    1.143 
#    0.000    0.714    0.000    0.000    0.000    0.000 
#    0.000    0.000    0.000    0.000    0.000    0.000 
#
# Total GULP energy -78270.709693 kJ/mol
# GULP energy per Si atom -5590.764978 kJ/mol
# Density = 2.067395 g / cm^3
# Si number density = 20.721115 Si / 1000 Ang^3
#
#
#
# Elastic Constant Matrix: (Units=GPa)
#
#
# Indices 1 2 3 4 5 6 
#
# 1 48.9506 31.5311 7.2142 1.3861 -1.4531 16.3505
# 2 31.5311 146.9631 43.3178 8.5168 -11.9522 28.6025
# 3 7.2142 43.3178 60.1592 -2.3984 0.4509 11.9900
# 4 1.3861 8.5168 -2.3984 36.2012 -1.5138 3.4410
# 5 -1.4531 -11.9522 0.4509 -1.5138 19.3343 0.4177
# 6 16.3505 28.6025 11.9900 3.4410 0.4177 33.3866
#
#
#
# Elastic Compliance Matrix: (Units=1/GPa)
#
#
# Indices 1 2 3 4 5 6 
#
# 1 0.026231 -0.004407 0.002051 0.001090 -0.000501 -0.009913
# 2 -0.004407 0.011428 -0.006836 -0.002209 0.006829 -0.005035
# 3 0.002051 -0.006836 0.022127 0.003137 -0.004270 -0.003364
# 4 0.001090 -0.002209 0.003137 0.028608 0.000942 -0.002728
# 5 -0.000501 0.006829 -0.004270 0.000942 0.056184 -0.004872
# 6 -0.009913 -0.005035 -0.003364 -0.002728 -0.004872 0.040671
#
#
# Mechanical properties :
#
#
# Convention : Reuss Voigt Hill
#
# Bulk Modulus (GPa) = 24.15427 46.68877 35.42152
# Shear Modulus (GPa) = 22.99557 29.38507 26.19032
#
# Velocity S-wave (km/s) = 3.33493 3.76988 3.55906
# Velocity P-wave (km/s) = 5.14890 6.44440 5.83273
#
# Compressibility (1/GPa) = 0.04140054
#
# Stress axis : x y z
#
# Youngs Moduli (GPa) = 38.12338 87.50253 45.19454
#
# Poissons Ratio (x) = 0.38560 -0.09267
# Poissons Ratio (y) = 0.16800 0.30896
# Poissons Ratio (z) = -0.07817 0.59818
#
# Static dielectric constant tensor:
#      x y z
#    x 1.729050 0.007300 0.018880 
#    y 0.007300 1.768920 0.014970 
#    z 0.018880 0.014970 1.723850 
# 
# From -- ./inp_files/46179.got.cif
#   From: 2010.05.17/outbox.cif.g08.bks.cpg/sg2_24_cif.got.tgz:46179.got - 2010.06.03 11:33:40.
