data_PCOD9102841
_publ_section_title
;
Structure prediction by ZEFSAII (Michael W. Deem and Ramdas Pophale) SiO2 
 PCOD9102841
Probable space group: P -1
;
_chemical_formula_sum "Si O2"
_cell_formula_units_Z 13
_cell_length_a 10.290889
_cell_length_b 12.503001
_cell_length_c 12.808238
_cell_angle_alpha 145.673179
_cell_angle_beta 44.427849
_cell_angle_gamma 143.860144
_cell_volume 542.528963
_symmetry_space_group_name_H-M "P -1"
_symmetry_group_IT_number 2
_symmetry_cell_setting 'triclinic'
loop_
_space_group_symop_operation_xyz
x,y,z
-x,-y,-z
loop_
_atom_site_type_symbol
_atom_site_label
_atom_site_fract_x
_atom_site_fract_y
_atom_site_fract_z
Si Si1 0.131873 0.932309 0.990369
Si Si2 0.190193 0.224705 0.377046
Si Si3 0.000000 0.500000 0.000000
Si Si4 0.369180 0.031266 0.730300
Si Si5 0.693446 0.902834 0.412276
Si Si6 0.653449 0.312277 0.238656
Si Si7 0.292690 0.476593 0.990300
O O1 0.299204 0.870663 0.894603
O O2 0.175406 0.952642 0.860107
O O3 0.887739 0.722479 0.991240
O O4 0.178515 0.149529 0.203426
O O5 0.393035 0.219220 0.305640
O O6 0.239236 0.470513 0.570395
O O7 0.947828 0.037252 0.414343
O O8 0.779871 0.403012 0.128442
O O9 0.847107 0.468820 0.962149
O O10 0.291539 0.981292 0.615320
O O11 0.514219 0.928136 0.594163
O O12 0.532533 0.301382 0.869168
O O13 0.613825 0.645078 0.229424
#
# Coordination Sequence:
#
# PCOD9102841 Si02
#       7
#     2   2   1   2   2   2   2
#     4  10  22  39  62  90 120 160 203 249 308 367
#     4  10  21  37  59  88 123 157 202 251 302 366
#     4  10  20  38  64  90 122 160 198 246 306 366
#     4  11  23  42  64  88 124 164 210 257 299 361
#     4  10  23  41  61  90 122 162 210 254 304 363
#     4  10  21  39  60  91 127 158 199 255 307 364
#     4  10  22  41  62  91 125 159 201 255 310 363
#
# _framework density 23.961853999999999
#
# number of rings (size 3 to 8) (size 9 to 14) (size 15 to 20)
#    0.000    1.846    0.000    3.692    0.000    8.615 
#    0.000   16.923    0.000    0.000    0.000    0.000 
#    0.000    0.000    0.000    0.000    0.000    0.000 
#
# Total GULP energy -72488.033655 kJ/mol
# GULP energy per Si atom -5576.002589 kJ/mol
# Density = 2.390732 g / cm^3
# Si number density = 23.961854 Si / 1000 Ang^3
#
#
#
# Elastic Constant Matrix: (Units=GPa)
#
#
# Indices 1 2 3 4 5 6 
#
# 1 68.4636 30.5243 5.9207 -12.2643 -0.8148 18.5267
# 2 30.5243 82.0960 41.9441 -20.0131 7.8469 10.8622
# 3 5.9207 41.9441 111.4521 -8.7764 -6.6264 19.9387
# 4 -12.2643 -20.0131 -8.7764 37.1796 7.1450 2.8267
# 5 -0.8148 7.8469 -6.6264 7.1450 35.5983 -19.0708
# 6 18.5267 10.8622 19.9387 2.8267 -19.0708 37.1455
#
#
#
# Elastic Compliance Matrix: (Units=1/GPa)
#
#
# Indices 1 2 3 4 5 6 
#
# 1 0.022559 -0.005444 0.003986 0.008266 -0.008082 -0.016578
# 2 -0.005444 0.022914 -0.006723 0.012096 -0.013173 -0.008060
# 3 0.003986 -0.006723 0.012618 0.001201 -0.000012 -0.006893
# 4 0.008266 0.012096 0.001201 0.042724 -0.023476 -0.023608
# 5 -0.008082 -0.013173 -0.000012 -0.023476 0.056145 0.038501
# 6 -0.016578 -0.008060 -0.006893 -0.023608 0.038501 0.062809
#
#
# Mechanical properties :
#
#
# Convention : Reuss Voigt Hill
#
# Bulk Modulus (GPa) = 23.96331 46.53221 35.24776
# Shear Modulus (GPa) = 19.99678 34.22619 27.11149
#
# Velocity S-wave (km/s) = 2.89195 3.78347 3.36734
# Velocity P-wave (km/s) = 4.60147 6.20867 5.46448
#
# Compressibility (1/GPa) = 0.04173046
#
# Stress axis : x y z
#
# Youngs Moduli (GPa) = 44.32788 43.64159 79.25305
#
# Poissons Ratio (x) = 0.23757 -0.31594
# Poissons Ratio (y) = 0.24130 0.53282
# Poissons Ratio (z) = -0.17671 0.29340
#
# Static dielectric constant tensor:
#      x y z
#    x 1.950420 0.009880 -0.032780 
#    y 0.009880 1.922120 -0.012840 
#    z -0.032780 -0.012840 1.921580 
# 
# From -- ./inp_files/376829.got.cif
#   From: 2010.05.17/outbox.cif.g08.bks.cpg/sg2_189_cif.got.tgz:376829.got - 2010.06.03 11:33:40.
