data_PCOD9102233
_publ_section_title
;
Structure prediction by ZEFSAII (Michael W. Deem and Ramdas Pophale) SiO2 
 PCOD9102233
Probable space group: P -1
;
_chemical_formula_sum "Si O2"
_cell_formula_units_Z 15
_cell_length_a 17.756677
_cell_length_b 8.641795
_cell_length_c 5.075419
_cell_angle_alpha 62.555201
_cell_angle_beta 71.294165
_cell_angle_gamma 63.820255
_cell_volume 613.492228
_symmetry_space_group_name_H-M "P -1"
_symmetry_group_IT_number 2
_symmetry_cell_setting 'triclinic'
loop_
_space_group_symop_operation_xyz
x,y,z
-x,-y,-z
loop_
_atom_site_type_symbol
_atom_site_label
_atom_site_fract_x
_atom_site_fract_y
_atom_site_fract_z
Si Si1 0.060500 0.950275 0.721946
Si Si2 0.816678 0.466808 0.197816
Si Si3 0.706217 0.503252 0.795977
Si Si4 0.638690 0.914215 0.548723
Si Si5 0.532922 0.245310 0.666356
Si Si6 0.811876 0.860918 0.726616
Si Si7 0.678943 0.162896 0.894112
Si Si8 0.500000 0.500000 0.000000
O O1 0.115478 0.730434 0.810897
O O2 0.118896 0.079579 0.551507
O O3 0.000000 0.000000 0.500000
O O4 0.000000 0.000000 0.000000
O O5 0.785154 0.452061 0.541189
O O6 0.738593 0.496197 0.061649
O O7 0.840500 0.653682 0.982017
O O8 0.650011 0.708250 0.617717
O O9 0.661142 0.353150 0.922189
O O10 0.728759 0.880607 0.628430
O O11 0.557763 0.029884 0.720186
O O12 0.639768 0.033145 0.197155
O O13 0.631266 0.231865 0.621304
O O14 0.491822 0.339968 0.909264
O O15 0.497067 0.369671 0.358014
O O16 0.775098 0.029999 0.845956
#
# Coordination Sequence:
#
# PCOD9102233 Si02
#       8
#     2   2   2   2   2   2   2   1
#     4  12  27  42  62  87 122 167 209 249 309 374
#     4  11  23  42  60  90 119 163 202 252 323 364
#     4  11  23  36  66  95 127 150 197 271 314 361
#     4  10  21  39  64  99 120 158 206 257 318 356
#     4  10  21  36  62  95 123 169 210 243 298 364
#     4  10  23  39  65  87 125 156 204 266 311 366
#     4  11  20  38  66  96 121 156 206 262 313 355
#     4  10  20  38  62  88 132 174 208 238 290 368
#
# _framework density 24.450185000000001
#
# number of rings (size 3 to 8) (size 9 to 14) (size 15 to 20)
#    0.000    1.333    4.000    1.600    3.733    1.067 
#    0.000    0.000    0.000    4.800    0.000    0.000 
#    0.000    0.000    0.000    0.000    0.000    0.000 
#
# Total GULP energy -83628.410227 kJ/mol
# GULP energy per Si atom -5575.227348 kJ/mol
# Density = 2.439454 g / cm^3
# Si number density = 24.450185 Si / 1000 Ang^3
#
#
#
# Elastic Constant Matrix: (Units=GPa)
#
#
# Indices 1 2 3 4 5 6 
#
# 1 56.9465 17.3012 52.3668 -14.5940 -5.5471 9.3848
# 2 17.3012 162.9257 60.2655 -23.7543 -14.7088 6.3291
# 3 52.3668 60.2655 136.4482 6.7274 -0.8997 -2.0239
# 4 -14.5940 -23.7543 6.7274 65.7264 0.0240 -0.4884
# 5 -5.5471 -14.7088 -0.8997 0.0240 41.9227 3.6060
# 6 9.3848 6.3291 -2.0239 -0.4884 3.6060 25.0190
#
#
#
# Elastic Compliance Matrix: (Units=1/GPa)
#
#
# Indices 1 2 3 4 5 6 
#
# 1 0.040933 0.006307 -0.019377 0.013203 0.008886 -0.019540
# 2 0.006307 0.009466 -0.006929 0.005485 0.004508 -0.005864
# 3 -0.019377 -0.006929 0.018379 -0.008603 -0.005554 0.011141
# 4 0.013203 0.005485 -0.008603 0.020954 0.004096 -0.007218
# 5 0.008886 0.004508 -0.005554 0.004096 0.027244 -0.008770
# 6 -0.019540 -0.005864 0.011141 -0.007218 -0.008770 0.050807
#
#
# Mechanical properties :
#
#
# Convention : Reuss Voigt Hill
#
# Bulk Modulus (GPa) = 34.74794 68.46528 51.60661
# Shear Modulus (GPa) = 23.00199 41.62607 32.31403
#
# Velocity S-wave (km/s) = 3.07052 4.13059 3.63936
# Velocity P-wave (km/s) = 5.17817 7.12824 6.22998
#
# Compressibility (1/GPa) = 0.02877869
#
# Stress axis : x y z
#
# Youngs Moduli (GPa) = 24.43043 105.64632 54.41094
#
# Poissons Ratio (x) = -0.66634 1.05434
# Poissons Ratio (y) = -0.15409 0.37701
# Poissons Ratio (z) = 0.47340 0.73202
#
# Static dielectric constant tensor:
#      x y z
#    x 1.954110 0.008470 -0.079420 
#    y 0.008470 2.074920 0.015070 
#    z -0.079420 0.015070 1.932810 
# 
# From -- ./inp_files/116517.got.cif
#   From: 2010.05.17/outbox.cif.g08.bks.cpg/sg2_59_cif.got.tgz:116517.got - 2010.06.03 11:33:40.
