data_PCOD9102010
_publ_section_title
;
Structure prediction by ZEFSAII (Michael W. Deem and Ramdas Pophale) SiO2 
 PCOD9102010
Probable space group: P -1
;
_chemical_formula_sum "Si O2"
_cell_formula_units_Z 14
_cell_length_a 14.267827
_cell_length_b 8.238739
_cell_length_c 20.713060
_cell_angle_alpha 43.803944
_cell_angle_beta 21.734782
_cell_angle_gamma 39.032464
_cell_volume 567.811984
_symmetry_space_group_name_H-M "P -1"
_symmetry_group_IT_number 2
_symmetry_cell_setting 'triclinic'
loop_
_space_group_symop_operation_xyz
x,y,z
-x,-y,-z
loop_
_atom_site_type_symbol
_atom_site_label
_atom_site_fract_x
_atom_site_fract_y
_atom_site_fract_z
Si Si1 0.211010 0.119710 0.235972
Si Si2 0.001764 0.806760 0.966411
Si Si3 0.272622 0.615797 0.022872
Si Si4 0.447399 0.152134 0.421933
Si Si5 0.275966 0.796122 0.558760
Si Si6 0.164118 0.484796 0.268175
Si Si7 0.835597 0.744578 0.947301
O O1 0.200279 0.370971 0.129794
O O2 0.213095 0.215786 0.280089
O O3 0.921917 0.109275 0.404608
O O4 0.507458 0.887595 0.099694
O O5 0.318430 0.746462 0.764263
O O6 0.851808 0.794117 0.999244
O O7 0.024380 0.564213 0.063208
O O8 0.874422 0.096982 0.991287
O O9 0.204392 0.649746 0.134517
O O10 0.599476 0.532607 0.828556
O O11 0.145257 0.380836 0.548748
O O12 0.500000 0.000000 0.500000
O O13 0.447168 0.959809 0.421023
O O14 0.500000 0.500000 0.500000
O O15 0.039909 0.847082 0.750671
#
# Coordination Sequence:
#
# PCOD9102010 Si02
#       7
#     2   2   2   2   2   2   2
#     4  10  20  38  61  91 121 157 206 246 300 365
#     4  11  21  38  62  93 123 154 203 256 307 346
#     4   9  15  33  59  85 116 156 205 239 286 363
#     4  12  20  37  61  89 119 162 207 243 294 365
#     4  12  24  39  62  92 123 162 204 250 300 365
#     4   9  17  31  61  87 113 150 214 241 278 351
#     4  11  23  39  61  93 125 156 197 262 306 346
#
# _framework density 24.656047000000001
#
# number of rings (size 3 to 8) (size 9 to 14) (size 15 to 20)
#    0.857    0.571    4.286    3.000    0.000    0.000 
#    0.000    5.714    0.000    0.000    0.000    0.000 
#    0.000    0.000    0.000    0.000    0.000    0.000 
#
# Total GULP energy -78237.976793 kJ/mol
# GULP energy per Si atom -5588.426914 kJ/mol
# Density = 2.459993 g / cm^3
# Si number density = 24.656047 Si / 1000 Ang^3
#
#
#
# Elastic Constant Matrix: (Units=GPa)
#
#
# Indices 1 2 3 4 5 6 
#
# 1 44.1348 15.9318 11.9490 -3.4000 -16.8408 0.7795
# 2 15.9318 93.7059 8.7914 18.4885 -6.7049 6.5809
# 3 11.9490 8.7914 107.9186 23.4176 -25.5094 -4.5497
# 4 -3.4000 18.4885 23.4176 47.5861 4.3310 -0.9974
# 5 -16.8408 -6.7049 -25.5094 4.3310 27.6602 -2.5417
# 6 0.7795 6.5809 -4.5497 -0.9974 -2.5417 34.4945
#
#
#
# Elastic Compliance Matrix: (Units=1/GPa)
#
#
# Indices 1 2 3 4 5 6 
#
# 1 0.031297 -0.004558 0.001014 0.001837 0.018756 0.001731
# 2 -0.004558 0.012867 0.001238 -0.006185 0.002252 -0.002201
# 3 0.001014 0.001238 0.015088 -0.009282 0.016532 0.002681
# 4 0.001837 -0.006185 -0.009282 0.029346 -0.013558 -0.000236
# 5 0.018756 0.002252 0.016532 -0.013558 0.066021 0.005800
# 6 0.001731 -0.002201 0.002681 -0.000236 0.005800 0.030145
#
#
# Mechanical properties :
#
#
# Convention : Reuss Voigt Hill
#
# Bulk Modulus (GPa) = 18.30193 35.45595 26.87894
# Shear Modulus (GPa) = 24.08616 35.88731 29.98673
#
# Velocity S-wave (km/s) = 3.12891 3.81926 3.49119
# Velocity P-wave (km/s) = 4.52686 5.81898 5.21310
#
# Compressibility (1/GPa) = 0.05463905
#
# Stress axis : x y z
#
# Youngs Moduli (GPa) = 31.95226 77.72089 66.27758
#
# Poissons Ratio (x) = 0.35427 -0.06720
# Poissons Ratio (y) = 0.14564 -0.08206
# Poissons Ratio (z) = -0.03240 -0.09623
#
# Static dielectric constant tensor:
#      x y z
#    x 2.090240 0.034430 -0.018110 
#    y 0.034430 1.991500 -0.011790 
#    z -0.018110 -0.011790 1.895590 
# 
# From -- ./inp_files/623831.got.cif
#   From: 2010.05.17/outbox.cif.g08.bks.cpg/sg2_312_cif.got.tgz:623831.got - 2010.06.03 11:33:40.
