data_PCOD9102429
_publ_section_title
;
Structure prediction by ZEFSAII (Michael W. Deem and Ramdas Pophale) SiO2 
 PCOD9102429
Probable space group: P -1
;
_chemical_formula_sum "Si O2"
_cell_formula_units_Z 16
_cell_length_a 9.214796
_cell_length_b 9.558220
_cell_length_c 12.796234
_cell_angle_alpha 45.926025
_cell_angle_beta 103.295181
_cell_angle_gamma 114.718128
_cell_volume 732.324506
_symmetry_space_group_name_H-M "P -1"
_symmetry_group_IT_number 2
_symmetry_cell_setting 'triclinic'
loop_
_space_group_symop_operation_xyz
x,y,z
-x,-y,-z
loop_
_atom_site_type_symbol
_atom_site_label
_atom_site_fract_x
_atom_site_fract_y
_atom_site_fract_z
Si Si1 0.435950 0.347837 0.254302
Si Si2 0.770868 0.413445 0.207817
Si Si3 0.496151 0.156821 0.011583
Si Si4 0.359891 0.338486 0.486513
Si Si5 0.770027 0.027631 0.188068
Si Si6 0.041489 0.255158 0.375884
Si Si7 0.818105 0.859766 0.064786
Si Si8 0.133427 0.330519 0.121873
O O1 0.580822 0.301245 0.249919
O O2 0.468955 0.598066 0.127938
O O3 0.417480 0.304344 0.397711
O O4 0.277626 0.247500 0.208701
O O5 0.874361 0.288840 0.337761
O O6 0.806453 0.625607 0.168912
O O7 0.821588 0.506803 0.050762
O O8 0.648330 0.148554 0.101783
O O9 0.311155 0.082698 0.056824
O O10 0.500000 0.000000 0.000000
O O11 0.500000 0.500000 0.500000
O O12 0.189740 0.369377 0.419949
O O13 0.293864 0.121668 0.648138
O O14 0.956703 0.167810 0.152098
O O15 0.761676 0.890353 0.155079
O O16 0.109613 0.379152 0.213659
O O17 0.000000 0.000000 0.500000
O O18 0.000000 0.000000 0.000000
#
# Coordination Sequence:
#
# PCOD9102429 Si02
#       8
#     2   2   2   2   2   2   2   2
#     4  10  24  41  64  96 133 168 218 273 331 387
#     4  11  23  43  66  97 132 169 222 275 332 382
#     4   9  20  36  60  92 125 164 219 264 314 388
#     4  11  23  43  68  91 131 176 219 265 323 398
#     4  11  22  39  66  96 131 171 222 260 329 399
#     4  11  25  44  68  95 133 176 224 268 327 402
#     4  10  20  38  62  97 133 165 210 281 330 378
#     4  11  23  40  69  95 129 177 213 272 330 399
#
# _framework density 21.848237999999998
#
# number of rings (size 3 to 8) (size 9 to 14) (size 15 to 20)
#    0.000    1.500    2.500    3.000    5.250    1.000 
#    0.000    8.750    2.750    0.000    0.000    0.000 
#    0.000    0.000    0.000    0.000    0.000    0.000 
#
# Total GULP energy -89088.985322 kJ/mol
# GULP energy per Si atom -5568.061583 kJ/mol
# Density = 2.179851 g / cm^3
# Si number density = 21.848238 Si / 1000 Ang^3
#
#
#
# Elastic Constant Matrix: (Units=GPa)
#
#
# Indices 1 2 3 4 5 6 
#
# 1 202.2885 53.6656 84.1633 -1.5994 36.2334 32.8030
# 2 53.6656 91.7935 46.7391 17.0009 24.8970 15.6060
# 3 84.1633 46.7391 119.0993 19.1605 6.4143 -1.6417
# 4 -1.5994 17.0009 19.1605 18.7059 -1.6783 9.8602
# 5 36.2334 24.8970 6.4143 -1.6783 40.5333 4.3070
# 6 32.8030 15.6060 -1.6417 9.8602 4.3070 43.6055
#
#
#
# Elastic Compliance Matrix: (Units=1/GPa)
#
#
# Indices 1 2 3 4 5 6 
#
# 1 0.015732 -0.001598 -0.014437 0.025753 -0.007940 -0.016845
# 2 -0.001598 0.019380 -0.003693 -0.014000 -0.010291 -0.001690
# 3 -0.014437 -0.003693 0.025330 -0.033678 0.007647 0.019996
# 4 0.025753 -0.014000 -0.033678 0.126294 0.000841 -0.044272
# 5 -0.007940 -0.010291 0.007647 0.000841 0.036259 0.006172
# 6 -0.016845 -0.001690 0.019996 -0.044272 0.006172 0.046364
#
#
# Mechanical properties :
#
#
# Convention : Reuss Voigt Hill
#
# Bulk Modulus (GPa) = 47.65378 86.92417 67.28897
# Shear Modulus (GPa) = 15.83227 35.80982 25.82105
#
# Velocity S-wave (km/s) = 2.69485 4.05288 3.44151
# Velocity P-wave (km/s) = 5.61619 7.85958 6.83061
#
# Compressibility (1/GPa) = 0.02098469
#
# Stress axis : x y z
#
# Youngs Moduli (GPa) = 63.56605 51.59876 39.47897
#
# Poissons Ratio (x) = 0.08247 0.56998
# Poissons Ratio (y) = 0.10160 0.14579
# Poissons Ratio (z) = 0.91773 0.19055
#
# Static dielectric constant tensor:
#      x y z
#    x 1.969680 0.007720 0.105030 
#    y 0.007720 1.941270 0.009420 
#    z 0.105030 0.009420 1.941580 
# 
# From -- ./inp_files/498786.got.cif
#   From: 2010.05.17/outbox.cif.g08.bks.cpg/sg2_250_cif.got.tgz:498786.got - 2010.06.03 11:33:40.
