data_PCOD9102127
_publ_section_title
;
Structure prediction by ZEFSAII (Michael W. Deem and Ramdas Pophale) SiO2 
 PCOD9102127
Probable space group: P -1
;
_chemical_formula_sum "Si O2"
_cell_formula_units_Z 16
_cell_length_a 16.948240
_cell_length_b 6.800026
_cell_length_c 7.376420
_cell_angle_alpha 119.124314
_cell_angle_beta 120.197563
_cell_angle_gamma 91.503495
_cell_volume 599.073242
_symmetry_space_group_name_H-M "P -1"
_symmetry_group_IT_number 2
_symmetry_cell_setting 'triclinic'
loop_
_space_group_symop_operation_xyz
x,y,z
-x,-y,-z
loop_
_atom_site_type_symbol
_atom_site_label
_atom_site_fract_x
_atom_site_fract_y
_atom_site_fract_z
Si Si1 0.448918 0.609794 0.254268
Si Si2 0.270333 0.195947 0.811508
Si Si3 0.715945 0.134487 0.024520
Si Si4 0.937387 0.635482 0.091689
Si Si5 0.807370 0.573313 0.598153
Si Si6 0.509326 0.861921 0.773372
Si Si7 0.061726 0.188480 0.451312
Si Si8 0.326875 0.107934 0.477949
O O1 0.433321 0.751486 0.476238
O O2 0.468097 0.369283 0.235837
O O3 0.555172 0.759787 0.355929
O O4 0.342275 0.471310 0.984734
O O5 0.160793 0.155026 0.617798
O O6 0.308506 0.050147 0.642348
O O7 0.272236 0.099150 0.970235
O O8 0.599354 0.061741 0.867000
O O9 0.731899 0.112396 0.821287
O O10 0.771004 0.342724 0.319853
O O11 0.947139 0.626546 0.319600
O O12 0.834537 0.540434 0.821576
O O13 0.978052 0.926924 0.241871
O O14 0.000000 0.500000 0.000000
O O15 0.909543 0.724452 0.681197
O O16 0.727045 0.700630 0.544529
O O17 0.500000 0.000000 0.000000
#
# Coordination Sequence:
#
# PCOD9102127 Si02
#       8
#     2   2   2   2   2   2   2   2
#     4   9  18  33  55  84 116 158 200 236 284 344
#     4  10  20  38  62  85 120 160 196 243 293 343
#     4  10  21  35  55  85 115 154 198 237 287 347
#     4  11  24  43  66  89 118 152 192 246 301 353
#     4  11  23  39  64  89 120 158 192 240 297 350
#     4   9  17  30  50  78 114 152 197 244 285 331
#     4  10  24  42  61  92 120 150 198 242 293 357
#     4  10  21  38  59  87 124 157 197 244 288 343
#
# _framework density 26.707919
#
# number of rings (size 3 to 8) (size 9 to 14) (size 15 to 20)
#    0.000    2.000    0.000    3.750    0.000    5.500 
#    0.000    3.750    0.000   13.500    0.000    0.000 
#    0.000    0.000    0.000    0.000    0.000    0.000 
#
# Total GULP energy -89379.955884 kJ/mol
# GULP energy per Si atom -5586.247243 kJ/mol
# Density = 2.664713 g / cm^3
# Si number density = 26.707919 Si / 1000 Ang^3
#
#
#
# Elastic Constant Matrix: (Units=GPa)
#
#
# Indices 1 2 3 4 5 6 
#
# 1 84.4384 3.8077 44.2879 -5.1000 -21.4461 -2.9497
# 2 3.8077 62.4293 22.9779 -0.1953 0.5875 5.5711
# 3 44.2879 22.9779 198.2033 -5.1138 -26.2193 3.4694
# 4 -5.1000 -0.1953 -5.1138 47.8718 0.5836 -1.7332
# 5 -21.4461 0.5875 -26.2193 0.5836 56.3680 -6.0038
# 6 -2.9497 5.5711 3.4694 -1.7332 -6.0038 35.5646
#
#
#
# Elastic Compliance Matrix: (Units=1/GPa)
#
#
# Indices 1 2 3 4 5 6 
#
# 1 0.014547 -0.000162 -0.002638 0.001296 0.004543 0.002319
# 2 -0.000162 0.017059 -0.002099 -0.000253 -0.001506 -0.002747
# 3 -0.002638 -0.002099 0.006134 0.000337 0.001851 -0.000159
# 4 0.001296 -0.000253 0.000337 0.021100 0.000566 0.001238
# 5 0.004543 -0.001506 0.001851 0.000566 0.020762 0.003965
# 6 0.002319 -0.002747 -0.000159 0.001238 0.003965 0.029486
#
#
# Mechanical properties :
#
#
# Convention : Reuss Voigt Hill
#
# Bulk Modulus (GPa) = 35.78768 54.13532 44.96150
# Shear Modulus (GPa) = 39.00130 46.22739 42.61434
#
# Velocity S-wave (km/s) = 3.82552 4.16486 3.99879
# Velocity P-wave (km/s) = 5.73947 6.59102 6.17993
#
# Compressibility (1/GPa) = 0.02794258
#
# Stress axis : x y z
#
# Youngs Moduli (GPa) = 68.74297 58.61947 163.01285
#
# Poissons Ratio (x) = 0.00950 0.43001
# Poissons Ratio (y) = 0.01114 0.34218
# Poissons Ratio (z) = 0.18134 0.12305
#
# Static dielectric constant tensor:
#      x y z
#    x 2.198790 -0.005230 -0.003810 
#    y -0.005230 2.198830 0.000300 
#    z -0.003810 0.000300 2.065850 
# 
# From -- ./inp_files/329627.got.cif
#   From: 2010.05.17/outbox.cif.g08.bks.cpg/sg2_165_cif.got.tgz:329627.got - 2010.06.03 11:33:40.
