data_PCOD9102836
_publ_section_title
;
Structure prediction by ZEFSAII (Michael W. Deem and Ramdas Pophale) SiO2 
 PCOD9102836
Probable space group: P -1
;
_chemical_formula_sum "Si O2"
_cell_formula_units_Z 14
_cell_length_a 24.174088
_cell_length_b 11.811206
_cell_length_c 8.907089
_cell_angle_alpha 41.526018
_cell_angle_beta 30.767866
_cell_angle_gamma 27.077260
_cell_volume 590.731690
_symmetry_space_group_name_H-M "P -1"
_symmetry_group_IT_number 2
_symmetry_cell_setting 'triclinic'
loop_
_space_group_symop_operation_xyz
x,y,z
-x,-y,-z
loop_
_atom_site_type_symbol
_atom_site_label
_atom_site_fract_x
_atom_site_fract_y
_atom_site_fract_z
Si Si1 0.680760 0.632547 0.617622
Si Si2 0.166530 0.416682 0.947168
Si Si3 0.749722 0.708995 0.796280
Si Si4 0.626743 0.378155 0.191838
Si Si5 0.562942 0.098256 0.600783
Si Si6 0.002481 0.712351 0.601752
Si Si7 0.019094 0.026281 0.104759
O O1 0.687768 0.655528 0.401492
O O2 0.867362 0.411740 0.448791
O O3 0.604685 0.885934 0.617563
O O4 0.604157 0.559428 0.949989
O O5 0.207170 0.290125 0.138578
O O6 0.044243 0.710651 0.975762
O O7 0.109893 0.319830 0.076966
O O8 0.893956 0.471026 0.600805
O O9 0.668405 0.951394 0.650308
O O10 0.618205 0.712104 0.116070
O O11 0.500000 0.500000 0.500000
O O12 0.610385 0.220069 0.296796
O O13 0.799910 0.191650 0.046353
O O14 0.933817 0.974944 0.453207
O O15 0.000000 0.000000 0.000000
#
# Coordination Sequence:
#
# PCOD9102836 Si02
#       7
#     2   2   2   2   2   2   2
#     4  10  24  41  59  94 124 163 206 256 307 380
#     4  12  24  38  62  92 132 157 204 264 314 360
#     4  10  20  38  64  90 118 160 213 256 295 374
#     4  11  23  41  70  90 120 171 212 249 308 375
#     4  10  21  41  64  85 123 164 209 253 308 367
#     4  10  21  39  61  88 123 161 204 249 315 367
#     4  11  23  37  63  97 124 156 212 261 302 361
#
# _framework density 23.699421999999998
#
# number of rings (size 3 to 8) (size 9 to 14) (size 15 to 20)
#    0.000    1.429    1.429    6.000    2.000    4.000 
#    0.000    0.714    0.000    0.000    0.000    0.000 
#    0.000    0.000    0.000    0.000    0.000    0.000 
#
# Total GULP energy -78288.892624 kJ/mol
# GULP energy per Si atom -5592.063759 kJ/mol
# Density = 2.364548 g / cm^3
# Si number density = 23.699422 Si / 1000 Ang^3
#
#
#
# Elastic Constant Matrix: (Units=GPa)
#
#
# Indices 1 2 3 4 5 6 
#
# 1 23.6122 5.9856 14.9928 -6.1009 2.0746 1.2772
# 2 5.9856 67.6407 28.4929 -14.6427 -14.0490 10.4461
# 3 14.9928 28.4929 118.1946 -18.8082 -12.8317 11.1557
# 4 -6.1009 -14.6427 -18.8082 33.8777 17.4451 -9.3730
# 5 2.0746 -14.0490 -12.8317 17.4451 36.3927 -5.6538
# 6 1.2772 10.4461 11.1557 -9.3730 -5.6538 20.4873
#
#
#
# Elastic Compliance Matrix: (Units=1/GPa)
#
#
# Indices 1 2 3 4 5 6 
#
# 1 0.050101 -0.002406 -0.005436 0.011359 -0.010630 0.003327
# 2 -0.002406 0.018402 -0.002788 0.002214 0.004342 -0.005504
# 3 -0.005436 -0.002788 0.010579 0.002199 0.001509 -0.002578
# 4 0.011359 0.002214 0.002199 0.047598 -0.019770 0.013285
# 5 -0.010630 0.004342 0.001509 -0.019770 0.039697 -0.000462
# 6 0.003327 -0.005504 -0.002578 0.013285 -0.000462 0.058764
#
#
# Mechanical properties :
#
#
# Convention : Reuss Voigt Hill
#
# Bulk Modulus (GPa) = 17.29407 34.26553 25.77980
# Shear Modulus (GPa) = 18.81997 28.81661 23.81829
#
# Velocity S-wave (km/s) = 2.82105 3.49079 3.17364
# Velocity P-wave (km/s) = 4.23370 5.54412 4.93262
#
# Compressibility (1/GPa) = 0.05782329
#
# Stress axis : x y z
#
# Youngs Moduli (GPa) = 19.95957 54.34081 94.52449
#
# Poissons Ratio (x) = 0.13077 0.51380
# Poissons Ratio (y) = 0.04803 0.26351
# Poissons Ratio (z) = 0.10849 0.15149
#
# Static dielectric constant tensor:
#      x y z
#    x 1.955210 0.014320 -0.019620 
#    y 0.014320 1.919680 -0.003860 
#    z -0.019620 -0.003860 1.930710 
# 
# From -- ./inp_files/353771.got.cif
#   From: 2010.05.17/outbox.cif.g08.bks.cpg/sg2_177_cif.got.tgz:353771.got - 2010.06.03 11:33:40.
