data_PCOD9102943
_publ_section_title
;
Structure prediction by ZEFSAII (Michael W. Deem and Ramdas Pophale) SiO2 
 PCOD9102943
Probable space group: P -1
;
_chemical_formula_sum "Si O2"
_cell_formula_units_Z 14
_cell_length_a 11.893664
_cell_length_b 7.309620
_cell_length_c 7.539317
_cell_angle_alpha 93.764223
_cell_angle_beta 59.529116
_cell_angle_gamma 116.747573
_cell_volume 493.096460
_symmetry_space_group_name_H-M "P -1"
_symmetry_group_IT_number 2
_symmetry_cell_setting 'triclinic'
loop_
_space_group_symop_operation_xyz
x,y,z
-x,-y,-z
loop_
_atom_site_type_symbol
_atom_site_label
_atom_site_fract_x
_atom_site_fract_y
_atom_site_fract_z
Si Si1 0.892790 0.486240 0.353301
Si Si2 0.535233 0.823812 0.153418
Si Si3 0.166511 0.807215 0.927901
Si Si4 0.866986 0.909432 0.315272
Si Si5 0.336298 0.452848 0.799435
Si Si6 0.581739 0.881164 0.710840
Si Si7 0.899307 0.694812 0.705594
O O1 0.964792 0.355283 0.380772
O O2 0.811820 0.340699 0.239431
O O3 0.837911 0.592184 0.554904
O O4 0.038402 0.675927 0.159239
O O5 0.563662 0.655506 0.224056
O O6 0.684308 0.041977 0.083242
O O7 0.412787 0.894437 0.304578
O O8 0.531817 0.796055 0.944147
O O9 0.117867 0.946140 0.858112
O O10 0.775402 0.681156 0.278736
O O11 0.741097 0.907307 0.543807
O O12 0.025079 0.055717 0.297900
O O13 0.458302 0.692568 0.680629
O O14 0.227364 0.421021 0.051905
#
# Coordination Sequence:
#
# PCOD9102943 Si02
#       7
#     2   2   2   2   2   2   2
#     4   9  18  34  61  93 127 167 209 251 318 378
#     4  10  23  41  64  91 125 166 214 257 312 373
#     4   9  18  35  57  90 126 158 208 261 301 372
#     4  10  22  39  62  92 127 169 209 253 317 374
#     4  11  23  41  65  96 128 163 211 262 312 373
#     4  11  23  43  67  89 128 172 207 260 313 371
#     4  10  20  38  64  93 128 166 207 262 316 372
#
# _framework density 28.392012000000001
#
# number of rings (size 3 to 8) (size 9 to 14) (size 15 to 20)
#    0.000    2.000    0.000    3.000    0.000    8.000 
#    0.000   15.000    0.000    1.714    0.000    0.000 
#    0.000    0.000    0.000    0.000    0.000    0.000 
#
# Total GULP energy -78451.413856 kJ/mol
# GULP energy per Si atom -5603.672418 kJ/mol
# Density = 2.832739 g / cm^3
# Si number density = 28.392012 Si / 1000 Ang^3
#
#
#
# Elastic Constant Matrix: (Units=GPa)
#
#
# Indices 1 2 3 4 5 6 
#
# 1 84.1406 13.9556 13.2203 20.6884 -4.0746 -1.1921
# 2 13.9556 149.2487 30.0580 27.1198 -3.8118 9.6723
# 3 13.2203 30.0580 160.0363 34.9987 2.6624 6.3402
# 4 20.6884 27.1198 34.9987 38.5162 1.5020 2.2081
# 5 -4.0746 -3.8118 2.6624 1.5020 41.1235 17.5117
# 6 -1.1921 9.6723 6.3402 2.2081 17.5117 41.1769
#
#
#
# Elastic Compliance Matrix: (Units=1/GPa)
#
#
# Indices 1 2 3 4 5 6 
#
# 1 0.013848 0.000100 0.000581 -0.008102 0.001627 0.000031
# 2 0.000100 0.007916 -0.000270 -0.005323 0.001962 -0.002364
# 3 0.000581 -0.000270 0.007861 -0.007224 0.000127 -0.000797
# 4 -0.008102 -0.005323 -0.007224 0.040671 -0.002798 0.001137
# 5 0.001627 0.001962 0.000127 -0.002798 0.030376 -0.013201
# 6 0.000031 -0.002364 -0.000797 0.001137 -0.013201 0.030518
#
#
# Mechanical properties :
#
#
# Convention : Reuss Voigt Hill
#
# Bulk Modulus (GPa) = 32.84504 56.43258 44.63881
# Shear Modulus (GPa) = 35.58319 46.57612 41.07966
#
# Velocity S-wave (km/s) = 3.54401 4.05466 3.80791
# Velocity P-wave (km/s) = 5.32355 6.46836 5.92368
#
# Compressibility (1/GPa) = 0.03044599
#
# Stress axis : x y z
#
# Youngs Moduli (GPa) = 72.21120 126.32974 127.21748
#
# Poissons Ratio (x) = -0.01261 -0.07388
# Poissons Ratio (y) = -0.00721 0.03433
# Poissons Ratio (z) = -0.04194 0.03409
#
# Static dielectric constant tensor:
#      x y z
#    x 2.264300 -0.121620 -0.038540 
#    y -0.121620 2.328570 0.071590 
#    z -0.038540 0.071590 2.150670 
# 
# From -- ./inp_files/296006.got.cif
#   From: 2010.05.17/outbox.cif.g08.bks.cpg/sg2_149_cif.got.tgz:296006.got - 2010.06.03 11:33:40.
