data_PCOD9102929
_publ_section_title
;
Structure prediction by ZEFSAII (Michael W. Deem and Ramdas Pophale) SiO2 
 PCOD9102929
Probable space group: P -1
;
_chemical_formula_sum "Si O2"
_cell_formula_units_Z 16
_cell_length_a 16.487166
_cell_length_b 19.470038
_cell_length_c 9.431772
_cell_angle_alpha 40.335947
_cell_angle_beta 37.608837
_cell_angle_gamma 21.248497
_cell_volume 665.694959
_symmetry_space_group_name_H-M "P -1"
_symmetry_group_IT_number 2
_symmetry_cell_setting 'triclinic'
loop_
_space_group_symop_operation_xyz
x,y,z
-x,-y,-z
loop_
_atom_site_type_symbol
_atom_site_label
_atom_site_fract_x
_atom_site_fract_y
_atom_site_fract_z
Si Si1 0.158742 0.116153 0.366443
Si Si2 0.242924 0.662405 0.880961
Si Si3 0.165668 0.192789 0.947073
Si Si4 0.507377 0.217651 0.955996
Si Si5 0.499932 0.706224 0.449982
Si Si6 0.711558 0.773857 0.531779
Si Si7 0.933052 0.330795 0.621301
Si Si8 0.335940 0.672902 0.340305
O O1 0.126846 0.173386 0.480996
O O2 0.914799 0.215409 0.511300
O O3 0.374664 0.892310 0.394882
O O4 0.172093 0.198122 0.098682
O O5 0.296170 0.750866 0.640268
O O6 0.504718 0.437767 0.848451
O O7 0.137564 0.715363 0.099677
O O8 0.071957 0.709709 0.936097
O O9 0.229586 0.254171 0.671486
O O10 0.361876 0.974029 0.977576
O O11 0.385881 0.343655 0.783900
O O12 0.687772 0.190411 0.794353
O O13 0.359508 0.284931 0.194223
O O14 0.700761 0.526662 0.555456
O O15 0.946005 0.661874 0.459937
O O16 0.500000 0.000000 0.500000
O O17 0.500000 0.500000 0.500000
#
# Coordination Sequence:
#
# PCOD9102929 Si02
#       8
#     2   2   2   2   2   2   2   2
#     4  11  22  38  67  96 124 166 201 255 324 366
#     4  11  21  38  60  92 131 163 204 255 309 366
#     4   9  19  38  63  91 121 163 211 255 301 367
#     4  10  20  38  64  93 123 163 213 252 304 372
#     4  11  22  38  61  96 129 162 207 250 317 382
#     4   9  21  44  68  86 121 167 208 264 305 357
#     4  11  24  43  62  87 132 165 202 264 308 366
#     4  12  20  35  65  96 126 163 205 257 314 366
#
# _framework density 24.035034
#
# number of rings (size 3 to 8) (size 9 to 14) (size 15 to 20)
#    0.000    1.500    3.750    1.125    0.000    3.000 
#    6.750    8.125    2.750    0.000    0.000    0.000 
#    0.000    0.000    0.000    0.000    0.000    0.000 
#
# Total GULP energy -89453.870202 kJ/mol
# GULP energy per Si atom -5590.866888 kJ/mol
# Density = 2.398033 g / cm^3
# Si number density = 24.035034 Si / 1000 Ang^3
#
#
#
# Elastic Constant Matrix: (Units=GPa)
#
#
# Indices 1 2 3 4 5 6 
#
# 1 32.5285 7.3968 30.8368 -5.9281 9.5063 3.0863
# 2 7.3968 57.6405 16.4752 2.3653 4.5611 9.2949
# 3 30.8368 16.4752 179.9750 9.4923 18.9321 11.3643
# 4 -5.9281 2.3653 9.4923 23.0442 3.5333 5.6903
# 5 9.5063 4.5611 18.9321 3.5333 28.5513 18.2382
# 6 3.0863 9.2949 11.3643 5.6903 18.2382 34.3070
#
#
#
# Elastic Compliance Matrix: (Units=1/GPa)
#
#
# Indices 1 2 3 4 5 6 
#
# 1 0.044960 -0.004006 -0.006929 0.015970 -0.014529 0.004411
# 2 -0.004006 0.018876 -0.000884 -0.001628 0.002700 -0.005626
# 3 -0.006929 -0.000884 0.007250 -0.004437 -0.001964 0.000242
# 4 0.015970 -0.001628 -0.004437 0.051606 -0.005052 -0.005400
# 5 -0.014529 0.002700 -0.001964 -0.005052 0.060629 -0.030167
# 6 0.004411 -0.005626 0.000242 -0.005400 -0.030167 0.047129
#
#
# Mechanical properties :
#
#
# Convention : Reuss Voigt Hill
#
# Bulk Modulus (GPa) = 21.07620 42.17350 31.62485
# Shear Modulus (GPa) = 18.52508 31.54286 25.03397
#
# Velocity S-wave (km/s) = 2.77926 3.62660 3.23082
# Velocity P-wave (km/s) = 4.36887 5.92630 5.20615
#
# Compressibility (1/GPa) = 0.04744688
#
# Stress axis : x y z
#
# Youngs Moduli (GPa) = 22.24206 52.97682 137.93319
#
# Poissons Ratio (x) = 0.21222 0.95576
# Poissons Ratio (y) = 0.08910 0.12200
# Poissons Ratio (z) = 0.15412 0.04686
#
# Static dielectric constant tensor:
#      x y z
#    x 1.922710 0.024340 0.031860 
#    y 0.024340 1.931060 0.027080 
#    z 0.031860 0.027080 1.975770 
# 
# From -- ./inp_files/295812.got.cif
#   From: 2010.05.17/outbox.cif.g08.bks.cpg/sg2_148_cif.got.tgz:295812.got - 2010.06.03 11:33:40.
