data_PCOD9102757
_publ_section_title
;
Structure prediction by ZEFSAII (Michael W. Deem and Ramdas Pophale) SiO2 
 PCOD9102757
Probable space group: P -1
;
_chemical_formula_sum "Si O2"
_cell_formula_units_Z 16
_cell_length_a 10.058575
_cell_length_b 8.975811
_cell_length_c 9.334757
_cell_angle_alpha 55.938355
_cell_angle_beta 116.729460
_cell_angle_gamma 105.950645
_cell_volume 623.280430
_symmetry_space_group_name_H-M "P -1"
_symmetry_group_IT_number 2
_symmetry_cell_setting 'triclinic'
loop_
_space_group_symop_operation_xyz
x,y,z
-x,-y,-z
loop_
_atom_site_type_symbol
_atom_site_label
_atom_site_fract_x
_atom_site_fract_y
_atom_site_fract_z
Si Si1 0.586456 0.875703 0.264652
Si Si2 0.182401 0.859955 0.263040
Si Si3 0.005313 0.304397 0.182536
Si Si4 0.987790 0.470292 0.677363
Si Si5 0.678312 0.867212 0.633474
Si Si6 0.856155 0.971806 0.146843
Si Si7 0.451948 0.707646 0.045289
Si Si8 0.305073 0.403591 0.977712
O O1 0.602276 0.847143 0.455381
O O2 0.738774 0.864498 0.248865
O O3 0.545906 0.084714 0.114641
O O4 0.469975 0.736288 0.208319
O O5 0.159800 0.655920 0.308623
O O6 0.297725 0.931046 0.400838
O O7 0.204376 0.981007 0.066297
O O8 0.018757 0.894843 0.234402
O O9 0.159543 0.214199 0.268192
O O10 0.008922 0.346294 0.330131
O O11 0.885940 0.160364 0.142280
O O12 0.000000 0.500000 0.000000
O O13 0.000000 0.500000 0.500000
O O14 0.134758 0.374581 0.862243
O O15 0.623829 0.742045 0.804226
O O16 0.593751 0.603374 0.109580
O O17 0.320062 0.589647 0.972627
#
# Coordination Sequence:
#
# PCOD9102757 Si02
#       8
#     2   2   2   2   2   2   2   2
#     4  11  24  42  65  97 118 175 221 271 309 375
#     4  10  21  38  58  98 128 174 196 252 329 389
#     4  11  21  39  58 100 128 170 204 252 330 392
#     4  12  25  37  66  98 134 167 206 259 329 393
#     4  11  25  39  67  95 135 164 214 266 322 384
#     4  10  20  38  64  84 136 164 209 255 317 388
#     4  10  25  44  69  87 124 175 226 264 320 363
#     4  11  23  47  65  92 130 172 211 275 316 379
#
# _framework density 25.670629000000002
#
# number of rings (size 3 to 8) (size 9 to 14) (size 15 to 20)
#    0.000    1.250    2.500    3.750    7.000    2.000 
#    0.000    0.000    0.000    0.000    0.000    0.000 
#    0.000    0.000    0.000    0.000    0.000    0.000 
#
# Total GULP energy -89506.477529 kJ/mol
# GULP energy per Si atom -5594.154846 kJ/mol
# Density = 2.561220 g / cm^3
# Si number density = 25.670629 Si / 1000 Ang^3
#
#
#
# Elastic Constant Matrix: (Units=GPa)
#
#
# Indices 1 2 3 4 5 6 
#
# 1 92.3846 12.7123 8.2951 6.4116 -12.0214 -14.4275
# 2 12.7123 196.3037 55.5052 54.6017 -4.5829 7.8300
# 3 8.2951 55.5052 127.4562 45.2459 -14.8252 2.6247
# 4 6.4116 54.6017 45.2459 41.6882 -11.4288 -7.2460
# 5 -12.0214 -4.5829 -14.8252 -11.4288 22.6873 -3.5015
# 6 -14.4275 7.8300 2.6247 -7.2460 -3.5015 22.7872
#
#
#
# Elastic Compliance Matrix: (Units=1/GPa)
#
#
# Indices 1 2 3 4 5 6 
#
# 1 0.015580 -0.004434 -0.002456 0.013475 0.015370 0.018318
# 2 -0.004434 0.011605 0.002450 -0.023570 -0.012831 -0.016544
# 3 -0.002456 0.002450 0.014338 -0.021503 -0.004045 -0.011507
# 4 0.013475 -0.023570 -0.021503 0.099123 0.047194 0.057878
# 5 0.015370 -0.012831 -0.004045 0.047194 0.077161 0.041470
# 6 0.018318 -0.016544 -0.011507 0.057878 0.041470 0.087268
#
#
# Mechanical properties :
#
#
# Convention : Reuss Voigt Hill
#
# Bulk Modulus (GPa) = 30.63316 63.24108 46.93712
# Shear Modulus (GPa) = 15.39233 40.07466 27.73350
#
# Velocity S-wave (km/s) = 2.45135 3.95537 3.29045
# Velocity P-wave (km/s) = 4.46891 6.74900 5.72365
#
# Compressibility (1/GPa) = 0.03264437
#
# Stress axis : x y z
#
# Youngs Moduli (GPa) = 64.18294 86.17059 69.74301
#
# Poissons Ratio (x) = 0.38211 0.17127
# Poissons Ratio (y) = 0.28461 -0.17090
# Poissons Ratio (z) = 0.15761 -0.21115
#
# Static dielectric constant tensor:
#      x y z
#    x 2.091840 -0.029370 -0.021190 
#    y -0.029370 2.079460 0.004570 
#    z -0.021190 0.004570 2.073790 
# 
# From -- ./inp_files/188710.got.cif
#   From: 2010.05.17/outbox.cif.g08.bks.cpg/sg2_95_cif.got.tgz:188710.got - 2010.06.03 11:33:40.
