data_PCOD9102110
_publ_section_title
;
Structure prediction by ZEFSAII (Michael W. Deem and Ramdas Pophale) SiO2 
 PCOD9102110
Probable space group: P -1
;
_chemical_formula_sum "Si O2"
_cell_formula_units_Z 16
_cell_length_a 11.852472
_cell_length_b 7.847887
_cell_length_c 8.718010
_cell_angle_alpha 84.301156
_cell_angle_beta 58.178609
_cell_angle_gamma 81.416983
_cell_volume 681.115287
_symmetry_space_group_name_H-M "P -1"
_symmetry_group_IT_number 2
_symmetry_cell_setting 'triclinic'
loop_
_space_group_symop_operation_xyz
x,y,z
-x,-y,-z
loop_
_atom_site_type_symbol
_atom_site_label
_atom_site_fract_x
_atom_site_fract_y
_atom_site_fract_z
Si Si1 0.892701 0.586189 0.452299
Si Si2 0.984538 0.779923 0.100377
Si Si3 0.364067 0.559003 0.262366
Si Si4 0.858399 0.143336 0.274392
Si Si5 0.211405 0.041040 0.381860
Si Si6 0.526976 0.828025 0.709449
Si Si7 0.259863 0.835621 0.066373
Si Si8 0.558622 0.304496 0.513498
O O1 0.769095 0.476613 0.548469
O O2 0.853315 0.770324 0.545245
O O3 0.000000 0.500000 0.500000
O O4 0.933500 0.627137 0.246854
O O5 0.128153 0.803197 0.071839
O O6 0.023804 0.763338 0.895196
O O7 0.883688 0.953023 0.191561
O O8 0.436793 0.363635 0.222109
O O9 0.315261 0.661626 0.135997
O O10 0.441977 0.682844 0.302583
O O11 0.710899 0.245635 0.353565
O O12 0.864418 0.092090 0.453173
O O13 0.362437 0.050900 0.334082
O O14 0.218383 0.981609 0.208864
O O15 0.527329 0.803326 0.527313
O O16 0.380425 0.888792 0.872545
O O17 0.500000 0.500000 0.500000
#
# Coordination Sequence:
#
# PCOD9102110 Si02
#       8
#     2   2   2   2   2   2   2   2
#     4  10  20  39  61  88 125 153 199 247 308 359
#     4  10  22  36  64  88 118 164 193 247 306 351
#     4  10  21  37  61  89 119 159 199 251 298 361
#     4  10  20  41  58  86 124 152 206 243 292 364
#     4  10  23  37  61  91 119 160 198 252 300 355
#     4  10  22  39  58  87 125 157 201 247 306 353
#     4  12  20  37  62  91 120 155 205 245 306 361
#     4  10  20  38  62  84 116 163 201 240 299 361
#
# _framework density 23.490883
#
# number of rings (size 3 to 8) (size 9 to 14) (size 15 to 20)
#    0.000    1.750    3.750    0.750    0.000    3.500 
#    0.000    0.625    0.000    0.000    0.000    0.000 
#    0.000    0.000    0.000    0.000    0.000    0.000 
#
# Total GULP energy -89322.880343 kJ/mol
# GULP energy per Si atom -5582.680021 kJ/mol
# Density = 2.343742 g / cm^3
# Si number density = 23.490883 Si / 1000 Ang^3
#
#
#
# Elastic Constant Matrix: (Units=GPa)
#
#
# Indices 1 2 3 4 5 6 
#
# 1 61.7165 14.4949 14.3014 -0.5525 -1.7268 -12.1622
# 2 14.4949 103.7994 19.6001 8.6178 1.3150 -14.2182
# 3 14.3014 19.6001 96.4814 -9.5162 -8.7031 9.5530
# 4 -0.5525 8.6178 -9.5162 34.4984 -2.6132 -4.8984
# 5 -1.7268 1.3150 -8.7031 -2.6132 31.7951 4.3988
# 6 -12.1622 -14.2182 9.5530 -4.8984 4.3988 33.7978
#
#
#
# Elastic Compliance Matrix: (Units=1/GPa)
#
#
# Indices 1 2 3 4 5 6 
#
# 1 0.018651 -0.001005 -0.003308 0.000629 -0.000826 0.007422
# 2 -0.001005 0.011384 -0.003206 -0.003189 -0.002382 0.005182
# 3 -0.003308 -0.003206 0.012919 0.003777 0.004664 -0.006250
# 4 0.000629 -0.003189 0.003777 0.031372 0.003515 0.001906
# 5 -0.000826 -0.002382 0.004664 0.003515 0.033974 -0.006530
# 6 0.007422 0.005182 -0.006250 0.001906 -0.006530 0.037331
#
#
# Mechanical properties :
#
#
# Convention : Reuss Voigt Hill
#
# Bulk Modulus (GPa) = 35.82209 39.86558 37.84384
# Shear Modulus (GPa) = 29.41609 34.25833 31.83721
#
# Velocity S-wave (km/s) = 3.54253 3.82300 3.68543
# Velocity P-wave (km/s) = 5.65819 6.04108 5.85277
#
# Compressibility (1/GPa) = 0.02791573
#
# Stress axis : x y z
#
# Youngs Moduli (GPa) = 53.61678 87.83918 77.40814
#
# Poissons Ratio (x) = 0.08827 0.25606
# Poissons Ratio (y) = 0.05388 0.24819
# Poissons Ratio (z) = 0.17736 0.28164
#
# Static dielectric constant tensor:
#      x y z
#    x 1.919540 -0.042600 0.025560 
#    y -0.042600 1.916180 -0.014110 
#    z 0.025560 -0.014110 1.922830 
# 
# From -- ./inp_files/225302.got.cif
#   From: 2010.05.17/outbox.cif.g08.bks.cpg/sg2_113_cif.got.tgz:225302.got - 2010.06.03 11:33:40.
