data_PCOD9102107
_publ_section_title
;
Structure prediction by ZEFSAII (Michael W. Deem and Ramdas Pophale) SiO2 
 PCOD9102107
Probable space group: P -1
;
_chemical_formula_sum "Si O2"
_cell_formula_units_Z 16
_cell_length_a 26.373546
_cell_length_b 7.378928
_cell_length_c 7.341720
_cell_angle_alpha 141.071316
_cell_angle_beta 51.913164
_cell_angle_gamma 128.525224
_cell_volume 676.432295
_symmetry_space_group_name_H-M "P -1"
_symmetry_group_IT_number 2
_symmetry_cell_setting 'triclinic'
loop_
_space_group_symop_operation_xyz
x,y,z
-x,-y,-z
loop_
_atom_site_type_symbol
_atom_site_label
_atom_site_fract_x
_atom_site_fract_y
_atom_site_fract_z
Si Si1 0.652057 0.388887 0.985289
Si Si2 0.848652 0.616565 0.993442
Si Si3 0.234059 0.531605 0.479952
Si Si4 0.373778 0.269460 0.341446
Si Si5 0.122485 0.711807 0.669220
Si Si6 0.739538 0.047228 0.932533
Si Si7 0.486632 0.661493 0.836614
Si Si8 0.015420 0.335880 0.157733
O O1 0.723529 0.503851 0.820141
O O2 0.638231 0.032368 0.748800
O O3 0.644513 0.501404 0.295945
O O4 0.593089 0.455275 0.043964
O O5 0.874778 0.537073 0.679973
O O6 0.781196 0.351136 0.974067
O O7 0.904803 0.576686 0.983128
O O8 0.847708 0.960023 0.237244
O O9 0.171508 0.654884 0.668907
O O10 0.216780 0.192098 0.331516
O O11 0.277543 0.797236 0.723757
O O12 0.452957 0.363764 0.186689
O O13 0.324124 0.158497 0.196720
O O14 0.044024 0.665188 0.852323
O O15 0.500000 0.500000 0.500000
O O16 0.500000 0.000000 0.000000
O O17 0.000000 0.500000 0.500000
O O18 0.000000 0.000000 0.000000
#
# Coordination Sequence:
#
# PCOD9102107 Si02
#       8
#     2   2   2   2   2   2   2   2
#     4  10  20  38  62  84 109 152 200 241 285 345
#     4  10  20  38  62  84 109 152 200 241 285 345
#     4  12  25  38  53  86 128 158 188 238 297 352
#     4  10  20  38  62  84 109 152 200 241 285 345
#     4  10  20  38  62  84 109 152 200 241 285 345
#     4  12  25  38  53  86 128 158 188 238 297 352
#     4   8  16  32  58  86 106 134 195 254 283 324
#     4   8  16  32  58  86 106 134 195 254 283 324
#
# _framework density 23.653514000000001
#
# number of rings (size 3 to 8) (size 9 to 14) (size 15 to 20)
#    0.000    2.000    0.000    3.750    0.000    2.000 
#    0.000    2.500    0.000    0.000    0.000    0.000 
#    0.000    0.000    0.000    0.000    0.000    0.000 
#
# Total GULP energy -89186.449862 kJ/mol
# GULP energy per Si atom -5574.153116 kJ/mol
# Density = 2.359968 g / cm^3
# Si number density = 23.653514 Si / 1000 Ang^3
#
#
#
# Elastic Constant Matrix: (Units=GPa)
#
#
# Indices 1 2 3 4 5 6 
#
# 1 145.3334 35.7413 22.6241 -8.3769 -19.9756 32.2787
# 2 35.7413 56.5793 19.5963 1.1171 -4.6983 1.8262
# 3 22.6241 19.5963 119.0774 23.6343 -8.6606 0.4098
# 4 -8.3769 1.1171 23.6343 31.4191 0.9508 1.3368
# 5 -19.9756 -4.6983 -8.6606 0.9508 32.6160 4.4155
# 6 32.2787 1.8262 0.4098 1.3368 4.4155 21.9029
#
#
#
# Elastic Compliance Matrix: (Units=1/GPa)
#
#
# Indices 1 2 3 4 5 6 
#
# 1 0.018029 -0.008675 -0.002527 0.007857 0.012799 -0.028859
# 2 -0.008675 0.023208 -0.002128 -0.001917 -0.004080 0.011828
# 3 -0.002527 -0.002128 0.011086 -0.009135 0.000802 0.004090
# 4 0.007857 -0.001917 -0.009135 0.041387 0.002846 -0.014348
# 5 0.012799 -0.004080 0.000802 0.002846 0.041713 -0.027120
# 6 -0.028859 0.011828 0.004090 -0.014348 -0.027120 0.093467
#
#
# Mechanical properties :
#
#
# Convention : Reuss Voigt Hill
#
# Bulk Modulus (GPa) = 38.96587 52.99038 45.97812
# Shear Modulus (GPa) = 18.93193 33.38948 26.16070
#
# Velocity S-wave (km/s) = 2.83218 3.76121 3.32926
# Velocity P-wave (km/s) = 5.21578 6.42757 5.85312
#
# Compressibility (1/GPa) = 0.02566349
#
# Stress axis : x y z
#
# Youngs Moduli (GPa) = 55.46554 43.08768 90.20648
#
# Poissons Ratio (x) = 0.37377 0.22796
# Poissons Ratio (y) = 0.48114 0.19198
# Poissons Ratio (z) = 0.14017 0.09170
#
# Static dielectric constant tensor:
#      x y z
#    x 2.092470 0.072290 -0.016610 
#    y 0.072290 1.909660 -0.045890 
#    z -0.016610 -0.045890 1.837640 
# 
# From -- ./inp_files/356579.got.cif
#   From: 2010.05.17/outbox.cif.g08.bks.cpg/sg2_179_cif.got.tgz:356579.got - 2010.06.03 11:33:40.
