data_PCOD9102480
_publ_section_title
;
Structure prediction by ZEFSAII (Michael W. Deem and Ramdas Pophale) SiO2 
 PCOD9102480
Probable space group: P -1
;
_chemical_formula_sum "Si O2"
_cell_formula_units_Z 16
_cell_length_a 6.466933
_cell_length_b 8.143448
_cell_length_c 19.029337
_cell_angle_alpha 50.288401
_cell_angle_beta 96.499287
_cell_angle_gamma 116.331775
_cell_volume 669.541781
_symmetry_space_group_name_H-M "P -1"
_symmetry_group_IT_number 2
_symmetry_cell_setting 'triclinic'
loop_
_space_group_symop_operation_xyz
x,y,z
-x,-y,-z
loop_
_atom_site_type_symbol
_atom_site_label
_atom_site_fract_x
_atom_site_fract_y
_atom_site_fract_z
Si Si1 0.510929 0.267407 0.383778
Si Si2 0.208058 0.803930 0.942917
Si Si3 0.101575 0.982800 0.331795
Si Si4 0.298706 0.261259 0.518195
Si Si5 0.399481 0.680234 0.227564
Si Si6 0.039441 0.531716 0.367068
Si Si7 0.686009 0.537896 0.856839
Si Si8 0.712950 0.535367 0.050991
O O1 0.330925 0.099012 0.361781
O O2 0.410718 0.175063 0.483816
O O3 0.509489 0.526248 0.309074
O O4 0.789275 0.361373 0.367389
O O5 0.220378 0.678102 0.904026
O O6 0.404787 0.077724 0.867393
O O7 0.272390 0.646486 0.042563
O O8 0.955951 0.766747 0.970925
O O9 0.165590 0.167798 0.217518
O O10 0.036229 0.713959 0.375801
O O11 0.869893 0.943157 0.377182
O O12 0.500000 0.500000 0.500000
O O13 0.128702 0.352452 0.450554
O O14 0.233691 0.707892 0.270029
O O15 0.249109 0.513045 0.203502
O O16 0.409563 0.470442 0.878313
O O17 0.500000 0.500000 0.000000
#
# Coordination Sequence:
#
# PCOD9102480 Si02
#       8
#     2   2   2   2   2   2   2   2
#     4  10  24  43  65  98 131 169 214 265 321 381
#     4  10  20  38  63  86 124 169 208 263 316 369
#     4  11  23  43  67  94 133 170 212 268 319 380
#     4  11  23  46  67  98 130 165 212 266 323 390
#     4  10  23  40  61  92 128 166 215 267 313 378
#     4  11  24  45  66  95 130 167 219 259 326 386
#     4  10  22  39  58  93 124 165 216 260 315 375
#     4   9  20  37  55  86 120 156 217 258 314 375
#
# _framework density 23.896940000000001
#
# number of rings (size 3 to 8) (size 9 to 14) (size 15 to 20)
#    0.000    1.750    1.250    1.875    0.000    8.000 
#    9.000    0.000    0.000    0.000    0.000    0.000 
#    0.000    0.000    0.000    0.000    0.000    0.000 
#
# Total GULP energy -89313.368453 kJ/mol
# GULP energy per Si atom -5582.085528 kJ/mol
# Density = 2.384255 g / cm^3
# Si number density = 23.896940 Si / 1000 Ang^3
#
#
#
# Elastic Constant Matrix: (Units=GPa)
#
#
# Indices 1 2 3 4 5 6 
#
# 1 93.0652 5.6107 41.9684 -0.0039 -25.0135 23.7593
# 2 5.6107 57.7405 7.1295 -6.8144 -0.5963 14.9637
# 3 41.9684 7.1295 116.0449 -20.1532 -23.9285 12.0479
# 4 -0.0039 -6.8144 -20.1532 40.1435 0.4300 -11.7549
# 5 -25.0135 -0.5963 -23.9285 0.4300 30.7841 1.1994
# 6 23.7593 14.9637 12.0479 -11.7549 1.1994 37.1938
#
#
#
# Elastic Compliance Matrix: (Units=1/GPa)
#
#
# Indices 1 2 3 4 5 6 
#
# 1 0.019794 0.001727 -0.004013 -0.006083 0.013644 -0.014402
# 2 0.001727 0.019545 -0.000472 0.000512 0.001747 -0.008708
# 3 -0.004013 -0.000472 0.012424 0.006235 0.006281 0.000497
# 4 -0.006083 0.000512 0.006235 0.031553 -0.000981 0.011664
# 5 0.013644 0.001747 0.006281 -0.000981 0.049021 -0.013345
# 6 -0.014402 -0.008708 0.000497 0.011664 -0.013345 0.043546
#
#
# Mechanical properties :
#
#
# Convention : Reuss Voigt Hill
#
# Bulk Modulus (GPa) = 21.62239 41.80752 31.71496
# Shear Modulus (GPa) = 25.40486 35.76709 30.58597
#
# Velocity S-wave (km/s) = 3.26406 3.87295 3.58147
# Velocity P-wave (km/s) = 4.82424 6.12638 5.51388
#
# Compressibility (1/GPa) = 0.04624835
#
# Stress axis : x y z
#
# Youngs Moduli (GPa) = 50.51935 51.16516 80.49004
#
# Poissons Ratio (x) = -0.08839 0.32297
# Poissons Ratio (y) = -0.08727 0.03801
# Poissons Ratio (z) = 0.20271 0.02416
#
# Static dielectric constant tensor:
#      x y z
#    x 1.934810 -0.010370 -0.003030 
#    y -0.010370 1.985530 0.054470 
#    z -0.003030 0.054470 2.010950 
# 
# From -- ./inp_files/582275.got.cif
#   From: 2010.05.17/outbox.cif.g08.bks.cpg/sg2_292_cif.got.tgz:582275.got - 2010.06.03 11:33:40.
