data_PCOD9102753
_publ_section_title
;
Structure prediction by ZEFSAII (Michael W. Deem and Ramdas Pophale) SiO2 
 PCOD9102753
Probable space group: P -1
;
_chemical_formula_sum "Si O2"
_cell_formula_units_Z 16
_cell_length_a 12.047464
_cell_length_b 19.896271
_cell_length_c 14.370922
_cell_angle_alpha 151.888922
_cell_angle_beta 142.366273
_cell_angle_gamma 29.550894
_cell_volume 795.989953
_symmetry_space_group_name_H-M "P -1"
_symmetry_group_IT_number 2
_symmetry_cell_setting 'triclinic'
loop_
_space_group_symop_operation_xyz
x,y,z
-x,-y,-z
loop_
_atom_site_type_symbol
_atom_site_label
_atom_site_fract_x
_atom_site_fract_y
_atom_site_fract_z
Si Si1 0.420077 0.323593 0.063838
Si Si2 0.124709 0.789831 0.664768
Si Si3 0.790279 0.579083 0.766267
Si Si4 0.671436 0.354371 0.715954
Si Si5 0.617366 0.078095 0.725020
Si Si6 0.345006 0.621382 0.959511
Si Si7 0.305613 0.864777 0.703807
Si Si8 0.007263 0.255318 0.981598
O O1 0.655913 0.269375 0.200666
O O2 0.256342 0.355877 0.078601
O O3 0.306227 0.509379 0.161219
O O4 0.490787 0.168953 0.849155
O O5 0.850055 0.386057 0.562773
O O6 0.137708 0.874363 0.681097
O O7 0.886857 0.923404 0.721970
O O8 0.553112 0.715987 0.724655
O O9 0.968652 0.593951 0.850475
O O10 0.707876 0.208016 0.492127
O O11 0.843072 0.263987 0.805473
O O12 0.423017 0.490576 0.763840
O O13 0.605744 0.236473 0.857542
O O14 0.500000 0.000000 0.500000
O O15 0.095802 0.713128 0.945708
O O16 0.500000 0.500000 0.000000
O O17 0.239419 0.060191 0.891416
#
# Coordination Sequence:
#
# PCOD9102753 Si02
#       8
#     2   2   2   2   2   2   2   2
#     4  10  21  42  61  92 122 160 198 247 309 350
#     4  11  21  40  67  85 125 162 199 246 303 363
#     4  11  23  39  63  91 123 158 203 253 291 365
#     4  10  20  38  64  84 117 161 205 243 299 362
#     4  11  24  39  66  93 119 152 208 258 286 361
#     4   9  21  41  58  82 125 159 189 239 315 348
#     4  11  20  42  59  90 118 162 206 241 305 357
#     4  11  23  38  61  87 124 162 197 252 301 351
#
# _framework density 20.100757000000002
#
# number of rings (size 3 to 8) (size 9 to 14) (size 15 to 20)
#    0.000    1.500    3.750    1.875    5.250    1.500 
#    4.500    0.625    0.000    0.000    0.000    0.000 
#    0.000    0.000    0.000    0.000    0.000    0.000 
#
# Total GULP energy -89305.901831 kJ/mol
# GULP energy per Si atom -5581.618864 kJ/mol
# Density = 2.005501 g / cm^3
# Si number density = 20.100757 Si / 1000 Ang^3
#
#
#
# Elastic Constant Matrix: (Units=GPa)
#
#
# Indices 1 2 3 4 5 6 
#
# 1 72.5755 -8.1006 30.0996 3.2220 2.3292 0.0215
# 2 -8.1006 46.1950 -5.9807 17.5487 2.1979 1.4384
# 3 30.0996 -5.9807 85.3953 14.1677 -4.8359 -5.5252
# 4 3.2220 17.5487 14.1677 20.5829 0.2815 -1.9939
# 5 2.3292 2.1979 -4.8359 0.2815 21.9785 1.8161
# 6 0.0215 1.4384 -5.5252 -1.9939 1.8161 22.6397
#
#
#
# Elastic Compliance Matrix: (Units=1/GPa)
#
#
# Indices 1 2 3 4 5 6 
#
# 1 0.016628 0.002793 -0.005752 -0.001121 -0.003174 -0.001441
# 2 0.002793 0.037927 0.007712 -0.038427 -0.001587 -0.003787
# 3 -0.005752 0.007712 0.017538 -0.017610 0.003762 0.001943
# 4 -0.001121 -0.038427 -0.017610 0.094303 -0.001665 0.006584
# 5 -0.003174 -0.001587 0.003762 -0.001665 0.047083 -0.002901
# 6 -0.001441 -0.003787 0.001943 0.006584 -0.002901 0.045699
#
#
# Mechanical properties :
#
#
# Convention : Reuss Voigt Hill
#
# Bulk Modulus (GPa) = 12.25520 26.24471 19.24995
# Shear Modulus (GPa) = 18.05882 25.58339 21.82111
#
# Velocity S-wave (km/s) = 3.00061 3.57144 3.29840
# Velocity P-wave (km/s) = 4.25617 5.48561 4.90952
#
# Compressibility (1/GPa) = 0.08159804
#
# Stress axis : x y z
#
# Youngs Moduli (GPa) = 60.13863 26.36676 57.01771
#
# Poissons Ratio (x) = -0.07363 0.32799
# Poissons Ratio (y) = -0.16795 -0.43973
# Poissons Ratio (z) = 0.34595 -0.20335
#
# Static dielectric constant tensor:
#      x y z
#    x 1.750940 -0.041450 -0.006910 
#    y -0.041450 1.732490 -0.006520 
#    z -0.006910 -0.006520 1.677170 
# 
# From -- ./inp_files/523971.got.cif
#   From: 2010.05.17/outbox.cif.g08.bks.cpg/sg2_262_cif.got.tgz:523971.got - 2010.06.03 11:33:40.
