data_PCOD9102764
_publ_section_title
;
Structure prediction by ZEFSAII (Michael W. Deem and Ramdas Pophale) SiO2 
 PCOD9102764
Probable space group: P -1
;
_chemical_formula_sum "Si O2"
_cell_formula_units_Z 16
_cell_length_a 16.662291
_cell_length_b 9.908135
_cell_length_c 7.653750
_cell_angle_alpha 133.757275
_cell_angle_beta 127.332945
_cell_angle_gamma 62.985427
_cell_volume 724.337401
_symmetry_space_group_name_H-M "P -1"
_symmetry_group_IT_number 2
_symmetry_cell_setting 'triclinic'
loop_
_space_group_symop_operation_xyz
x,y,z
-x,-y,-z
loop_
_atom_site_type_symbol
_atom_site_label
_atom_site_fract_x
_atom_site_fract_y
_atom_site_fract_z
Si Si1 0.312960 0.227678 0.628024
Si Si2 0.683111 0.333036 0.915291
Si Si3 0.912968 0.754288 0.755350
Si Si4 0.300011 0.650021 0.637758
Si Si5 0.739189 0.076418 0.460083
Si Si6 0.964630 0.943768 0.631315
Si Si7 0.462827 0.348805 0.675518
Si Si8 0.072935 0.592486 0.312682
O O1 0.207587 0.198231 0.364255
O O2 0.403059 0.206412 0.586928
O O3 0.317813 0.090256 0.675152
O O4 0.307966 0.443402 0.879812
O O5 0.753793 0.221411 0.770434
O O6 0.568416 0.282676 0.669756
O O7 0.700952 0.286465 0.102373
O O8 0.927673 0.537246 0.631210
O O9 0.950784 0.819624 0.676754
O O10 0.973266 0.878729 0.079584
O O11 0.317945 0.815027 0.675053
O O12 0.381153 0.473926 0.568413
O O13 0.188113 0.586265 0.395452
O O14 0.849878 0.999384 0.474956
O O15 0.968941 0.196158 0.526430
O O16 0.500000 0.500000 0.000000
O O17 0.000000 0.500000 0.000000
#
# Coordination Sequence:
#
# PCOD9102764 Si02
#       8
#     2   2   2   2   2   2   2   2
#     4   9  19  38  65  92 123 164 219 256 320 390
#     4  10  22  44  69  88 129 173 211 267 327 378
#     4  10  20  38  64  85 123 173 208 255 321 369
#     4  10  22  40  64  92 129 164 216 266 316 375
#     4  11  24  40  61  98 130 166 215 265 318 378
#     4  10  25  39  58  96 129 160 220 261 304 387
#     4   8  17  41  66  92 123 167 214 268 318 383
#     4  12  24  40  62  90 129 174 212 257 319 382
#
# _framework density 22.089154000000001
#
# number of rings (size 3 to 8) (size 9 to 14) (size 15 to 20)
#    0.000    2.250    2.500    1.125    5.250    7.000 
#    0.000    8.125    0.000    0.000    0.000    0.000 
#    0.000    0.000    0.000    0.000    0.000    0.000 
#
# Total GULP energy -89351.799951 kJ/mol
# GULP energy per Si atom -5584.487497 kJ/mol
# Density = 2.203888 g / cm^3
# Si number density = 22.089154 Si / 1000 Ang^3
#
#
#
# Elastic Constant Matrix: (Units=GPa)
#
#
# Indices 1 2 3 4 5 6 
#
# 1 56.0371 42.6780 19.9927 -5.3209 27.4129 4.0383
# 2 42.6780 144.1722 18.6649 -1.0110 6.7642 34.4592
# 3 19.9927 18.6649 25.4702 -8.9098 21.1789 -3.1821
# 4 -5.3209 -1.0110 -8.9098 31.9797 -0.4388 1.7103
# 5 27.4129 6.7642 21.1789 -0.4388 38.6592 -4.0942
# 6 4.0383 34.4592 -3.1821 1.7103 -4.0942 38.2389
#
#
#
# Elastic Compliance Matrix: (Units=1/GPa)
#
#
# Indices 1 2 3 4 5 6 
#
# 1 0.038958 -0.011296 0.002323 0.006240 -0.026517 0.003140
# 2 -0.011296 0.014374 -0.015293 -0.004900 0.012603 -0.011465
# 3 0.002323 -0.015293 0.106271 0.027939 -0.055262 0.015213
# 4 0.006240 -0.004900 0.027939 0.039561 -0.018174 0.002366
# 5 -0.026517 0.012603 -0.055262 -0.018174 0.072043 -0.004629
# 6 0.003140 -0.011465 0.015213 0.002366 -0.004629 0.036816
#
#
# Mechanical properties :
#
#
# Convention : Reuss Voigt Hill
#
# Bulk Modulus (GPa) = 9.00329 43.15007 26.07668
# Shear Modulus (GPa) = 12.70395 31.39850 22.05123
#
# Velocity S-wave (km/s) = 2.40077 3.77429 3.16299
# Velocity P-wave (km/s) = 3.43070 6.21053 5.01699
#
# Compressibility (1/GPa) = 0.11107050
#
# Stress axis : x y z
#
# Youngs Moduli (GPa) = 25.66891 69.56831 9.40994
#
# Poissons Ratio (x) = 0.78581 -0.02186
# Poissons Ratio (y) = 0.28995 0.14391
# Poissons Ratio (z) = -0.05962 1.06392
#
# Static dielectric constant tensor:
#      x y z
#    x 1.857730 0.008750 0.005660 
#    y 0.008750 1.852340 -0.017220 
#    z 0.005660 -0.017220 1.788630 
# 
# From -- ./inp_files/293257.got.cif
#   From: 2010.05.17/outbox.cif.g08.bks.cpg/sg2_147_cif.got.tgz:293257.got - 2010.06.03 11:33:40.
