data_PCOD9102235
_publ_section_title
;
Structure prediction by ZEFSAII (Michael W. Deem and Ramdas Pophale) SiO2 
 PCOD9102235
Probable space group: P -1
;
_chemical_formula_sum "Si O2"
_cell_formula_units_Z 16
_cell_length_a 8.173890
_cell_length_b 26.397983
_cell_length_c 26.700298
_cell_angle_alpha 10.916826
_cell_angle_beta 48.780664
_cell_angle_gamma 48.291967
_cell_volume 813.893371
_symmetry_space_group_name_H-M "P -1"
_symmetry_group_IT_number 2
_symmetry_cell_setting 'triclinic'
loop_
_space_group_symop_operation_xyz
x,y,z
-x,-y,-z
loop_
_atom_site_type_symbol
_atom_site_label
_atom_site_fract_x
_atom_site_fract_y
_atom_site_fract_z
Si Si1 0.928465 0.147929 0.819292
Si Si2 0.611929 0.254935 0.247858
Si Si3 0.620771 0.257106 0.362402
Si Si4 0.609838 0.807994 0.340088
Si Si5 0.038898 0.205516 0.943690
Si Si6 0.489759 0.301674 0.809775
Si Si7 0.748277 0.781535 0.446590
Si Si8 0.908103 0.694527 0.875627
O O1 0.686924 0.296227 0.734728
O O2 0.132622 0.307868 0.609654
O O3 0.926205 0.938994 0.976965
O O4 0.000000 0.000000 0.000000
O O5 0.572498 0.297798 0.273686
O O6 0.875825 0.239312 0.203183
O O7 0.500000 0.000000 0.500000
O O8 0.500000 0.500000 0.000000
O O9 0.403943 0.230059 0.463645
O O10 0.780461 0.976101 0.609128
O O11 0.739701 0.508632 0.114445
O O12 0.464096 0.590826 0.560446
O O13 0.598518 0.849597 0.361247
O O14 0.557511 0.078447 0.055720
O O15 0.271154 0.241589 0.885338
O O16 0.890681 0.491913 0.691410
O O17 0.910587 0.008121 0.194698
O O18 0.000000 0.500000 0.000000
#
# Coordination Sequence:
#
# PCOD9102235 Si02
#       8
#     2   2   2   2   2   2   2   2
#     4   9  19  36  59  84 110 149 197 241 293 351
#     4  11  21  37  60  92 123 145 178 238 291 324
#     4  11  22  40  63  84 116 161 196 226 274 349
#     4  10  21  38  58  81 113 151 193 242 286 348
#     4  11  23  38  58  85 119 151 190 247 294 339
#     4  11  21  37  58  86 113 146 190 251 306 339
#     4  11  23  42  59  81 114 161 199 226 279 350
#     4  10  20  38  62  89 114 148 191 231 273 330
#
# _framework density 19.658593
#
# number of rings (size 3 to 8) (size 9 to 14) (size 15 to 20)
#    0.000    1.500    0.000    8.250    0.000    3.000 
#    0.000   13.750    0.000    0.000    0.000    0.000 
#    0.000    0.000    0.000    0.000    0.000    0.000 
#
# Total GULP energy -89357.150889 kJ/mol
# GULP energy per Si atom -5584.821931 kJ/mol
# Density = 1.961385 g / cm^3
# Si number density = 19.658593 Si / 1000 Ang^3
#
#
#
# Elastic Constant Matrix: (Units=GPa)
#
#
# Indices 1 2 3 4 5 6 
#
# 1 103.0652 34.8262 24.3189 6.6624 -22.0455 11.2620
# 2 34.8262 62.1391 9.6935 22.3542 6.3894 7.1188
# 3 24.3189 9.6935 107.6492 6.9279 -8.1321 8.4759
# 4 6.6624 22.3542 6.9279 27.5840 -7.3174 2.3682
# 5 -22.0455 6.3894 -8.1321 -7.3174 45.7952 2.7230
# 6 11.2620 7.1188 8.4759 2.3682 2.7230 11.5432
#
#
#
# Elastic Compliance Matrix: (Units=1/GPa)
#
#
# Indices 1 2 3 4 5 6 
#
# 1 0.018496 -0.014347 -0.001585 0.012291 0.013404 -0.013717
# 2 -0.014347 0.036865 0.000542 -0.031168 -0.017010 0.001272
# 3 -0.001585 0.000542 0.010286 -0.001823 0.001066 -0.006219
# 4 0.012291 -0.031168 -0.001823 0.065406 0.020975 -0.009798
# 5 0.013404 -0.017010 0.001066 0.020975 0.035152 -0.015966
# 6 -0.013717 0.001272 -0.006219 -0.009798 -0.015966 0.109573
#
#
# Mechanical properties :
#
#
# Convention : Reuss Voigt Hill
#
# Bulk Modulus (GPa) = 28.67990 45.61450 37.14720
# Shear Modulus (GPa) = 15.71431 30.58549 23.14990
#
# Velocity S-wave (km/s) = 2.83036 3.94868 3.43534
# Velocity P-wave (km/s) = 5.03010 6.63650 5.88834
#
# Compressibility (1/GPa) = 0.03486762
#
# Stress axis : x y z
#
# Youngs Moduli (GPa) = 54.06573 27.12578 97.21803
#
# Poissons Ratio (x) = 0.38919 0.15408
# Poissons Ratio (y) = 0.77570 -0.05273
# Poissons Ratio (z) = 0.08569 -0.01471
#
# Static dielectric constant tensor:
#      x y z
#    x 1.685030 -0.012270 -0.016250 
#    y -0.012270 1.712400 0.010120 
#    z -0.016250 0.010120 1.689140 
# 
# From -- ./inp_files/617673.got.cif
#   From: 2010.05.17/outbox.cif.g08.bks.cpg/sg2_309_cif.got.tgz:617673.got - 2010.06.03 11:33:40.
