data_PCOD9102829
_publ_section_title
;
Structure prediction by ZEFSAII (Michael W. Deem and Ramdas Pophale) SiO2 
 PCOD9102829
Probable space group: P -1
;
_chemical_formula_sum "Si O2"
_cell_formula_units_Z 14
_cell_length_a 9.521899
_cell_length_b 10.884315
_cell_length_c 8.898252
_cell_angle_alpha 89.357613
_cell_angle_beta 82.698219
_cell_angle_gamma 140.529389
_cell_volume 572.671120
_symmetry_space_group_name_H-M "P -1"
_symmetry_group_IT_number 2
_symmetry_cell_setting 'triclinic'
loop_
_space_group_symop_operation_xyz
x,y,z
-x,-y,-z
loop_
_atom_site_type_symbol
_atom_site_label
_atom_site_fract_x
_atom_site_fract_y
_atom_site_fract_z
Si Si1 0.883099 0.180364 0.670343
Si Si2 0.254864 0.719413 0.511237
Si Si3 0.903641 0.830110 0.119532
Si Si4 0.692108 0.875951 0.351186
Si Si5 0.997598 0.505759 0.821048
Si Si6 0.277353 0.310391 0.444981
Si Si7 0.129925 0.313543 0.172473
O O1 0.718374 0.125380 0.565135
O O2 0.901104 0.086289 0.795430
O O3 0.907518 0.316547 0.771981
O O4 0.094910 0.281876 0.538354
O O5 0.448589 0.767741 0.412601
O O6 0.232280 0.688294 0.694869
O O7 0.000000 0.500000 0.500000
O O8 0.713387 0.772529 0.239927
O O9 0.825111 0.677637 0.010244
O O10 0.000000 0.000000 0.000000
O O11 0.763717 0.859565 0.499678
O O12 0.874808 0.094476 0.254747
O O13 0.855429 0.532032 0.802326
O O14 0.000000 0.500000 0.000000
O O15 0.500000 0.500000 0.500000
O O16 0.276029 0.331241 0.267174
#
# Coordination Sequence:
#
# PCOD9102829 Si02
#       7
#     2   2   2   2   2   2   2
#     4  10  20  38  64  89 126 175 216 267 324 390
#     4  10  21  40  66  93 129 176 218 268 326 393
#     4   9  20  41  66  94 136 176 214 273 336 392
#     4  10  23  42  68  98 133 175 226 267 333 396
#     4  11  21  37  66  94 131 169 220 274 335 386
#     4  11  22  40  66  95 126 174 225 271 330 395
#     4  11  22  41  67  98 135 174 219 283 326 394
#
# _framework density 24.446843999999999
#
# number of rings (size 3 to 8) (size 9 to 14) (size 15 to 20)
#    0.000    1.714    2.857    2.143    2.000    0.571 
#    0.000   11.429    0.000    0.000    0.000    0.000 
#    0.000    0.000    0.000    0.000    0.000    0.000 
#
# Total GULP energy -78064.394234 kJ/mol
# GULP energy per Si atom -5576.028160 kJ/mol
# Density = 2.439120 g / cm^3
# Si number density = 24.446844 Si / 1000 Ang^3
#
#
#
# Elastic Constant Matrix: (Units=GPa)
#
#
# Indices 1 2 3 4 5 6 
#
# 1 184.9319 27.5244 58.2590 -8.5696 3.7835 -2.3143
# 2 27.5244 64.6807 20.7794 1.9272 -10.5683 -1.8993
# 3 58.2590 20.7794 181.7332 -0.3361 17.5594 5.6590
# 4 -8.5696 1.9272 -0.3361 36.7703 -13.5633 0.0824
# 5 3.7835 -10.5683 17.5594 -13.5633 47.1898 -5.5467
# 6 -2.3143 -1.8993 5.6590 0.0824 -5.5467 35.4332
#
#
#
# Elastic Compliance Matrix: (Units=1/GPa)
#
#
# Indices 1 2 3 4 5 6 
#
# 1 0.006384 -0.002112 -0.001847 0.001676 0.000258 0.000635
# 2 -0.002112 0.017885 -0.001936 0.000491 0.005266 0.001953
# 3 -0.001847 -0.001936 0.006702 -0.001530 -0.003434 -0.001829
# 4 0.001676 0.000491 -0.001530 0.031122 0.009705 0.001827
# 5 0.000258 0.005266 -0.003434 0.009705 0.027011 0.005053
# 6 0.000635 0.001953 -0.001829 0.001827 0.005053 0.029447
#
#
# Mechanical properties :
#
#
# Convention : Reuss Voigt Hill
#
# Bulk Modulus (GPa) = 52.13898 71.60793 61.87345
# Shear Modulus (GPa) = 36.56708 45.53085 41.04897
#
# Velocity S-wave (km/s) = 3.87173 4.32028 4.10214
# Velocity P-wave (km/s) = 6.43124 7.36487 6.91383
#
# Compressibility (1/GPa) = 0.01917951
#
# Stress axis : x y z
#
# Youngs Moduli (GPa) = 156.64562 55.91357 149.21123
#
# Poissons Ratio (x) = 0.11811 0.27554
# Poissons Ratio (y) = 0.33090 0.28895
# Poissons Ratio (z) = 0.28926 0.10828
#
# Static dielectric constant tensor:
#      x y z
#    x 1.981340 -0.076980 0.018970 
#    y -0.076980 2.165890 0.072990 
#    z 0.018970 0.072990 2.072390 
# 
# From -- ./inp_files/186745.got.cif
#   From: 2010.05.17/outbox.cif.g08.bks.cpg/sg2_94_cif.got.tgz:186745.got - 2010.06.03 11:33:40.
