data_PCOD9102775
_publ_section_title
;
Structure prediction by ZEFSAII (Michael W. Deem and Ramdas Pophale) SiO2 
 PCOD9102775
Probable space group: P -1
;
_chemical_formula_sum "Si O2"
_cell_formula_units_Z 14
_cell_length_a 9.201794
_cell_length_b 8.345869
_cell_length_c 12.853338
_cell_angle_alpha 84.047694
_cell_angle_beta 144.006474
_cell_angle_gamma 93.467543
_cell_volume 576.520126
_symmetry_space_group_name_H-M "P -1"
_symmetry_group_IT_number 2
_symmetry_cell_setting 'triclinic'
loop_
_space_group_symop_operation_xyz
x,y,z
-x,-y,-z
loop_
_atom_site_type_symbol
_atom_site_label
_atom_site_fract_x
_atom_site_fract_y
_atom_site_fract_z
Si Si1 0.882349 0.139569 0.038811
Si Si2 0.158906 0.306825 0.585979
Si Si3 0.375600 0.581981 0.022371
Si Si4 0.285133 0.313977 0.124553
Si Si5 0.259401 0.579566 0.504245
Si Si6 0.752750 0.090248 0.613736
Si Si7 0.600484 0.009296 0.304185
O O1 0.072014 0.230212 0.069210
O O2 0.028232 0.988929 0.186086
O O3 0.780648 0.250790 0.068147
O O4 0.651320 0.092478 0.836380
O O5 0.385111 0.383667 0.772007
O O6 0.179061 0.392389 0.477118
O O7 0.215377 0.116329 0.638106
O O8 0.914899 0.354026 0.505836
O O9 0.210261 0.448762 0.989379
O O10 0.500000 0.500000 0.000000
O O11 0.454661 0.402310 0.301412
O O12 0.474050 0.181937 0.187261
O O13 0.231479 0.714740 0.388634
O O14 0.742954 0.044503 0.489908
O O15 0.500000 0.000000 0.500000
#
# Coordination Sequence:
#
# PCOD9102775 Si02
#       7
#     2   2   2   2   2   2   2
#     4  11  22  41  65  90 128 163 205 259 314 369
#     4   9  20  39  61  87 125 167 204 253 319 367
#     4  10  23  40  60  90 124 165 214 253 309 374
#     4  10  20  38  64  86 124 167 201 257 319 363
#     4   9  19  37  61  84 125 159 203 256 304 366
#     4  11  22  38  62  93 123 160 211 249 308 368
#     4  10  22  39  63  92 124 161 206 254 312 371
#
# _framework density 24.283628
#
# number of rings (size 3 to 8) (size 9 to 14) (size 15 to 20)
#    0.000    2.000    2.857    0.857    0.000    8.000 
#    0.000    3.571    0.000    0.000    0.000    0.000 
#    0.000    0.000    0.000    0.000    0.000    0.000 
#
# Total GULP energy -77957.283072 kJ/mol
# GULP energy per Si atom -5568.377362 kJ/mol
# Density = 2.422836 g / cm^3
# Si number density = 24.283628 Si / 1000 Ang^3
#
#
#
# Elastic Constant Matrix: (Units=GPa)
#
#
# Indices 1 2 3 4 5 6 
#
# 1 43.2935 30.4188 24.3564 -4.9798 10.7791 13.5586
# 2 30.4188 88.1204 20.9709 -7.9221 1.1026 11.6763
# 3 24.3564 20.9709 68.8081 8.0542 9.3871 12.5551
# 4 -4.9798 -7.9221 8.0542 39.4700 0.9667 6.0572
# 5 10.7791 1.1026 9.3871 0.9667 26.1652 5.3947
# 6 13.5586 11.6763 12.5551 6.0572 5.3947 52.5622
#
#
#
# Elastic Compliance Matrix: (Units=1/GPa)
#
#
# Indices 1 2 3 4 5 6 
#
# 1 0.041346 -0.010586 -0.009450 0.006166 -0.012289 -0.005506
# 2 -0.010586 0.015693 -0.001709 0.002216 0.004449 -0.001059
# 3 -0.009450 -0.001709 0.019560 -0.005313 -0.002656 -0.000970
# 4 0.006166 0.002216 -0.005313 0.028276 -0.000953 -0.003975
# 5 -0.012289 0.004449 -0.002656 -0.000953 0.044419 -0.001633
# 6 -0.005506 -0.001059 -0.000970 -0.003975 -0.001633 0.021538
#
#
# Mechanical properties :
#
#
# Convention : Reuss Voigt Hill
#
# Bulk Modulus (GPa) = 30.20231 39.07937 34.64084
# Shear Modulus (GPa) = 22.18707 31.93787 27.06247
#
# Velocity S-wave (km/s) = 3.02597 3.63051 3.34193
# Velocity P-wave (km/s) = 4.96719 5.80534 5.40254
#
# Compressibility (1/GPa) = 0.03311005
#
# Stress axis : x y z
#
# Youngs Moduli (GPa) = 24.18642 63.72306 51.12432
#
# Poissons Ratio (x) = 0.67456 0.48311
# Poissons Ratio (y) = 0.25603 0.08736
# Poissons Ratio (z) = 0.22855 0.10889
#
# Static dielectric constant tensor:
#      x y z
#    x 2.017690 0.005150 -0.063260 
#    y 0.005150 2.060070 -0.055800 
#    z -0.063260 -0.055800 1.921230 
# 
# From -- ./inp_files/180404.got.cif
#   From: 2010.05.17/outbox.cif.g08.bks.cpg/sg2_91_cif.got.tgz:180404.got - 2010.06.03 11:33:40.
