data_PCOD9102212
_publ_section_title
;
Structure prediction by ZEFSAII (Michael W. Deem and Ramdas Pophale) SiO2 
 PCOD9102212
Probable space group: P -1
;
_chemical_formula_sum "Si O2"
_cell_formula_units_Z 16
_cell_length_a 9.767214
_cell_length_b 19.857617
_cell_length_c 6.705617
_cell_angle_alpha 137.452448
_cell_angle_beta 104.805212
_cell_angle_gamma 72.810178
_cell_volume 838.729199
_symmetry_space_group_name_H-M "P -1"
_symmetry_group_IT_number 2
_symmetry_cell_setting 'triclinic'
loop_
_space_group_symop_operation_xyz
x,y,z
-x,-y,-z
loop_
_atom_site_type_symbol
_atom_site_label
_atom_site_fract_x
_atom_site_fract_y
_atom_site_fract_z
Si Si1 0.304642 0.667578 0.248640
Si Si2 0.591949 0.999824 0.733537
Si Si3 0.654182 0.866270 0.825011
Si Si4 0.339510 0.521587 0.583368
Si Si5 0.636329 0.637414 0.410238
Si Si6 0.166538 0.881574 0.828586
Si Si7 0.063164 0.045499 0.816990
Si Si8 0.163035 0.516552 0.117023
O O1 0.466629 0.637363 0.323321
O O2 0.251840 0.783560 0.537996
O O3 0.194863 0.609081 0.196283
O O4 0.317060 0.623070 0.931993
O O5 0.500000 0.000000 0.500000
O O6 0.640339 0.895075 0.645634
O O7 0.490161 0.073575 0.003769
O O8 0.729410 0.053850 0.875868
O O9 0.663544 0.751354 0.645356
O O10 0.788506 0.912525 0.062299
O O11 0.500000 0.500000 0.500000
O O12 0.322797 0.427119 0.514934
O O13 0.218491 0.532334 0.393236
O O14 0.727475 0.577064 0.136571
O O15 0.095435 0.952815 0.780805
O O16 0.047146 0.868617 0.920412
O O17 0.000000 0.000000 0.500000
O O18 0.000000 0.500000 0.000000
#
# Coordination Sequence:
#
# PCOD9102212 Si02
#       8
#     2   2   2   2   2   2   2   2
#     4  11  22  41  66  95 124 162 216 263 315 390
#     4  10  20  38  62  88 123 158 199 251 306 364
#     4  10  22  38  59  92 125 153 205 258 301 368
#     4  11  21  43  69  89 125 174 209 259 328 381
#     4  11  22  41  64  95 127 160 213 263 318 384
#     4  10  22  40  61  90 124 160 209 256 303 377
#     4  10  22  42  61  85 128 169 202 254 318 369
#     4  11  25  43  65  93 130 164 207 271 322 376
#
# _framework density 19.076478000000002
#
# number of rings (size 3 to 8) (size 9 to 14) (size 15 to 20)
#    0.000    1.500    3.750    1.500    1.750    4.000 
#    4.500    0.000    0.000    0.000    0.000    0.000 
#    0.000    0.000    0.000    0.000    0.000    0.000 
#
# Total GULP energy -89213.289079 kJ/mol
# GULP energy per Si atom -5575.830567 kJ/mol
# Density = 1.903306 g / cm^3
# Si number density = 19.076478 Si / 1000 Ang^3
#
#
#
# Elastic Constant Matrix: (Units=GPa)
#
#
# Indices 1 2 3 4 5 6 
#
# 1 94.5383 8.1277 15.1937 -4.6086 12.0385 -1.9331
# 2 8.1277 43.8634 42.7444 -1.6654 4.3737 1.0098
# 3 15.1937 42.7444 88.2394 -13.2554 3.2646 -7.7505
# 4 -4.6086 -1.6654 -13.2554 29.9147 -13.6972 8.6167
# 5 12.0385 4.3737 3.2646 -13.6972 36.4030 2.1441
# 6 -1.9331 1.0098 -7.7505 8.6167 2.1441 25.1183
#
#
#
# Elastic Compliance Matrix: (Units=1/GPa)
#
#
# Indices 1 2 3 4 5 6 
#
# 1 0.011371 0.000182 -0.001999 -0.001341 -0.004170 0.001067
# 2 0.000182 0.047154 -0.024575 -0.009800 -0.006884 -0.005515
# 3 -0.001999 -0.024575 0.025386 0.010546 0.005033 0.004620
# 4 -0.001341 -0.009800 0.010546 0.051562 0.021015 -0.015937
# 5 -0.004170 -0.006884 0.005033 0.021015 0.037657 -0.008914
# 6 0.001067 -0.005515 0.004620 -0.015937 -0.008914 0.047769
#
#
# Mechanical properties :
#
#
# Convention : Reuss Voigt Hill
#
# Bulk Modulus (GPa) = 32.12886 39.86364 35.99625
# Shear Modulus (GPa) = 17.60195 28.99222 23.29709
#
# Velocity S-wave (km/s) = 3.04090 3.90268 3.49843
# Velocity P-wave (km/s) = 5.40445 6.42261 5.93541
#
# Compressibility (1/GPa) = 0.03112466
#
# Stress axis : x y z
#
# Youngs Moduli (GPa) = 87.94357 21.20710 39.39249
#
# Poissons Ratio (x) = -0.00386 0.07876
# Poissons Ratio (y) = -0.01599 0.96808
# Poissons Ratio (z) = 0.17584 0.52117
#
# Static dielectric constant tensor:
#      x y z
#    x 1.572290 0.049580 -0.029030 
#    y 0.049580 1.657870 0.010000 
#    z -0.029030 0.010000 1.696450 
# 
# From -- ./inp_files/49397.got.cif
#   From: 2010.05.17/outbox.cif.g08.bks.cpg/sg2_25_cif.got.tgz:49397.got - 2010.06.03 11:33:40.
