data_PCOD9102518
_publ_section_title
;
Structure prediction by ZEFSAII (Michael W. Deem and Ramdas Pophale) SiO2 
 PCOD9102518
Probable space group: P -1
;
_chemical_formula_sum "Si O2"
_cell_formula_units_Z 8
_cell_length_a 12.606201
_cell_length_b 6.979792
_cell_length_c 5.086963
_cell_angle_alpha 62.623431
_cell_angle_beta 104.821803
_cell_angle_gamma 134.570070
_cell_volume 281.564521
_symmetry_space_group_name_H-M "P -1"
_symmetry_group_IT_number 2
_symmetry_cell_setting 'triclinic'
loop_
_space_group_symop_operation_xyz
x,y,z
-x,-y,-z
loop_
_atom_site_type_symbol
_atom_site_label
_atom_site_fract_x
_atom_site_fract_y
_atom_site_fract_z
Si Si1 0.725269 0.875765 0.906837
Si Si2 0.482082 0.738216 0.528511
Si Si3 0.244295 0.611128 0.147382
Si Si4 0.948526 0.677498 0.305539
O O1 0.641632 0.836949 0.609271
O O2 0.734019 0.109956 0.931409
O O3 0.626629 0.567843 0.188511
O O4 0.892225 0.011987 0.877293
O O5 0.397712 0.682923 0.239320
O O6 0.500000 0.000000 0.500000
O O7 0.127954 0.358495 0.447159
O O8 0.172729 0.503939 0.886594
O O9 0.000000 0.500000 0.500000
#
# Coordination Sequence:
#
# PCOD9102518 Si02
#       4
#     2   2   2   2
#     4   9  18  36  60  86 120 156 192 241 294 342
#     4   9  19  37  60  87 119 157 198 239 288 348
#     4  10  21  39  62  89 118 151 195 241 290 349
#     4  10  20  38  63  89 118 152 193 242 293 346
#
# _framework density 28.412669000000001
#
# number of rings (size 3 to 8) (size 9 to 14) (size 15 to 20)
#    0.000    2.500    0.000    3.000    0.000    2.000 
#    0.000   27.500    0.000   64.500    0.000    0.000 
#    0.000    0.000    0.000    0.000    0.000    0.000 
#
# Total GULP energy -44894.378594 kJ/mol
# GULP energy per Si atom -5611.797324 kJ/mol
# Density = 2.834800 g / cm^3
# Si number density = 28.412669 Si / 1000 Ang^3
#
#
#
# Elastic Constant Matrix: (Units=GPa)
#
#
# Indices 1 2 3 4 5 6 
#
# 1 109.4740 67.2983 38.4378 19.1715 25.7290 5.6943
# 2 67.2983 177.3556 91.5411 -22.0797 13.8649 9.1115
# 3 38.4378 91.5411 183.4938 29.0328 9.5483 20.9867
# 4 19.1715 -22.0797 29.0328 81.0733 27.7214 14.5327
# 5 25.7290 13.8649 9.5483 27.7214 58.9577 -1.8994
# 6 5.6943 9.1115 20.9867 14.5327 -1.8994 70.0194
#
#
#
# Elastic Compliance Matrix: (Units=1/GPa)
#
#
# Indices 1 2 3 4 5 6 
#
# 1 0.013984 -0.006152 0.000957 -0.004436 -0.002718 0.000223
# 2 -0.006152 0.012322 -0.005861 0.008189 -0.003151 -0.001132
# 3 0.000957 -0.005861 0.009047 -0.005646 0.002124 -0.000797
# 4 -0.004436 0.008189 -0.005646 0.021482 -0.009296 -0.003724
# 5 -0.002718 -0.003151 0.002124 -0.009296 0.022998 0.002548
# 6 0.000223 -0.001132 -0.000797 -0.003724 0.002548 0.015492
#
#
# Mechanical properties :
#
#
# Convention : Reuss Voigt Hill
#
# Bulk Modulus (GPa) = 75.51367 96.09754 85.80560
# Shear Modulus (GPa) = 41.03471 60.21317 50.62394
#
# Velocity S-wave (km/s) = 3.80444 4.60851 4.22564
# Velocity P-wave (km/s) = 6.77743 7.88754 7.35346
#
# Compressibility (1/GPa) = 0.01324264
#
# Stress axis : x y z
#
# Youngs Moduli (GPa) = 71.50959 81.15832 110.53430
#
# Poissons Ratio (x) = 0.49925 -0.10581
# Poissons Ratio (y) = 0.43990 0.64781
# Poissons Ratio (z) = -0.06845 0.47564
#
# Static dielectric constant tensor:
#      x y z
#    x 2.190130 0.048950 -0.026730 
#    y 0.048950 2.259410 -0.105290 
#    z -0.026730 -0.105290 2.270500 
# 
# From -- ./inp_files/16608.got.cif
#   From: 2010.05.17/outbox.cif.g08.bks.cpg/sg2_9_cif.got.tgz:16608.got - 2010.06.03 11:33:40.
