data_PCOD9102361
_publ_section_title
;
Structure prediction by ZEFSAII (Michael W. Deem and Ramdas Pophale) SiO2 
 PCOD9102361
Probable space group: P -1
;
_chemical_formula_sum "Si O2"
_cell_formula_units_Z 14
_cell_length_a 10.204509
_cell_length_b 11.171837
_cell_length_c 6.829746
_cell_angle_alpha 89.377395
_cell_angle_beta 101.071798
_cell_angle_gamma 123.638678
_cell_volume 631.804514
_symmetry_space_group_name_H-M "P -1"
_symmetry_group_IT_number 2
_symmetry_cell_setting 'triclinic'
loop_
_space_group_symop_operation_xyz
x,y,z
-x,-y,-z
loop_
_atom_site_type_symbol
_atom_site_label
_atom_site_fract_x
_atom_site_fract_y
_atom_site_fract_z
Si Si1 0.197993 0.643222 0.747749
Si Si2 0.492742 0.628587 0.408118
Si Si3 0.292250 0.101015 0.254271
Si Si4 0.022955 0.111552 0.338965
Si Si5 0.488581 0.196257 0.915548
Si Si6 0.295332 0.935908 0.616323
Si Si7 0.855689 0.567708 0.592641
O O1 0.273634 0.783541 0.623419
O O2 0.168911 0.505867 0.624963
O O3 0.018295 0.600765 0.739128
O O4 0.329246 0.703471 0.954618
O O5 0.500000 0.500000 0.500000
O O6 0.580479 0.754685 0.590042
O O7 0.560685 0.707744 0.218299
O O8 0.301766 0.551834 0.335625
O O9 0.125874 0.094023 0.203825
O O10 0.269701 0.974789 0.391052
O O11 0.374192 0.121091 0.071020
O O12 0.128691 0.281326 0.423245
O O13 0.844845 0.078873 0.282520
O O14 0.000000 0.000000 0.500000
O O15 0.456966 0.071314 0.757052
#
# Coordination Sequence:
#
# PCOD9102361 Si02
#       7
#     2   2   2   2   2   2   2
#     4  10  21  40  63  91 123 165 209 242 305 365
#     4  11  22  40  62  89 125 161 203 258 310 356
#     4  10  20  38  62  93 122 162 203 250 309 359
#     4   9  18  37  64  88 121 159 201 249 309 360
#     4  11  23  38  62  94 123 163 207 249 304 367
#     4   9  21  39  62  90 125 164 201 254 298 360
#     4  10  20  39  65  87 124 164 199 254 306 359
#
# _framework density 22.158754999999999
#
# number of rings (size 3 to 8) (size 9 to 14) (size 15 to 20)
#    0.000    2.000    2.857    0.429    0.000    2.286 
#    2.571    0.000   15.714    0.000    0.000    0.000 
#    0.000    0.000    0.000    0.000    0.000    0.000 
#
# Total GULP energy -78059.248558 kJ/mol
# GULP energy per Si atom -5575.660611 kJ/mol
# Density = 2.210832 g / cm^3
# Si number density = 22.158755 Si / 1000 Ang^3
#
#
#
# Elastic Constant Matrix: (Units=GPa)
#
#
# Indices 1 2 3 4 5 6 
#
# 1 75.7066 19.4529 30.1192 -0.2484 0.6692 8.4834
# 2 19.4529 79.3144 37.1065 -4.1098 17.5277 -6.1751
# 3 30.1192 37.1065 80.5429 -5.4576 12.5228 4.0175
# 4 -0.2484 -4.1098 -5.4576 34.4172 10.5035 5.5456
# 5 0.6692 17.5277 12.5228 10.5035 14.9585 -2.4791
# 6 8.4834 -6.1751 4.0175 5.5456 -2.4791 39.7938
#
#
#
# Elastic Compliance Matrix: (Units=1/GPa)
#
#
# Indices 1 2 3 4 5 6 
#
# 1 0.017107 -0.004459 -0.006663 -0.005195 0.013336 -0.002111
# 2 -0.004459 0.023024 -0.003180 0.011865 -0.032252 0.001182
# 3 -0.006663 -0.003180 0.020392 0.009649 -0.020444 -0.003750
# 4 -0.005195 0.011865 0.009649 0.051530 -0.059408 -0.008908
# 5 0.013336 -0.032252 -0.020444 -0.059408 0.164995 0.012774
# 6 -0.002111 0.001182 -0.003750 -0.008908 0.012774 0.028179
#
#
# Mechanical properties :
#
#
# Convention : Reuss Voigt Hill
#
# Bulk Modulus (GPa) = 31.32997 45.43569 38.38283
# Shear Modulus (GPa) = 14.51501 27.75957 21.13729
#
# Velocity S-wave (km/s) = 2.56216 3.54327 3.09188
# Velocity P-wave (km/s) = 4.78774 6.10646 5.48686
#
# Compressibility (1/GPa) = 0.03191832
#
# Stress axis : x y z
#
# Youngs Moduli (GPa) = 58.45480 43.43343 49.03878
#
# Poissons Ratio (x) = 0.19368 0.32675
# Poissons Ratio (y) = 0.26066 0.15594
# Poissons Ratio (z) = 0.38949 0.13812
#
# Static dielectric constant tensor:
#      x y z
#    x 1.930580 0.026940 0.010210 
#    y 0.026940 1.808970 -0.008960 
#    z 0.010210 -0.008960 1.790730 
# 
# From -- ./inp_files/68753.got.cif
#   From: 2010.05.17/outbox.cif.g08.bks.cpg/sg2_35_cif.got.tgz:68753.got - 2010.06.03 11:33:40.
