data_PCOD9102551
_publ_section_title
;
Structure prediction by ZEFSAII (Michael W. Deem and Ramdas Pophale) SiO2 
 PCOD9102551
Probable space group: P -1
;
_chemical_formula_sum "Si O2"
_cell_formula_units_Z 16
_cell_length_a 12.651094
_cell_length_b 8.493075
_cell_length_c 23.026295
_cell_angle_alpha 124.161486
_cell_angle_beta 29.099079
_cell_angle_gamma 136.505281
_cell_volume 808.578576
_symmetry_space_group_name_H-M "P -1"
_symmetry_group_IT_number 2
_symmetry_cell_setting 'triclinic'
loop_
_space_group_symop_operation_xyz
x,y,z
-x,-y,-z
loop_
_atom_site_type_symbol
_atom_site_label
_atom_site_fract_x
_atom_site_fract_y
_atom_site_fract_z
Si Si1 0.483650 0.777843 0.439098
Si Si2 0.311008 0.689501 0.372488
Si Si3 0.057262 0.180471 0.697077
Si Si4 0.429599 0.366727 0.194821
Si Si5 0.806930 0.468069 0.136591
Si Si6 0.399740 0.077697 0.326018
Si Si7 0.877286 0.704256 0.439642
Si Si8 0.243225 0.736756 0.062162
O O1 0.471678 0.758568 0.370814
O O2 0.719432 0.779845 0.357474
O O3 0.214631 0.545563 0.545144
O O4 0.500000 0.000000 0.500000
O O5 0.374390 0.562416 0.266673
O O6 0.000000 0.500000 0.500000
O O7 0.373221 0.923427 0.361301
O O8 0.179918 0.281821 0.596546
O O9 0.914099 0.305419 0.811242
O O10 0.833036 0.898808 0.741010
O O11 0.550973 0.398719 0.208025
O O12 0.639217 0.396421 0.051155
O O13 0.690101 0.258242 0.195786
O O14 0.018614 0.703188 0.118816
O O15 0.000000 0.500000 0.000000
O O16 0.288621 0.226739 0.429037
O O17 0.189911 0.893799 0.341284
O O18 0.500000 0.000000 0.000000
#
# Coordination Sequence:
#
# PCOD9102551 Si02
#       8
#     2   2   2   2   2   2   2   2
#     4  12  25  38  58  96 136 169 201 259 336 382
#     4  12  23  39  62  93 133 173 207 259 323 385
#     4  11  21  37  62  92 129 166 212 268 321 375
#     4  10  20  38  63  90 122 168 218 261 309 377
#     4  10  20  39  65  90 118 165 219 261 305 372
#     4  11  22  38  65  97 124 165 220 264 308 378
#     4  11  22  38  63  93 130 163 215 266 313 381
#     4   9  20  36  60  90 121 160 211 261 312 371
#
# _framework density 19.787811999999999
#
# number of rings (size 3 to 8) (size 9 to 14) (size 15 to 20)
#    0.000    1.250    2.500    4.875    0.000    1.000 
#    0.000    2.500    0.000    5.250    0.000    0.000 
#    0.000    0.000    0.000    0.000    0.000    0.000 
#
# Total GULP energy -89089.016687 kJ/mol
# GULP energy per Si atom -5568.063543 kJ/mol
# Density = 1.974277 g / cm^3
# Si number density = 19.787812 Si / 1000 Ang^3
#
#
#
# Elastic Constant Matrix: (Units=GPa)
#
#
# Indices 1 2 3 4 5 6 
#
# 1 98.5163 28.0182 14.2915 -15.1850 0.6951 15.5514
# 2 28.0182 98.1477 33.6808 2.5635 0.8884 7.9381
# 3 14.2915 33.6808 89.0688 6.6998 12.4386 3.5463
# 4 -15.1850 2.5635 6.6998 41.3585 4.9708 -0.2970
# 5 0.6951 0.8884 12.4386 4.9708 21.9969 -5.2437
# 6 15.5514 7.9381 3.5463 -0.2970 -5.2437 38.4114
#
#
#
# Elastic Compliance Matrix: (Units=1/GPa)
#
#
# Indices 1 2 3 4 5 6 
#
# 1 0.012700 -0.003098 -0.000774 0.005202 -0.002130 -0.004681
# 2 -0.003098 0.012682 -0.004482 -0.001478 0.002299 -0.000650
# 3 -0.000774 -0.004482 0.014292 -0.001388 -0.007839 -0.001161
# 4 0.005202 -0.001478 -0.001388 0.027109 -0.005990 -0.002281
# 5 -0.002130 0.002299 -0.007839 -0.005990 0.053207 0.008328
# 6 -0.004681 -0.000650 -0.001161 -0.002281 0.008328 0.029290
#
#
# Mechanical properties :
#
#
# Convention : Reuss Voigt Hill
#
# Bulk Modulus (GPa) = 43.54470 48.63487 46.08979
# Shear Modulus (GPa) = 28.79488 34.33620 31.56554
#
# Velocity S-wave (km/s) = 3.81882 4.17012 3.99833
# Velocity P-wave (km/s) = 6.44191 6.91506 6.68267
#
# Compressibility (1/GPa) = 0.02296491
#
# Stress axis : x y z
#
# Youngs Moduli (GPa) = 78.74220 78.85387 69.97022
#
# Poissons Ratio (x) = 0.24428 0.05414
# Poissons Ratio (y) = 0.24393 0.31364
# Poissons Ratio (z) = 0.06093 0.35346
#
# Static dielectric constant tensor:
#      x y z
#    x 1.802160 0.016780 0.127930 
#    y 0.016780 1.717750 -0.003110 
#    z 0.127930 -0.003110 2.041210 
# 
# From -- ./inp_files/255309.got.cif
#   From: 2010.05.17/outbox.cif.g08.bks.cpg/sg2_128_cif.got.tgz:255309.got - 2010.06.03 11:33:40.
