data_PCOD9102932
_publ_section_title
;
Structure prediction by ZEFSAII (Michael W. Deem and Ramdas Pophale) SiO2 
 PCOD9102932
Probable space group: P -1
;
_chemical_formula_sum "Si O2"
_cell_formula_units_Z 16
_cell_length_a 8.419525
_cell_length_b 14.730866
_cell_length_c 25.291576
_cell_angle_alpha 158.988217
_cell_angle_beta 141.955830
_cell_angle_gamma 46.728877
_cell_volume 675.370924
_symmetry_space_group_name_H-M "P -1"
_symmetry_group_IT_number 2
_symmetry_cell_setting 'triclinic'
loop_
_space_group_symop_operation_xyz
x,y,z
-x,-y,-z
loop_
_atom_site_type_symbol
_atom_site_label
_atom_site_fract_x
_atom_site_fract_y
_atom_site_fract_z
Si Si1 0.732944 0.609130 0.200004
Si Si2 0.839017 0.374053 0.940947
Si Si3 0.154888 0.399353 0.147014
Si Si4 0.976678 0.909946 0.528521
Si Si5 0.781353 0.773827 0.607599
Si Si6 0.323016 0.492290 0.397874
Si Si7 0.710366 0.668478 0.421833
Si Si8 0.116648 0.831391 0.835325
O O1 0.421398 0.509844 0.056575
O O2 0.784829 0.758307 0.350358
O O3 0.924820 0.411555 0.135586
O O4 0.862585 0.820337 0.304954
O O5 0.729163 0.060385 0.738091
O O6 0.000000 0.500000 0.000000
O O7 0.023605 0.400870 0.055567
O O8 0.407848 0.638089 0.342925
O O9 0.251324 0.133240 0.037877
O O10 0.819678 0.901001 0.536942
O O11 0.190242 0.737265 0.499574
O O12 0.522322 0.552066 0.433998
O O13 0.883316 0.698659 0.537024
O O14 0.964523 0.806434 0.725141
O O15 0.500000 0.500000 0.500000
O O16 0.090196 0.241880 0.210380
O O17 0.727940 0.399953 0.251068
#
# Coordination Sequence:
#
# PCOD9102932 Si02
#       8
#     2   2   2   2   2   2   2   2
#     4  11  23  42  63  88 132 163 219 255 313 381
#     4  11  24  42  61  92 131 164 201 262 320 382
#     4  11  24  40  62  92 128 173 205 260 323 372
#     4  10  22  38  63  94 121 166 212 271 302 366
#     4  10  20  38  64  93 123 164 213 259 317 373
#     4   9  17  37  63  88 120 162 212 258 308 364
#     4  11  22  39  65  93 128 164 221 256 320 368
#     4   9  21  40  61  93 129 166 210 269 313 371
#
# _framework density 23.690684000000001
#
# number of rings (size 3 to 8) (size 9 to 14) (size 15 to 20)
#    0.000    1.750    1.250    2.625    3.500    0.500 
#    0.000    9.375    0.000    0.000    0.000    0.000 
#    0.000    0.000    0.000    0.000    0.000    0.000 
#
# Total GULP energy -89370.272510 kJ/mol
# GULP energy per Si atom -5585.642032 kJ/mol
# Density = 2.363676 g / cm^3
# Si number density = 23.690684 Si / 1000 Ang^3
#
#
#
# Elastic Constant Matrix: (Units=GPa)
#
#
# Indices 1 2 3 4 5 6 
#
# 1 101.5971 16.9463 23.5415 -0.4758 24.2685 36.3316
# 2 16.9463 73.3746 11.8532 3.3918 9.4975 10.0634
# 3 23.5415 11.8532 44.7104 3.9315 8.6210 20.4076
# 4 -0.4758 3.3918 3.9315 31.7912 -0.6948 -0.0046
# 5 24.2685 9.4975 8.6210 -0.6948 34.4142 6.5888
# 6 36.3316 10.0634 20.4076 -0.0046 6.5888 43.5041
#
#
#
# Elastic Compliance Matrix: (Units=1/GPa)
#
#
# Indices 1 2 3 4 5 6 
#
# 1 0.016614 -0.000864 -0.001540 0.000336 -0.008862 -0.011610
# 2 -0.000864 0.014774 -0.002262 -0.001368 -0.002694 -0.001227
# 3 -0.001540 -0.002262 0.030183 -0.003596 -0.003665 -0.011795
# 4 0.000336 -0.001368 -0.003596 0.032082 0.001399 0.001514
# 5 -0.008862 -0.002694 -0.003665 0.001399 0.036181 0.004264
# 6 -0.011610 -0.001227 -0.011795 0.001514 0.004264 0.037854
#
#
# Mechanical properties :
#
#
# Convention : Reuss Voigt Hill
#
# Bulk Modulus (GPa) = 19.14288 36.04047 27.59168
# Shear Modulus (GPa) = 25.71577 33.09798 29.40688
#
# Velocity S-wave (km/s) = 3.29824 3.74182 3.52701
# Velocity P-wave (km/s) = 4.75420 5.82359 5.31585
#
# Compressibility (1/GPa) = 0.05223873
#
# Stress axis : x y z
#
# Youngs Moduli (GPa) = 60.18925 67.68680 33.13094
#
# Poissons Ratio (x) = 0.05851 0.05102
# Poissons Ratio (y) = 0.05203 0.07494
# Poissons Ratio (z) = 0.09269 0.15310
#
# Static dielectric constant tensor:
#      x y z
#    x 1.936760 -0.035420 -0.016140 
#    y -0.035420 1.853010 0.041190 
#    z -0.016140 0.041190 1.884680 
# 
# From -- ./inp_files/206895.got.cif
#   From: 2010.05.17/outbox.cif.g08.bks.cpg/sg2_104_cif.got.tgz:206895.got - 2010.06.03 11:33:40.
