data_PCOD9102166
_publ_section_title
;
Structure prediction by ZEFSAII (Michael W. Deem and Ramdas Pophale) SiO2 
 PCOD9102166
Probable space group: P -1
;
_chemical_formula_sum "Si O2"
_cell_formula_units_Z 16
_cell_length_a 7.376646
_cell_length_b 7.884911
_cell_length_c 17.019168
_cell_angle_alpha 57.137960
_cell_angle_beta 113.930699
_cell_angle_gamma 120.476606
_cell_volume 704.891878
_symmetry_space_group_name_H-M "P -1"
_symmetry_group_IT_number 2
_symmetry_cell_setting 'triclinic'
loop_
_space_group_symop_operation_xyz
x,y,z
-x,-y,-z
loop_
_atom_site_type_symbol
_atom_site_label
_atom_site_fract_x
_atom_site_fract_y
_atom_site_fract_z
Si Si1 0.925105 0.697814 0.559740
Si Si2 0.271324 0.023283 0.451908
Si Si3 0.280032 0.941417 0.095798
Si Si4 0.967024 0.956189 0.738787
Si Si5 0.967967 0.755525 0.953242
Si Si6 0.646117 0.360254 0.071746
Si Si7 0.285627 0.858101 0.715241
Si Si8 0.741601 0.226883 0.700508
O O1 0.779961 0.836276 0.522803
O O2 0.774516 0.448429 0.606173
O O3 0.116221 0.749746 0.644655
O O4 0.068021 0.792153 0.483657
O O5 0.226063 0.127624 0.337367
O O6 0.500000 0.000000 0.500000
O O7 0.259009 0.769045 0.205314
O O8 0.158703 0.093533 0.071554
O O9 0.520066 0.113279 0.085215
O O10 0.181122 0.842549 0.021026
O O11 0.963545 0.798486 0.849369
O O12 0.176631 0.988541 0.717415
O O13 0.936348 0.160368 0.722556
O O14 0.845074 0.507829 0.019728
O O15 0.693940 0.331210 0.178393
O O16 0.500000 0.500000 0.000000
O O17 0.519539 0.027760 0.691231
#
# Coordination Sequence:
#
# PCOD9102166 Si02
#       8
#     2   2   2   2   2   2   2   2
#     4  10  22  40  65  88 113 156 196 233 300 358
#     4  10  22  42  62  88 120 148 191 249 296 351
#     4   8  16  30  51  79 111 147 188 227 275 333
#     4  10  22  38  58  87 119 152 196 245 294 343
#     4   9  16  31  51  76 113 149 185 232 275 330
#     4   9  17  30  53  80 110 154 193 225 278 335
#     4  10  21  39  58  87 124 151 194 248 284 343
#     4  10  20  38  62  87 117 155 193 237 291 347
#
# _framework density 22.698519000000001
#
# number of rings (size 3 to 8) (size 9 to 14) (size 15 to 20)
#    0.000    2.500    0.000    2.250    0.000    3.000 
#    0.000   13.750    0.000    0.000    0.000    0.000 
#    0.000    0.000    0.000    0.000    0.000    0.000 
#
# Total GULP energy -89254.434692 kJ/mol
# GULP energy per Si atom -5578.402168 kJ/mol
# Density = 2.264686 g / cm^3
# Si number density = 22.698519 Si / 1000 Ang^3
#
#
#
# Elastic Constant Matrix: (Units=GPa)
#
#
# Indices 1 2 3 4 5 6 
#
# 1 104.3059 14.2233 30.2292 -3.1934 3.4344 -2.0493
# 2 14.2233 25.6640 24.3119 -0.7048 -15.7499 11.3813
# 3 30.2292 24.3119 114.2819 5.6376 0.4133 4.8717
# 4 -3.1934 -0.7048 5.6376 45.2558 4.9048 4.9598
# 5 3.4344 -15.7499 0.4133 4.9048 39.7113 -3.6704
# 6 -2.0493 11.3813 4.8717 4.9598 -3.6704 25.2008
#
#
#
# Elastic Compliance Matrix: (Units=1/GPa)
#
#
# Indices 1 2 3 4 5 6 
#
# 1 0.011629 -0.010688 -0.001040 0.000749 -0.004853 0.005120
# 2 -0.010688 0.101530 -0.017421 0.003164 0.037421 -0.038527
# 3 -0.001040 -0.017421 0.012638 -0.001760 -0.006293 0.004770
# 4 0.000749 0.003164 -0.001760 0.023309 -0.002219 -0.005939
# 5 -0.004853 0.037421 -0.006293 -0.002219 0.039874 -0.009834
# 6 0.005120 -0.038527 0.004770 -0.005939 -0.009834 0.056312
#
#
# Mechanical properties :
#
#
# Convention : Reuss Voigt Hill
#
# Bulk Modulus (GPa) = 14.81511 42.42007 28.61759
# Shear Modulus (GPa) = 15.33322 33.73276 24.53299
#
# Velocity S-wave (km/s) = 2.60189 3.85921 3.29115
# Velocity P-wave (km/s) = 3.94557 6.21184 5.20358
#
# Compressibility (1/GPa) = 0.06749867
#
# Stress axis : x y z
#
# Youngs Moduli (GPa) = 85.98946 9.84932 79.12836
#
# Poissons Ratio (x) = 0.10527 0.08229
# Poissons Ratio (y) = 0.91907 1.37849
# Poissons Ratio (z) = 0.08943 0.17158
#
# Static dielectric constant tensor:
#      x y z
#    x 1.940940 -0.029320 -0.030550 
#    y -0.029320 1.852260 0.018380 
#    z -0.030550 0.018380 1.899600 
# 
# From -- ./inp_files/555021.got.cif
#   From: 2010.05.17/outbox.cif.g08.bks.cpg/sg2_278_cif.got.tgz:555021.got - 2010.06.03 11:33:40.
