data_PCOD9102405
_publ_section_title
;
Structure prediction by ZEFSAII (Michael W. Deem and Ramdas Pophale) SiO2 
 PCOD9102405
Probable space group: P -1
;
_chemical_formula_sum "Si O2"
_cell_formula_units_Z 12
_cell_length_a 15.102690
_cell_length_b 5.163862
_cell_length_c 9.937133
_cell_angle_alpha 113.728989
_cell_angle_beta 133.043233
_cell_angle_gamma 75.636168
_cell_volume 518.092679
_symmetry_space_group_name_H-M "P -1"
_symmetry_group_IT_number 2
_symmetry_cell_setting 'triclinic'
loop_
_space_group_symop_operation_xyz
x,y,z
-x,-y,-z
loop_
_atom_site_type_symbol
_atom_site_label
_atom_site_fract_x
_atom_site_fract_y
_atom_site_fract_z
Si Si1 0.442677 0.379050 0.276977
Si Si2 0.128749 0.564754 0.078777
Si Si3 0.304541 0.938070 0.212183
Si Si4 0.841303 0.299527 0.379974
Si Si5 0.309750 0.460899 0.493569
Si Si6 0.871315 0.681855 0.254133
O O1 0.500000 0.500000 0.500000
O O2 0.364232 0.635701 0.200088
O O3 0.566138 0.352462 0.316363
O O4 0.358915 0.111391 0.177740
O O5 0.164871 0.855563 0.094710
O O6 0.229489 0.543112 0.296246
O O7 0.133502 0.342394 0.915911
O O8 0.000000 0.500000 0.000000
O O9 0.344129 0.139854 0.423456
O O10 0.775188 0.495375 0.458294
O O11 0.819886 0.419282 0.233932
O O12 0.985497 0.310366 0.560708
O O13 0.808680 0.967892 0.292503
#
# Coordination Sequence:
#
# PCOD9102405 Si02
#       6
#     2   2   2   2   2   2
#     4  10  20  38  62  96 123 165 213 268 308 364
#     4  12  25  40  65 102 131 162 208 270 321 376
#     4  11  23  39  63  98 129 161 209 275 316 358
#     4  10  23  42  62  86 127 176 208 249 307 391
#     4  11  23  39  71  98 124 165 223 265 305 373
#     4  10  24  42  59  87 134 170 203 249 325 380
#
# _framework density 23.161877
#
# number of rings (size 3 to 8) (size 9 to 14) (size 15 to 20)
#    0.000    1.333    5.000    2.000    4.667    2.000 
#    0.000    0.000    0.000    6.000    0.000    0.000 
#    0.000    0.000    0.000    0.000    0.000    0.000 
#
# Total GULP energy -66877.796491 kJ/mol
# GULP energy per Si atom -5573.149708 kJ/mol
# Density = 2.310916 g / cm^3
# Si number density = 23.161877 Si / 1000 Ang^3
#
#
#
# Elastic Constant Matrix: (Units=GPa)
#
#
# Indices 1 2 3 4 5 6 
#
# 1 112.0669 60.2291 34.1092 -6.2696 14.6641 9.4845
# 2 60.2291 135.3494 31.2320 3.9699 20.7015 22.0088
# 3 34.1092 31.2320 62.1926 -13.5125 8.1813 7.6646
# 4 -6.2696 3.9699 -13.5125 33.1374 7.8600 6.1227
# 5 14.6641 20.7015 8.1813 7.8600 48.5383 8.8834
# 6 9.4845 22.0088 7.6646 6.1227 8.8834 30.2437
#
#
#
# Elastic Compliance Matrix: (Units=1/GPa)
#
#
# Indices 1 2 3 4 5 6 
#
# 1 0.012994 -0.004689 -0.004307 0.001526 -0.001552 0.000576
# 2 -0.004689 0.011235 -0.002643 -0.001964 -0.001669 -0.005147
# 3 -0.004307 -0.002643 0.022725 0.010028 -0.002325 -0.003833
# 4 0.001526 -0.001964 0.010028 0.037596 -0.006042 -0.007427
# 5 -0.001552 -0.001669 -0.002325 -0.006042 0.023789 -0.003474
# 6 0.000576 -0.005147 -0.003833 -0.007427 -0.003474 0.040125
#
#
# Mechanical properties :
#
#
# Convention : Reuss Voigt Hill
#
# Bulk Modulus (GPa) = 42.23684 62.30549 52.27117
# Shear Modulus (GPa) = 27.83428 34.65311 31.24369
#
# Velocity S-wave (km/s) = 3.47036 3.87218 3.67676
# Velocity P-wave (km/s) = 5.85943 6.85201 6.37507
#
# Compressibility (1/GPa) = 0.02367601
#
# Stress axis : x y z
#
# Youngs Moduli (GPa) = 76.95790 89.00922 44.00397
#
# Poissons Ratio (x) = 0.41740 0.18952
# Poissons Ratio (y) = 0.36089 0.11629
# Poissons Ratio (z) = 0.33145 0.23522
#
# Static dielectric constant tensor:
#      x y z
#    x 1.930850 0.015960 0.099930 
#    y 0.015960 1.951250 0.003230 
#    z 0.099930 0.003230 1.931460 
# 
# From -- ./inp_files/440786.got.cif
#   From: 2010.05.17/outbox.cif.g08.bks.cpg/sg2_221_cif.got.tgz:440786.got - 2010.06.03 11:33:40.
