data_PCOD9102644
_publ_section_title
;
Structure prediction by ZEFSAII (Michael W. Deem and Ramdas Pophale) SiO2 
 PCOD9102644
Probable space group: P -1
;
_chemical_formula_sum "Si O2"
_cell_formula_units_Z 14
_cell_length_a 13.020025
_cell_length_b 16.187175
_cell_length_c 9.056482
_cell_angle_alpha 44.628649
_cell_angle_beta 144.489915
_cell_angle_gamma 143.077637
_cell_volume 655.789556
_symmetry_space_group_name_H-M "P -1"
_symmetry_group_IT_number 2
_symmetry_cell_setting 'triclinic'
loop_
_space_group_symop_operation_xyz
x,y,z
-x,-y,-z
loop_
_atom_site_type_symbol
_atom_site_label
_atom_site_fract_x
_atom_site_fract_y
_atom_site_fract_z
Si Si1 0.743291 0.721155 0.199171
Si Si2 0.317657 0.159204 0.319752
Si Si3 0.493665 0.017159 0.148353
Si Si4 0.099315 0.021490 0.749696
Si Si5 0.158683 0.446706 0.131102
Si Si6 0.531152 0.585771 0.622683
Si Si7 0.109898 0.685187 0.732246
O O1 0.786378 0.817539 0.269520
O O2 0.558266 0.562140 0.213084
O O3 0.948719 0.713365 0.424984
O O4 0.700481 0.792226 0.924334
O O5 0.427211 0.072634 0.567337
O O6 0.086909 0.064984 0.241655
O O7 0.448601 0.296351 0.399117
O O8 0.268520 0.978952 0.988991
O O9 0.660631 0.178816 0.175483
O O10 0.500000 0.000000 0.000000
O O11 0.000000 0.000000 0.500000
O O12 0.362447 0.549180 0.342365
O O13 0.240928 0.369223 0.228617
O O14 0.975415 0.347798 0.155982
O O15 0.102654 0.546228 0.854173
#
# Coordination Sequence:
#
# PCOD9102644 Si02
#       7
#     2   2   2   2   2   2   2
#     4  11  24  46  65  95 140 174 213 277 328 389
#     4  12  26  44  67  98 140 173 214 272 336 388
#     4  12  24  40  69  97 131 169 223 273 326 386
#     4  12  26  44  71  98 129 173 225 273 323 392
#     4   9  20  37  66  97 122 172 221 275 312 385
#     4  10  22  39  68  91 132 171 225 260 333 381
#     4  10  20  38  63  93 133 167 220 268 327 379
#
# _framework density 21.348312
#
# number of rings (size 3 to 8) (size 9 to 14) (size 15 to 20)
#    0.000    1.143    2.857    2.571    8.000    0.571 
#    2.571    0.714    0.000    0.000    0.000    0.000 
#    0.000    0.000    0.000    0.000    0.000    0.000 
#
# Total GULP energy -78341.609781 kJ/mol
# GULP energy per Si atom -5595.829270 kJ/mol
# Density = 2.129972 g / cm^3
# Si number density = 21.348312 Si / 1000 Ang^3
#
#
#
# Elastic Constant Matrix: (Units=GPa)
#
#
# Indices 1 2 3 4 5 6 
#
# 1 52.0324 15.1944 36.2617 -9.9742 30.7598 4.8281
# 2 15.1944 87.1668 20.2669 -15.7924 4.3082 6.3947
# 3 36.2617 20.2669 137.1654 -37.6456 20.9821 2.2653
# 4 -9.9742 -15.7924 -37.6456 33.3510 0.9325 0.9041
# 5 30.7598 4.3082 20.9821 0.9325 33.8275 0.0708
# 6 4.8281 6.3947 2.2653 0.9041 0.0708 28.5219
#
#
#
# Elastic Compliance Matrix: (Units=1/GPa)
#
#
# Indices 1 2 3 4 5 6 
#
# 1 0.052327 -0.003365 -0.002804 0.012390 -0.045738 -0.008160
# 2 -0.003365 0.013142 0.000412 0.005725 0.000978 -0.002593
# 3 -0.002804 0.000412 0.012664 0.013841 -0.005737 -0.001048
# 4 0.012390 0.005725 0.013841 0.052805 -0.022024 -0.006099
# 5 -0.045738 0.000978 -0.005737 -0.022024 0.075175 0.008490
# 6 -0.008160 -0.002593 -0.001048 -0.006099 0.008490 0.037279
#
#
# Mechanical properties :
#
#
# Convention : Reuss Voigt Hill
#
# Bulk Modulus (GPa) = 15.01077 46.64563 30.82820
# Shear Modulus (GPa) = 18.04315 32.78286 25.41301
#
# Velocity S-wave (km/s) = 2.91035 3.92295 3.45396
# Velocity P-wave (km/s) = 4.28254 6.51280 5.51166
#
# Compressibility (1/GPa) = 0.06661883
#
# Stress axis : x y z
#
# Youngs Moduli (GPa) = 19.11061 76.09103 78.96111
#
# Poissons Ratio (x) = 0.25607 0.22143
# Poissons Ratio (y) = 0.06431 -0.03255
# Poissons Ratio (z) = 0.05359 -0.03137
#
# Static dielectric constant tensor:
#      x y z
#    x 1.779600 0.011490 0.012540 
#    y 0.011490 1.773530 0.001030 
#    z 0.012540 0.001030 1.762660 
# 
# From -- ./inp_files/203805.got.cif
#   From: 2010.05.17/outbox.cif.g08.bks.cpg/sg2_102_cif.got.tgz:203805.got - 2010.06.03 11:33:40.
