data_PCOD9102397
_publ_section_title
;
Structure prediction by ZEFSAII (Michael W. Deem and Ramdas Pophale) SiO2 
 PCOD9102397
Probable space group: P -1
;
_chemical_formula_sum "Si O2"
_cell_formula_units_Z 16
_cell_length_a 15.451302
_cell_length_b 9.542626
_cell_length_c 13.613570
_cell_angle_alpha 138.370572
_cell_angle_beta 40.331985
_cell_angle_gamma 135.219666
_cell_volume 815.979726
_symmetry_space_group_name_H-M "P -1"
_symmetry_group_IT_number 2
_symmetry_cell_setting 'triclinic'
loop_
_space_group_symop_operation_xyz
x,y,z
-x,-y,-z
loop_
_atom_site_type_symbol
_atom_site_label
_atom_site_fract_x
_atom_site_fract_y
_atom_site_fract_z
Si Si1 0.401800 0.370813 0.381297
Si Si2 0.612003 0.270780 0.267753
Si Si3 0.874605 0.767403 0.996375
Si Si4 0.902071 0.963041 0.469798
Si Si5 0.341397 0.659623 0.431624
Si Si6 0.106028 0.366805 0.863261
Si Si7 0.003161 0.465794 0.594265
Si Si8 0.616498 0.928053 0.237570
O O1 0.504001 0.234514 0.252383
O O2 0.443149 0.600488 0.530520
O O3 0.247791 0.208155 0.457709
O O4 0.399193 0.471008 0.329167
O O5 0.748781 0.459922 0.209873
O O6 0.638694 0.057907 0.182097
O O7 0.874319 0.691626 0.071043
O O8 0.729248 0.803778 0.103642
O O9 0.926609 0.605294 0.797129
O O10 0.000000 0.000000 0.000000
O O11 0.940876 0.849523 0.279626
O O12 0.915043 0.210758 0.558724
O O13 0.000000 0.000000 0.500000
O O14 0.452546 0.771102 0.307259
O O15 0.172354 0.541782 0.508537
O O16 0.356629 0.870367 0.600893
O O17 0.000000 0.500000 0.000000
O O18 0.000000 0.500000 0.500000
#
# Coordination Sequence:
#
# PCOD9102397 Si02
#       8
#     2   2   2   2   2   2   2   2
#     4   9  18  35  59  87 123 160 207 259 307 374
#     4   9  19  35  60  94 120 155 214 264 309 361
#     4  12  23  42  65  94 130 167 220 267 317 376
#     4  11  22  39  63  92 130 171 204 259 323 386
#     4  10  20  38  62  95 126 165 214 263 320 379
#     4  11  23  38  67  95 125 166 216 265 314 373
#     4  12  26  41  63  95 133 170 210 262 331 391
#     4  10  21  36  67  94 126 164 217 273 310 371
#
# _framework density 19.608329000000001
#
# number of rings (size 3 to 8) (size 9 to 14) (size 15 to 20)
#    0.000    1.500    2.500    3.000    3.500    2.000 
#    0.000    0.625    2.750    2.250    0.000    0.000 
#    0.000    0.000    0.000    0.000    0.000    0.000 
#
# Total GULP energy -89125.287253 kJ/mol
# GULP energy per Si atom -5570.330453 kJ/mol
# Density = 1.956370 g / cm^3
# Si number density = 19.608329 Si / 1000 Ang^3
#
#
#
# Elastic Constant Matrix: (Units=GPa)
#
#
# Indices 1 2 3 4 5 6 
#
# 1 119.3548 32.9355 54.9621 4.1545 -14.5253 -25.6483
# 2 32.9355 98.1739 37.2260 12.8561 0.0041 -24.4216
# 3 54.9621 37.2260 97.5645 14.9766 -1.9007 -11.5674
# 4 4.1545 12.8561 14.9766 28.2074 1.1704 -3.6821
# 5 -14.5253 0.0041 -1.9007 1.1704 29.4257 -4.1884
# 6 -25.6483 -24.4216 -11.5674 -3.6821 -4.1884 43.9646
#
#
#
# Elastic Compliance Matrix: (Units=1/GPa)
#
#
# Indices 1 2 3 4 5 6 
#
# 1 0.014157 -0.000650 -0.007161 0.002612 0.007410 0.006938
# 2 -0.000650 0.013735 -0.003615 -0.003473 0.000443 0.006050
# 3 -0.007161 -0.003615 0.016240 -0.006161 -0.002622 -0.002679
# 4 0.002612 -0.003473 -0.006161 0.040110 -0.000521 0.001283
# 5 0.007410 0.000443 -0.002622 -0.000521 0.038562 0.007509
# 6 0.006938 0.006050 -0.002679 0.001283 0.007509 0.030272
#
#
# Mechanical properties :
#
#
# Convention : Reuss Voigt Hill
#
# Bulk Modulus (GPa) = 46.99437 62.81561 54.90499
# Shear Modulus (GPa) = 27.31896 32.98419 30.15157
#
# Velocity S-wave (km/s) = 3.73665 4.10585 3.92560
# Velocity P-wave (km/s) = 6.52957 7.38797 6.97199
#
# Compressibility (1/GPa) = 0.02127914
#
# Stress axis : x y z
#
# Youngs Moduli (GPa) = 70.63440 72.80759 61.57537
#
# Poissons Ratio (x) = 0.04736 0.44095
# Poissons Ratio (y) = 0.04595 0.22260
# Poissons Ratio (z) = 0.50583 0.26320
#
# Static dielectric constant tensor:
#      x y z
#    x 1.715680 -0.036320 -0.050370 
#    y -0.036320 1.527650 -0.121980 
#    z -0.050370 -0.121980 1.623430 
# 
# From -- ./inp_files/530222.got.cif
#   From: 2010.05.17/outbox.cif.g08.bks.cpg/sg2_266_cif.got.tgz:530222.got - 2010.06.03 11:33:40.
