data_PCOD9102048
_publ_section_title
;
Structure prediction by ZEFSAII (Michael W. Deem and Ramdas Pophale) SiO2 
 PCOD9102048
Probable space group: P -1
;
_chemical_formula_sum "Si O2"
_cell_formula_units_Z 14
_cell_length_a 7.787522
_cell_length_b 8.979365
_cell_length_c 11.495227
_cell_angle_alpha 77.849179
_cell_angle_beta 85.072778
_cell_angle_gamma 51.331015
_cell_volume 612.445464
_symmetry_space_group_name_H-M "P -1"
_symmetry_group_IT_number 2
_symmetry_cell_setting 'triclinic'
loop_
_space_group_symop_operation_xyz
x,y,z
-x,-y,-z
loop_
_atom_site_type_symbol
_atom_site_label
_atom_site_fract_x
_atom_site_fract_y
_atom_site_fract_z
Si Si1 0.656604 0.647641 0.689878
Si Si2 0.566440 0.632873 0.945376
Si Si3 0.996475 0.242317 0.619630
Si Si4 0.338742 0.720335 0.520688
Si Si5 0.342055 0.191893 0.900800
Si Si6 0.902894 0.950891 0.117092
Si Si7 0.508075 0.926019 0.348709
O O1 0.701306 0.569896 0.830251
O O2 0.842753 0.471269 0.625691
O O3 0.422410 0.706056 0.648862
O O4 0.634077 0.842390 0.664751
O O5 0.343983 0.847862 0.889378
O O6 0.500000 0.500000 0.000000
O O7 0.678465 0.645064 0.050079
O O8 0.898175 0.211694 0.517383
O O9 0.986529 0.129259 0.749251
O O10 0.246208 0.162852 0.608036
O O11 0.500000 0.500000 0.500000
O O12 0.402338 0.842787 0.434116
O O13 0.128769 0.205245 0.897019
O O14 0.452544 0.145639 0.775640
O O15 0.500000 0.000000 0.000000
O O16 0.000000 0.000000 0.000000
#
# Coordination Sequence:
#
# PCOD9102048 Si02
#       7
#     2   2   2   2   2   2   2
#     4  11  22  42  64  97 126 169 224 258 324 389
#     4  11  22  38  66  94 131 167 209 273 317 385
#     4  10  23  43  65  93 132 171 213 270 319 383
#     4  10  25  41  69  95 127 176 216 266 328 381
#     4   9  19  37  62  86 125 172 196 264 330 367
#     4  10  20  38  61  93 130 169 213 260 324 384
#     4  11  22  45  65  93 133 165 220 268 321 384
#
# _framework density 22.859178
#
# number of rings (size 3 to 8) (size 9 to 14) (size 15 to 20)
#    0.000    1.714    4.286    1.286    8.000    2.857 
#    0.000   12.143    0.000    0.000    0.000    0.000 
#    0.000    0.000    0.000    0.000    0.000    0.000 
#
# Total GULP energy -78190.762108 kJ/mol
# GULP energy per Si atom -5585.054436 kJ/mol
# Density = 2.280715 g / cm^3
# Si number density = 22.859178 Si / 1000 Ang^3
#
#
#
# Elastic Constant Matrix: (Units=GPa)
#
#
# Indices 1 2 3 4 5 6 
#
# 1 65.6465 57.8695 16.0129 0.4563 4.4834 8.6006
# 2 57.8695 122.6344 45.1055 -1.2020 2.2718 26.0050
# 3 16.0129 45.1055 89.7075 13.1403 14.0344 7.3622
# 4 0.4563 -1.2020 13.1403 36.4658 4.3269 9.4284
# 5 4.4834 2.2718 14.0344 4.3269 39.6645 -1.0000
# 6 8.6006 26.0050 7.3622 9.4284 -1.0000 44.4756
#
#
#
# Elastic Compliance Matrix: (Units=1/GPa)
#
#
# Indices 1 2 3 4 5 6 
#
# 1 0.027135 -0.014569 0.003032 -0.002391 -0.002964 0.003209
# 2 -0.014569 0.019726 -0.007816 0.005567 0.002460 -0.008547
# 3 0.003032 -0.007816 0.015981 -0.006137 -0.004816 0.002531
# 4 -0.002391 0.005567 -0.006137 0.032278 -0.001616 -0.008656
# 5 -0.002964 0.002460 -0.004816 -0.001616 0.027308 0.000889
# 6 0.003209 -0.008547 0.002531 -0.008656 0.000889 0.028297
#
#
# Mechanical properties :
#
#
# Convention : Reuss Voigt Hill
#
# Bulk Modulus (GPa) = 41.43324 57.32934 49.38129
# Shear Modulus (GPa) = 25.31944 34.72121 30.02033
#
# Velocity S-wave (km/s) = 3.33171 3.90156 3.62784
# Velocity P-wave (km/s) = 5.74153 6.74018 6.26080
#
# Compressibility (1/GPa) = 0.02413521
#
# Stress axis : x y z
#
# Youngs Moduli (GPa) = 36.85265 50.69540 62.57438
#
# Poissons Ratio (x) = 0.73858 -0.18974
# Poissons Ratio (y) = 0.53691 0.48911
# Poissons Ratio (z) = -0.11175 0.39626
#
# Static dielectric constant tensor:
#      x y z
#    x 1.885670 -0.010120 0.038210 
#    y -0.010120 1.876340 0.027900 
#    z 0.038210 0.027900 1.913600 
# 
# From -- ./inp_files/187923.got.cif
#   From: 2010.05.17/outbox.cif.g08.bks.cpg/sg2_94_cif.got.tgz:187923.got - 2010.06.03 11:33:40.
