data_PCOD9102218
_publ_section_title
;
Structure prediction by ZEFSAII (Michael W. Deem and Ramdas Pophale) SiO2 
 PCOD9102218
Probable space group: P -1
;
_chemical_formula_sum "Si O2"
_cell_formula_units_Z 16
_cell_length_a 11.629093
_cell_length_b 10.186387
_cell_length_c 9.102003
_cell_angle_alpha 68.518270
_cell_angle_beta 109.224332
_cell_angle_gamma 65.007263
_cell_volume 744.727707
_symmetry_space_group_name_H-M "P -1"
_symmetry_group_IT_number 2
_symmetry_cell_setting 'triclinic'
loop_
_space_group_symop_operation_xyz
x,y,z
-x,-y,-z
loop_
_atom_site_type_symbol
_atom_site_label
_atom_site_fract_x
_atom_site_fract_y
_atom_site_fract_z
Si Si1 0.669423 0.814006 0.173802
Si Si2 0.030762 0.315715 0.534738
Si Si3 0.636497 0.604071 0.500894
Si Si4 0.285467 0.634292 0.607128
Si Si5 0.133394 0.580566 0.088318
Si Si6 0.597698 0.155204 0.435428
Si Si7 0.355718 0.398110 0.992724
Si Si8 0.858066 0.759715 0.722248
O O1 0.806653 0.828186 0.253240
O O2 0.665394 0.716728 0.357903
O O3 0.704163 0.688230 0.099677
O O4 0.500000 0.000000 0.000000
O O5 0.066353 0.278940 0.391100
O O6 0.000000 0.500000 0.500000
O O7 0.881309 0.324044 0.494305
O O8 0.600595 0.503913 0.415581
O O9 0.786451 0.436588 0.719908
O O10 0.515161 0.736228 0.519141
O O11 0.278084 0.806701 0.530774
O O12 0.368267 0.517242 0.836142
O O13 0.239272 0.535589 0.011496
O O14 0.142232 0.404889 0.177586
O O15 0.963097 0.749566 0.900670
O O16 0.502066 0.237508 0.210811
O O17 0.688341 0.945384 0.573402
#
# Coordination Sequence:
#
# PCOD9102218 Si02
#       8
#     2   2   2   2   2   2   2   2
#     4  11  22  37  63  98 124 153 208 270 320 360
#     4  12  20  41  67  91 123 163 212 259 314 369
#     4  10  22  41  64  89 124 172 209 258 313 374
#     4  11  22  43  66  91 128 173 215 248 314 385
#     4  10  20  38  62  88 125 160 211 259 318 369
#     4  11  25  40  64  94 133 168 210 257 312 381
#     4  10  21  38  64  92 121 169 206 260 312 372
#     4  11  22  37  61  96 125 164 209 265 317 367
#
# _framework density 21.484362999999998
#
# number of rings (size 3 to 8) (size 9 to 14) (size 15 to 20)
#    0.000    1.250    5.000    1.500    1.750    2.500 
#    0.000    0.625    2.750    0.000    0.000    0.000 
#    0.000    0.000    0.000    0.000    0.000    0.000 
#
# Total GULP energy -89283.269559 kJ/mol
# GULP energy per Si atom -5580.204347 kJ/mol
# Density = 2.143546 g / cm^3
# Si number density = 21.484363 Si / 1000 Ang^3
#
#
#
# Elastic Constant Matrix: (Units=GPa)
#
#
# Indices 1 2 3 4 5 6 
#
# 1 60.7803 10.3511 36.8519 13.8624 10.0726 -1.2963
# 2 10.3511 36.1019 24.0097 12.6457 -5.4160 -12.6632
# 3 36.8519 24.0097 125.1711 9.2311 7.3477 -18.7381
# 4 13.8624 12.6457 9.2311 37.4794 -12.9032 -1.3440
# 5 10.0726 -5.4160 7.3477 -12.9032 30.1098 3.2625
# 6 -1.2963 -12.6632 -18.7381 -1.3440 3.2625 18.2975
#
#
#
# Elastic Compliance Matrix: (Units=1/GPa)
#
#
# Indices 1 2 3 4 5 6 
#
# 1 0.024894 -0.002806 -0.006090 -0.010889 -0.011452 -0.005172
# 2 -0.002806 0.043875 -0.002964 -0.011478 0.001822 0.025963
# 3 -0.006090 -0.002964 0.012076 -0.000274 -0.002681 0.010342
# 4 -0.010889 -0.011478 -0.000274 0.041326 0.020395 -0.009596
# 5 -0.011452 0.001822 -0.002681 0.020395 0.047774 -0.009316
# 6 -0.005172 0.025963 0.010342 -0.009596 -0.009316 0.083802
#
#
# Mechanical properties :
#
#
# Convention : Reuss Voigt Hill
#
# Bulk Modulus (GPa) = 17.50480 40.49764 29.00122
# Shear Modulus (GPa) = 16.86288 27.23339 22.04814
#
# Velocity S-wave (km/s) = 2.80463 3.56419 3.20698
# Velocity P-wave (km/s) = 4.31895 5.98570 5.21929
#
# Compressibility (1/GPa) = 0.05712719
#
# Stress axis : x y z
#
# Youngs Moduli (GPa) = 40.17035 22.79176 82.80644
#
# Poissons Ratio (x) = 0.06394 0.50429
# Poissons Ratio (y) = 0.11270 0.24542
# Poissons Ratio (z) = 0.24463 0.06755
#
# Static dielectric constant tensor:
#      x y z
#    x 1.850670 -0.012490 0.054370 
#    y -0.012490 1.769960 0.018120 
#    z 0.054370 0.018120 1.853950 
# 
# From -- ./inp_files/244516.got.cif
#   From: 2010.05.17/outbox.cif.g08.bks.cpg/sg2_123_cif.got.tgz:244516.got - 2010.06.03 11:33:40.
