data_PCOD9102991
_publ_section_title
;
Structure prediction by ZEFSAII (Michael W. Deem and Ramdas Pophale) SiO2 
 PCOD9102991
Probable space group: P -1
;
_chemical_formula_sum "Si O2"
_cell_formula_units_Z 14
_cell_length_a 15.432479
_cell_length_b 23.244613
_cell_length_c 9.365214
_cell_angle_alpha 39.392536
_cell_angle_beta 145.113454
_cell_angle_gamma 161.243620
_cell_volume 617.703160
_symmetry_space_group_name_H-M "P -1"
_symmetry_group_IT_number 2
_symmetry_cell_setting 'triclinic'
loop_
_space_group_symop_operation_xyz
x,y,z
-x,-y,-z
loop_
_atom_site_type_symbol
_atom_site_label
_atom_site_fract_x
_atom_site_fract_y
_atom_site_fract_z
Si Si1 0.520374 0.924717 0.529132
Si Si2 0.048130 0.931120 0.615688
Si Si3 0.179929 0.067456 0.252888
Si Si4 0.235807 0.722065 0.093194
Si Si5 0.678840 0.426412 0.378279
Si Si6 0.012109 0.723867 0.042163
Si Si7 0.915269 0.289498 0.396872
O O1 0.562412 0.863901 0.594901
O O2 0.296234 0.876908 0.237986
O O3 0.354636 0.814878 0.662739
O O4 0.826999 0.138024 0.551806
O O5 0.976536 0.909817 0.393544
O O6 0.403663 0.092106 0.789251
O O7 0.885785 0.759212 0.786444
O O8 0.000000 0.000000 0.500000
O O9 0.342411 0.229016 0.254971
O O10 0.000000 0.000000 0.000000
O O11 0.175851 0.594859 0.334242
O O12 0.120622 0.742026 0.002091
O O13 0.098175 0.666661 0.856575
O O14 0.813906 0.546480 0.193312
O O15 0.778737 0.539153 0.431264
#
# Coordination Sequence:
#
# PCOD9102991 Si02
#       7
#     2   2   2   2   2   2   2
#     4  10  20  38  64  95 126 173 218 259 317 383
#     4  11  24  40  64  98 133 174 215 264 323 389
#     4  11  25  44  64  89 133 180 215 255 328 402
#     4  11  20  38  64 100 131 171 213 271 321 382
#     4  10  23  40  63 100 128 168 216 275 322 377
#     4  11  20  41  71  95 131 167 224 269 317 380
#     4  10  21  33  63  98 129 155 215 278 316 362
#
# _framework density 22.664607
#
# number of rings (size 3 to 8) (size 9 to 14) (size 15 to 20)
#    0.000    1.429    4.286    2.143    4.000    0.000 
#    0.000    7.143    0.000    0.000    0.000    0.000 
#    0.000    0.000    0.000    0.000    0.000    0.000 
#
# Total GULP energy -78136.705653 kJ/mol
# GULP energy per Si atom -5581.193261 kJ/mol
# Density = 2.261302 g / cm^3
# Si number density = 22.664607 Si / 1000 Ang^3
#
#
#
# Elastic Constant Matrix: (Units=GPa)
#
#
# Indices 1 2 3 4 5 6 
#
# 1 102.1069 28.2132 50.7716 -18.2330 -30.2278 4.7528
# 2 28.2132 84.0369 44.2501 -10.7530 -1.4116 -24.6911
# 3 50.7716 44.2501 138.9589 -22.4809 -35.3019 3.9535
# 4 -18.2330 -10.7530 -22.4809 34.6102 -12.7222 -7.7922
# 5 -30.2278 -1.4116 -35.3019 -12.7222 36.3355 7.3185
# 6 4.7528 -24.6911 3.9535 -7.7922 7.3185 30.3149
#
#
#
# Elastic Compliance Matrix: (Units=1/GPa)
#
#
# Indices 1 2 3 4 5 6 
#
# 1 0.044535 -0.035661 0.028518 0.053865 0.091916 -0.048092
# 2 -0.035661 0.056301 -0.037962 -0.045249 -0.093782 0.067408
# 3 0.028518 -0.037962 0.042255 0.053349 0.091927 -0.049381
# 4 0.053865 -0.045249 0.053349 0.119451 0.148258 -0.057346
# 5 0.091916 -0.093782 0.091927 0.148258 0.267605 -0.129279
# 6 -0.048092 0.067408 -0.049381 -0.057346 -0.129279 0.118340
#
#
# Mechanical properties :
#
#
# Convention : Reuss Voigt Hill
#
# Bulk Modulus (GPa) = 18.91067 63.50804 41.20936
# Shear Modulus (GPa) = 6.61092 33.70998 20.16045
#
# Velocity S-wave (km/s) = 1.70973 3.86079 2.98571
# Velocity P-wave (km/s) = 3.50134 6.92502 5.48704
#
# Compressibility (1/GPa) = 0.05288019
#
# Stress axis : x y z
#
# Youngs Moduli (GPa) = 22.45413 17.76168 23.66584
#
# Poissons Ratio (x) = 0.63340 -0.67489
# Poissons Ratio (y) = 0.80074 0.89840
# Poissons Ratio (z) = -0.64034 0.67427
#
# Static dielectric constant tensor:
#      x y z
#    x 1.842620 0.011120 0.015730 
#    y 0.011120 1.946140 -0.019420 
#    z 0.015730 -0.019420 1.889770 
# 
# From -- ./inp_files/320021.got.cif
#   From: 2010.05.17/outbox.cif.g08.bks.cpg/sg2_161_cif.got.tgz:320021.got - 2010.06.03 11:33:40.
