data_PCOD9102720
_publ_section_title
;
Structure prediction by ZEFSAII (Michael W. Deem and Ramdas Pophale) SiO2 
 PCOD9102720
Probable space group: P -1
;
_chemical_formula_sum "Si O2"
_cell_formula_units_Z 14
_cell_length_a 13.635871
_cell_length_b 21.427063
_cell_length_c 11.382866
_cell_angle_alpha 33.248344
_cell_angle_beta 33.417716
_cell_angle_gamma 19.804276
_cell_volume 596.957401
_symmetry_space_group_name_H-M "P -1"
_symmetry_group_IT_number 2
_symmetry_cell_setting 'triclinic'
loop_
_space_group_symop_operation_xyz
x,y,z
-x,-y,-z
loop_
_atom_site_type_symbol
_atom_site_label
_atom_site_fract_x
_atom_site_fract_y
_atom_site_fract_z
Si Si1 0.342809 0.460569 0.242294
Si Si2 0.678732 0.756115 0.519018
Si Si3 0.092008 0.145978 0.369395
Si Si4 0.604125 0.107902 0.168835
Si Si5 0.415305 0.688362 0.520122
Si Si6 0.744423 0.699796 0.010663
Si Si7 0.779100 0.277618 0.727063
O O1 0.335931 0.373527 0.280407
O O2 0.526535 0.316338 0.395536
O O3 0.997308 0.642084 0.342767
O O4 0.500000 0.500000 0.000000
O O5 0.606920 0.818480 0.628039
O O6 0.413658 0.936018 0.417837
O O7 0.923368 0.157547 0.424066
O O8 0.894480 0.245028 0.531164
O O9 0.118866 0.262560 0.119186
O O10 0.474177 0.138384 0.126451
O O11 0.618310 0.238131 0.944599
O O12 0.932638 0.893243 0.209651
O O13 0.568496 0.706109 0.260700
O O14 0.582933 0.482444 0.646982
O O15 0.000000 0.500000 0.000000
#
# Coordination Sequence:
#
# PCOD9102720 Si02
#       7
#     2   2   2   2   2   2   2
#     4  11  26  48  72  90 128 181 230 277 326 387
#     4  10  25  46  66 100 129 176 231 272 321 395
#     4  11  24  40  66 102 141 169 217 272 331 400
#     4  10  21  38  67  98 137 172 216 266 329 401
#     4  12  24  42  68  99 135 174 218 273 334 391
#     4  12  23  37  64 102 138 176 211 266 340 392
#     4  10  20  38  63  99 139 175 210 261 328 406
#
# _framework density 23.452261
#
# number of rings (size 3 to 8) (size 9 to 14) (size 15 to 20)
#    0.000    1.143    2.857    3.000    2.000    5.143 
#    0.000    1.429    0.000    0.000    0.000    0.000 
#    0.000    0.000    0.000    0.000    0.000    0.000 
#
# Total GULP energy -78465.592728 kJ/mol
# GULP energy per Si atom -5604.685195 kJ/mol
# Density = 2.339888 g / cm^3
# Si number density = 23.452261 Si / 1000 Ang^3
#
#
#
# Elastic Constant Matrix: (Units=GPa)
#
#
# Indices 1 2 3 4 5 6 
#
# 1 89.7556 15.2207 50.0485 13.5884 2.1187 -9.9992
# 2 15.2207 59.1803 45.9304 -5.8184 -11.4518 -13.0831
# 3 50.0485 45.9304 139.9154 12.9865 -30.0153 -14.9026
# 4 13.5884 -5.8184 12.9865 20.1715 -12.1289 -9.5675
# 5 2.1187 -11.4518 -30.0153 -12.1289 42.4280 -9.8292
# 6 -9.9992 -13.0831 -14.9026 -9.5675 -9.8292 26.7495
#
#
#
# Elastic Compliance Matrix: (Units=1/GPa)
#
#
# Indices 1 2 3 4 5 6 
#
# 1 0.031558 -0.035320 -0.011492 -0.093335 -0.061655 -0.067919
# 2 -0.035320 0.100599 0.004549 0.198871 0.125035 0.155609
# 3 -0.011492 0.004549 0.015850 0.027842 0.027159 0.026697
# 4 -0.093335 0.198871 0.027842 0.522015 0.315411 0.380497
# 5 -0.061655 0.125035 0.027159 0.315411 0.227621 0.249691
# 6 -0.067919 0.155609 0.026697 0.380497 0.249691 0.330818
#
#
# Mechanical properties :
#
#
# Convention : Reuss Voigt Hill
#
# Bulk Modulus (GPa) = 15.75239 56.80561 36.27900
# Shear Modulus (GPa) = 3.74771 29.71325 16.73048
#
# Velocity S-wave (km/s) = 1.26550 3.56331 2.67382
# Velocity P-wave (km/s) = 2.97770 6.41903 5.00353
#
# Compressibility (1/GPa) = 0.06348242
#
# Stress axis : x y z
#
# Youngs Moduli (GPa) = 31.68773 9.94042 63.09120
#
# Poissons Ratio (x) = 0.35109 0.72501
# Poissons Ratio (y) = 1.11921 -0.28699
# Poissons Ratio (z) = 0.36414 -0.04522
#
# Static dielectric constant tensor:
#      x y z
#    x 1.909370 -0.000050 -0.037230 
#    y -0.000050 1.883650 -0.030710 
#    z -0.037230 -0.030710 1.862680 
# 
# From -- ./inp_files/278139.got.cif
#   From: 2010.05.17/outbox.cif.g08.bks.cpg/sg2_140_cif.got.tgz:278139.got - 2010.06.03 11:33:40.
