data_PCOD9102965
_publ_section_title
;
Structure prediction by ZEFSAII (Michael W. Deem and Ramdas Pophale) SiO2 
 PCOD9102965
Probable space group: P -1
;
_chemical_formula_sum "Si O2"
_cell_formula_units_Z 16
_cell_length_a 8.879368
_cell_length_b 13.418068
_cell_length_c 11.807230
_cell_angle_alpha 130.601415
_cell_angle_beta 51.167156
_cell_angle_gamma 134.059120
_cell_volume 727.245547
_symmetry_space_group_name_H-M "P -1"
_symmetry_group_IT_number 2
_symmetry_cell_setting 'triclinic'
loop_
_space_group_symop_operation_xyz
x,y,z
-x,-y,-z
loop_
_atom_site_type_symbol
_atom_site_label
_atom_site_fract_x
_atom_site_fract_y
_atom_site_fract_z
Si Si1 0.236210 0.428151 0.055486
Si Si2 0.498849 0.567141 0.428990
Si Si3 0.101977 0.729969 0.087948
Si Si4 0.956758 0.520177 0.406004
Si Si5 0.806300 0.866480 0.060346
Si Si6 0.969985 0.989838 0.727279
Si Si7 0.975078 0.761632 0.405807
Si Si8 0.547294 0.728749 0.866842
O O1 0.138148 0.509592 0.237644
O O2 0.500000 0.500000 0.000000
O O3 0.135444 0.264142 0.037847
O O4 0.120367 0.397564 0.963704
O O5 0.500000 0.500000 0.500000
O O6 0.302127 0.604714 0.565392
O O7 0.740965 0.705113 0.409414
O O8 0.457312 0.431830 0.262574
O O9 0.103888 0.727382 0.221581
O O10 0.103302 0.886081 0.175120
O O11 0.313583 0.717384 0.934828
O O12 0.958863 0.666221 0.456474
O O13 0.000000 0.500000 0.500000
O O14 0.600364 0.791060 0.016806
O O15 0.823523 0.937046 0.227972
O O16 0.000000 0.000000 0.000000
O O17 0.043633 0.925734 0.539842
O O18 0.752718 0.850395 0.784463
#
# Coordination Sequence:
#
# PCOD9102965 Si02
#       8
#     2   2   2   2   2   2   2   2
#     4  11  26  43  67 101 141 171 225 285 336 396
#     4  10  20  38  64  94 126 170 213 277 325 385
#     4  11  25  40  67 101 132 177 225 270 342 394
#     4  11  24  41  66  97 128 174 225 268 334 398
#     4   9  22  41  67  92 132 180 217 273 335 393
#     4  10  21  44  65  90 137 179 221 268 328 408
#     4  11  24  42  66  96 139 170 219 276 340 391
#     4  11  20  40  70  96 129 170 231 275 325 396
#
# _framework density 22.000824000000001
#
# number of rings (size 3 to 8) (size 9 to 14) (size 15 to 20)
#    0.000    1.500    2.500    3.000    7.000    1.000 
#    0.000    0.625    0.000    0.000    0.000    0.000 
#    0.000    0.000    0.000    0.000    0.000    0.000 
#
# Total GULP energy -89112.215992 kJ/mol
# GULP energy per Si atom -5569.513500 kJ/mol
# Density = 2.195075 g / cm^3
# Si number density = 22.000824 Si / 1000 Ang^3
#
#
#
# Elastic Constant Matrix: (Units=GPa)
#
#
# Indices 1 2 3 4 5 6 
#
# 1 117.1200 24.4160 56.9553 -4.4291 12.7209 16.7319
# 2 24.4160 41.8893 24.2433 6.8897 1.0200 -5.6278
# 3 56.9553 24.2433 126.3820 -1.7857 4.2587 17.1246
# 4 -4.4291 6.8897 -1.7857 28.4533 5.1334 3.6971
# 5 12.7209 1.0200 4.2587 5.1334 41.6826 -5.1691
# 6 16.7319 -5.6278 17.1246 3.6971 -5.1691 38.4521
#
#
#
# Elastic Compliance Matrix: (Units=1/GPa)
#
#
# Indices 1 2 3 4 5 6 
#
# 1 0.013515 -0.007521 -0.003501 0.005484 -0.005081 -0.006633
# 2 -0.007521 0.035030 -0.005401 -0.012565 0.005112 0.012700
# 3 -0.003501 -0.005401 0.011203 0.002201 -0.000782 -0.004573
# 4 0.005484 -0.012565 0.002201 0.041971 -0.008040 -0.010322
# 5 -0.005081 0.005112 -0.000782 -0.008040 0.027450 0.007771
# 6 -0.006633 0.012700 -0.004573 -0.010322 0.007771 0.034825
#
#
# Mechanical properties :
#
#
# Convention : Reuss Voigt Hill
#
# Bulk Modulus (GPa) = 37.16955 55.18006 46.17480
# Shear Modulus (GPa) = 24.29439 33.70272 28.99855
#
# Velocity S-wave (km/s) = 3.32663 3.91818 3.63446
# Velocity P-wave (km/s) = 5.62908 6.75313 6.21657
#
# Compressibility (1/GPa) = 0.02690374
#
# Stress axis : x y z
#
# Youngs Moduli (GPa) = 73.98991 28.54664 89.25923
#
# Poissons Ratio (x) = 0.21470 0.31246
# Poissons Ratio (y) = 0.55648 0.48209
# Poissons Ratio (z) = 0.25901 0.15418
#
# Static dielectric constant tensor:
#      x y z
#    x 1.802600 -0.023330 0.091880 
#    y -0.023330 1.871960 0.044100 
#    z 0.091880 0.044100 1.813500 
# 
# From -- ./inp_files/399752.got.cif
#   From: 2010.05.17/outbox.cif.g08.bks.cpg/sg2_200_cif.got.tgz:399752.got - 2010.06.03 11:33:40.
