data_PCOD9102922
_publ_section_title
;
Structure prediction by ZEFSAII (Michael W. Deem and Ramdas Pophale) SiO2 
 PCOD9102922
Probable space group: P -1
;
_chemical_formula_sum "Si O2"
_cell_formula_units_Z 13
_cell_length_a 12.929239
_cell_length_b 7.082871
_cell_length_c 8.014038
_cell_angle_alpha 122.508811
_cell_angle_beta 119.505047
_cell_angle_gamma 63.553924
_cell_volume 522.061075
_symmetry_space_group_name_H-M "P -1"
_symmetry_group_IT_number 2
_symmetry_cell_setting 'triclinic'
loop_
_space_group_symop_operation_xyz
x,y,z
-x,-y,-z
loop_
_atom_site_type_symbol
_atom_site_label
_atom_site_fract_x
_atom_site_fract_y
_atom_site_fract_z
Si Si1 0.868526 0.464242 0.433805
Si Si2 0.849780 0.743702 0.849715
Si Si3 0.311018 0.764262 0.942671
Si Si4 0.898713 0.274811 0.872333
Si Si5 0.531424 0.208519 0.227055
Si Si6 0.000000 0.000000 0.500000
Si Si7 0.375637 0.709168 0.312575
O O1 0.800847 0.668482 0.601243
O O2 0.903796 0.234640 0.463709
O O3 0.000000 0.500000 0.500000
O O4 0.775471 0.416122 0.197649
O O5 0.865289 0.535511 0.896561
O O6 0.769079 0.973964 0.975671
O O7 0.990416 0.747257 0.920821
O O8 0.409600 0.734397 0.157578
O O9 0.368558 0.727414 0.786657
O O10 0.966683 0.093767 0.704531
O O11 0.771333 0.214818 0.778146
O O12 0.420294 0.436285 0.257761
O O13 0.578691 0.165304 0.434768
O O14 0.500000 0.000000 0.000000
#
# Coordination Sequence:
#
# PCOD9102922 Si02
#       7
#     2   2   2   2   2   1   2
#     4  11  24  40  65 104 147 189 232 282 353 433
#     4  10  22  38  64 103 143 182 227 278 347 429
#     4  12  25  46  71 105 145 180 235 301 345 425
#     4  10  20  40  64  99 140 187 225 281 350 422
#     4  11  26  50  72  99 132 187 240 296 362 414
#     4  10  20  38  64  92 150 188 222 282 344 412
#     4  11  26  44  72  98 138 180 237 298 351 419
#
# _framework density 24.901301
#
# number of rings (size 3 to 8) (size 9 to 14) (size 15 to 20)
#    0.000    1.231    1.538    4.154    2.154    4.308 
#    5.538    0.000    0.000    0.000    0.000    0.000 
#    0.000    0.000    0.000    0.000    0.000    0.000 
#
# Total GULP energy -72399.039761 kJ/mol
# GULP energy per Si atom -5569.156905 kJ/mol
# Density = 2.484462 g / cm^3
# Si number density = 24.901301 Si / 1000 Ang^3
#
#
#
# Elastic Constant Matrix: (Units=GPa)
#
#
# Indices 1 2 3 4 5 6 
#
# 1 35.7775 6.1114 36.4796 -3.1687 9.1784 -3.2162
# 2 6.1114 63.4969 19.1449 9.3440 -1.1678 -11.7783
# 3 36.4796 19.1449 175.2228 10.2598 -24.9810 -8.8883
# 4 -3.1687 9.3440 10.2598 42.4255 2.0509 -9.6856
# 5 9.1784 -1.1678 -24.9810 2.0509 31.5853 3.0822
# 6 -3.2162 -11.7783 -8.8883 -9.6856 3.0822 30.2463
#
#
#
# Elastic Compliance Matrix: (Units=1/GPa)
#
#
# Indices 1 2 3 4 5 6 
#
# 1 0.052649 -0.001311 -0.015199 0.010894 -0.028763 0.007041
# 2 -0.001311 0.017649 -0.001285 -0.002369 -0.000379 0.005636
# 3 -0.015199 -0.001285 0.011139 -0.004595 0.013644 -0.001705
# 4 0.010894 -0.002369 -0.004595 0.028538 -0.009619 0.009004
# 5 -0.028763 -0.000379 0.013644 -0.009619 0.052161 -0.007592
# 6 0.007041 0.005636 -0.001705 0.009004 -0.007592 0.039161
#
#
# Mechanical properties :
#
#
# Convention : Reuss Voigt Hill
#
# Bulk Modulus (GPa) = 21.81116 44.21880 33.01498
# Shear Modulus (GPa) = 19.82785 35.03549 27.43167
#
# Velocity S-wave (km/s) = 2.82486 3.75503 3.32266
# Velocity P-wave (km/s) = 4.40657 6.04951 5.29218
#
# Compressibility (1/GPa) = 0.04584808
#
# Stress axis : x y z
#
# Youngs Moduli (GPa) = 18.99387 56.65887 89.77066
#
# Poissons Ratio (x) = 0.07426 1.36443
# Poissons Ratio (y) = 0.02490 0.11535
# Poissons Ratio (z) = 0.28869 0.07280
#
# Static dielectric constant tensor:
#      x y z
#    x 2.138800 0.086930 0.061550 
#    y 0.086930 1.917000 -0.014800 
#    z 0.061550 -0.014800 2.060210 
# 
# From -- ./inp_files/293601.got.cif
#   From: 2010.05.17/outbox.cif.g08.bks.cpg/sg2_147_cif.got.tgz:293601.got - 2010.06.03 11:33:40.
