data_PCOD9102667
_publ_section_title
;
Structure prediction by ZEFSAII (Michael W. Deem and Ramdas Pophale) SiO2 
 PCOD9102667
Probable space group: P -1
;
_chemical_formula_sum "Si O2"
_cell_formula_units_Z 14
_cell_length_a 10.943465
_cell_length_b 15.129618
_cell_length_c 7.496929
_cell_angle_alpha 60.499436
_cell_angle_beta 62.782596
_cell_angle_gamma 32.001343
_cell_volume 570.382570
_symmetry_space_group_name_H-M "P -1"
_symmetry_group_IT_number 2
_symmetry_cell_setting 'triclinic'
loop_
_space_group_symop_operation_xyz
x,y,z
-x,-y,-z
loop_
_atom_site_type_symbol
_atom_site_label
_atom_site_fract_x
_atom_site_fract_y
_atom_site_fract_z
Si Si1 0.037712 0.780485 0.942098
Si Si2 0.998644 0.625485 0.725061
Si Si3 0.179686 0.304828 0.856419
Si Si4 0.470816 0.655240 0.765105
Si Si5 0.646647 0.105156 0.670089
Si Si6 0.124902 0.710838 0.318475
Si Si7 0.494082 0.656634 0.170284
O O1 0.299146 0.660727 0.856112
O O2 0.888095 0.911473 0.749575
O O3 0.963606 0.708320 0.085468
O O4 0.001153 0.842739 0.107015
O O5 0.055568 0.486587 0.722394
O O6 0.946230 0.753453 0.512522
O O7 0.241225 0.514276 0.770120
O O8 0.816830 0.705199 0.919759
O O9 0.431947 0.155733 0.749856
O O10 0.362479 0.812045 0.569798
O O11 0.703618 0.478118 0.690455
O O12 0.494078 0.669588 0.943377
O O13 0.588148 0.201568 0.794409
O O14 0.306638 0.680135 0.315699
#
# Coordination Sequence:
#
# PCOD9102667 Si02
#       7
#     2   2   2   2   2   2   2
#     4  11  24  40  62  91 126 160 205 249 299 375
#     4  10  20  38  63  95 117 163 202 255 306 350
#     4  10  21  40  62  85 127 160 207 247 301 361
#     4  11  22  41  65  95 117 162 205 251 309 353
#     4  11  24  44  60  90 128 166 197 248 310 356
#     4  11  21  38  65  96 119 158 205 255 311 345
#     4  10  21  38  66  90 129 150 207 258 293 368
#
# _framework density 24.544929
#
# number of rings (size 3 to 8) (size 9 to 14) (size 15 to 20)
#    0.000    1.429    2.857    4.714    2.000    2.857 
#   10.286    0.714    0.000    0.000    0.000    0.000 
#    0.000    0.000    0.000    0.000    0.000    0.000 
#
# Total GULP energy -78246.042755 kJ/mol
# GULP energy per Si atom -5589.003054 kJ/mol
# Density = 2.448906 g / cm^3
# Si number density = 24.544929 Si / 1000 Ang^3
#
#
#
# Elastic Constant Matrix: (Units=GPa)
#
#
# Indices 1 2 3 4 5 6 
#
# 1 83.0989 9.8264 27.6537 -9.6489 -1.9928 -1.8558
# 2 9.8264 26.0384 16.8829 -9.0210 5.6390 -10.3521
# 3 27.6537 16.8829 127.1789 -6.9465 -15.8691 -15.9339
# 4 -9.6489 -9.0210 -6.9465 30.7311 -4.5590 9.6830
# 5 -1.9928 5.6390 -15.8691 -4.5590 30.4622 2.5841
# 6 -1.8558 -10.3521 -15.9339 9.6830 2.5841 16.7260
#
#
#
# Elastic Compliance Matrix: (Units=1/GPa)
#
#
# Indices 1 2 3 4 5 6 
#
# 1 0.014010 -0.005083 -0.002809 0.004843 0.001742 -0.007341
# 2 -0.005083 0.061369 -0.004720 0.002051 -0.016756 0.034324
# 3 -0.002809 -0.004720 0.010550 -0.001172 0.005446 0.006654
# 4 0.004843 0.002051 -0.001172 0.043751 0.008071 -0.025885
# 5 0.001742 -0.016756 0.005446 0.008071 0.041451 -0.016066
# 6 -0.007341 0.034324 0.006654 -0.025885 -0.016066 0.104023
#
#
# Mechanical properties :
#
#
# Convention : Reuss Voigt Hill
#
# Bulk Modulus (GPa) = 16.47352 38.33803 27.40578
# Shear Modulus (GPa) = 15.59507 27.71405 21.65456
#
# Velocity S-wave (km/s) = 2.52339 3.36388 2.97348
# Velocity P-wave (km/s) = 3.90078 5.54446 4.79360
#
# Compressibility (1/GPa) = 0.06070347
#
# Stress axis : x y z
#
# Youngs Moduli (GPa) = 71.37733 16.29483 94.79076
#
# Poissons Ratio (x) = 0.08283 0.26631
# Poissons Ratio (y) = 0.36284 0.44740
# Poissons Ratio (z) = 0.20053 0.07691
#
# Static dielectric constant tensor:
#      x y z
#    x 1.968780 0.064140 0.048640 
#    y 0.064140 2.002360 -0.002660 
#    z 0.048640 -0.002660 1.975840 
# 
# From -- ./inp_files/217270.got.cif
#   From: 2010.05.17/outbox.cif.g08.bks.cpg/sg2_109_cif.got.tgz:217270.got - 2010.06.03 11:33:40.
