data_PCOD9102263
_publ_section_title
;
Structure prediction by ZEFSAII (Michael W. Deem and Ramdas Pophale) SiO2 
 PCOD9102263
Probable space group: P -1
;
_chemical_formula_sum "Si O2"
_cell_formula_units_Z 14
_cell_length_a 5.749004
_cell_length_b 11.485283
_cell_length_c 18.981113
_cell_angle_alpha 146.797631
_cell_angle_beta 121.138068
_cell_angle_gamma 52.216828
_cell_volume 542.382831
_symmetry_space_group_name_H-M "P -1"
_symmetry_group_IT_number 2
_symmetry_cell_setting 'triclinic'
loop_
_space_group_symop_operation_xyz
x,y,z
-x,-y,-z
loop_
_atom_site_type_symbol
_atom_site_label
_atom_site_fract_x
_atom_site_fract_y
_atom_site_fract_z
Si Si1 0.720554 0.185989 0.133977
Si Si2 0.211685 0.146522 0.617911
Si Si3 0.274857 0.363699 0.888627
Si Si4 0.662367 0.486966 0.645642
Si Si5 0.803218 0.712979 0.674274
Si Si6 0.262350 0.218234 0.448060
Si Si7 0.676217 0.797508 0.034793
O O1 0.484243 0.403597 0.248507
O O2 0.030203 0.202356 0.198573
O O3 0.728609 0.974363 0.077350
O O4 0.620128 0.204721 0.047599
O O5 0.250092 0.239149 0.748721
O O6 0.011784 0.367861 0.653785
O O7 0.557600 0.989567 0.577596
O O8 0.000000 0.000000 0.500000
O O9 0.345765 0.184987 0.875101
O O10 0.500000 0.500000 0.000000
O O11 0.950317 0.558069 0.945826
O O12 0.554321 0.678170 0.664280
O O13 0.520209 0.306426 0.510957
O O14 0.811342 0.851013 0.675088
O O15 0.998532 0.444005 0.547449
#
# Coordination Sequence:
#
# PCOD9102263 Si02
#       7
#     2   2   2   2   2   2   2
#     4  10  22  40  63  91 126 166 215 256 323 380
#     4  10  22  42  64  93 130 166 211 261 322 379
#     4  11  25  44  69  97 128 167 220 261 318 384
#     4  10  20  38  62  89 127 165 209 268 316 374
#     4  10  21  37  62  92 124 164 215 263 315 381
#     4   9  21  39  56  91 128 161 215 264 315 379
#     4  10  24  44  63  92 131 169 206 272 318 375
#
# _framework density 25.812028000000002
#
# number of rings (size 3 to 8) (size 9 to 14) (size 15 to 20)
#    0.000    2.000    1.429    0.429    6.000    0.571 
#    5.143    2.857    0.000    0.000    0.000    0.000 
#    0.000    0.000    0.000    0.000    0.000    0.000 
#
# Total GULP energy -78026.253684 kJ/mol
# GULP energy per Si atom -5573.303835 kJ/mol
# Density = 2.575328 g / cm^3
# Si number density = 25.812028 Si / 1000 Ang^3
#
#
#
# Elastic Constant Matrix: (Units=GPa)
#
#
# Indices 1 2 3 4 5 6 
#
# 1 20.8120 17.2877 10.6802 -11.8084 -1.1933 6.0640
# 2 17.2877 126.1165 33.0987 -25.9666 5.6881 5.3606
# 3 10.6802 33.0987 104.4125 -35.5169 4.1402 6.0730
# 4 -11.8084 -25.9666 -35.5169 46.2349 0.5148 -13.6729
# 5 -1.1933 5.6881 4.1402 0.5148 33.1729 -0.7043
# 6 6.0640 5.3606 6.0730 -13.6729 -0.7043 39.5417
#
#
#
# Elastic Compliance Matrix: (Units=1/GPa)
#
#
# Indices 1 2 3 4 5 6 
#
# 1 0.060716 -0.005981 -0.000703 0.010146 0.003037 -0.004830
# 2 -0.005981 0.009814 -0.001395 0.003190 -0.001755 0.000873
# 3 -0.000703 -0.001395 0.013403 0.009826 -0.001577 0.001608
# 4 0.010146 0.003190 0.009826 0.036242 -0.001780 0.009003
# 5 0.003037 -0.001755 -0.001577 -0.001780 0.030779 -0.000053
# 6 -0.004830 0.000873 0.001608 0.009003 -0.000053 0.028777
#
#
# Mechanical properties :
#
#
# Convention : Reuss Voigt Hill
#
# Bulk Modulus (GPa) = 14.75479 41.49713 28.12596
# Shear Modulus (GPa) = 22.88526 36.47484 29.68005
#
# Velocity S-wave (km/s) = 2.98083 3.76319 3.39463
# Velocity P-wave (km/s) = 4.19235 5.91555 5.12687
#
# Compressibility (1/GPa) = 0.06777460
#
# Stress axis : x y z
#
# Youngs Moduli (GPa) = 16.47005 101.89409 74.61012
#
# Poissons Ratio (x) = 0.60944 0.05245
# Poissons Ratio (y) = 0.09851 0.10411
# Poissons Ratio (z) = 0.01158 0.14217
#
# Static dielectric constant tensor:
#      x y z
#    x 2.032480 -0.028510 0.005900 
#    y -0.028510 2.190170 0.024780 
#    z 0.005900 0.024780 2.101900 
# 
# From -- ./inp_files/100400.got.cif
#   From: 2010.05.17/outbox.cif.g08.bks.cpg/sg2_51_cif.got.tgz:100400.got - 2010.06.03 11:33:40.
