data_PCOD9102723
_publ_section_title
;
Structure prediction by ZEFSAII (Michael W. Deem and Ramdas Pophale) SiO2 
 PCOD9102723
Probable space group: P -1
;
_chemical_formula_sum "Si O2"
_cell_formula_units_Z 14
_cell_length_a 9.012432
_cell_length_b 16.571031
_cell_length_c 6.692075
_cell_angle_alpha 99.115015
_cell_angle_beta 101.864324
_cell_angle_gamma 38.810077
_cell_volume 612.999635
_symmetry_space_group_name_H-M "P -1"
_symmetry_group_IT_number 2
_symmetry_cell_setting 'triclinic'
loop_
_space_group_symop_operation_xyz
x,y,z
-x,-y,-z
loop_
_atom_site_type_symbol
_atom_site_label
_atom_site_fract_x
_atom_site_fract_y
_atom_site_fract_z
Si Si1 0.499753 0.801808 0.521326
Si Si2 0.482823 0.475966 0.710398
Si Si3 0.792867 0.471291 0.021509
Si Si4 0.813640 0.185186 0.814851
Si Si5 0.330917 0.030201 0.795638
Si Si6 0.761356 0.754902 0.223625
Si Si7 0.490415 0.264253 0.075910
O O1 0.282109 0.851632 0.356607
O O2 0.723687 0.720084 0.403243
O O3 0.538449 0.727270 0.693041
O O4 0.442837 0.914399 0.640202
O O5 0.500000 0.500000 0.500000
O O6 0.572616 0.516980 0.872759
O O7 0.662919 0.325733 0.745387
O O8 0.231402 0.549970 0.765496
O O9 0.724226 0.593970 0.026004
O O10 0.017319 0.352888 0.905224
O O11 0.089452 0.090640 0.838694
O O12 0.730163 0.201221 0.024472
O O13 0.252113 0.143879 0.695891
O O14 0.500000 0.000000 0.000000
O O15 0.541372 0.813179 0.050830
#
# Coordination Sequence:
#
# PCOD9102723 Si02
#       7
#     2   2   2   2   2   2   2
#     4  11  24  43  66  94 134 174 221 267 325 391
#     4  10  20  38  64 100 132 170 212 264 328 392
#     4  10  21  38  64  95 136 167 214 268 322 393
#     4  10  23  44  67  96 134 167 222 272 323 392
#     4  12  24  47  68  94 128 178 222 276 327 377
#     4  11  23  43  63  96 135 169 219 275 321 387
#     4  10  22  42  66  99 129 174 213 266 336 393
#
# _framework density 22.838512999999999
#
# number of rings (size 3 to 8) (size 9 to 14) (size 15 to 20)
#    0.000    1.429    2.857    2.143    0.000    2.286 
#    5.143    0.000    0.000    0.000    0.000    0.000 
#    0.000    0.000    0.000    0.000    0.000    0.000 
#
# Total GULP energy -78122.821920 kJ/mol
# GULP energy per Si atom -5580.201566 kJ/mol
# Density = 2.278653 g / cm^3
# Si number density = 22.838513 Si / 1000 Ang^3
#
#
#
# Elastic Constant Matrix: (Units=GPa)
#
#
# Indices 1 2 3 4 5 6 
#
# 1 145.1719 51.5970 72.4462 8.2649 -27.3907 -6.9732
# 2 51.5970 74.1472 35.9106 26.2826 -13.6156 1.2722
# 3 72.4462 35.9106 131.0110 13.6829 -42.8995 -6.5408
# 4 8.2649 26.2826 13.6829 27.0140 3.5566 1.3654
# 5 -27.3907 -13.6156 -42.8995 3.5566 68.9422 16.1502
# 6 -6.9732 1.2722 -6.5408 1.3654 16.1502 40.6947
#
#
#
# Elastic Compliance Matrix: (Units=1/GPa)
#
#
# Indices 1 2 3 4 5 6 
#
# 1 0.012117 -0.008732 -0.005344 0.007544 -0.001008 0.001637
# 2 -0.008732 0.029769 0.001094 -0.027370 0.005308 -0.003439
# 3 -0.005344 0.001094 0.013248 -0.006995 0.007019 -0.001371
# 4 0.007544 -0.027370 -0.006995 0.066160 -0.010907 0.003133
# 5 -0.001008 0.005308 0.007019 -0.010907 0.021843 -0.007513
# 6 0.001637 -0.003439 -0.001371 0.003133 -0.007513 0.027617
#
#
# Mechanical properties :
#
#
# Convention : Reuss Voigt Hill
#
# Bulk Modulus (GPa) = 34.27983 74.47086 54.37534
# Shear Modulus (GPa) = 24.21996 40.02192 32.12094
#
# Velocity S-wave (km/s) = 3.26005 4.19069 3.75432
# Velocity P-wave (km/s) = 5.40488 7.48961 6.53097
#
# Compressibility (1/GPa) = 0.02917168
#
# Stress axis : x y z
#
# Youngs Moduli (GPa) = 82.52631 33.59231 75.48072
#
# Poissons Ratio (x) = 0.29332 0.40333
# Poissons Ratio (y) = 0.72059 -0.08256
# Poissons Ratio (z) = 0.44098 -0.03674
#
# Static dielectric constant tensor:
#      x y z
#    x 1.896410 0.024990 -0.061720 
#    y 0.024990 1.893490 -0.019040 
#    z -0.061720 -0.019040 1.929220 
# 
# From -- ./inp_files/48307.got.cif
#   From: 2010.05.17/outbox.cif.g08.bks.cpg/sg2_25_cif.got.tgz:48307.got - 2010.06.03 11:33:40.
