data_PCOD9102043
_publ_section_title
;
Structure prediction by ZEFSAII (Michael W. Deem and Ramdas Pophale) SiO2 
 PCOD9102043
Probable space group: P -1
;
_chemical_formula_sum "Si O2"
_cell_formula_units_Z 10
_cell_length_a 6.761493
_cell_length_b 11.740612
_cell_length_c 6.789654
_cell_angle_alpha 45.820537
_cell_angle_beta 119.108044
_cell_angle_gamma 105.428237
_cell_volume 335.424842
_symmetry_space_group_name_H-M "P -1"
_symmetry_group_IT_number 2
_symmetry_cell_setting 'triclinic'
loop_
_space_group_symop_operation_xyz
x,y,z
-x,-y,-z
loop_
_atom_site_type_symbol
_atom_site_label
_atom_site_fract_x
_atom_site_fract_y
_atom_site_fract_z
Si Si1 0.627336 0.566315 0.167213
Si Si2 0.569442 0.121415 0.670338
Si Si3 0.311169 0.835261 0.788379
Si Si4 0.893885 0.685541 0.679086
Si Si5 0.974249 0.271005 0.765099
O O1 0.787669 0.423894 0.512886
O O2 0.804835 0.695509 0.046356
O O3 0.500000 0.500000 0.000000
O O4 0.441567 0.659923 0.101587
O O5 0.639591 0.138738 0.452944
O O6 0.372058 0.259439 0.476722
O O7 0.445297 0.962392 0.810911
O O8 0.816731 0.128868 0.882978
O O9 0.940236 0.716960 0.432930
O O10 0.048621 0.808899 0.712371
O O11 0.000000 0.500000 0.000000
#
# Coordination Sequence:
#
# PCOD9102043 Si02
#       5
#     2   2   2   2   2
#     4  11  19  41  66  86 126 162 205 258 308 361
#     4  10  20  38  61  93 123 159 209 251 310 370
#     4  10  21  37  63  88 124 167 201 254 310 364
#     4  11  20  37  64  93 127 163 204 256 306 363
#     4  10  23  38  65  93 120 161 211 253 305 372
#
# _framework density 29.812933999999998
#
# number of rings (size 3 to 8) (size 9 to 14) (size 15 to 20)
#    0.000    1.600    4.000    3.000    0.000    0.800 
#    0.000   12.000    0.000    0.000    0.000    0.000 
#    0.000    0.000    0.000    0.000    0.000    0.000 
#
# Total GULP energy -56081.994568 kJ/mol
# GULP energy per Si atom -5608.199457 kJ/mol
# Density = 2.974508 g / cm^3
# Si number density = 29.812934 Si / 1000 Ang^3
#
#
#
# Elastic Constant Matrix: (Units=GPa)
#
#
# Indices 1 2 3 4 5 6 
#
# 1 245.5836 69.1244 54.2236 24.9030 4.4279 55.3129
# 2 69.1244 170.0812 46.4624 27.9026 16.5508 47.0659
# 3 54.2236 46.4624 89.2220 28.6639 10.6647 19.3159
# 4 24.9030 27.9026 28.6639 54.7016 12.2407 28.4880
# 5 4.4279 16.5508 10.6647 12.2407 69.7560 13.0837
# 6 55.3129 47.0659 19.3159 28.4880 13.0837 60.8025
#
#
#
# Elastic Compliance Matrix: (Units=1/GPa)
#
#
# Indices 1 2 3 4 5 6 
#
# 1 0.005748 -0.000595 -0.002702 0.001383 0.000835 -0.004738
# 2 -0.000595 0.008301 -0.002904 0.000278 -0.000606 -0.004962
# 3 -0.002702 -0.002904 0.016090 -0.007148 -0.000935 0.003145
# 4 0.001383 0.000278 -0.007148 0.027820 -0.001717 -0.011867
# 5 0.000835 -0.000606 -0.000935 -0.001717 0.015338 -0.002490
# 6 -0.004738 -0.004962 0.003145 -0.011867 -0.002490 0.029694
#
#
# Mechanical properties :
#
#
# Convention : Reuss Voigt Hill
#
# Bulk Modulus (GPa) = 56.37889 93.83419 75.10654
# Shear Modulus (GPa) = 41.21885 59.39045 50.30465
#
# Velocity S-wave (km/s) = 3.72234 4.46814 4.11218
# Velocity P-wave (km/s) = 6.11771 7.62638 6.91332
#
# Compressibility (1/GPa) = 0.01773714
#
# Stress axis : x y z
#
# Youngs Moduli (GPa) = 173.98290 120.46683 62.15222
#
# Poissons Ratio (x) = 0.07169 0.16792
# Poissons Ratio (y) = 0.10354 0.18048
# Poissons Ratio (z) = 0.47005 0.34981
#
# Static dielectric constant tensor:
#      x y z
#    x 2.240070 0.038130 -0.110290 
#    y 0.038130 2.396380 0.028380 
#    z -0.110290 0.028380 2.385490 
# 
# From -- ./inp_files/21513.got.cif
#   From: 2010.05.17/outbox.cif.g08.bks.cpg/sg2_11_cif.got.tgz:21513.got - 2010.06.03 11:33:40.
