data_PCOD9102323
_publ_section_title
;
Structure prediction by ZEFSAII (Michael W. Deem and Ramdas Pophale) SiO2 
 PCOD9102323
Probable space group: P -1
;
_chemical_formula_sum "Si O2"
_cell_formula_units_Z 12
_cell_length_a 8.811260
_cell_length_b 9.528898
_cell_length_c 11.827603
_cell_angle_alpha 88.862412
_cell_angle_beta 67.255275
_cell_angle_gamma 39.497411
_cell_volume 512.678532
_symmetry_space_group_name_H-M "P -1"
_symmetry_group_IT_number 2
_symmetry_cell_setting 'triclinic'
loop_
_space_group_symop_operation_xyz
x,y,z
-x,-y,-z
loop_
_atom_site_type_symbol
_atom_site_label
_atom_site_fract_x
_atom_site_fract_y
_atom_site_fract_z
Si Si1 0.025344 0.845769 0.201011
Si Si2 0.042472 0.148525 0.138578
Si Si3 0.933469 0.827170 0.607531
Si Si4 0.467895 0.077342 0.381877
Si Si5 0.104969 0.284913 0.917304
Si Si6 0.354657 0.671059 0.339578
O O1 0.090816 0.948285 0.125207
O O2 0.669055 0.074570 0.312890
O O3 0.116514 0.653366 0.095644
O O4 0.173742 0.740873 0.282167
O O5 0.696466 0.422123 0.218225
O O6 0.105333 0.155100 0.247389
O O7 0.209427 0.110425 0.991491
O O8 0.254477 0.649580 0.475927
O O9 0.853157 0.737202 0.572536
O O10 0.746119 0.096518 0.617395
O O11 0.649107 0.854671 0.242995
O O12 0.500000 0.000000 0.500000
O O13 0.000000 0.500000 0.000000
#
# Coordination Sequence:
#
# PCOD9102323 Si02
#       6
#     2   2   2   2   2   2
#     4   9  22  41  64  88 125 165 207 257 307 362
#     4  11  22  39  61  98 121 162 213 253 312 377
#     4  10  20  38  62  91 129 166 204 260 307 368
#     4  10  20  41  65  87 125 169 205 254 311 366
#     4  10  22  41  65  93 126 165 206 259 315 369
#     4  10  20  38  63  90 127 167 207 255 309 368
#
# _framework density 23.406479999999998
#
# number of rings (size 3 to 8) (size 9 to 14) (size 15 to 20)
#    1.000    1.000    1.667    2.000    0.000    1.333 
#    6.000    0.833    0.000    0.000    0.000    0.000 
#    0.000    0.000    0.000    0.000    0.000    0.000 
#
# Total GULP energy -66920.720756 kJ/mol
# GULP energy per Si atom -5576.726730 kJ/mol
# Density = 2.335321 g / cm^3
# Si number density = 23.406480 Si / 1000 Ang^3
#
#
#
# Elastic Constant Matrix: (Units=GPa)
#
#
# Indices 1 2 3 4 5 6 
#
# 1 136.0805 35.9615 30.8677 -15.9756 23.4341 13.5460
# 2 35.9615 32.9620 17.7492 8.0422 14.4568 15.6197
# 3 30.8677 17.7492 137.8043 -22.9405 7.4855 20.8133
# 4 -15.9756 8.0422 -22.9405 31.6848 -1.7131 -0.2110
# 5 23.4341 14.4568 7.4855 -1.7131 29.8445 5.0880
# 6 13.5460 15.6197 20.8133 -0.2110 5.0880 30.2369
#
#
#
# Elastic Compliance Matrix: (Units=1/GPa)
#
#
# Indices 1 2 3 4 5 6 
#
# 1 0.013663 -0.019710 0.001112 0.012647 -0.001349 0.003611
# 2 -0.019710 0.089719 -0.008308 -0.040178 -0.023410 -0.028140
# 3 0.001112 -0.008308 0.010186 0.010117 0.001765 -0.003444
# 4 0.012647 -0.040178 0.010117 0.055994 0.009015 0.006999
# 5 -0.001349 -0.023410 0.001765 0.009015 0.045312 0.003921
# 6 0.003611 -0.028140 -0.003444 0.006999 0.003921 0.047751
#
#
# Mechanical properties :
#
#
# Convention : Reuss Voigt Hill
#
# Bulk Modulus (GPa) = 16.73461 52.88929 34.81195
# Shear Modulus (GPa) = 14.86516 33.17113 24.01814
#
# Velocity S-wave (km/s) = 2.52283 3.76863 3.20681
# Velocity P-wave (km/s) = 3.95617 6.44839 5.34944
#
# Compressibility (1/GPa) = 0.05975640
#
# Stress axis : x y z
#
# Youngs Moduli (GPa) = 73.19185 11.14586 98.17181
#
# Poissons Ratio (x) = 0.21968 -0.10912
# Poissons Ratio (y) = 1.44259 0.81559
# Poissons Ratio (z) = -0.08136 0.09260
#
# Static dielectric constant tensor:
#      x y z
#    x 2.017060 -0.045670 -0.054390 
#    y -0.045670 1.891120 0.052790 
#    z -0.054390 0.052790 1.900010 
# 
# From -- ./inp_files/60181.got.cif
#   From: 2010.05.17/outbox.cif.g08.bks.cpg/sg2_31_cif.got.tgz:60181.got - 2010.06.03 11:33:40.
