data_PCOD9102909
_publ_section_title
;
Structure prediction by ZEFSAII (Michael W. Deem and Ramdas Pophale) SiO2 
 PCOD9102909
Probable space group: P -1
;
_chemical_formula_sum "Si O2"
_cell_formula_units_Z 14
_cell_length_a 7.351700
_cell_length_b 5.580533
_cell_length_c 19.274355
_cell_angle_alpha 64.221394
_cell_angle_beta 124.254126
_cell_angle_gamma 121.697162
_cell_volume 545.112656
_symmetry_space_group_name_H-M "P -1"
_symmetry_group_IT_number 2
_symmetry_cell_setting 'triclinic'
loop_
_space_group_symop_operation_xyz
x,y,z
-x,-y,-z
loop_
_atom_site_type_symbol
_atom_site_label
_atom_site_fract_x
_atom_site_fract_y
_atom_site_fract_z
Si Si1 0.192540 0.267561 0.681408
Si Si2 0.441681 0.704413 0.138666
Si Si3 0.579858 0.112346 0.392807
Si Si4 0.782310 0.815143 0.577901
Si Si5 0.609074 0.733144 0.929468
Si Si6 0.161935 0.727475 0.284514
Si Si7 0.005245 0.684807 0.106699
O O1 0.446533 0.297974 0.761425
O O2 0.030211 0.191249 0.724909
O O3 0.225497 0.576467 0.619466
O O4 0.049484 0.028114 0.626449
O O5 0.509022 0.514719 0.121047
O O6 0.155991 0.568988 0.101968
O O7 0.507368 0.044098 0.095602
O O8 0.697238 0.903724 0.476865
O O9 0.415128 0.990716 0.305430
O O10 0.397434 0.145893 0.407496
O O11 0.780732 0.501043 0.626749
O O12 0.836893 0.973007 0.907248
O O13 0.742490 0.625147 0.031506
O O14 0.045641 0.597544 0.203484
#
# Coordination Sequence:
#
# PCOD9102909 Si02
#       7
#     2   2   2   2   2   2   2
#     4  11  24  38  64  95 133 170 220 269 333 394
#     4  10  20  38  64  92 129 170 220 266 328 388
#     4  10  22  43  64  89 130 174 218 267 336 390
#     4  10  23  41  63  94 128 170 220 274 325 400
#     4   9  20  37  67  94 124 178 222 266 329 394
#     4  11  23  39  63  99 126 169 218 276 326 398
#     4   9  20  36  63  91 130 168 221 269 328 391
#
# _framework density 25.682767999999999
#
# number of rings (size 3 to 8) (size 9 to 14) (size 15 to 20)
#    0.857    1.143    0.000    3.000    2.000    2.857 
#    0.000    1.429    0.000    0.000    0.000    0.000 
#    0.000    0.000    0.000    0.000    0.000    0.000 
#
# Total GULP energy -78269.206637 kJ/mol
# GULP energy per Si atom -5590.657617 kJ/mol
# Density = 2.562431 g / cm^3
# Si number density = 25.682768 Si / 1000 Ang^3
#
#
#
# Elastic Constant Matrix: (Units=GPa)
#
#
# Indices 1 2 3 4 5 6 
#
# 1 61.9951 0.9435 5.9581 15.0277 1.1941 -10.9495
# 2 0.9435 107.4651 9.4784 14.5053 2.3885 -2.6958
# 3 5.9581 9.4784 96.7214 13.1277 12.0525 3.6221
# 4 15.0277 14.5053 13.1277 40.0536 4.2600 3.9238
# 5 1.1941 2.3885 12.0525 4.2600 34.2980 -0.8456
# 6 -10.9495 -2.6958 3.6221 3.9238 -0.8456 24.8826
#
#
#
# Elastic Compliance Matrix: (Units=1/GPa)
#
#
# Indices 1 2 3 4 5 6 
#
# 1 0.020199 0.001338 -0.000654 -0.008970 0.000808 0.010570
# 2 0.001338 0.009967 -0.000590 -0.004159 0.000043 0.002412
# 3 -0.000654 -0.000590 0.011318 -0.002699 -0.003620 -0.001697
# 4 -0.008970 -0.004159 -0.002699 0.031897 -0.002636 -0.009124
# 5 0.000808 0.000043 -0.003620 -0.002636 0.030783 0.002349
# 6 0.010570 0.002412 -0.001697 -0.009124 0.002349 0.046867
#
#
# Mechanical properties :
#
#
# Convention : Reuss Voigt Hill
#
# Bulk Modulus (GPa) = 23.99797 33.21572 28.60684
# Shear Modulus (GPa) = 30.35216 36.50027 33.42622
#
# Velocity S-wave (km/s) = 3.44148 3.77397 3.61155
# Velocity P-wave (km/s) = 5.01557 5.65257 5.34357
#
# Compressibility (1/GPa) = 0.04167020
#
# Stress axis : x y z
#
# Youngs Moduli (GPa) = 49.50853 100.33557 88.35407
#
# Poissons Ratio (x) = -0.13428 0.05783
# Poissons Ratio (y) = -0.06626 0.05216
# Poissons Ratio (z) = 0.03240 0.05923
#
# Static dielectric constant tensor:
#      x y z
#    x 2.077050 0.065110 0.010950 
#    y 0.065110 1.973530 -0.046370 
#    z 0.010950 -0.046370 2.006960 
# 
# From -- ./inp_files/585135.got.cif
#   From: 2010.05.17/outbox.cif.g08.bks.cpg/sg2_293_cif.got.tgz:585135.got - 2010.06.03 11:33:40.
