data_PCOD9102645
_publ_section_title
;
Structure prediction by ZEFSAII (Michael W. Deem and Ramdas Pophale) SiO2 
 PCOD9102645
Probable space group: P -1
;
_chemical_formula_sum "Si O2"
_cell_formula_units_Z 14
_cell_length_a 17.838018
_cell_length_b 8.327670
_cell_length_c 6.681013
_cell_angle_alpha 119.341086
_cell_angle_beta 117.123777
_cell_angle_gamma 45.468870
_cell_volume 606.585549
_symmetry_space_group_name_H-M "P -1"
_symmetry_group_IT_number 2
_symmetry_cell_setting 'triclinic'
loop_
_space_group_symop_operation_xyz
x,y,z
-x,-y,-z
loop_
_atom_site_type_symbol
_atom_site_label
_atom_site_fract_x
_atom_site_fract_y
_atom_site_fract_z
Si Si1 0.364844 0.020626 0.637206
Si Si2 0.218200 0.546163 0.947408
Si Si3 0.882435 0.231584 0.440081
Si Si4 0.115584 0.435889 0.083239
Si Si5 0.559960 0.234097 0.802503
Si Si6 0.259904 0.915446 0.759300
Si Si7 0.559051 0.614130 0.866937
O O1 0.292225 0.286804 0.781255
O O2 0.300671 0.938006 0.611436
O O3 0.382939 0.990922 0.404218
O O4 0.481599 0.839561 0.771810
O O5 0.144264 0.738861 0.809291
O O6 0.141551 0.556576 0.022502
O O7 0.317040 0.539115 0.134642
O O8 0.867152 0.463042 0.635763
O O9 0.798438 0.199018 0.407018
O O10 0.000000 0.000000 0.500000
O O11 0.186456 0.168864 0.932483
O O12 0.000000 0.500000 0.000000
O O13 0.529238 0.437332 0.734215
O O14 0.469386 0.286266 0.875928
O O15 0.643847 0.216225 0.044486
#
# Coordination Sequence:
#
# PCOD9102645 Si02
#       7
#     2   2   2   2   2   2   2
#     4  10  22  39  66  95 129 177 204 262 329 384
#     4  11  25  43  65  97 130 168 222 267 321 391
#     4  12  25  44  69  95 126 176 221 271 326 386
#     4  11  25  46  65  94 131 169 219 280 321 379
#     4  10  20  38  63  93 135 168 207 264 318 385
#     4  10  22  43  63  96 134 165 221 265 319 388
#     4  10  21  37  62  98 132 164 216 260 314 397
#
# _framework density 23.080010000000001
#
# number of rings (size 3 to 8) (size 9 to 14) (size 15 to 20)
#    0.000    1.429    2.857    1.714    2.000    2.857 
#    2.571    0.000    0.000    0.000    0.000    0.000 
#    0.000    0.000    0.000    0.000    0.000    0.000 
#
# Total GULP energy -78106.885066 kJ/mol
# GULP energy per Si atom -5579.063219 kJ/mol
# Density = 2.302748 g / cm^3
# Si number density = 23.080010 Si / 1000 Ang^3
#
#
#
# Elastic Constant Matrix: (Units=GPa)
#
#
# Indices 1 2 3 4 5 6 
#
# 1 139.9670 15.9534 30.2518 -17.4371 9.7641 -13.2180
# 2 15.9534 74.1836 8.6452 -13.7990 3.2520 -16.2036
# 3 30.2518 8.6452 59.6229 15.9458 5.8764 -13.7611
# 4 -17.4371 -13.7990 15.9458 42.1252 -1.4449 5.0388
# 5 9.7641 3.2520 5.8764 -1.4449 37.7569 7.9081
# 6 -13.2180 -16.2036 -13.7611 5.0388 7.9081 28.7570
#
#
#
# Elastic Compliance Matrix: (Units=1/GPa)
#
#
# Indices 1 2 3 4 5 6 
#
# 1 0.009375 0.000044 -0.006068 0.006053 -0.001411 0.000758
# 2 0.000044 0.016541 -0.001473 0.004874 -0.002812 0.008555
# 3 -0.006068 -0.001473 0.028152 -0.015578 -0.006278 0.014308
# 4 0.006053 0.004874 -0.015578 0.034947 0.003674 -0.009059
# 5 -0.001411 -0.002812 -0.006278 0.003674 0.031241 -0.014472
# 6 0.000758 0.008555 0.014308 -0.009059 -0.014472 0.052357
#
#
# Mechanical properties :
#
#
# Convention : Reuss Voigt Hill
#
# Bulk Modulus (GPa) = 25.59214 42.60826 34.10020
# Shear Modulus (GPa) = 24.92127 36.32270 30.62199
#
# Velocity S-wave (km/s) = 3.28956 3.97138 3.64644
# Velocity P-wave (km/s) = 5.05379 6.28732 5.70400
#
# Compressibility (1/GPa) = 0.03907450
#
# Stress axis : x y z
#
# Youngs Moduli (GPa) = 106.66514 60.45670 35.52157
#
# Poissons Ratio (x) = -0.00268 0.21555
# Poissons Ratio (y) = -0.00473 0.05232
# Poissons Ratio (z) = 0.64726 0.08904
#
# Static dielectric constant tensor:
#      x y z
#    x 1.864370 -0.001370 0.004480 
#    y -0.001370 1.960500 0.043620 
#    z 0.004480 0.043620 1.919100 
# 
# From -- ./inp_files/45528.got.cif
#   From: 2010.05.17/outbox.cif.g08.bks.cpg/sg2_23_cif.got.tgz:45528.got - 2010.06.03 11:33:40.
