data_PCOD9102381
_publ_section_title
;
Structure prediction by ZEFSAII (Michael W. Deem and Ramdas Pophale) SiO2 
 PCOD9102381
Probable space group: P -1
;
_chemical_formula_sum "Si O2"
_cell_formula_units_Z 15
_cell_length_a 13.490505
_cell_length_b 13.318484
_cell_length_c 9.625425
_cell_angle_alpha 97.318233
_cell_angle_beta 131.585170
_cell_angle_gamma 122.376978
_cell_volume 704.494385
_symmetry_space_group_name_H-M "P -1"
_symmetry_group_IT_number 2
_symmetry_cell_setting 'triclinic'
loop_
_space_group_symop_operation_xyz
x,y,z
-x,-y,-z
loop_
_atom_site_type_symbol
_atom_site_label
_atom_site_fract_x
_atom_site_fract_y
_atom_site_fract_z
Si Si1 0.103749 0.301363 0.324333
Si Si2 0.000000 0.500000 0.000000
Si Si3 0.717750 0.526981 0.775749
Si Si4 0.195530 0.138981 0.328954
Si Si5 0.193027 0.308432 0.837543
Si Si6 0.341566 0.859437 0.199631
Si Si7 0.671485 0.941363 0.328870
Si Si8 0.439906 0.614547 0.911879
O O1 0.248561 0.407362 0.333994
O O2 0.129538 0.199354 0.362973
O O3 0.232910 0.458348 0.580229
O O4 0.831420 0.162290 0.020710
O O5 0.098699 0.449617 0.040504
O O6 0.171297 0.661715 0.065390
O O7 0.451814 0.317062 0.523004
O O8 0.781233 0.652143 0.969339
O O9 0.230613 0.071218 0.459984
O O10 0.000000 0.000000 0.000000
O O11 0.347162 0.494384 0.938952
O O12 0.319470 0.285662 0.905245
O O13 0.911671 0.132485 0.508932
O O14 0.518835 0.930703 0.259192
O O15 0.500000 0.000000 0.500000
O O16 0.502631 0.767519 0.040507
#
# Coordination Sequence:
#
# PCOD9102381 Si02
#       8
#     2   1   2   2   2   2   2   2
#     4  11  25  40  65  97 132 167 212 274 326 374
#     4  10  20  38  62  94 124 170 204 254 328 382
#     4  11  21  41  65  93 131 167 213 273 322 378
#     4  12  22  37  64  99 127 162 217 273 316 373
#     4  11  22  43  66  92 129 175 217 264 327 383
#     4  11  23  43  65  96 131 171 214 265 323 386
#     4  12  24  42  69  93 128 180 216 258 327 395
#     4  11  23  43  63  94 135 167 217 267 324 389
#
# _framework density 21.291867
#
# number of rings (size 3 to 8) (size 9 to 14) (size 15 to 20)
#    0.000    0.800    4.000    4.800    1.867    0.533 
#    0.000    0.667    0.000    0.000    0.000    0.000 
#    0.000    0.000    0.000    0.000    0.000    0.000 
#
# Total GULP energy -83651.269959 kJ/mol
# GULP energy per Si atom -5576.751331 kJ/mol
# Density = 2.124341 g / cm^3
# Si number density = 21.291867 Si / 1000 Ang^3
#
#
#
# Elastic Constant Matrix: (Units=GPa)
#
#
# Indices 1 2 3 4 5 6 
#
# 1 135.5780 7.5300 53.7388 10.2969 12.6958 2.3281
# 2 7.5300 29.1371 -8.5696 0.3057 11.0492 -2.2963
# 3 53.7388 -8.5696 114.1349 8.4993 -9.8660 10.3269
# 4 10.2969 0.3057 8.4993 29.2844 3.8858 0.1316
# 5 12.6958 11.0492 -9.8660 3.8858 45.5918 0.6215
# 6 2.3281 -2.2963 10.3269 0.1316 0.6215 11.0941
#
#
#
# Elastic Compliance Matrix: (Units=1/GPa)
#
#
# Indices 1 2 3 4 5 6 
#
# 1 0.009997 -0.002728 -0.005294 -0.001541 -0.003171 0.002461
# 2 -0.002728 0.039549 0.002881 0.000790 -0.008358 0.006535
# 3 -0.005294 0.002881 0.012941 -0.002398 0.003924 -0.010530
# 4 -0.001541 0.000790 -0.002398 0.035813 -0.003367 0.002483
# 5 -0.003171 -0.008358 0.003924 -0.003367 0.026062 -0.006138
# 6 0.002461 0.006535 -0.010530 0.002483 -0.006138 0.101091
#
#
# Mechanical properties :
#
#
# Convention : Reuss Voigt Hill
#
# Bulk Modulus (GPa) = 19.15488 42.69427 30.92458
# Shear Modulus (GPa) = 19.75216 32.27078 26.01147
#
# Velocity S-wave (km/s) = 3.04910 3.89734 3.49902
# Velocity P-wave (km/s) = 4.62730 6.35199 5.55696
#
# Compressibility (1/GPa) = 0.05220601
#
# Stress axis : x y z
#
# Youngs Moduli (GPa) = 100.02627 25.28498 77.27349
#
# Poissons Ratio (x) = 0.06898 0.40908
# Poissons Ratio (y) = 0.27290 -0.22266
# Poissons Ratio (z) = 0.52954 -0.07286
#
# Static dielectric constant tensor:
#      x y z
#    x 1.752610 0.004600 0.000560 
#    y 0.004600 1.776520 -0.000390 
#    z 0.000560 -0.000390 1.802130 
# 
# From -- ./inp_files/273884.got.cif
#   From: 2010.05.17/outbox.cif.g08.bks.cpg/sg2_137_cif.got.tgz:273884.got - 2010.06.03 11:33:40.
