data_PCOD9102116
_publ_section_title
;
Structure prediction by ZEFSAII (Michael W. Deem and Ramdas Pophale) SiO2 
 PCOD9102116
Probable space group: P -1
;
_chemical_formula_sum "Si O2"
_cell_formula_units_Z 16
_cell_length_a 14.184971
_cell_length_b 11.710891
_cell_length_c 8.105186
_cell_angle_alpha 95.268211
_cell_angle_beta 83.656755
_cell_angle_gamma 34.352175
_cell_volume 713.759039
_symmetry_space_group_name_H-M "P -1"
_symmetry_group_IT_number 2
_symmetry_cell_setting 'triclinic'
loop_
_space_group_symop_operation_xyz
x,y,z
-x,-y,-z
loop_
_atom_site_type_symbol
_atom_site_label
_atom_site_fract_x
_atom_site_fract_y
_atom_site_fract_z
Si Si1 0.191603 0.981865 0.923435
Si Si2 0.704403 0.793680 0.461666
Si Si3 0.491600 0.248160 0.968422
Si Si4 0.295672 0.664049 0.069260
Si Si5 0.775115 0.628867 0.797914
Si Si6 0.190941 0.092297 0.394946
Si Si7 0.020356 0.822333 0.332852
Si Si8 0.001294 0.608826 0.830174
O O1 0.061424 0.220017 0.028091
O O2 0.389303 0.827318 0.908441
O O3 0.186741 0.871212 0.019798
O O4 0.124627 0.015144 0.761741
O O5 0.738495 0.712092 0.630683
O O6 0.769774 0.858838 0.459939
O O7 0.798242 0.630676 0.272745
O O8 0.500000 0.000000 0.500000
O O9 0.632694 0.098360 0.774030
O O10 0.336821 0.493505 0.973389
O O11 0.399758 0.227543 0.048196
O O12 0.179174 0.750596 0.264740
O O13 0.500000 0.500000 0.000000
O O14 0.885385 0.611967 0.874679
O O15 0.883829 0.399833 0.726432
O O16 0.099924 0.068658 0.467542
O O17 0.053281 0.294115 0.329380
#
# Coordination Sequence:
#
# PCOD9102116 Si02
#       8
#     2   2   2   2   2   2   2   2
#     4  10  22  36  62  89 117 155 201 247 288 357
#     4  11  22  35  58  87 131 152 196 250 292 353
#     4   9  21  38  64  86 122 155 203 244 292 356
#     4   9  20  42  61  87 118 156 201 249 299 352
#     4  10  20  38  62  84 120 168 193 237 303 351
#     4  10  20  39  57  90 119 161 194 241 302 348
#     4  11  20  37  66  84 118 158 202 247 298 348
#     4  10  20  40  58  84 126 157 201 235 295 367
#
# _framework density 22.416529000000001
#
# number of rings (size 3 to 8) (size 9 to 14) (size 15 to 20)
#    0.000    2.000    2.500    1.125    1.750    7.000 
#    0.000    6.250    0.000    0.000    0.000    0.000 
#    0.000    0.000    0.000    0.000    0.000    0.000 
#
# Total GULP energy -89136.265560 kJ/mol
# GULP energy per Si atom -5571.016597 kJ/mol
# Density = 2.236551 g / cm^3
# Si number density = 22.416529 Si / 1000 Ang^3
#
#
#
# Elastic Constant Matrix: (Units=GPa)
#
#
# Indices 1 2 3 4 5 6 
#
# 1 80.7230 39.0797 43.8272 4.0388 -37.5515 2.4591
# 2 39.0797 74.0316 24.4339 14.0408 -8.8459 13.9272
# 3 43.8272 24.4339 94.7621 16.7314 -47.1010 0.9542
# 4 4.0388 14.0408 16.7314 32.4349 -4.6494 0.2954
# 5 -37.5515 -8.8459 -47.1010 -4.6494 49.2209 2.5791
# 6 2.4591 13.9272 0.9542 0.2954 2.5791 33.7037
#
#
#
# Elastic Compliance Matrix: (Units=1/GPa)
#
#
# Indices 1 2 3 4 5 6 
#
# 1 0.027530 -0.013402 -0.001624 0.005695 0.017464 0.002189
# 2 -0.013402 0.023481 -0.002832 -0.008265 -0.009082 -0.007878
# 3 -0.001624 -0.002832 0.023258 -0.007720 0.019821 -0.000819
# 4 0.005695 -0.008265 -0.007720 0.037491 -0.001143 0.002977
# 5 0.017464 -0.009082 0.019821 -0.001143 0.050971 -0.001973
# 6 0.002189 -0.007878 -0.000819 0.002977 -0.001973 0.032914
#
#
# Mechanical properties :
#
#
# Convention : Reuss Voigt Hill
#
# Bulk Modulus (GPa) = 25.93819 51.57760 38.75790
# Shear Modulus (GPa) = 20.47397 32.55030 26.51213
#
# Velocity S-wave (km/s) = 3.02543 3.81473 3.44278
# Velocity P-wave (km/s) = 4.87857 6.51626 5.75596
#
# Compressibility (1/GPa) = 0.03855319
#
# Stress axis : x y z
#
# Youngs Moduli (GPa) = 36.32356 42.58720 42.99634
#
# Poissons Ratio (x) = 0.57074 0.06985
# Poissons Ratio (y) = 0.48680 0.12176
# Poissons Ratio (z) = 0.05901 0.12060
#
# Static dielectric constant tensor:
#      x y z
#    x 1.911720 0.022200 -0.022990 
#    y 0.022200 1.846180 0.025410 
#    z -0.022990 0.025410 1.911040 
# 
# From -- ./inp_files/280876.got.cif
#   From: 2010.05.17/outbox.cif.g08.bks.cpg/sg2_141_cif.got.tgz:280876.got - 2010.06.03 11:33:40.
