data_PCOD9102148
_publ_section_title
;
Structure prediction by ZEFSAII (Michael W. Deem and Ramdas Pophale) SiO2 
 PCOD9102148
Probable space group: P -1
;
_chemical_formula_sum "Si O2"
_cell_formula_units_Z 16
_cell_length_a 22.903665
_cell_length_b 11.046351
_cell_length_c 11.744170
_cell_angle_alpha 45.875338
_cell_angle_beta 22.534440
_cell_angle_gamma 45.018488
_cell_volume 795.105288
_symmetry_space_group_name_H-M "P -1"
_symmetry_group_IT_number 2
_symmetry_cell_setting 'triclinic'
loop_
_space_group_symop_operation_xyz
x,y,z
-x,-y,-z
loop_
_atom_site_type_symbol
_atom_site_label
_atom_site_fract_x
_atom_site_fract_y
_atom_site_fract_z
Si Si1 0.776358 0.724032 0.751767
Si Si2 0.184091 0.985989 0.670812
Si Si3 0.602986 0.303569 0.945319
Si Si4 0.074978 0.612122 0.442459
Si Si5 0.875133 0.460686 0.338554
Si Si6 0.324938 0.830084 0.842231
Si Si7 0.669562 0.841177 0.498769
Si Si8 0.455284 0.704957 0.448632
O O1 0.793061 0.905261 0.551588
O O2 0.819456 0.567985 0.682168
O O3 0.907036 0.657106 0.656000
O O4 0.601772 0.755385 0.092405
O O5 0.247297 0.085101 0.595778
O O6 0.295181 0.794248 0.611800
O O7 0.000000 0.000000 0.000000
O O8 0.771670 0.321978 0.582922
O O9 0.500000 0.500000 0.000000
O O10 0.618458 0.245235 0.087694
O O11 0.507362 0.175057 0.144697
O O12 0.059601 0.593900 0.617243
O O13 0.166075 0.763414 0.152715
O O14 0.758642 0.647217 0.440523
O O15 0.000000 0.500000 0.000000
O O16 0.433313 0.758867 0.585277
O O17 0.314321 0.034309 0.717444
O O18 0.500000 0.500000 0.500000
#
# Coordination Sequence:
#
# PCOD9102148 Si02
#       8
#     2   2   2   2   2   2   2   2
#     4  11  21  38  61  90 131 162 212 258 317 376
#     4  11  24  42  64  91 131 174 209 255 328 385
#     4   9  20  37  61  86 116 162 205 255 319 373
#     4  10  21  38  63  89 125 173 201 259 328 377
#     4  10  21  40  63  93 120 163 219 260 311 378
#     4  10  20  39  60  87 123 164 209 254 326 381
#     4  10  20  38  62  86 122 164 206 260 318 383
#     4  11  23  37  62  98 126 160 216 265 307 381
#
# _framework density 20.123121000000001
#
# number of rings (size 3 to 8) (size 9 to 14) (size 15 to 20)
#    0.000    1.750    2.500    2.250    1.750    2.000 
#    0.000    8.750    0.000    0.000    0.000    0.000 
#    0.000    0.000    0.000    0.000    0.000    0.000 
#
# Total GULP energy -89232.169529 kJ/mol
# GULP energy per Si atom -5577.010596 kJ/mol
# Density = 2.007732 g / cm^3
# Si number density = 20.123121 Si / 1000 Ang^3
#
#
#
# Elastic Constant Matrix: (Units=GPa)
#
#
# Indices 1 2 3 4 5 6 
#
# 1 71.3272 21.3182 66.1674 -3.7903 -12.7352 -12.4317
# 2 21.3182 86.2333 29.6351 -13.9963 -7.7416 -26.8732
# 3 66.1674 29.6351 170.6841 -10.7702 -3.4138 -15.6369
# 4 -3.7903 -13.9963 -10.7702 36.0039 -3.2529 1.5572
# 5 -12.7352 -7.7416 -3.4138 -3.2529 34.1755 -7.0715
# 6 -12.4317 -26.8732 -15.6369 1.5572 -7.0715 28.9286
#
#
#
# Elastic Compliance Matrix: (Units=1/GPa)
#
#
# Indices 1 2 3 4 5 6 
#
# 1 0.025796 0.000864 -0.008985 0.000940 0.011002 0.009671
# 2 0.000864 0.020347 -0.001310 0.007603 0.009775 0.020545
# 3 -0.008985 -0.001310 0.009529 0.001178 -0.002717 -0.000655
# 4 0.000940 0.007603 0.001178 0.031452 0.006857 0.008087
# 5 0.011002 0.009775 -0.002717 0.006857 0.040481 0.021866
# 6 0.009671 0.020545 -0.000655 0.008087 0.021866 0.062365
#
#
# Mechanical properties :
#
#
# Convention : Reuss Voigt Hill
#
# Bulk Modulus (GPa) = 27.16571 62.49844 44.83207
# Shear Modulus (GPa) = 22.61394 33.89651 28.25523
#
# Velocity S-wave (km/s) = 3.35592 4.10867 3.75122
# Velocity P-wave (km/s) = 5.34278 7.32350 6.41011
#
# Compressibility (1/GPa) = 0.03681111
#
# Stress axis : x y z
#
# Youngs Moduli (GPa) = 38.76523 49.14659 104.93808
#
# Poissons Ratio (x) = -0.04249 0.94287
# Poissons Ratio (y) = -0.03351 0.13751
# Poissons Ratio (z) = 0.34831 0.06440
#
# Static dielectric constant tensor:
#      x y z
#    x 1.732530 0.012440 -0.029840 
#    y 0.012440 1.755000 -0.027000 
#    z -0.029840 -0.027000 1.735470 
# 
# From -- ./inp_files/381694.got.cif
#   From: 2010.05.17/outbox.cif.g08.bks.cpg/sg2_191_cif.got.tgz:381694.got - 2010.06.03 11:33:40.
