data_PCOD9102267
_publ_section_title
;
Structure prediction by ZEFSAII (Michael W. Deem and Ramdas Pophale) SiO2 
 PCOD9102267
Probable space group: P -1
;
_chemical_formula_sum "Si O2"
_cell_formula_units_Z 12
_cell_length_a 10.258404
_cell_length_b 8.032152
_cell_length_c 7.309719
_cell_angle_alpha 58.114227
_cell_angle_beta 78.560663
_cell_angle_gamma 81.200504
_cell_volume 500.413137
_symmetry_space_group_name_H-M "P -1"
_symmetry_group_IT_number 2
_symmetry_cell_setting 'triclinic'
loop_
_space_group_symop_operation_xyz
x,y,z
-x,-y,-z
loop_
_atom_site_type_symbol
_atom_site_label
_atom_site_fract_x
_atom_site_fract_y
_atom_site_fract_z
Si Si1 0.923443 0.211584 0.897416
Si Si2 0.782009 0.541282 0.894263
Si Si3 0.846746 0.961390 0.549966
Si Si4 0.188416 0.306493 0.593812
Si Si5 0.602809 0.702548 0.132768
Si Si6 0.331504 0.858494 0.233508
O O1 0.878042 0.347296 0.004521
O O2 0.786183 0.163066 0.865173
O O3 0.037140 0.331109 0.693295
O O4 0.000000 0.000000 0.000000
O O5 0.838439 0.756366 0.787353
O O6 0.773249 0.555960 0.666166
O O7 0.649031 0.552119 0.045831
O O8 0.803063 0.902851 0.393137
O O9 0.748595 0.132098 0.559150
O O10 0.000000 0.000000 0.500000
O O11 0.289067 0.322318 0.721816
O O12 0.454819 0.704627 0.254731
O O13 0.612808 0.923788 0.922674
#
# Coordination Sequence:
#
# PCOD9102267 Si02
#       6
#     2   2   2   2   2   2
#     4  12  22  39  65  94 123 169 211 260 316 370
#     4   9  23  40  62  93 129 160 211 262 310 370
#     4   9  18  37  64  92 126 161 202 259 311 362
#     4  10  21  38  66  91 124 164 209 254 323 364
#     4  10  21  41  61  91 124 170 205 259 313 374
#     4  10  20  38  62  89 132 158 210 261 305 375
#
# _framework density 23.980184999999999
#
# number of rings (size 3 to 8) (size 9 to 14) (size 15 to 20)
#    1.000    1.000    3.333    0.500    0.000    2.000 
#    0.000    2.500    0.000    0.000    0.000    0.000 
#    0.000    0.000    0.000    0.000    0.000    0.000 
#
# Total GULP energy -66863.337220 kJ/mol
# GULP energy per Si atom -5571.944768 kJ/mol
# Density = 2.392560 g / cm^3
# Si number density = 23.980185 Si / 1000 Ang^3
#
#
#
# Elastic Constant Matrix: (Units=GPa)
#
#
# Indices 1 2 3 4 5 6 
#
# 1 100.5724 42.5294 31.5158 28.1815 -23.9840 -27.3211
# 2 42.5294 150.5704 44.7663 34.9410 -32.1598 -40.1594
# 3 31.5158 44.7663 80.0131 33.5438 -14.2202 -29.6030
# 4 28.1815 34.9410 33.5438 48.3771 -16.6081 -20.3610
# 5 -23.9840 -32.1598 -14.2202 -16.6081 26.5205 8.7682
# 6 -27.3211 -40.1594 -29.6030 -20.3610 8.7682 33.9883
#
#
#
# Elastic Compliance Matrix: (Units=1/GPa)
#
#
# Indices 1 2 3 4 5 6 
#
# 1 0.015168 0.000943 -0.000561 -0.001700 0.010489 0.009094
# 2 0.000943 0.012072 -0.000949 0.000007 0.011252 0.011296
# 3 -0.000561 -0.000949 0.021279 -0.008684 0.000465 0.011639
# 4 -0.001700 0.000007 -0.008684 0.036195 0.013406 0.009303
# 5 0.010489 0.011252 0.000465 0.013406 0.065059 0.013379
# 6 0.009094 0.011296 0.011639 0.009303 0.013379 0.062339
#
#
# Mechanical properties :
#
#
# Convention : Reuss Voigt Hill
#
# Bulk Modulus (GPa) = 21.10373 63.19767 42.15070
# Shear Modulus (GPa) = 21.83010 35.93346 28.88178
#
# Velocity S-wave (km/s) = 3.02046 3.87520 3.47421
# Velocity P-wave (km/s) = 4.58081 6.81427 5.80595
#
# Compressibility (1/GPa) = 0.04738498
#
# Stress axis : x y z
#
# Youngs Moduli (GPa) = 65.92724 82.83734 46.99362
#
# Poissons Ratio (x) = -0.07808 0.02634
# Poissons Ratio (y) = -0.06214 0.04461
# Poissons Ratio (z) = 0.03695 0.07864
#
# Static dielectric constant tensor:
#      x y z
#    x 1.920420 0.033940 0.008860 
#    y 0.033940 2.048980 -0.064960 
#    z 0.008860 -0.064960 2.090160 
# 
# From -- ./inp_files/231025.got.cif
#   From: 2010.05.17/outbox.cif.g08.bks.cpg/sg2_116_cif.got.tgz:231025.got - 2010.06.03 11:33:40.
