data_PCOD9102468
_publ_section_title
;
Structure prediction by ZEFSAII (Michael W. Deem and Ramdas Pophale) SiO2 
 PCOD9102468
Probable space group: P -1
;
_chemical_formula_sum "Si O2"
_cell_formula_units_Z 16
_cell_length_a 14.566770
_cell_length_b 12.857347
_cell_length_c 7.911632
_cell_angle_alpha 85.335907
_cell_angle_beta 110.710204
_cell_angle_gamma 149.470966
_cell_volume 621.466754
_symmetry_space_group_name_H-M "P -1"
_symmetry_group_IT_number 2
_symmetry_cell_setting 'triclinic'
loop_
_space_group_symop_operation_xyz
x,y,z
-x,-y,-z
loop_
_atom_site_type_symbol
_atom_site_label
_atom_site_fract_x
_atom_site_fract_y
_atom_site_fract_z
Si Si1 0.568167 0.311198 0.988779
Si Si2 0.214512 0.638714 0.669031
Si Si3 0.225770 0.517224 0.347753
Si Si4 0.609894 0.122441 0.737088
Si Si5 0.715739 0.634451 0.249248
Si Si6 0.801904 0.092310 0.935157
Si Si7 0.619133 0.746762 0.645440
Si Si8 0.803109 0.928530 0.396704
O O1 0.758345 0.404581 0.137109
O O2 0.675353 0.525024 0.073402
O O3 0.417840 0.137281 0.073667
O O4 0.374705 0.149893 0.747516
O O5 0.225691 0.572146 0.522821
O O6 0.000000 0.500000 0.500000
O O7 0.411716 0.910495 0.762700
O O8 0.297963 0.675229 0.241250
O O9 0.405587 0.600451 0.454468
O O10 0.999993 0.261467 0.165451
O O11 0.786733 0.199321 0.862622
O O12 0.500000 0.000000 0.500000
O O13 0.493615 0.418362 0.247597
O O14 0.771831 0.809775 0.250219
O O15 0.940452 0.801822 0.456648
O O16 0.783625 0.993198 0.785142
O O17 0.737020 0.811832 0.549759
#
# Coordination Sequence:
#
# PCOD9102468 Si02
#       8
#     2   2   2   2   2   2   2   2
#     4  10  21  42  63  94 132 167 215 267 321 382
#     4  10  21  40  64  90 130 171 214 268 315 375
#     4  11  20  39  62  87 126 171 210 261 321 376
#     4   9  17  37  55  84 118 159 213 257 305 369
#     4  10  22  45  67  95 135 165 211 271 325 389
#     4  10  20  38  63  85 125 177 205 262 324 371
#     4  11  22  42  64  96 133 163 214 266 316 391
#     4  11  24  40  71  99 124 172 215 263 333 386
#
# _framework density 25.745543999999999
#
# number of rings (size 3 to 8) (size 9 to 14) (size 15 to 20)
#    0.000    1.750    5.000    1.875    0.000    2.000 
#    6.750    1.250    0.000    8.250    0.000    0.875 
#    0.000    0.000    0.000    0.000    0.000    0.000 
#
# Total GULP energy -89307.739821 kJ/mol
# GULP energy per Si atom -5581.733739 kJ/mol
# Density = 2.568695 g / cm^3
# Si number density = 25.745544 Si / 1000 Ang^3
#
#
#
# Elastic Constant Matrix: (Units=GPa)
#
#
# Indices 1 2 3 4 5 6 
#
# 1 36.6232 16.1802 12.3565 2.4428 35.8061 17.5784
# 2 16.1802 55.8035 10.3583 19.8994 6.7576 2.7341
# 3 12.3565 10.3583 152.9924 16.1998 43.6648 17.2631
# 4 2.4428 19.8994 16.1998 41.2258 2.8230 -2.5941
# 5 35.8061 6.7576 43.6648 2.8230 12.5996 -9.3171
# 6 17.5784 2.7341 17.2631 -2.5941 -9.3171 27.4645
#
#
#
# Elastic Compliance Matrix: (Units=1/GPa)
#
#
# Indices 1 2 3 4 5 6 
#
# 1 0.005182 -0.004717 -0.008048 0.004247 0.022257 0.010163
# 2 -0.004717 0.023839 0.001552 -0.011727 -0.004268 -0.002885
# 3 -0.008048 0.001552 0.005808 -0.002695 0.004435 0.002596
# 4 0.004247 -0.011727 -0.002695 0.030988 -0.001488 0.002565
# 5 0.022257 -0.004268 0.004435 -0.001488 -0.012038 -0.020833
# 6 0.010163 -0.002885 0.002596 0.002565 -0.020833 0.021736
#
#
# Mechanical properties :
#
#
# Convention : Reuss Voigt Hill
#
# Bulk Modulus (GPa) = 80.61597 35.91215 58.26406
# Shear Modulus (GPa) = 48.98375 30.02626 39.50500
#
# Velocity S-wave (km/s) = 4.36662 3.41877 3.92144
# Velocity P-wave (km/s) = 7.53683 5.43720 6.57141
#
# Compressibility (1/GPa) = 0.01240449
#
# Stress axis : x y z
#
# Youngs Moduli (GPa) = 192.96596 41.94736 172.18489
#
# Poissons Ratio (x) = 0.19785 1.38575
# Poissons Ratio (y) = 0.91014 -0.26726
# Poissons Ratio (z) = 1.55300 -0.06511
#
# Static dielectric constant tensor:
#      x y z
#    x 2.230820 0.078000 -0.033650 
#    y 0.078000 2.187470 -0.113240 
#    z -0.033650 -0.113240 2.010270 
# 
# From -- ./inp_files/335706.got.cif
#   From: 2010.05.17/outbox.cif.g08.bks.cpg/sg2_168_cif.got.tgz:335706.got - 2010.06.03 11:33:40.
