data_PCOD9102175
_publ_section_title
;
Structure prediction by ZEFSAII (Michael W. Deem and Ramdas Pophale) SiO2 
 PCOD9102175
Probable space group: P -1
;
_chemical_formula_sum "Si O2"
_cell_formula_units_Z 14
_cell_length_a 20.749296
_cell_length_b 12.290631
_cell_length_c 9.557734
_cell_angle_alpha 54.410683
_cell_angle_beta 158.912103
_cell_angle_gamma 131.080291
_cell_volume 656.692705
_symmetry_space_group_name_H-M "P -1"
_symmetry_group_IT_number 2
_symmetry_cell_setting 'triclinic'
loop_
_space_group_symop_operation_xyz
x,y,z
-x,-y,-z
loop_
_atom_site_type_symbol
_atom_site_label
_atom_site_fract_x
_atom_site_fract_y
_atom_site_fract_z
Si Si1 0.278698 0.888306 0.609630
Si Si2 0.829104 0.875256 0.628469
Si Si3 0.673135 0.361756 0.934558
Si Si4 0.524755 0.131246 0.243045
Si Si5 0.216710 0.309735 0.070004
Si Si6 0.434226 0.827416 0.389352
Si Si7 0.102484 0.062310 0.808800
O O1 0.299687 0.854517 0.515041
O O2 0.178568 0.993163 0.388227
O O3 0.251514 0.743727 0.748014
O O4 0.500000 0.000000 0.000000
O O5 0.856345 0.757905 0.874343
O O6 0.620329 0.811044 0.173896
O O7 0.986981 0.939005 0.779516
O O8 0.441519 0.321250 0.520749
O O9 0.779612 0.530442 0.056003
O O10 0.675525 0.316464 0.812467
O O11 0.599905 0.195049 0.499040
O O12 0.391118 0.961510 0.137031
O O13 0.108174 0.206204 0.797789
O O14 0.667644 0.890666 0.788919
O O15 0.000000 0.000000 0.500000
#
# Coordination Sequence:
#
# PCOD9102175 Si02
#       7
#     2   2   2   2   2   2   2
#     4  10  16  32  56  81 107 138 189 226 261 322
#     4  11  19  36  56  84 110 142 192 223 267 334
#     4  10  18  34  55  81 115 138 183 232 274 323
#     4  10  18  31  57  85 106 135 190 232 263 313
#     4  10  21  34  54  82 113 148 177 228 281 319
#     4  10  19  34  55  85 110 142 178 231 282 308
#     4  11  22  36  54  82 115 148 182 224 273 336
#
# _framework density 21.318950999999998
#
# number of rings (size 3 to 8) (size 9 to 14) (size 15 to 20)
#    0.000    1.714    7.143    1.286    0.000    0.000 
#    0.000    2.857    0.000    0.000    0.000    6.000 
#    0.000    0.000    0.000    0.000    0.000    0.000 
#
# Total GULP energy -78089.961486 kJ/mol
# GULP energy per Si atom -5577.854392 kJ/mol
# Density = 2.127043 g / cm^3
# Si number density = 21.318951 Si / 1000 Ang^3
#
#
#
# Elastic Constant Matrix: (Units=GPa)
#
#
# Indices 1 2 3 4 5 6 
#
# 1 167.9639 39.3253 43.5748 -1.6864 -38.3366 -4.8273
# 2 39.3253 125.7333 46.7789 -4.3731 -25.2576 -6.2446
# 3 43.5748 46.7789 84.2073 -8.4942 -13.4088 -7.8382
# 4 -1.6864 -4.3731 -8.4942 30.8447 -6.4014 -2.3550
# 5 -38.3366 -25.2576 -13.4088 -6.4014 48.1607 1.7934
# 6 -4.8273 -6.2446 -7.8382 -2.3550 1.7934 22.8274
#
#
#
# Elastic Compliance Matrix: (Units=1/GPa)
#
#
# Indices 1 2 3 4 5 6 
#
# 1 0.008086 -0.000234 -0.003076 0.000730 0.005546 0.000229
# 2 -0.000234 0.010825 -0.005024 0.001084 0.004200 0.000969
# 3 -0.003076 -0.005024 0.017087 0.004165 0.000068 0.004266
# 4 0.000730 0.001084 0.004165 0.035565 0.006850 0.005012
# 5 0.005546 0.004200 0.000068 0.006850 0.028280 0.000830
# 6 0.000229 0.000969 0.004266 0.005012 0.000830 0.046037
#
#
# Mechanical properties :
#
#
# Convention : Reuss Voigt Hill
#
# Bulk Modulus (GPa) = 51.73498 70.80695 61.27096
# Shear Modulus (GPa) = 29.58699 36.91493 33.25096
#
# Velocity S-wave (km/s) = 3.72940 4.16571 3.95358
# Velocity P-wave (km/s) = 6.54709 7.51151 7.04582
#
# Compressibility (1/GPa) = 0.01932928
#
# Stress axis : x y z
#
# Youngs Moduli (GPa) = 123.66594 92.37574 58.52508
#
# Poissons Ratio (x) = 0.02158 0.18005
# Poissons Ratio (y) = 0.02889 0.29406
# Poissons Ratio (z) = 0.38045 0.46414
#
# Static dielectric constant tensor:
#      x y z
#    x 1.926720 -0.049820 0.124640 
#    y -0.049820 1.771880 -0.053630 
#    z 0.124640 -0.053630 1.961430 
# 
# From -- ./inp_files/345175.got.cif
#   From: 2010.05.17/outbox.cif.g08.bks.cpg/sg2_173_cif.got.tgz:345175.got - 2010.06.03 11:33:40.
