data_PCOD9102030
_publ_section_title
;
Structure prediction by ZEFSAII (Michael W. Deem and Ramdas Pophale) SiO2 
 PCOD9102030
Probable space group: P -1
;
_chemical_formula_sum "Si O2"
_cell_formula_units_Z 16
_cell_length_a 10.760285
_cell_length_b 14.628716
_cell_length_c 8.133291
_cell_angle_alpha 48.083902
_cell_angle_beta 42.828180
_cell_angle_gamma 52.002361
_cell_volume 627.315866
_symmetry_space_group_name_H-M "P -1"
_symmetry_group_IT_number 2
_symmetry_cell_setting 'triclinic'
loop_
_space_group_symop_operation_xyz
x,y,z
-x,-y,-z
loop_
_atom_site_type_symbol
_atom_site_label
_atom_site_fract_x
_atom_site_fract_y
_atom_site_fract_z
Si Si1 0.520245 0.670533 0.917786
Si Si2 0.466848 0.619530 0.677564
Si Si3 0.776511 0.970678 0.418674
Si Si4 0.882200 0.500354 0.356692
Si Si5 0.078257 0.269766 0.616452
Si Si6 0.054742 0.106901 0.153940
Si Si7 0.618574 0.084376 0.076991
Si Si8 0.885606 0.330969 0.239180
O O1 0.422021 0.689338 0.811630
O O2 0.721865 0.699911 0.654663
O O3 0.416976 0.765540 0.043702
O O4 0.541865 0.526120 0.116959
O O5 0.684761 0.603306 0.440721
O O6 0.317874 0.677919 0.614963
O O7 0.878746 0.053739 0.330624
O O8 0.706385 0.032177 0.233528
O O9 0.927632 0.840373 0.376722
O O10 0.585268 0.945754 0.708403
O O11 0.877206 0.402507 0.332057
O O12 0.927707 0.403784 0.581382
O O13 0.039374 0.573195 0.070355
O O14 0.077413 0.204814 0.870258
O O15 0.020402 0.191409 0.249276
O O16 0.237740 0.990265 0.107030
#
# Coordination Sequence:
#
# PCOD9102030 Si02
#       8
#     2   2   2   2   2   2   2   2
#     4  10  21  35  62  96 123 143 200 255 290 352
#     4  11  23  37  62  90 118 157 198 249 296 349
#     4   9  19  32  56  87 122 150 189 240 293 354
#     4  11  25  42  62  82 124 165 194 246 300 349
#     4  10  20  38  61  92 121 153 195 246 301 345
#     4  11  22  35  64  88 119 153 198 243 290 354
#     4   9  18  35  53  88 123 155 179 241 308 341
#     4  11  25  44  58  88 121 159 205 241 294 358
#
# _framework density 25.505492
#
# number of rings (size 3 to 8) (size 9 to 14) (size 15 to 20)
#    0.000    1.750    1.250    4.125    7.000    2.000 
#    0.000    0.625    0.000    1.500    0.000    0.000 
#    0.000    0.000    0.000    0.000    0.000    0.000 
#
# Total GULP energy -89646.085784 kJ/mol
# GULP energy per Si atom -5602.880362 kJ/mol
# Density = 2.544744 g / cm^3
# Si number density = 25.505492 Si / 1000 Ang^3
#
#
#
# Elastic Constant Matrix: (Units=GPa)
#
#
# Indices 1 2 3 4 5 6 
#
# 1 41.6220 39.4821 21.3812 14.2511 -12.5274 11.3466
# 2 39.4821 134.8918 15.1186 28.4963 -6.1160 21.0029
# 3 21.3812 15.1186 77.8072 -2.2698 -6.1893 -9.5258
# 4 14.2511 28.4963 -2.2698 31.0258 1.8659 -1.4545
# 5 -12.5274 -6.1160 -6.1893 1.8659 35.6663 6.4359
# 6 11.3466 21.0029 -9.5258 -1.4545 6.4359 43.6797
#
#
#
# Elastic Compliance Matrix: (Units=1/GPa)
#
#
# Indices 1 2 3 4 5 6 
#
# 1 0.058518 -0.005973 -0.016364 -0.024821 0.021580 -0.019904
# 2 -0.005973 0.011976 -0.001463 -0.008660 0.001052 -0.004970
# 3 -0.016364 -0.001463 0.018791 0.011022 -0.005151 0.010179
# 4 -0.024821 -0.008660 0.011022 0.054037 -0.014167 0.016902
# 5 0.021580 0.001052 -0.005151 -0.014167 0.038047 -0.013313
# 6 -0.019904 -0.004970 0.010179 0.016902 -0.013313 0.035198
#
#
# Mechanical properties :
#
#
# Convention : Reuss Voigt Hill
#
# Bulk Modulus (GPa) = 23.98935 45.14278 34.56606
# Shear Modulus (GPa) = 17.98153 33.96364 25.97258
#
# Velocity S-wave (km/s) = 2.65808 3.65310 3.19456
# Velocity P-wave (km/s) = 4.34125 5.96080 5.21429
#
# Compressibility (1/GPa) = 0.04168517
#
# Stress axis : x y z
#
# Youngs Moduli (GPa) = 17.08890 83.49760 53.21583
#
# Poissons Ratio (x) = 0.49869 0.87084
# Poissons Ratio (y) = 0.10206 0.07787
# Poissons Ratio (z) = 0.27965 0.12218
#
# Static dielectric constant tensor:
#      x y z
#    x 1.992820 -0.022040 0.008940 
#    y -0.022040 1.996730 0.016280 
#    z 0.008940 0.016280 1.990620 
# 
# From -- ./inp_files/271711.got.cif
#   From: 2010.05.17/outbox.cif.g08.bks.cpg/sg2_136_cif.got.tgz:271711.got - 2010.06.03 11:33:40.
