data_PCOD9102606
_publ_section_title
;
Structure prediction by ZEFSAII (Michael W. Deem and Ramdas Pophale) SiO2 
 PCOD9102606
Probable space group: P -1
;
_chemical_formula_sum "Si O2"
_cell_formula_units_Z 16
_cell_length_a 8.305552
_cell_length_b 15.553004
_cell_length_c 20.861041
_cell_angle_alpha 160.531354
_cell_angle_beta 128.178317
_cell_angle_gamma 53.551325
_cell_volume 705.356056
_symmetry_space_group_name_H-M "P -1"
_symmetry_group_IT_number 2
_symmetry_cell_setting 'triclinic'
loop_
_space_group_symop_operation_xyz
x,y,z
-x,-y,-z
loop_
_atom_site_type_symbol
_atom_site_label
_atom_site_fract_x
_atom_site_fract_y
_atom_site_fract_z
Si Si1 0.726912 0.969519 0.560838
Si Si2 0.824344 0.437916 0.328733
Si Si3 0.919587 0.398763 0.608546
Si Si4 0.383262 0.344131 0.101786
Si Si5 0.670845 0.879920 0.209228
Si Si6 0.966826 0.245547 0.711610
Si Si7 0.248264 0.024139 0.274939
Si Si8 0.158095 0.106828 0.980783
O O1 0.851263 0.182048 0.704484
O O2 0.500000 0.000000 0.500000
O O3 0.855182 0.708938 0.387709
O O4 0.737331 0.996282 0.658652
O O5 0.017966 0.510254 0.383419
O O6 0.607137 0.445335 0.241671
O O7 0.796620 0.671421 0.535881
O O8 0.843467 0.155709 0.164350
O O9 0.780140 0.151202 0.410059
O O10 0.829993 0.648121 0.797802
O O11 0.195717 0.550995 0.216392
O O12 0.338361 0.112713 0.976957
O O13 0.360431 0.257644 0.962622
O O14 0.456538 0.938647 0.232103
O O15 0.808853 0.708268 0.172837
O O16 0.000000 0.000000 0.500000
O O17 0.057231 0.875067 0.097298
#
# Coordination Sequence:
#
# PCOD9102606 Si02
#       8
#     2   2   2   2   2   2   2   2
#     4  10  20  38  63  92 125 164 204 255 315 375
#     4  11  23  43  65  91 124 165 211 266 315 365
#     4  10  22  41  64  92 126 164 208 261 313 373
#     4  12  24  41  65  95 127 166 211 256 311 378
#     4  11  24  42  63  94 129 165 206 256 314 378
#     4  11  21  39  65  94 127 165 203 255 315 375
#     4  11  24  42  64  92 127 166 211 259 311 375
#     4  12  24  42  64  92 125 167 214 262 312 367
#
# _framework density 22.683578000000001
#
# number of rings (size 3 to 8) (size 9 to 14) (size 15 to 20)
#    0.000    1.000    0.000    9.750    0.000    0.000 
#    0.000    3.750    0.000    0.000    0.000    0.000 
#    0.000    0.000    0.000    0.000    0.000    0.000 
#
# Total GULP energy -89421.770593 kJ/mol
# GULP energy per Si atom -5588.860662 kJ/mol
# Density = 2.263195 g / cm^3
# Si number density = 22.683578 Si / 1000 Ang^3
#
#
#
# Elastic Constant Matrix: (Units=GPa)
#
#
# Indices 1 2 3 4 5 6 
#
# 1 116.7968 17.4797 21.6361 -7.1035 -0.9950 -0.9262
# 2 17.4797 63.0861 17.7660 -1.3298 -5.3605 1.6050
# 3 21.6361 17.7660 75.6574 -9.1415 -9.4943 -3.0169
# 4 -7.1035 -1.3298 -9.1415 38.1348 2.3312 11.9254
# 5 -0.9950 -5.3605 -9.4943 2.3312 43.3859 -3.2077
# 6 -0.9262 1.6050 -3.0169 11.9254 -3.2077 28.8262
#
#
#
# Elastic Compliance Matrix: (Units=1/GPa)
#
#
# Indices 1 2 3 4 5 6 
#
# 1 0.009328 -0.001997 -0.002131 0.001328 -0.000602 -0.000428
# 2 -0.001997 0.017511 -0.003462 -0.000318 0.001294 -0.001126
# 3 -0.002131 -0.003462 0.015355 0.002702 0.002807 0.000926
# 4 0.001328 -0.000318 0.002702 0.031237 -0.002043 -0.012807
# 5 -0.000602 0.001294 0.002807 -0.002043 0.024196 0.003740
# 6 -0.000428 -0.001126 0.000926 -0.012807 0.003740 0.040551
#
#
# Mechanical properties :
#
#
# Convention : Reuss Voigt Hill
#
# Bulk Modulus (GPa) = 37.01576 41.03378 39.02477
# Shear Modulus (GPa) = 30.79544 35.31326 33.05435
#
# Velocity S-wave (km/s) = 3.68857 3.94988 3.82146
# Velocity P-wave (km/s) = 5.87320 6.23947 6.05910
#
# Compressibility (1/GPa) = 0.02701552
#
# Stress axis : x y z
#
# Youngs Moduli (GPa) = 107.20799 57.10550 65.12341
#
# Poissons Ratio (x) = 0.11402 0.13877
# Poissons Ratio (y) = 0.21406 0.22546
# Poissons Ratio (z) = 0.22844 0.19770
#
# Static dielectric constant tensor:
#      x y z
#    x 1.844250 -0.069660 0.042360 
#    y -0.069660 2.117900 0.004440 
#    z 0.042360 0.004440 1.860010 
# 
# From -- ./inp_files/590569.got.cif
#   From: 2010.05.17/outbox.cif.g08.bks.cpg/sg2_296_cif.got.tgz:590569.got - 2010.06.03 11:33:40.
