data_PCOD9102519
_publ_section_title
;
Structure prediction by ZEFSAII (Michael W. Deem and Ramdas Pophale) SiO2 
 PCOD9102519
Probable space group: P -1
;
_chemical_formula_sum "Si O2"
_cell_formula_units_Z 10
_cell_length_a 8.313451
_cell_length_b 12.223122
_cell_length_c 14.193727
_cell_angle_alpha 149.521953
_cell_angle_beta 32.283126
_cell_angle_gamma 128.424886
_cell_volume 358.884995
_symmetry_space_group_name_H-M "P -1"
_symmetry_group_IT_number 2
_symmetry_cell_setting 'triclinic'
loop_
_space_group_symop_operation_xyz
x,y,z
-x,-y,-z
loop_
_atom_site_type_symbol
_atom_site_label
_atom_site_fract_x
_atom_site_fract_y
_atom_site_fract_z
Si Si1 0.928316 0.292911 0.729351
Si Si2 0.564073 0.311145 0.114034
Si Si3 0.386135 0.713738 0.641056
Si Si4 0.548051 0.208450 0.688283
Si Si5 0.071565 0.088538 0.203426
O O1 0.735352 0.179336 0.673257
O O2 0.314451 0.199440 0.450490
O O3 0.814195 0.296447 0.895868
O O4 0.786492 0.566140 0.971566
O O5 0.407034 0.571865 0.429696
O O6 0.278721 0.228742 0.166987
O O7 0.747989 0.113963 0.956647
O O8 0.500000 0.500000 0.500000
O O9 0.062478 0.918115 0.996490
O O10 0.500000 0.000000 0.500000
O O11 0.780270 0.266562 0.542212
#
# Coordination Sequence:
#
# PCOD9102519 Si02
#       5
#     2   2   2   2   2
#     4  11  24  39  62  90 120 158 200 242 296 357
#     4  10  21  39  63  91 119 152 200 249 293 350
#     4  10  20  38  63  89 118 154 195 245 296 348
#     4  11  24  42  59  85 123 161 197 245 298 349
#     4  10  22  39  63  88 119 157 198 245 296 350
#
# _framework density 27.864080999999999
#
# number of rings (size 3 to 8) (size 9 to 14) (size 15 to 20)
#    0.000    1.600    0.000    6.600    0.000    7.200 
#    0.000    2.000    0.000    0.000    0.000    0.000 
#    0.000    0.000    0.000    0.000    0.000    0.000 
#
# Total GULP energy -55972.579808 kJ/mol
# GULP energy per Si atom -5597.257981 kJ/mol
# Density = 2.780066 g / cm^3
# Si number density = 27.864081 Si / 1000 Ang^3
#
#
#
# Elastic Constant Matrix: (Units=GPa)
#
#
# Indices 1 2 3 4 5 6 
#
# 1 96.7858 17.8456 8.2845 6.4682 43.5564 0.4238
# 2 17.8456 111.4192 12.8062 -11.2534 21.0065 13.5313
# 3 8.2845 12.8062 168.8354 11.3259 26.5047 13.3590
# 4 6.4682 -11.2534 11.3259 57.1583 -1.3351 14.7719
# 5 43.5564 21.0065 26.5047 -1.3351 49.2254 -5.0069
# 6 0.4238 13.5313 13.3590 14.7719 -5.0069 41.6999
#
#
#
# Elastic Compliance Matrix: (Units=1/GPa)
#
#
# Indices 1 2 3 4 5 6 
#
# 1 0.018234 0.000210 0.002202 -0.002284 -0.017703 -0.002275
# 2 0.000210 0.010948 0.000220 0.003376 -0.005441 -0.005474
# 3 0.002202 0.000220 0.007047 -0.001043 -0.006142 -0.002720
# 4 -0.002284 0.003376 -0.001043 0.020704 0.000893 -0.007965
# 5 -0.017703 -0.005441 -0.006142 0.000893 0.042517 0.008702
# 6 -0.002275 -0.005474 -0.002720 -0.007965 0.008702 0.030518
#
#
# Mechanical properties :
#
#
# Convention : Reuss Voigt Hill
#
# Bulk Modulus (GPa) = 24.10066 50.54588 37.32327
# Shear Modulus (GPa) = 36.09150 52.15698 44.12424
#
# Velocity S-wave (km/s) = 3.60289 4.33117 3.98370
# Velocity P-wave (km/s) = 5.09666 6.57203 5.88079
#
# Compressibility (1/GPa) = 0.04149264
#
# Stress axis : x y z
#
# Youngs Moduli (GPa) = 54.84190 91.34180 141.89482
#
# Poissons Ratio (x) = -0.01915 -0.31240
# Poissons Ratio (y) = -0.01150 -0.03125
# Poissons Ratio (z) = -0.12074 -0.02012
#
# Static dielectric constant tensor:
#      x y z
#    x 2.297180 -0.009590 -0.113970 
#    y -0.009590 2.125160 0.051040 
#    z -0.113970 0.051040 2.152920 
# 
# From -- ./inp_files/148169.got.cif
#   From: 2010.05.17/outbox.cif.g08.bks.cpg/sg2_75_cif.got.tgz:148169.got - 2010.06.03 11:33:40.
