data_PCOD9102065
_publ_section_title
;
Structure prediction by ZEFSAII (Michael W. Deem and Ramdas Pophale) SiO2 
 PCOD9102065
Probable space group: P -1
;
_chemical_formula_sum "Si O2"
_cell_formula_units_Z 14
_cell_length_a 16.919526
_cell_length_b 15.000282
_cell_length_c 25.378866
_cell_angle_alpha 18.026341
_cell_angle_beta 18.274862
_cell_angle_gamma 27.596862
_cell_volume 615.674190
_symmetry_space_group_name_H-M "P -1"
_symmetry_group_IT_number 2
_symmetry_cell_setting 'triclinic'
loop_
_space_group_symop_operation_xyz
x,y,z
-x,-y,-z
loop_
_atom_site_type_symbol
_atom_site_label
_atom_site_fract_x
_atom_site_fract_y
_atom_site_fract_z
Si Si1 0.532389 0.595203 0.525165
Si Si2 0.841808 0.322337 0.405765
Si Si3 0.205194 0.213004 0.322071
Si Si4 0.354098 0.548361 0.887891
Si Si5 0.435633 0.013644 0.972198
Si Si6 0.465651 0.203268 0.261821
Si Si7 0.995967 0.685612 0.952095
O O1 0.686065 0.555894 0.397229
O O2 0.573158 0.336700 0.684669
O O3 0.226205 0.502880 0.765082
O O4 0.583329 0.912770 0.339893
O O5 0.943037 0.184891 0.472224
O O6 0.679284 0.054497 0.626810
O O7 0.095841 0.456486 0.137786
O O8 0.210913 0.177385 0.401266
O O9 0.358204 0.523101 0.031930
O O10 0.542172 0.737993 0.704377
O O11 0.255172 0.700237 0.813292
O O12 0.472177 0.263730 0.957112
O O13 0.138223 0.036228 0.133950
O O14 0.500000 0.000000 0.000000
O O15 0.000000 0.500000 0.000000
#
# Coordination Sequence:
#
# PCOD9102065 Si02
#       7
#     2   2   2   2   2   2   2
#     4  10  22  37  60  95 120 158 208 249 304 366
#     4  10  20  38  61  95 120 168 205 244 293 376
#     4   9  19  35  56  81 132 171 193 234 303 362
#     4  11  21  40  65  90 132 157 202 254 308 360
#     4  10  21  41  67  86 111 162 216 251 294 365
#     4  10  21  36  54  92 129 165 190 254 307 366
#     4  10  22  41  66  89 111 164 213 260 292 360
#
# _framework density 22.739298999999999
#
# number of rings (size 3 to 8) (size 9 to 14) (size 15 to 20)
#    0.857    1.143    1.429    3.429    0.000    4.571 
#    5.143    2.857    0.000    1.714    0.000    0.000 
#    0.000    0.000    0.000    0.000    0.000    0.000 
#
# Total GULP energy -77956.834274 kJ/mol
# GULP energy per Si atom -5568.345305 kJ/mol
# Density = 2.268754 g / cm^3
# Si number density = 22.739299 Si / 1000 Ang^3
#
#
#
# Elastic Constant Matrix: (Units=GPa)
#
#
# Indices 1 2 3 4 5 6 
#
# 1 211.9549 80.7197 22.1919 -17.2638 -23.4925 -11.6626
# 2 80.7197 174.4671 32.2722 -19.0465 -6.8935 6.8579
# 3 22.1919 32.2722 43.2723 -14.1053 2.2343 1.1434
# 4 -17.2638 -19.0465 -14.1053 32.0767 4.4366 -0.6896
# 5 -23.4925 -6.8935 2.2343 4.4366 25.6784 -9.6445
# 6 -11.6626 6.8579 1.1434 -0.6896 -9.6445 36.7547
#
#
#
# Elastic Compliance Matrix: (Units=1/GPa)
#
#
# Indices 1 2 3 4 5 6 
#
# 1 0.007142 -0.002782 -0.002003 0.000346 0.007736 0.004884
# 2 -0.002782 0.007958 -0.003826 0.001674 -0.001329 -0.002566
# 3 -0.002003 -0.003826 0.031279 0.011543 -0.008687 -0.002958
# 4 0.000346 0.001674 0.011543 0.038438 -0.007566 -0.001826
# 5 0.007736 -0.001329 -0.008687 -0.007566 0.054124 0.017033
# 6 0.004884 -0.002566 -0.002958 -0.001826 0.017033 0.033763
#
#
# Mechanical properties :
#
#
# Convention : Reuss Voigt Hill
#
# Bulk Modulus (GPa) = 34.29846 77.78466 56.04156
# Shear Modulus (GPa) = 25.04440 38.53599 31.79020
#
# Velocity S-wave (km/s) = 3.32229 4.12112 3.74308
# Velocity P-wave (km/s) = 5.46195 7.54495 6.58632
#
# Compressibility (1/GPa) = 0.02915583
#
# Stress axis : x y z
#
# Youngs Moduli (GPa) = 140.02531 125.66365 31.96999
#
# Poissons Ratio (x) = 0.34962 0.06405
# Poissons Ratio (y) = 0.38957 0.12231
# Poissons Ratio (z) = 0.28052 0.48078
#
# Static dielectric constant tensor:
#      x y z
#    x 1.970570 -0.036560 -0.039430 
#    y -0.036560 1.917070 0.020120 
#    z -0.039430 0.020120 1.905500 
# 
# From -- ./inp_files/620414.got.cif
#   From: 2010.05.17/outbox.cif.g08.bks.cpg/sg2_311_cif.got.tgz:620414.got - 2010.06.03 11:33:40.
