data_PCOD9102129
_publ_section_title
;
Structure prediction by ZEFSAII (Michael W. Deem and Ramdas Pophale) SiO2 
 PCOD9102129
Probable space group: P -1
;
_chemical_formula_sum "Si O2"
_cell_formula_units_Z 16
_cell_length_a 6.220349
_cell_length_b 28.728854
_cell_length_c 12.421549
_cell_angle_alpha 152.253955
_cell_angle_beta 123.978011
_cell_angle_gamma 47.859361
_cell_volume 762.350401
_symmetry_space_group_name_H-M "P -1"
_symmetry_group_IT_number 2
_symmetry_cell_setting 'triclinic'
loop_
_space_group_symop_operation_xyz
x,y,z
-x,-y,-z
loop_
_atom_site_type_symbol
_atom_site_label
_atom_site_fract_x
_atom_site_fract_y
_atom_site_fract_z
Si Si1 0.201144 0.519907 0.733414
Si Si2 0.878501 0.155412 0.880797
Si Si3 0.852014 0.437432 0.970960
Si Si4 0.157444 0.150525 0.151943
Si Si5 0.816989 0.403550 0.351661
Si Si6 0.724083 0.980349 0.861847
Si Si7 0.899854 0.388198 0.659074
Si Si8 0.452028 0.966119 0.537890
O O1 0.078565 0.602600 0.969929
O O2 0.128104 0.584758 0.734745
O O3 0.550674 0.452637 0.690453
O O4 0.061577 0.434416 0.531967
O O5 0.619925 0.137432 0.718410
O O6 0.835098 0.281962 0.123047
O O7 0.161151 0.069821 0.717461
O O8 0.937433 0.123379 0.960012
O O9 0.967203 0.528485 0.164179
O O10 0.500000 0.500000 0.000000
O O11 0.970363 0.353089 0.732288
O O12 0.250683 0.099859 0.193878
O O13 0.017960 0.282514 0.399500
O O14 0.444256 0.097997 0.051731
O O15 0.500000 0.500000 0.500000
O O16 0.681975 0.943629 0.654379
O O17 0.000000 0.000000 0.000000
O O18 0.500000 0.000000 0.500000
#
# Coordination Sequence:
#
# PCOD9102129 Si02
#       8
#     2   2   2   2   2   2   2   2
#     4  10  21  37  59  88 126 162 217 256 313 376
#     4  10  22  41  65  90 123 165 212 262 316 379
#     4   9  19  36  56  84 120 157 200 254 306 365
#     4  10  21  39  64  87 116 160 207 258 309 369
#     4  11  23  39  61  91 127 169 211 265 315 382
#     4  10  22  40  62  92 124 156 203 261 313 381
#     4  10  20  38  62  85 120 165 209 257 310 372
#     4  10  22  42  65  92 124 163 208 259 325 381
#
# _framework density 20.987722000000002
#
# number of rings (size 3 to 8) (size 9 to 14) (size 15 to 20)
#    0.000    2.000    0.000    3.000    0.000    8.000 
#   11.250    0.000    0.000    0.000    0.000    0.000 
#    0.000    0.000    0.000    0.000    0.000    0.000 
#
# Total GULP energy -89112.989338 kJ/mol
# GULP energy per Si atom -5569.561834 kJ/mol
# Density = 2.093995 g / cm^3
# Si number density = 20.987722 Si / 1000 Ang^3
#
#
#
# Elastic Constant Matrix: (Units=GPa)
#
#
# Indices 1 2 3 4 5 6 
#
# 1 95.9367 38.3143 44.1918 -22.4344 13.3139 -3.8067
# 2 38.3143 91.0889 50.9450 -46.3570 -3.9157 15.2812
# 3 44.1918 50.9450 120.3488 -29.9392 -3.8727 1.4621
# 4 -22.4344 -46.3570 -29.9392 46.8632 4.2269 -9.9455
# 5 13.3139 -3.9157 -3.8727 4.2269 29.1656 -20.5389
# 6 -3.8067 15.2812 1.4621 -9.9455 -20.5389 42.3838
#
#
#
# Elastic Compliance Matrix: (Units=1/GPa)
#
#
# Indices 1 2 3 4 5 6 
#
# 1 0.015281 -0.003381 -0.003959 0.002006 -0.009098 -0.001210
# 2 -0.003381 0.026406 -0.004907 0.020291 -0.002960 -0.006328
# 3 -0.003959 -0.004907 0.012332 0.001480 0.005331 0.003919
# 4 0.002006 0.020291 0.001480 0.043938 -0.003284 0.001532
# 5 -0.009098 -0.002960 0.005331 -0.003284 0.058795 0.027787
# 6 -0.001210 -0.006328 0.003919 0.001532 0.027787 0.039457
#
#
# Mechanical properties :
#
#
# Convention : Reuss Voigt Hill
#
# Bulk Modulus (GPa) = 33.86915 63.80850 48.83882
# Shear Modulus (GPa) = 21.68784 35.27739 28.48261
#
# Velocity S-wave (km/s) = 3.21808 4.10428 3.68789
# Velocity P-wave (km/s) = 5.47546 7.27522 6.43854
#
# Compressibility (1/GPa) = 0.02952540
#
# Stress axis : x y z
#
# Youngs Moduli (GPa) = 65.44055 37.87074 81.08745
#
# Poissons Ratio (x) = 0.12802 0.32105
# Poissons Ratio (y) = 0.22123 0.39789
# Poissons Ratio (z) = 0.25910 0.18583
#
# Static dielectric constant tensor:
#      x y z
#    x 1.763840 0.022700 0.010080 
#    y 0.022700 1.905450 -0.073100 
#    z 0.010080 -0.073100 1.758560 
# 
# From -- ./inp_files/371487.got.cif
#   From: 2010.05.17/outbox.cif.g08.bks.cpg/sg2_186_cif.got.tgz:371487.got - 2010.06.03 11:33:40.
