data_PCOD9102132
_publ_section_title
;
Structure prediction by ZEFSAII (Michael W. Deem and Ramdas Pophale) SiO2 
 PCOD9102132
Probable space group: P -1
;
_chemical_formula_sum "Si O2"
_cell_formula_units_Z 16
_cell_length_a 9.452917
_cell_length_b 11.624112
_cell_length_c 13.060856
_cell_angle_alpha 129.823159
_cell_angle_beta 127.232744
_cell_angle_gamma 74.717752
_cell_volume 859.371057
_symmetry_space_group_name_H-M "P -1"
_symmetry_group_IT_number 2
_symmetry_cell_setting 'triclinic'
loop_
_space_group_symop_operation_xyz
x,y,z
-x,-y,-z
loop_
_atom_site_type_symbol
_atom_site_label
_atom_site_fract_x
_atom_site_fract_y
_atom_site_fract_z
Si Si1 0.111903 0.171985 0.162527
Si Si2 0.969817 0.461512 0.346286
Si Si3 0.354864 0.378922 0.231226
Si Si4 0.813892 0.519968 0.983265
Si Si5 0.466485 0.786578 0.285940
Si Si6 0.534635 0.892058 0.609364
Si Si7 0.680821 0.338901 0.478737
Si Si8 0.695507 0.587933 0.175828
O O1 0.196132 0.250954 0.138749
O O2 0.287380 0.162011 0.302388
O O3 0.008061 0.295211 0.238228
O O4 0.000000 0.000000 0.000000
O O5 0.778251 0.484679 0.233135
O O6 0.000000 0.500000 0.500000
O O7 0.117834 0.592493 0.429519
O O8 0.306945 0.410498 0.112456
O O9 0.545683 0.336393 0.321241
O O10 0.359274 0.536223 0.385179
O O11 0.705749 0.351967 0.871387
O O12 0.824071 0.614402 0.147088
O O13 0.000000 0.500000 0.000000
O O14 0.490845 0.832629 0.441517
O O15 0.646013 0.732478 0.293832
O O16 0.433904 0.926242 0.282499
O O17 0.373688 0.819758 0.575397
O O18 0.500000 0.500000 0.000000
#
# Coordination Sequence:
#
# PCOD9102132 Si02
#       8
#     2   2   2   2   2   2   2   2
#     4  10  22  36  60  91 121 148 206 260 307 356
#     4  11  23  39  65  88 120 164 212 253 306 375
#     4   9  18  33  58  83 111 153 198 254 290 355
#     4  11  21  35  62  88 119 156 209 250 308 366
#     4  10  22  38  61  87 123 162 202 246 315 369
#     4  10  20  38  62  85 121 162 201 254 306 375
#     4   9  18  35  59  84 112 152 213 249 287 362
#     4  10  24  38  58  90 126 156 197 255 312 364
#
# _framework density 18.618265999999998
#
# number of rings (size 3 to 8) (size 9 to 14) (size 15 to 20)
#    0.000    2.000    1.250    3.000    8.750    0.000 
#    0.000    1.875    0.000    3.000    0.000    0.000 
#    0.000    0.000    0.000    0.000    0.000    0.000 
#
# Total GULP energy -89218.702832 kJ/mol
# GULP energy per Si atom -5576.168927 kJ/mol
# Density = 1.857589 g / cm^3
# Si number density = 18.618266 Si / 1000 Ang^3
#
#
#
# Elastic Constant Matrix: (Units=GPa)
#
#
# Indices 1 2 3 4 5 6 
#
# 1 81.2364 39.7812 24.6021 5.1489 -2.3453 -3.0686
# 2 39.7812 131.3433 34.7368 -1.1726 0.6796 6.6900
# 3 24.6021 34.7368 57.7606 -6.5051 2.7074 4.0278
# 4 5.1489 -1.1726 -6.5051 38.1988 6.6393 5.4800
# 5 -2.3453 0.6796 2.7074 6.6393 24.1274 2.9299
# 6 -3.0686 6.6900 4.0278 5.4800 2.9299 31.5112
#
#
#
# Elastic Compliance Matrix: (Units=1/GPa)
#
#
# Indices 1 2 3 4 5 6 
#
# 1 0.016312 -0.003694 -0.005603 -0.004310 0.003073 0.003553
# 2 -0.003694 0.009957 -0.004232 0.000373 -0.000025 -0.001995
# 3 -0.005603 -0.004232 0.023323 0.005800 -0.004245 -0.003242
# 4 -0.004310 0.000373 0.005800 0.030079 -0.008669 -0.005665
# 5 0.003073 -0.000025 -0.004245 -0.008669 0.044828 -0.001813
# 6 0.003553 -0.001995 -0.003242 -0.005665 -0.001813 0.034073
#
#
# Mechanical properties :
#
#
# Convention : Reuss Voigt Hill
#
# Bulk Modulus (GPa) = 44.38036 52.06450 48.22243
# Shear Modulus (GPa) = 25.88785 30.18216 28.03500
#
# Velocity S-wave (km/s) = 3.73292 4.03066 3.88465
# Velocity P-wave (km/s) = 6.51678 7.04887 6.78804
#
# Compressibility (1/GPa) = 0.02253249
#
# Stress axis : x y z
#
# Youngs Moduli (GPa) = 61.30574 100.43347 42.87606
#
# Poissons Ratio (x) = 0.37099 0.24025
# Poissons Ratio (y) = 0.22645 0.18146
# Poissons Ratio (z) = 0.34352 0.42506
#
# Static dielectric constant tensor:
#      x y z
#    x 1.677090 -0.002320 0.003150 
#    y -0.002320 1.655800 -0.003880 
#    z 0.003150 -0.003880 1.667790 
# 
# From -- ./inp_files/282546.got.cif
#   From: 2010.05.17/outbox.cif.g08.bks.cpg/sg2_142_cif.got.tgz:282546.got - 2010.06.03 11:33:40.
