data_PCOD9102681
_publ_section_title
;
Structure prediction by ZEFSAII (Michael W. Deem and Ramdas Pophale) SiO2 
 PCOD9102681
Probable space group: P -1
;
_chemical_formula_sum "Si O2"
_cell_formula_units_Z 14
_cell_length_a 12.720931
_cell_length_b 6.273175
_cell_length_c 20.037880
_cell_angle_alpha 82.282839
_cell_angle_beta 25.687127
_cell_angle_gamma 97.221637
_cell_volume 562.228259
_symmetry_space_group_name_H-M "P -1"
_symmetry_group_IT_number 2
_symmetry_cell_setting 'triclinic'
loop_
_space_group_symop_operation_xyz
x,y,z
-x,-y,-z
loop_
_atom_site_type_symbol
_atom_site_label
_atom_site_fract_x
_atom_site_fract_y
_atom_site_fract_z
Si Si1 0.230752 0.393014 0.903258
Si Si2 0.716995 0.787949 0.257539
Si Si3 0.637047 0.006607 0.529885
Si Si4 0.376599 0.676722 0.223397
Si Si5 0.753547 0.696433 0.897625
Si Si6 0.177225 0.890709 0.433532
Si Si7 0.951580 0.498129 0.166678
O O1 0.337122 0.389039 0.768497
O O2 0.491657 0.436181 0.798126
O O3 0.117572 0.553625 0.997098
O O4 0.950997 0.090652 0.089931
O O5 0.882734 0.708680 0.215044
O O6 0.429236 0.769974 0.446181
O O7 0.371125 0.772183 0.648913
O O8 0.644708 0.963626 0.607015
O O9 0.948911 0.088090 0.319742
O O10 0.360244 0.882256 0.268074
O O11 0.053521 0.418056 0.400670
O O12 0.595972 0.790384 0.030995
O O13 0.860469 0.549182 0.888103
O O14 0.500000 0.500000 0.000000
O O15 0.000000 0.000000 0.500000
#
# Coordination Sequence:
#
# PCOD9102681 Si02
#       7
#     2   2   2   2   2   2   2
#     4   9  19  36  60  94 128 159 206 275 314 375
#     4  10  20  38  63  95 128 164 216 260 326 378
#     4  11  23  43  66  95 134 170 212 274 316 384
#     4  10  22  42  65  89 131 171 206 274 323 369
#     4  11  23  46  65  92 136 174 215 268 325 381
#     4  11  24  40  67  99 126 170 220 263 325 394
#     4  10  23  38  69  92 125 177 215 262 324 388
#
# _framework density 24.900919999999999
#
# number of rings (size 3 to 8) (size 9 to 14) (size 15 to 20)
#    0.000    1.714    2.857    0.857    2.000    2.857 
#    0.000    2.143    0.000    0.000    0.000    0.000 
#    0.000    0.000    0.000    0.000    0.000    0.000 
#
# Total GULP energy -78292.903224 kJ/mol
# GULP energy per Si atom -5592.350230 kJ/mol
# Density = 2.484424 g / cm^3
# Si number density = 24.900920 Si / 1000 Ang^3
#
#
#
# Elastic Constant Matrix: (Units=GPa)
#
#
# Indices 1 2 3 4 5 6 
#
# 1 121.4662 26.0757 48.2181 3.3027 -13.7618 16.5156
# 2 26.0757 96.2080 42.2909 30.3429 1.5157 8.7607
# 3 48.2181 42.2909 153.2514 31.4572 4.4254 24.4497
# 4 3.3027 30.3429 31.4572 44.0318 7.2046 -8.0806
# 5 -13.7618 1.5157 4.4254 7.2046 40.3725 -0.1555
# 6 16.5156 8.7607 24.4497 -8.0806 -0.1555 32.8603
#
#
#
# Elastic Compliance Matrix: (Units=1/GPa)
#
#
# Indices 1 2 3 4 5 6 
#
# 1 0.010444 -0.001936 -0.002821 0.001558 0.003655 -0.002234
# 2 -0.001936 0.015083 -0.000437 -0.011061 0.000775 -0.005439
# 3 -0.002821 -0.000437 0.010669 -0.008571 -0.000618 -0.008514
# 4 0.001558 -0.011061 -0.008571 0.040600 -0.005288 0.018502
# 5 0.003655 0.000775 -0.000618 -0.005288 0.026987 -0.002757
# 6 -0.002234 -0.005439 -0.008514 0.018502 -0.002757 0.043876
#
#
# Mechanical properties :
#
#
# Convention : Reuss Voigt Hill
#
# Bulk Modulus (GPa) = 38.74923 67.12165 52.93544
# Shear Modulus (GPa) = 30.00327 40.40899 35.20613
#
# Velocity S-wave (km/s) = 3.47494 4.03276 3.76420
# Velocity P-wave (km/s) = 5.62987 6.97841 6.34010
#
# Compressibility (1/GPa) = 0.02580696
#
# Stress axis : x y z
#
# Youngs Moduli (GPa) = 95.75291 66.30117 93.73127
#
# Poissons Ratio (x) = 0.12838 0.26438
# Poissons Ratio (y) = 0.18541 0.04097
# Poissons Ratio (z) = 0.27008 0.02898
#
# Static dielectric constant tensor:
#      x y z
#    x 2.013240 -0.006880 0.024190 
#    y -0.006880 2.017090 -0.027710 
#    z 0.024190 -0.027710 2.019780 
# 
# From -- ./inp_files/611245.got.cif
#   From: 2010.05.17/outbox.cif.g08.bks.cpg/sg2_306_cif.got.tgz:611245.got - 2010.06.03 11:33:40.
