data_PCOD9102210
_publ_section_title
;
Structure prediction by ZEFSAII (Michael W. Deem and Ramdas Pophale) SiO2 
 PCOD9102210
Probable space group: P -1
;
_chemical_formula_sum "Si O2"
_cell_formula_units_Z 15
_cell_length_a 6.574039
_cell_length_b 6.050828
_cell_length_c 19.211437
_cell_angle_alpha 104.269633
_cell_angle_beta 60.985062
_cell_angle_gamma 83.898581
_cell_volume 624.249544
_symmetry_space_group_name_H-M "P -1"
_symmetry_group_IT_number 2
_symmetry_cell_setting 'triclinic'
loop_
_space_group_symop_operation_xyz
x,y,z
-x,-y,-z
loop_
_atom_site_type_symbol
_atom_site_label
_atom_site_fract_x
_atom_site_fract_y
_atom_site_fract_z
Si Si1 0.500000 0.000000 0.500000
Si Si2 0.365935 0.302634 0.414197
Si Si3 0.776242 0.884313 0.243685
Si Si4 0.691412 0.187458 0.879931
Si Si5 0.439749 0.589744 0.308901
Si Si6 0.588822 0.140125 0.157196
Si Si7 0.774456 0.386331 0.030901
Si Si8 0.017978 0.034989 0.417515
O O1 0.637722 0.767157 0.510248
O O2 0.759401 0.033644 0.433792
O O3 0.403007 0.541941 0.393446
O O4 0.592868 0.101758 0.329779
O O5 0.125577 0.261994 0.413391
O O6 0.690775 0.656530 0.262700
O O7 0.056926 0.854293 0.205712
O O8 0.715515 0.944404 0.177358
O O9 0.477679 0.408353 0.906479
O O10 0.587116 0.961966 0.869692
O O11 0.747911 0.247185 0.954057
O O12 0.446655 0.364677 0.243509
O O13 0.229859 0.815288 0.338603
O O14 0.779714 0.221716 0.083976
O O15 0.000000 0.500000 0.000000
O O16 0.000000 0.000000 0.500000
#
# Coordination Sequence:
#
# PCOD9102210 Si02
#       8
#     1   2   2   2   2   2   2   2
#     4  10  20  38  62  88 122 162 204 254 310 372
#     4   9  21  39  62  89 123 161 205 260 316 374
#     4  10  23  43  63  91 128 164 211 263 314 375
#     4  11  24  41  65  96 126 163 214 262 311 378
#     4  10  21  42  66  89 127 171 207 260 323 373
#     4  11  23  41  65  91 126 167 210 264 316 371
#     4  11  25  43  64  93 130 170 210 258 317 377
#     4   9  20  40  60  89 126 160 205 257 310 375
#
# _framework density 24.028853000000002
#
# number of rings (size 3 to 8) (size 9 to 14) (size 15 to 20)
#    0.000    1.867    0.000    2.800    0.000   12.800 
#    0.000   17.333    0.000    0.000    0.000    0.000 
#    0.000    0.000    0.000    0.000    0.000    0.000 
#
# Total GULP energy -83603.295510 kJ/mol
# GULP energy per Si atom -5573.553034 kJ/mol
# Density = 2.397416 g / cm^3
# Si number density = 24.028853 Si / 1000 Ang^3
#
#
#
# Elastic Constant Matrix: (Units=GPa)
#
#
# Indices 1 2 3 4 5 6 
#
# 1 121.5814 34.7468 40.5198 -21.2451 -27.9216 11.1153
# 2 34.7468 93.3559 34.9230 -30.7060 2.3591 15.7653
# 3 40.5198 34.9230 76.3809 -17.6674 -9.7681 14.4670
# 4 -21.2451 -30.7060 -17.6674 65.9767 -3.3205 -4.8076
# 5 -27.9216 2.3591 -9.7681 -3.3205 54.1101 -14.7135
# 6 11.1153 15.7653 14.4670 -4.8076 -14.7135 25.6849
#
#
#
# Elastic Compliance Matrix: (Units=1/GPa)
#
#
# Indices 1 2 3 4 5 6 
#
# 1 0.012068 -0.002918 -0.004385 0.001911 0.006533 0.003139
# 2 -0.002918 0.016381 -0.003847 0.004781 -0.004950 -0.008566
# 3 -0.004385 -0.003847 0.018606 0.001314 -0.000332 -0.006166
# 4 0.001911 0.004781 0.001314 0.018477 0.002209 0.000222
# 5 0.006533 -0.004950 -0.000332 0.002209 0.026491 0.015986
# 6 0.003139 -0.008566 -0.006166 0.000222 0.015986 0.055505
#
#
# Mechanical properties :
#
#
# Convention : Reuss Voigt Hill
#
# Bulk Modulus (GPa) = 40.39268 56.85527 48.62398
# Shear Modulus (GPa) = 28.07773 41.22957 34.65365
#
# Velocity S-wave (km/s) = 3.42204 4.14676 3.80171
# Velocity P-wave (km/s) = 5.69740 6.82936 6.28890
#
# Compressibility (1/GPa) = 0.02475696
#
# Stress axis : x y z
#
# Youngs Moduli (GPa) = 82.86691 61.04741 53.74503
#
# Poissons Ratio (x) = 0.17812 0.23565
# Poissons Ratio (y) = 0.24179 0.20673
# Poissons Ratio (z) = 0.36333 0.23482
#
# Static dielectric constant tensor:
#      x y z
#    x 1.933580 0.006020 0.030400 
#    y 0.006020 1.995320 0.011810 
#    z 0.030400 0.011810 1.972120 
# 
# From -- ./inp_files/114608.got.cif
#   From: 2010.05.17/outbox.cif.g08.bks.cpg/sg2_58_cif.got.tgz:114608.got - 2010.06.03 11:33:40.
