data_PCOD9102527
_publ_section_title
;
Structure prediction by ZEFSAII (Michael W. Deem and Ramdas Pophale) SiO2 
 PCOD9102527
Probable space group: P -1
;
_chemical_formula_sum "Si O2"
_cell_formula_units_Z 16
_cell_length_a 15.151762
_cell_length_b 14.989524
_cell_length_c 8.800730
_cell_angle_alpha 100.535522
_cell_angle_beta 81.545041
_cell_angle_gamma 29.216278
_cell_volume 737.854143
_symmetry_space_group_name_H-M "P -1"
_symmetry_group_IT_number 2
_symmetry_cell_setting 'triclinic'
loop_
_space_group_symop_operation_xyz
x,y,z
-x,-y,-z
loop_
_atom_site_type_symbol
_atom_site_label
_atom_site_fract_x
_atom_site_fract_y
_atom_site_fract_z
Si Si1 0.813062 0.305915 0.126332
Si Si2 0.959964 0.432560 0.525019
Si Si3 0.438016 0.923736 0.711715
Si Si4 0.702082 0.196514 0.685221
Si Si5 0.326281 0.982181 0.432385
Si Si6 0.747067 0.708560 0.201729
Si Si7 0.924501 0.064799 0.279992
Si Si8 0.010072 0.312463 0.172193
O O1 0.575690 0.527712 0.158939
O O2 0.871899 0.351923 0.178283
O O3 0.010867 0.077424 0.895250
O O4 0.797933 0.257941 0.265789
O O5 0.681808 0.678755 0.661653
O O6 0.000000 0.500000 0.500000
O O7 0.104363 0.260969 0.579474
O O8 0.078655 0.257886 0.311734
O O9 0.400873 0.897975 0.564001
O O10 0.406618 0.055579 0.694283
O O11 0.230044 0.108339 0.941892
O O12 0.840878 0.109764 0.763257
O O13 0.742893 0.050484 0.622311
O O14 0.789733 0.157487 0.491802
O O15 0.547333 0.821779 0.238818
O O16 0.851720 0.552340 0.266417
O O17 0.000000 0.500000 0.000000
#
# Coordination Sequence:
#
# PCOD9102527 Si02
#       8
#     2   2   2   2   2   2   2   2
#     4  11  21  42  66  89 124 162 201 253 318 366
#     4  12  24  40  62  91 127 168 210 256 307 358
#     4  11  23  43  61  89 132 166 209 254 303 360
#     4  11  22  41  64  92 126 156 207 255 311 368
#     4  12  22  41  66  92 124 171 208 255 305 368
#     4  10  20  38  63  89 123 169 207 248 303 360
#     4  10  24  40  63  95 120 159 202 256 315 380
#     4  11  23  41  64  93 124 165 211 256 302 373
#
# _framework density 21.684504
#
# number of rings (size 3 to 8) (size 9 to 14) (size 15 to 20)
#    0.000    1.000    3.750    3.375    0.000    0.500 
#    4.500    6.250    0.000    0.000    0.000    0.000 
#    0.000    0.000    0.000    0.000    0.000    0.000 
#
# Total GULP energy -89230.885678 kJ/mol
# GULP energy per Si atom -5576.930355 kJ/mol
# Density = 2.163515 g / cm^3
# Si number density = 21.684504 Si / 1000 Ang^3
#
#
#
# Elastic Constant Matrix: (Units=GPa)
#
#
# Indices 1 2 3 4 5 6 
#
# 1 95.1142 13.2130 20.4236 4.4488 9.9847 -4.2686
# 2 13.2130 112.8166 8.5008 22.3934 -5.7856 0.7199
# 3 20.4236 8.5008 60.7335 10.6898 0.4023 1.2123
# 4 4.4488 22.3934 10.6898 24.1125 -6.3666 1.0281
# 5 9.9847 -5.7856 0.4023 -6.3666 25.8864 0.4384
# 6 -4.2686 0.7199 1.2123 1.0281 0.4384 34.4022
#
#
#
# Elastic Compliance Matrix: (Units=1/GPa)
#
#
# Indices 1 2 3 4 5 6 
#
# 1 0.012154 -0.001246 -0.003764 -0.000850 -0.005147 0.001758
# 2 -0.001246 0.011000 0.000668 -0.010163 0.000431 -0.000110
# 3 -0.003764 0.000668 0.019174 -0.008598 -0.000797 -0.000890
# 4 -0.000850 -0.010163 -0.008598 0.058255 0.012543 -0.001491
# 5 -0.005147 0.000431 -0.000797 0.012543 0.043835 -0.001553
# 6 0.001758 -0.000110 -0.000890 -0.001491 -0.001553 0.029384
#
#
# Mechanical properties :
#
#
# Convention : Reuss Voigt Hill
#
# Bulk Modulus (GPa) = 29.72432 39.21546 34.46989
# Shear Modulus (GPa) = 25.81289 31.98203 28.89746
#
# Velocity S-wave (km/s) = 3.45394 3.84458 3.65448
# Velocity P-wave (km/s) = 5.44460 6.15074 5.80841
#
# Compressibility (1/GPa) = 0.03364248
#
# Stress axis : x y z
#
# Youngs Moduli (GPa) = 82.27743 90.91147 52.15350
#
# Poissons Ratio (x) = 0.11330 0.19631
# Poissons Ratio (y) = 0.10254 -0.03482
# Poissons Ratio (z) = 0.30970 -0.06069
#
# Static dielectric constant tensor:
#      x y z
#    x 1.779740 -0.009680 -0.001190 
#    y -0.009680 1.830370 0.001330 
#    z -0.001190 0.001330 1.820040 
# 
# From -- ./inp_files/314964.got.cif
#   From: 2010.05.17/outbox.cif.g08.bks.cpg/sg2_158_cif.got.tgz:314964.got - 2010.06.03 11:33:40.
