data_PCOD9102355
_publ_section_title
;
Structure prediction by ZEFSAII (Michael W. Deem and Ramdas Pophale) SiO2 
 PCOD9102355
Probable space group: P -1
;
_chemical_formula_sum "Si O2"
_cell_formula_units_Z 16
_cell_length_a 17.282849
_cell_length_b 12.208522
_cell_length_c 8.066137
_cell_angle_alpha 106.786579
_cell_angle_beta 86.807242
_cell_angle_gamma 29.102440
_cell_volume 594.309617
_symmetry_space_group_name_H-M "P -1"
_symmetry_group_IT_number 2
_symmetry_cell_setting 'triclinic'
loop_
_space_group_symop_operation_xyz
x,y,z
-x,-y,-z
loop_
_atom_site_type_symbol
_atom_site_label
_atom_site_fract_x
_atom_site_fract_y
_atom_site_fract_z
Si Si1 0.245783 0.848531 0.696940
Si Si2 0.773040 0.192970 0.799645
Si Si3 0.117486 0.380969 0.270182
Si Si4 0.897787 0.345347 0.683425
Si Si5 0.294686 0.122639 0.629866
Si Si6 0.702093 0.436295 0.249692
Si Si7 0.352932 0.837557 0.986181
Si Si8 0.642911 0.718850 0.182516
O O1 0.500000 0.500000 0.500000
O O2 0.186581 0.800530 0.739532
O O3 0.102657 0.080962 0.662912
O O4 0.220104 0.967785 0.907954
O O5 0.731344 0.117421 0.823430
O O6 0.010358 0.867276 0.556759
O O7 0.715263 0.345796 0.036874
O O8 0.601424 0.466176 0.802072
O O9 0.168636 0.443562 0.295328
O O10 0.939171 0.600592 0.247818
O O11 0.000000 0.500000 0.500000
O O12 0.309326 0.030686 0.070970
O O13 0.717632 0.564230 0.933250
O O14 0.311021 0.209895 0.785386
O O15 0.463059 0.790150 0.499350
O O16 0.402909 0.023967 0.402843
O O17 0.767150 0.475361 0.205199
#
# Coordination Sequence:
#
# PCOD9102355 Si02
#       8
#     2   2   2   2   2   2   2   2
#     4  11  21  35  60  97 123 160 214 268 305 366
#     4  10  20  38  62  92 133 164 204 261 317 385
#     4  12  23  39  68  94 124 168 212 261 331 365
#     4  12  24  39  63 101 131 156 220 273 305 381
#     4   9  20  43  65  91 128 171 213 259 316 381
#     4   9  20  39  66  82 128 177 203 246 332 369
#     4  10  21  37  60  92 129 168 202 258 329 372
#     4   9  22  42  65  89 131 172 210 261 315 377
#
# _framework density 26.921993000000001
#
# number of rings (size 3 to 8) (size 9 to 14) (size 15 to 20)
#    0.750    1.000    2.500    2.250    1.750    4.000 
#    0.000    0.625    2.750    0.000    0.000    0.000 
#    0.000    0.000    0.000    0.000    0.000    0.000 
#
# Total GULP energy -89485.942162 kJ/mol
# GULP energy per Si atom -5592.871385 kJ/mol
# Density = 2.686072 g / cm^3
# Si number density = 26.921993 Si / 1000 Ang^3
#
#
#
# Elastic Constant Matrix: (Units=GPa)
#
#
# Indices 1 2 3 4 5 6 
#
# 1 83.9776 37.0579 23.1005 10.9325 9.9448 8.6078
# 2 37.0579 119.9886 22.4979 16.8445 15.5735 32.4649
# 3 23.1005 22.4979 110.5064 21.3439 7.6098 3.5719
# 4 10.9325 16.8445 21.3439 43.2596 5.0304 -0.3497
# 5 9.9448 15.5735 7.6098 5.0304 34.9679 3.8830
# 6 8.6078 32.4649 3.5719 -0.3497 3.8830 47.5766
#
#
#
# Elastic Compliance Matrix: (Units=1/GPa)
#
#
# Indices 1 2 3 4 5 6 
#
# 1 0.014435 -0.003781 -0.001933 -0.001001 -0.001886 0.000260
# 2 -0.003781 0.012543 -0.000669 -0.003306 -0.003046 -0.007601
# 3 -0.001933 -0.000669 0.010480 -0.004326 -0.000816 0.000055
# 4 -0.001001 -0.003306 -0.004326 0.026993 -0.001527 0.003085
# 5 -0.001886 -0.003046 -0.000816 -0.001527 0.030894 -0.000052
# 6 0.000260 -0.007601 0.000055 0.003085 -0.000052 0.026181
#
#
# Mechanical properties :
#
#
# Convention : Reuss Voigt Hill
#
# Bulk Modulus (GPa) = 40.50032 53.30946 46.90489
# Shear Modulus (GPa) = 35.08215 40.61524 37.84870
#
# Velocity S-wave (km/s) = 3.61377 3.88832 3.75355
# Velocity P-wave (km/s) = 5.69988 6.32480 6.02046
#
# Compressibility (1/GPa) = 0.02469117
#
# Stress axis : x y z
#
# Youngs Moduli (GPa) = 69.27592 79.72474 95.42318
#
# Poissons Ratio (x) = 0.30143 0.18446
# Poissons Ratio (y) = 0.26192 0.06388
# Poissons Ratio (z) = 0.13391 0.05337
#
# Static dielectric constant tensor:
#      x y z
#    x 2.099810 0.001660 -0.010600 
#    y 0.001660 2.047320 -0.004030 
#    z -0.010600 -0.004030 2.204200 
# 
# From -- ./inp_files/345317.got.cif
#   From: 2010.05.17/outbox.cif.g08.bks.cpg/sg2_173_cif.got.tgz:345317.got - 2010.06.03 11:33:40.
