data_PCOD9102768
_publ_section_title
;
Structure prediction by ZEFSAII (Michael W. Deem and Ramdas Pophale) SiO2 
 PCOD9102768
Probable space group: P -1
;
_chemical_formula_sum "Si O2"
_cell_formula_units_Z 16
_cell_length_a 22.348731
_cell_length_b 13.414100
_cell_length_c 9.179045
_cell_angle_alpha 36.929528
_cell_angle_beta 59.998809
_cell_angle_gamma 34.072336
_cell_volume 811.749633
_symmetry_space_group_name_H-M "P -1"
_symmetry_group_IT_number 2
_symmetry_cell_setting 'triclinic'
loop_
_space_group_symop_operation_xyz
x,y,z
-x,-y,-z
loop_
_atom_site_type_symbol
_atom_site_label
_atom_site_fract_x
_atom_site_fract_y
_atom_site_fract_z
Si Si1 0.832066 0.994824 0.014125
Si Si2 0.657786 0.985352 0.938033
Si Si3 0.669729 0.610082 0.520484
Si Si4 0.582883 0.287058 0.963793
Si Si5 0.575791 0.103425 0.574137
Si Si6 0.290894 0.261151 0.419693
Si Si7 0.022515 0.757646 0.281557
Si Si8 0.075651 0.420619 0.866120
O O1 0.776783 0.284597 0.706881
O O2 0.707629 0.137679 0.028972
O O3 0.901550 0.764876 0.068335
O O4 0.923642 0.847166 0.207806
O O5 0.588068 0.242769 0.835493
O O6 0.598977 0.071832 0.753444
O O7 0.671579 0.783136 0.239221
O O8 0.792192 0.793094 0.984120
O O9 0.541298 0.778542 0.451763
O O10 0.691125 0.601915 0.676576
O O11 0.465325 0.630394 0.737800
O O12 0.600765 0.072600 0.263913
O O13 0.688308 0.798546 0.707253
O O14 0.158782 0.459237 0.400486
O O15 0.024460 0.681213 0.533036
O O16 0.000000 0.000000 0.000000
O O17 0.000000 0.500000 0.000000
#
# Coordination Sequence:
#
# PCOD9102768 Si02
#       8
#     2   2   2   2   2   2   2   2
#     4  10  20  38  64  86 116 164 206 241 309 370
#     4  10  20  40  58  85 126 161 196 249 310 362
#     4  10  20  41  58  86 124 163 197 246 313 356
#     4   9  20  38  59  83 120 159 195 252 307 357
#     4  11  22  33  63  90 115 160 208 245 298 367
#     4  11  21  38  58  88 125 151 205 257 299 353
#     4  12  22  42  67  87 123 168 199 248 316 362
#     4  11  24  41  63  92 125 156 206 261 297 361
#
# _framework density 19.710511
#
# number of rings (size 3 to 8) (size 9 to 14) (size 15 to 20)
#    0.000    1.500    5.000    1.875    1.750    0.000 
#    2.250    1.250    0.000    0.000    0.000    0.000 
#    0.000    0.000    0.000    0.000    0.000    0.000 
#
# Total GULP energy -89215.264095 kJ/mol
# GULP energy per Si atom -5575.954006 kJ/mol
# Density = 1.966565 g / cm^3
# Si number density = 19.710511 Si / 1000 Ang^3
#
#
#
# Elastic Constant Matrix: (Units=GPa)
#
#
# Indices 1 2 3 4 5 6 
#
# 1 89.4812 22.6872 8.1993 1.8961 7.6931 17.7738
# 2 22.6872 88.4403 32.8842 3.3072 -1.7431 5.4252
# 3 8.1993 32.8842 61.3901 -11.9603 -15.6252 10.8367
# 4 1.8961 3.3072 -11.9603 17.1219 7.2184 -2.8796
# 5 7.6931 -1.7431 -15.6252 7.2184 32.8798 -0.0844
# 6 17.7738 5.4252 10.8367 -2.8796 -0.0844 20.3016
#
#
#
# Elastic Compliance Matrix: (Units=1/GPa)
#
#
# Indices 1 2 3 4 5 6 
#
# 1 0.014754 -0.003466 0.001210 -0.001066 -0.002860 -0.012800
# 2 -0.003466 0.016464 -0.011153 -0.009388 -0.001547 0.003250
# 3 0.001210 -0.011153 0.029880 0.016902 0.009585 -0.011591
# 4 -0.001066 -0.009388 0.016902 0.076858 -0.009076 0.005284
# 5 -0.002860 -0.001547 0.009585 -0.009076 0.037540 -0.003331
# 6 -0.012800 0.003250 -0.011591 0.005284 -0.003331 0.066518
#
#
# Mechanical properties :
#
#
# Convention : Reuss Voigt Hill
#
# Bulk Modulus (GPa) = 29.17043 40.76147 34.96595
# Shear Modulus (GPa) = 17.84061 25.76338 21.80200
#
# Velocity S-wave (km/s) = 3.01180 3.61929 3.32943
# Velocity P-wave (km/s) = 5.18904 6.17986 5.70600
#
# Compressibility (1/GPa) = 0.03428130
#
# Stress axis : x y z
#
# Youngs Moduli (GPa) = 67.77649 60.73761 33.46671
#
# Poissons Ratio (x) = 0.21052 -0.04049
# Poissons Ratio (y) = 0.23492 0.37324
# Poissons Ratio (z) = -0.08200 0.67739
#
# Static dielectric constant tensor:
#      x y z
#    x 1.713080 0.042000 -0.017910 
#    y 0.042000 1.727760 0.006770 
#    z -0.017910 0.006770 1.738510 
# 
# From -- ./inp_files/332148.got.cif
#   From: 2010.05.17/outbox.cif.g08.bks.cpg/sg2_167_cif.got.tgz:332148.got - 2010.06.03 11:33:40.
