data_PCOD9102873
_publ_section_title
;
Structure prediction by ZEFSAII (Michael W. Deem and Ramdas Pophale) SiO2 
 PCOD9102873
Probable space group: P -1
;
_chemical_formula_sum "Si O2"
_cell_formula_units_Z 16
_cell_length_a 11.376248
_cell_length_b 9.484256
_cell_length_c 11.845102
_cell_angle_alpha 142.845492
_cell_angle_beta 91.117675
_cell_angle_gamma 85.329891
_cell_volume 767.135007
_symmetry_space_group_name_H-M "P -1"
_symmetry_group_IT_number 2
_symmetry_cell_setting 'triclinic'
loop_
_space_group_symop_operation_xyz
x,y,z
-x,-y,-z
loop_
_atom_site_type_symbol
_atom_site_label
_atom_site_fract_x
_atom_site_fract_y
_atom_site_fract_z
Si Si1 0.394094 0.184153 0.650047
Si Si2 0.989144 0.967747 0.631794
Si Si3 0.659737 0.807368 0.082632
Si Si4 0.203721 0.960643 0.957713
Si Si5 0.991159 0.742274 0.722343
Si Si6 0.399981 0.730658 0.985912
Si Si7 0.858921 0.735290 0.312680
Si Si8 0.219566 0.645150 0.104430
O O1 0.361619 0.138564 0.750770
O O2 0.425994 0.448012 0.801874
O O3 0.268940 0.184045 0.585398
O O4 0.500000 0.000000 0.500000
O O5 0.991099 0.929535 0.739805
O O6 0.956539 0.740982 0.416221
O O7 0.882174 0.169039 0.733796
O O8 0.102976 0.072959 0.653044
O O9 0.739264 0.959900 0.106628
O O10 0.526878 0.823807 0.042488
O O11 0.725563 0.542061 0.922384
O O12 0.126430 0.180812 0.158008
O O13 0.309569 0.844549 0.963691
O O14 0.108024 0.776790 0.817898
O O15 0.000000 0.500000 0.500000
O O16 0.326835 0.762247 0.122315
O O17 0.840163 0.503512 0.091547
#
# Coordination Sequence:
#
# PCOD9102873 Si02
#       8
#     2   2   2   2   2   2   2   2
#     4  10  22  39  64  94 129 161 209 268 308 371
#     4  11  21  38  62  90 123 159 204 258 311 371
#     4  10  22  41  65  93 125 164 212 258 316 375
#     4  11  24  46  64  91 130 167 210 262 309 380
#     4  11  26  41  66  90 128 170 211 253 320 378
#     4  10  21  41  65  90 122 173 209 248 324 375
#     4   9  22  34  59  94 121 151 204 256 308 367
#     4  10  20  38  64  91 122 160 201 254 315 369
#
# _framework density 20.856824
#
# number of rings (size 3 to 8) (size 9 to 14) (size 15 to 20)
#    0.000    2.000    1.250    3.750    7.000    2.000 
#    2.250    0.625    0.000    0.000    0.000    0.000 
#    0.000    0.000    0.000    0.000    0.000    0.000 
#
# Total GULP energy -89286.643091 kJ/mol
# GULP energy per Si atom -5580.415193 kJ/mol
# Density = 2.080935 g / cm^3
# Si number density = 20.856824 Si / 1000 Ang^3
#
#
#
# Elastic Constant Matrix: (Units=GPa)
#
#
# Indices 1 2 3 4 5 6 
#
# 1 103.2102 12.4397 42.6833 9.9425 2.4893 0.3457
# 2 12.4397 73.5560 1.5201 -2.5453 -5.3837 -0.3925
# 3 42.6833 1.5201 89.9725 4.2345 -6.0742 -2.6858
# 4 9.9425 -2.5453 4.2345 16.6926 -10.6688 3.5718
# 5 2.4893 -5.3837 -6.0742 -10.6688 29.9053 -1.9874
# 6 0.3457 -0.3925 -2.6858 3.5718 -1.9874 38.4698
#
#
#
# Elastic Compliance Matrix: (Units=1/GPa)
#
#
# Indices 1 2 3 4 5 6 
#
# 1 0.014122 -0.003203 -0.006576 -0.011949 -0.007343 0.000111
# 2 -0.003203 0.014806 0.001305 0.007643 0.005915 -0.000133
# 3 -0.006576 0.001305 0.014418 0.003439 0.005005 0.001018
# 4 -0.011949 0.007643 0.003439 0.091122 0.035164 -0.006218
# 5 -0.007343 0.005915 0.005005 0.035164 0.048658 -0.000275
# 6 0.000111 -0.000133 0.001018 -0.006218 -0.000275 0.026626
#
#
# Mechanical properties :
#
#
# Convention : Reuss Voigt Hill
#
# Bulk Modulus (GPa) = 37.87853 42.22497 40.05175
# Shear Modulus (GPa) = 21.23139 31.01992 26.12565
#
# Velocity S-wave (km/s) = 3.19401 3.86071 3.54308
# Velocity P-wave (km/s) = 5.63941 6.33739 5.99856
#
# Compressibility (1/GPa) = 0.02640018
#
# Stress axis : x y z
#
# Youngs Moduli (GPa) = 70.81072 67.53801 69.35594
#
# Poissons Ratio (x) = 0.21631 0.45605
# Poissons Ratio (y) = 0.22679 -0.09050
# Poissons Ratio (z) = 0.46562 -0.08813
#
# Static dielectric constant tensor:
#      x y z
#    x 1.745280 -0.024800 0.032810 
#    y -0.024800 1.760610 -0.011760 
#    z 0.032810 -0.011760 1.798860 
# 
# From -- ./inp_files/418647.got.cif
#   From: 2010.05.17/outbox.cif.g08.bks.cpg/sg2_210_cif.got.tgz:418647.got - 2010.06.03 11:33:40.
