data_PCOD9102021
_publ_section_title
;
Structure prediction by ZEFSAII (Michael W. Deem and Ramdas Pophale) SiO2 
 PCOD9102021
Probable space group: P -1
;
_chemical_formula_sum "Si O2"
_cell_formula_units_Z 15
_cell_length_a 16.552707
_cell_length_b 8.792017
_cell_length_c 7.997119
_cell_angle_alpha 111.526868
_cell_angle_beta 144.631174
_cell_angle_gamma 82.606808
_cell_volume 594.418428
_symmetry_space_group_name_H-M "P -1"
_symmetry_group_IT_number 2
_symmetry_cell_setting 'triclinic'
loop_
_space_group_symop_operation_xyz
x,y,z
-x,-y,-z
loop_
_atom_site_type_symbol
_atom_site_label
_atom_site_fract_x
_atom_site_fract_y
_atom_site_fract_z
Si Si1 0.277518 0.300161 0.581369
Si Si2 0.500000 0.000000 0.500000
Si Si3 0.945715 0.659086 0.323627
Si Si4 0.977683 0.162098 0.160009
Si Si5 0.473869 0.067502 0.803391
Si Si6 0.267005 0.669952 0.753600
Si Si7 0.225061 0.150197 0.091332
Si Si8 0.141145 0.625596 0.184646
O O1 0.405857 0.218562 0.785980
O O2 0.294220 0.488867 0.757375
O O3 0.254601 0.300824 0.343094
O O4 0.133612 0.157396 0.354591
O O5 0.398344 0.924480 0.481062
O O6 0.375746 0.113639 0.291671
O O7 0.966617 0.668362 0.559416
O O8 0.113333 0.691896 0.556536
O O9 0.866337 0.798017 0.189959
O O10 0.845423 0.485903 0.996669
O O11 0.900269 0.213784 0.891377
O O12 0.885744 0.013201 0.064839
O O13 0.598132 0.162113 0.900357
O O14 0.500000 0.000000 0.000000
O O15 0.267078 0.685945 0.558274
O O16 0.000000 0.500000 0.000000
#
# Coordination Sequence:
#
# PCOD9102021 Si02
#       8
#     2   1   2   2   2   2   2   2
#     4  11  23  42  64  93 134 170 214 269 325 392
#     4  10  26  50  60  96 140 162 218 270 330 386
#     4  11  22  39  66  97 130 169 212 278 326 385
#     4  12  23  37  65 102 128 167 221 268 329 388
#     4  11  27  44  71  95 128 180 221 268 327 391
#     4  11  22  44  65  93 132 172 215 261 333 390
#     4  11  24  42  67  91 131 177 210 276 328 380
#     4  10  20  38  61  91 132 163 210 268 320 387
#
# _framework density 25.234749999999998
#
# number of rings (size 3 to 8) (size 9 to 14) (size 15 to 20)
#    0.000    1.067    4.000    3.200    7.467    0.000 
#    0.000    0.000    0.000    4.000    0.000    0.000 
#    0.000    0.000    0.000    0.000    0.000    0.000 
#
# Total GULP energy -83549.130054 kJ/mol
# GULP energy per Si atom -5569.942004 kJ/mol
# Density = 2.517731 g / cm^3
# Si number density = 25.234750 Si / 1000 Ang^3
#
#
#
# Elastic Constant Matrix: (Units=GPa)
#
#
# Indices 1 2 3 4 5 6 
#
# 1 96.0210 47.2610 38.0134 -21.1821 -2.6600 -16.6550
# 2 47.2610 142.1539 52.8192 -19.5455 2.7756 -3.6329
# 3 38.0134 52.8192 94.9063 -22.1118 9.1883 -2.2584
# 4 -21.1821 -19.5455 -22.1118 48.1010 5.8875 -5.6200
# 5 -2.6600 2.7756 9.1883 5.8875 49.1527 -4.9680
# 6 -16.6550 -3.6329 -2.2584 -5.6200 -4.9680 45.7753
#
#
#
# Elastic Compliance Matrix: (Units=1/GPa)
#
#
# Indices 1 2 3 4 5 6 
#
# 1 0.015335 -0.003108 -0.003413 0.004400 0.001712 0.005890
# 2 -0.003108 0.009619 -0.003952 0.000679 -0.000103 -0.000490
# 3 -0.003413 -0.003952 0.015429 0.004329 -0.003428 -0.000635
# 4 0.004400 0.000679 0.004329 0.025939 -0.003241 0.004701
# 5 0.001712 -0.000103 -0.003428 -0.003241 0.021715 0.002404
# 6 0.005890 -0.000490 -0.000635 0.004701 0.002404 0.024757
#
#
# Mechanical properties :
#
#
# Convention : Reuss Voigt Hill
#
# Bulk Modulus (GPa) = 51.44929 67.69648 59.57288
# Shear Modulus (GPa) = 35.65846 41.60499 38.63172
#
# Velocity S-wave (km/s) = 3.76316 4.06485 3.91691
# Velocity P-wave (km/s) = 6.27012 6.99397 6.64191
#
# Compressibility (1/GPa) = 0.01943661
#
# Stress axis : x y z
#
# Youngs Moduli (GPa) = 65.21010 103.95847 64.81473
#
# Poissons Ratio (x) = 0.32312 0.22120
# Poissons Ratio (y) = 0.20268 0.25615
# Poissons Ratio (z) = 0.22255 0.41085
#
# Static dielectric constant tensor:
#      x y z
#    x 2.094620 -0.051750 -0.045440 
#    y -0.051750 2.034590 0.138370 
#    z -0.045440 0.138370 2.284400 
# 
# From -- ./inp_files/296306.got.cif
#   From: 2010.05.17/outbox.cif.g08.bks.cpg/sg2_149_cif.got.tgz:296306.got - 2010.06.03 11:33:40.
