data_PCOD9102158
_publ_section_title
;
Structure prediction by ZEFSAII (Michael W. Deem and Ramdas Pophale) SiO2 
 PCOD9102158
Probable space group: P -1
;
_chemical_formula_sum "Si O2"
_cell_formula_units_Z 13
_cell_length_a 11.335380
_cell_length_b 8.081919
_cell_length_c 12.207290
_cell_angle_alpha 54.982892
_cell_angle_beta 55.667304
_cell_angle_gamma 96.916381
_cell_volume 570.447833
_symmetry_space_group_name_H-M "P -1"
_symmetry_group_IT_number 2
_symmetry_cell_setting 'triclinic'
loop_
_space_group_symop_operation_xyz
x,y,z
-x,-y,-z
loop_
_atom_site_type_symbol
_atom_site_label
_atom_site_fract_x
_atom_site_fract_y
_atom_site_fract_z
Si Si1 0.114080 0.785561 0.652860
Si Si2 0.035522 0.817951 0.440240
Si Si3 0.000000 0.000000 0.000000
Si Si4 0.674362 0.425674 0.458253
Si Si5 0.321556 0.726332 0.253886
Si Si6 0.834026 0.696495 0.968310
Si Si7 0.460485 0.203930 0.444063
O O1 0.073070 0.866048 0.531933
O O2 0.213128 0.669982 0.608339
O O3 0.925787 0.588148 0.899594
O O4 0.255496 0.035082 0.564274
O O5 0.172401 0.760534 0.353918
O O6 0.815418 0.551439 0.637110
O O7 0.107485 0.066130 0.231824
O O8 0.834508 0.742233 0.257594
O O9 0.908400 0.807426 0.009123
O O10 0.605161 0.314309 0.658924
O O11 0.507195 0.310917 0.502944
O O12 0.500000 0.000000 0.000000
O O13 0.611714 0.453429 0.191934
O O14 0.500000 0.000000 0.500000
#
# Coordination Sequence:
#
# PCOD9102158 Si02
#       7
#     2   2   1   2   2   2   2
#     4  10  22  39  63  90 126 165 206 248 316 372
#     4  10  22  39  62  93 124 162 211 256 308 370
#     4  10  20  38  62  86 130 154 208 258 294 374
#     4   9  19  40  62  90 125 162 208 259 304 369
#     4  10  21  40  64  92 126 164 206 257 316 367
#     4  11  22  40  63  90 125 166 204 259 310 364
#     4   9  21  38  57  89 124 157 206 252 301 369
#
# _framework density 22.789113
#
# number of rings (size 3 to 8) (size 9 to 14) (size 15 to 20)
#    0.000    2.154    1.538    0.462    0.000   11.077 
#    2.769    1.538    0.000    0.000    0.000    0.000 
#    0.000    0.000    0.000    0.000    0.000    0.000 
#
# Total GULP energy -72381.133027 kJ/mol
# GULP energy per Si atom -5567.779464 kJ/mol
# Density = 2.273724 g / cm^3
# Si number density = 22.789113 Si / 1000 Ang^3
#
#
#
# Elastic Constant Matrix: (Units=GPa)
#
#
# Indices 1 2 3 4 5 6 
#
# 1 86.6219 30.1437 39.7729 -0.0921 11.4472 22.1335
# 2 30.1437 55.8250 18.4685 -0.7649 3.4010 19.6606
# 3 39.7729 18.4685 145.0398 -10.6036 22.4748 22.9273
# 4 -0.0921 -0.7649 -10.6036 40.1830 2.0338 0.9068
# 5 11.4472 3.4010 22.4748 2.0338 35.3380 4.7699
# 6 22.1335 19.6606 22.9273 0.9068 4.7699 34.2885
#
#
#
# Elastic Compliance Matrix: (Units=1/GPa)
#
#
# Indices 1 2 3 4 5 6 
#
# 1 0.016474 -0.006121 -0.002614 -0.000535 -0.002375 -0.005032
# 2 -0.006121 0.024840 0.000081 0.000670 0.000918 -0.010491
# 3 -0.002614 0.000081 0.009129 0.002725 -0.004598 -0.003895
# 4 -0.000535 0.000670 0.002725 0.025808 -0.002819 -0.002152
# 5 -0.002375 0.000918 -0.004598 -0.002819 0.032108 -0.000311
# 6 -0.005032 -0.010491 -0.003895 -0.002152 -0.000311 0.041133
#
#
# Mechanical properties :
#
#
# Convention : Reuss Voigt Hill
#
# Bulk Modulus (GPa) = 30.18072 51.58409 40.88240
# Shear Modulus (GPa) = 28.11476 35.23534 31.67505
#
# Velocity S-wave (km/s) = 3.51621 3.93637 3.73221
# Velocity P-wave (km/s) = 5.45501 6.58366 6.04573
#
# Compressibility (1/GPa) = 0.03313374
#
# Stress axis : x y z
#
# Youngs Moduli (GPa) = 60.70317 40.25844 109.54614
#
# Poissons Ratio (x) = 0.24642 0.28631
# Poissons Ratio (y) = 0.37156 -0.00884
# Poissons Ratio (z) = 0.15866 -0.00325
#
# Static dielectric constant tensor:
#      x y z
#    x 1.898950 -0.059860 -0.006950 
#    y -0.059860 1.889570 0.010660 
#    z -0.006950 0.010660 1.795010 
# 
# From -- ./inp_files/59494.got.cif
#   From: 2010.05.17/outbox.cif.g08.bks.cpg/sg2_30_cif.got.tgz:59494.got - 2010.06.03 11:33:40.
