data_PCOD9102495
_publ_section_title
;
Structure prediction by ZEFSAII (Michael W. Deem and Ramdas Pophale) SiO2 
 PCOD9102495
Probable space group: P -1
;
_chemical_formula_sum "Si O2"
_cell_formula_units_Z 12
_cell_length_a 9.115993
_cell_length_b 15.262565
_cell_length_c 5.094917
_cell_angle_alpha 105.186270
_cell_angle_beta 56.197508
_cell_angle_gamma 115.948074
_cell_volume 529.501516
_symmetry_space_group_name_H-M "P -1"
_symmetry_group_IT_number 2
_symmetry_cell_setting 'triclinic'
loop_
_space_group_symop_operation_xyz
x,y,z
-x,-y,-z
loop_
_atom_site_type_symbol
_atom_site_label
_atom_site_fract_x
_atom_site_fract_y
_atom_site_fract_z
Si Si1 0.435606 0.350103 0.451343
Si Si2 0.494610 0.836888 0.566102
Si Si3 0.886629 0.014296 0.373135
Si Si4 0.262587 0.483649 0.995462
Si Si5 0.094853 0.381472 0.590276
Si Si6 0.755006 0.189918 0.708243
O O1 0.449395 0.255767 0.494124
O O2 0.406150 0.424794 0.755721
O O3 0.618190 0.409012 0.141008
O O4 0.249763 0.329929 0.440560
O O5 0.412588 0.829602 0.350213
O O6 0.675407 0.933943 0.507842
O O7 0.331760 0.832918 0.932703
O O8 0.866462 0.118721 0.478228
O O9 0.000000 0.000000 0.500000
O O10 0.000000 0.000000 0.000000
O O11 0.097679 0.430004 0.908052
O O12 0.178931 0.463428 0.350600
O O13 0.899893 0.300633 0.637972
#
# Coordination Sequence:
#
# PCOD9102495 Si02
#       6
#     2   2   2   2   2   2
#     4   9  22  37  67  88 125 167 225 250 310 357
#     4  12  26  42  65  97 134 164 201 263 331 373
#     4  12  26  46  73  95 119 168 220 255 305 385
#     4   9  20  36  66  89 122 164 226 266 283 358
#     4  10  20  38  63  87 124 170 214 254 304 366
#     4  12  26  43  63  97 138 162 197 267 330 371
#
# _framework density 22.662828000000001
#
# number of rings (size 3 to 8) (size 9 to 14) (size 15 to 20)
#    1.000    0.333    0.000    5.500    4.667    0.000 
#    0.000    5.000    0.000    0.000    0.000    0.000 
#    0.000    0.000    0.000    0.000    0.000    0.000 
#
# Total GULP energy -67156.963303 kJ/mol
# GULP energy per Si atom -5596.413609 kJ/mol
# Density = 2.261125 g / cm^3
# Si number density = 22.662828 Si / 1000 Ang^3
#
#
#
# Elastic Constant Matrix: (Units=GPa)
#
#
# Indices 1 2 3 4 5 6 
#
# 1 102.5144 20.9496 -6.4534 8.1369 8.0717 9.3954
# 2 20.9496 24.9697 -2.1896 -2.9967 -16.3869 9.8865
# 3 -6.4534 -2.1896 67.6859 -3.2791 5.6738 -6.7600
# 4 8.1369 -2.9967 -3.2791 29.8250 -2.9010 -15.4327
# 5 8.0717 -16.3869 5.6738 -2.9010 39.3769 3.2686
# 6 9.3954 9.8865 -6.7600 -15.4327 3.2686 53.3619
#
#
#
# Elastic Compliance Matrix: (Units=1/GPa)
#
#
# Indices 1 2 3 4 5 6 
#
# 1 0.016540 -0.024236 0.001644 -0.007976 -0.014331 0.000358
# 2 -0.024236 0.099233 -0.003891 0.013884 0.048976 -0.013596
# 3 0.001644 -0.003891 0.015601 0.002162 -0.004319 0.003298
# 4 -0.007976 0.013884 0.002162 0.044090 0.009413 0.011281
# 5 -0.014331 0.048976 -0.004319 0.009413 0.050651 -0.007478
# 6 0.000358 -0.013596 0.003298 0.011281 -0.007478 0.025334
#
#
# Mechanical properties :
#
#
# Convention : Reuss Voigt Hill
#
# Bulk Modulus (GPa) = 12.75424 24.42036 18.58730
# Shear Modulus (GPa) = 15.12620 36.70366 25.91493
#
# Velocity S-wave (km/s) = 2.58630 4.02873 3.38524
# Velocity P-wave (km/s) = 3.81558 5.69560 4.84760
#
# Compressibility (1/GPa) = 0.07840527
#
# Stress axis : x y z
#
# Youngs Moduli (GPa) = 60.46059 10.07734 64.09815
#
# Poissons Ratio (x) = 0.24424 -0.10535
# Poissons Ratio (y) = 1.46534 0.24943
# Poissons Ratio (z) = -0.09937 0.03921
#
# Static dielectric constant tensor:
#      x y z
#    x 1.843260 0.001640 -0.035970 
#    y 0.001640 1.804320 0.029370 
#    z -0.035970 0.029370 1.814500 
# 
# From -- ./inp_files/30248.got.cif
#   From: 2010.05.17/outbox.cif.g08.bks.cpg/sg2_16_cif.got.tgz:30248.got - 2010.06.03 11:33:40.
