data_PCOD9102937
_publ_section_title
;
Structure prediction by ZEFSAII (Michael W. Deem and Ramdas Pophale) SiO2 
 PCOD9102937
Probable space group: P -1
;
_chemical_formula_sum "Si O2"
_cell_formula_units_Z 16
_cell_length_a 15.726941
_cell_length_b 8.949326
_cell_length_c 15.968195
_cell_angle_alpha 98.876058
_cell_angle_beta 152.964170
_cell_angle_gamma 98.549759
_cell_volume 778.016798
_symmetry_space_group_name_H-M "P -1"
_symmetry_group_IT_number 2
_symmetry_cell_setting 'triclinic'
loop_
_space_group_symop_operation_xyz
x,y,z
-x,-y,-z
loop_
_atom_site_type_symbol
_atom_site_label
_atom_site_fract_x
_atom_site_fract_y
_atom_site_fract_z
Si Si1 0.247678 0.464220 0.608699
Si Si2 0.917650 0.261741 0.612900
Si Si3 0.004652 0.748541 0.793770
Si Si4 0.515219 0.495713 0.611844
Si Si5 0.671712 0.440104 0.134074
Si Si6 0.655210 0.826546 0.310902
Si Si7 0.774390 0.423740 0.954154
Si Si8 0.575419 0.795390 0.813564
O O1 0.238640 0.553071 0.693780
O O2 0.228504 0.278928 0.599867
O O3 0.512334 0.641393 0.817617
O O4 0.058387 0.376035 0.357914
O O5 0.659535 0.216359 0.385682
O O6 0.103059 0.404273 0.714514
O O7 0.848754 0.053550 0.518636
O O8 0.049226 0.370106 0.824358
O O9 0.749462 0.677979 0.597172
O O10 0.102041 0.677326 0.940664
O O11 0.192591 0.978267 0.959794
O O12 0.500000 0.500000 0.500000
O O13 0.696434 0.460732 0.802598
O O14 0.579250 0.692223 0.725662
O O15 0.500000 0.500000 0.000000
O O16 0.502479 0.234508 0.917610
O O17 0.463374 0.720422 0.209188
#
# Coordination Sequence:
#
# PCOD9102937 Si02
#       8
#     2   2   2   2   2   2   2   2
#     4  10  21  40  59  94 133 170 221 272 304 374
#     4  11  22  39  68  94 128 179 222 264 325 377
#     4  11  23  42  68  96 130 171 219 259 323 392
#     4  11  26  47  70  99 130 162 207 269 330 395
#     4   9  22  38  59  93 137 172 225 272 317 364
#     4  10  20  38  64  93 124 176 218 263 319 371
#     4  11  21  43  67  93 128 166 210 266 317 390
#     4  11  23  42  65  96 129 170 220 261 324 389
#
# _framework density 20.565109
#
# number of rings (size 3 to 8) (size 9 to 14) (size 15 to 20)
#    0.000    1.500    6.250    0.000    1.750    4.500 
#    0.000    1.875    0.000    0.000    0.000    0.000 
#    0.000    0.000    0.000    0.000    0.000    0.000 
#
# Total GULP energy -89273.080611 kJ/mol
# GULP energy per Si atom -5579.567538 kJ/mol
# Density = 2.051830 g / cm^3
# Si number density = 20.565109 Si / 1000 Ang^3
#
#
#
# Elastic Constant Matrix: (Units=GPa)
#
#
# Indices 1 2 3 4 5 6 
#
# 1 54.0073 27.9684 33.7169 3.9072 -21.8687 15.6849
# 2 27.9684 93.9581 52.5130 16.4129 -14.5616 -1.3746
# 3 33.7169 52.5130 103.1550 23.5815 -2.2534 15.7136
# 4 3.9072 16.4129 23.5815 55.7462 -2.3070 0.8803
# 5 -21.8687 -14.5616 -2.2534 -2.3070 30.9461 -10.3522
# 6 15.6849 -1.3746 15.7136 0.8803 -10.3522 19.8024
#
#
#
# Elastic Compliance Matrix: (Units=1/GPa)
#
#
# Indices 1 2 3 4 5 6 
#
# 1 0.037536 -0.004098 -0.008494 0.003196 0.019856 -0.013038
# 2 -0.004098 0.021233 -0.012332 -0.000535 0.013353 0.021510
# 3 -0.008494 -0.012332 0.022957 -0.005881 -0.017712 -0.021343
# 4 0.003196 -0.000535 -0.005881 0.020481 0.004245 0.003407
# 5 0.019856 0.013353 -0.017712 0.004245 0.062225 0.031596
# 6 -0.013038 0.021510 -0.021343 0.003407 0.031596 0.095621
#
#
# Mechanical properties :
#
#
# Convention : Reuss Voigt Hill
#
# Bulk Modulus (GPa) = 31.36951 53.27965 42.32458
# Shear Modulus (GPa) = 15.59927 30.42708 23.01318
#
# Velocity S-wave (km/s) = 2.75713 3.85066 3.34883
# Velocity P-wave (km/s) = 5.04208 6.76270 5.96476
#
# Compressibility (1/GPa) = 0.03187809
#
# Stress axis : x y z
#
# Youngs Moduli (GPa) = 26.64104 47.09667 43.55968
#
# Poissons Ratio (x) = 0.19301 0.36998
# Poissons Ratio (y) = 0.10918 0.53719
# Poissons Ratio (z) = 0.22628 0.58081
#
# Static dielectric constant tensor:
#      x y z
#    x 1.726620 -0.020230 -0.008820 
#    y -0.020230 1.820060 -0.086630 
#    z -0.008820 -0.086630 1.780670 
# 
# From -- ./inp_files/529934.got.cif
#   From: 2010.05.17/outbox.cif.g08.bks.cpg/sg2_265_cif.got.tgz:529934.got - 2010.06.03 11:33:40.
