data_PCOD9102621
_publ_section_title
;
Structure prediction by ZEFSAII (Michael W. Deem and Ramdas Pophale) SiO2 
 PCOD9102621
Probable space group: P -1
;
_chemical_formula_sum "Si O2"
_cell_formula_units_Z 14
_cell_length_a 8.086751
_cell_length_b 11.145869
_cell_length_c 10.185078
_cell_angle_alpha 132.327564
_cell_angle_beta 59.332394
_cell_angle_gamma 116.324935
_cell_volume 576.512696
_symmetry_space_group_name_H-M "P -1"
_symmetry_group_IT_number 2
_symmetry_cell_setting 'triclinic'
loop_
_space_group_symop_operation_xyz
x,y,z
-x,-y,-z
loop_
_atom_site_type_symbol
_atom_site_label
_atom_site_fract_x
_atom_site_fract_y
_atom_site_fract_z
Si Si1 0.737716 0.275486 0.405661
Si Si2 0.515979 0.542920 0.679208
Si Si3 0.942772 0.201809 0.530532
Si Si4 0.834255 0.082175 0.857970
Si Si5 0.464017 0.958571 0.333093
Si Si6 0.618611 0.878445 0.990995
Si Si7 0.102624 0.573553 0.826262
O O1 0.627991 0.416998 0.613723
O O2 0.876215 0.223846 0.423014
O O3 0.557907 0.127867 0.347036
O O4 0.839773 0.351488 0.287755
O O5 0.500000 0.500000 0.500000
O O6 0.295551 0.547225 0.810295
O O7 0.634999 0.721228 0.782043
O O8 0.005093 0.385964 0.698533
O O9 0.758640 0.123167 0.634660
O O10 0.079706 0.060145 0.360246
O O11 0.606373 0.090318 0.919808
O O12 0.956130 0.266600 0.955704
O O13 0.794438 0.012602 0.971643
O O14 0.500000 0.000000 0.500000
O O15 0.603486 0.841732 0.124873
#
# Coordination Sequence:
#
# PCOD9102621 Si02
#       7
#     2   2   2   2   2   2   2
#     4  10  20  41  62  87 126 171 206 255 316 380
#     4   9  19  36  65  95 118 158 215 264 308 369
#     4  11  24  40  60  96 133 160 207 269 323 363
#     4  10  21  38  66  97 119 164 219 265 311 372
#     4  10  23  43  59  89 134 175 205 246 326 392
#     4  10  20  40  66  93 126 167 216 257 313 384
#     4  10  20  38  63  93 122 156 220 264 309 368
#
# _framework density 24.283937999999999
#
# number of rings (size 3 to 8) (size 9 to 14) (size 15 to 20)
#    0.000    2.000    1.429    2.143    4.000    1.143 
#    7.714    2.857    0.000    0.000    0.000    0.000 
#    0.000    0.000    0.000    0.000    0.000    0.000 
#
# Total GULP energy -77946.666331 kJ/mol
# GULP energy per Si atom -5567.619024 kJ/mol
# Density = 2.422867 g / cm^3
# Si number density = 24.283938 Si / 1000 Ang^3
#
#
#
# Elastic Constant Matrix: (Units=GPa)
#
#
# Indices 1 2 3 4 5 6 
#
# 1 59.0008 30.5813 16.6847 30.9601 -0.9309 -0.8584
# 2 30.5813 133.7794 71.1425 19.9667 2.8827 32.0118
# 3 16.6847 71.1425 119.2801 33.5845 20.8204 21.4042
# 4 30.9601 19.9667 33.5845 54.0938 -0.6039 16.2947
# 5 -0.9309 2.8827 20.8204 -0.6039 27.3523 7.0135
# 6 -0.8584 32.0118 21.4042 16.2947 7.0135 41.6308
#
#
#
# Elastic Compliance Matrix: (Units=1/GPa)
#
#
# Indices 1 2 3 4 5 6 
#
# 1 0.034802 -0.012544 0.008268 -0.025864 -0.008906 0.017736
# 2 -0.012544 0.017994 -0.011657 0.012325 0.010594 -0.014710
# 3 0.008268 -0.011657 0.019889 -0.015228 -0.015901 0.007548
# 4 -0.025864 0.012325 -0.015228 0.045182 0.016204 -0.022595
# 5 -0.008906 0.010594 -0.015901 0.016204 0.051492 -0.015172
# 6 0.017736 -0.014710 0.007548 -0.022595 -0.015172 0.043217
#
#
# Mechanical properties :
#
#
# Convention : Reuss Voigt Hill
#
# Bulk Modulus (GPa) = 24.49948 60.98637 42.74292
# Shear Modulus (GPa) = 19.37616 37.52549 28.45083
#
# Velocity S-wave (km/s) = 2.82778 3.93527 3.42656
# Velocity P-wave (km/s) = 4.55768 6.76881 5.77015
#
# Compressibility (1/GPa) = 0.04081720
#
# Stress axis : x y z
#
# Youngs Moduli (GPa) = 28.73393 55.57408 50.27998
#
# Poissons Ratio (x) = 0.69714 -0.41570
# Poissons Ratio (y) = 0.36045 0.58612
# Poissons Ratio (z) = -0.23756 0.64784
#
# Static dielectric constant tensor:
#      x y z
#    x 2.063210 -0.051500 0.137530 
#    y -0.051500 1.974060 0.011300 
#    z 0.137530 0.011300 2.155200 
# 
# From -- ./inp_files/237520.got.cif
#   From: 2010.05.17/outbox.cif.g08.bks.cpg/sg2_119_cif.got.tgz:237520.got - 2010.06.03 11:33:40.
