data_PCOD9102159
_publ_section_title
;
Structure prediction by ZEFSAII (Michael W. Deem and Ramdas Pophale) SiO2 
 PCOD9102159
Probable space group: P -1
;
_chemical_formula_sum "Si O2"
_cell_formula_units_Z 16
_cell_length_a 10.194143
_cell_length_b 18.801581
_cell_length_c 18.622559
_cell_angle_alpha 16.326529
_cell_angle_beta 41.644146
_cell_angle_gamma 41.304347
_cell_volume 655.565338
_symmetry_space_group_name_H-M "P -1"
_symmetry_group_IT_number 2
_symmetry_cell_setting 'triclinic'
loop_
_space_group_symop_operation_xyz
x,y,z
-x,-y,-z
loop_
_atom_site_type_symbol
_atom_site_label
_atom_site_fract_x
_atom_site_fract_y
_atom_site_fract_z
Si Si1 0.304963 0.484083 0.428170
Si Si2 0.061279 0.085055 0.469389
Si Si3 0.078008 0.682191 0.199158
Si Si4 0.559978 0.806536 0.727703
Si Si5 0.104136 0.346081 0.956796
Si Si6 0.206445 0.927477 0.153171
Si Si7 0.420806 0.906906 0.225404
Si Si8 0.186817 0.567881 0.126438
O O1 0.259059 0.647313 0.215635
O O2 0.269057 0.673906 0.326083
O O3 0.510524 0.286786 0.549772
O O4 0.119618 0.327293 0.663250
O O5 0.296695 0.094635 0.369654
O O6 0.016027 0.858941 0.758771
O O7 0.945377 0.371384 0.261708
O O8 0.000000 0.000000 0.500000
O O9 0.142930 0.460439 0.326530
O O10 0.000172 0.921583 0.944844
O O11 0.703970 0.584087 0.839881
O O12 0.500000 0.000000 0.500000
O O13 0.359229 0.734245 0.910892
O O14 0.331433 0.191610 0.015354
O O15 0.030447 0.351067 0.899635
O O16 0.252006 0.848716 0.294320
O O17 0.376291 0.096280 0.899589
#
# Coordination Sequence:
#
# PCOD9102159 Si02
#       8
#     2   2   2   2   2   2   2   2
#     4  10  22  38  61  91 139 176 220 290 340 410
#     4  11  25  46  71 100 142 182 224 294 367 421
#     4  10  21  40  61  93 127 179 233 271 352 407
#     4  10  21  42  66  94 131 170 230 294 348 414
#     4  11  23  43  72 100 138 181 237 284 348 436
#     4  10  20  38  62  86 134 172 224 280 340 397
#     4  10  22  38  59  97 125 175 228 279 336 409
#     4  10  21  40  67  96 129 178 234 291 343 423
#
# _framework density 24.406414999999999
#
# number of rings (size 3 to 8) (size 9 to 14) (size 15 to 20)
#    0.000    1.750    2.500    1.125    1.750    3.000 
#    4.500    0.000    0.000    0.000    0.000    0.000 
#    0.000    0.000    0.000    0.000    0.000    0.000 
#
# Total GULP energy -89164.911666 kJ/mol
# GULP energy per Si atom -5572.806979 kJ/mol
# Density = 2.435087 g / cm^3
# Si number density = 24.406415 Si / 1000 Ang^3
#
#
#
# Elastic Constant Matrix: (Units=GPa)
#
#
# Indices 1 2 3 4 5 6 
#
# 1 196.8738 54.4364 56.8734 -29.4414 17.7188 -1.7548
# 2 54.4364 76.5367 31.6600 -5.4830 0.6993 -12.4097
# 3 56.8734 31.6600 94.3856 -15.4970 5.1972 -5.9194
# 4 -29.4414 -5.4830 -15.4970 32.4235 -12.9513 -3.3474
# 5 17.7188 0.6993 5.1972 -12.9513 29.5320 -5.8825
# 6 -1.7548 -12.4097 -5.9194 -3.3474 -5.8825 42.1539
#
#
#
# Elastic Compliance Matrix: (Units=1/GPa)
#
#
# Indices 1 2 3 4 5 6 
#
# 1 0.007870 -0.004471 -0.002533 0.003947 -0.002720 -0.001410
# 2 -0.004471 0.018448 -0.003467 -0.000609 0.003627 0.005216
# 3 -0.002533 -0.003467 0.014038 0.004524 0.001394 0.001399
# 4 0.003947 -0.000609 0.004524 0.044166 0.017528 0.006573
# 5 -0.002720 0.003627 0.001394 0.017528 0.044595 0.008766
# 6 -0.001410 0.005216 0.001399 0.006573 0.008766 0.027141
#
#
# Mechanical properties :
#
#
# Convention : Reuss Voigt Hill
#
# Bulk Modulus (GPa) = 51.50721 72.63728 62.07225
# Shear Modulus (GPa) = 27.22259 35.81030 31.51644
#
# Velocity S-wave (km/s) = 3.34336 3.83462 3.59739
# Velocity P-wave (km/s) = 6.00449 7.03079 6.53781
#
# Compressibility (1/GPa) = 0.01941476
#
# Stress axis : x y z
#
# Youngs Moduli (GPa) = 127.06784 54.20533 71.23537
#
# Poissons Ratio (x) = 0.24233 0.18044
# Poissons Ratio (y) = 0.56807 0.24698
# Poissons Ratio (z) = 0.32187 0.18793
#
# Static dielectric constant tensor:
#      x y z
#    x 1.950080 -0.001490 -0.015610 
#    y -0.001490 1.790060 -0.123220 
#    z -0.015610 -0.123220 2.044300 
# 
# From -- ./inp_files/562008.got.cif
#   From: 2010.05.17/outbox.cif.g08.bks.cpg/sg2_282_cif.got.tgz:562008.got - 2010.06.03 11:33:40.
