data_PCOD9102136
_publ_section_title
;
Structure prediction by ZEFSAII (Michael W. Deem and Ramdas Pophale) SiO2 
 PCOD9102136
Probable space group: P -1
;
_chemical_formula_sum "Si O2"
_cell_formula_units_Z 16
_cell_length_a 10.175985
_cell_length_b 20.973410
_cell_length_c 8.711283
_cell_angle_alpha 29.460628
_cell_angle_beta 61.204179
_cell_angle_gamma 63.137687
_cell_volume 799.057777
_symmetry_space_group_name_H-M "P -1"
_symmetry_group_IT_number 2
_symmetry_cell_setting 'triclinic'
loop_
_space_group_symop_operation_xyz
x,y,z
-x,-y,-z
loop_
_atom_site_type_symbol
_atom_site_label
_atom_site_fract_x
_atom_site_fract_y
_atom_site_fract_z
Si Si1 0.940006 0.403630 0.111523
Si Si2 0.450358 0.035773 0.277900
Si Si3 0.613246 0.516311 0.042666
Si Si4 0.096378 0.100240 0.319523
Si Si5 0.109148 0.383211 0.745182
Si Si6 0.954397 0.863779 0.371033
Si Si7 0.453196 0.321919 0.734388
Si Si8 0.379449 0.221846 0.328698
O O1 0.781375 0.463622 0.013306
O O2 0.932187 0.258142 0.485683
O O3 0.000000 0.500000 0.000000
O O4 0.061436 0.383071 0.950985
O O5 0.271219 0.050632 0.328884
O O6 0.500000 0.000000 0.500000
O O7 0.520589 0.910848 0.409168
O O8 0.496104 0.182901 0.918232
O O9 0.566472 0.426653 0.400341
O O10 0.500000 0.500000 0.000000
O O11 0.613406 0.664217 0.790443
O O12 0.044593 0.116084 0.489921
O O13 0.078118 0.248642 0.959511
O O14 0.000000 0.000000 0.500000
O O15 0.289090 0.382572 0.644043
O O16 0.000000 0.500000 0.500000
O O17 0.788472 0.824879 0.498208
O O18 0.000000 0.000000 0.000000
O O19 0.433183 0.282262 0.008177
#
# Coordination Sequence:
#
# PCOD9102136 Si02
#       8
#     2   2   2   2   2   2   2   2
#     4  11  22  42  63  88 127 164 204 256 305 364
#     4   9  18  37  67  84 120 155 205 254 298 357
#     4  12  26  40  61  97 130 160 205 258 313 362
#     4  10  21  39  60  93 121 150 204 260 300 361
#     4  10  20  38  62  85 126 162 199 250 306 364
#     4  11  23  40  63  92 124 161 208 253 308 371
#     4  10  20  41  65  90 120 164 208 250 302 372
#     4  11  21  43  64  90 120 166 212 252 298 378
#
# _framework density 20.023582000000001
#
# number of rings (size 3 to 8) (size 9 to 14) (size 15 to 20)
#    0.000    1.500    6.250    1.125    1.750    4.000 
#    4.500    0.625    0.000    0.000    0.000    0.000 
#    0.000    0.000    0.000    0.000    0.000    0.000 
#
# Total GULP energy -89241.153633 kJ/mol
# GULP energy per Si atom -5577.572102 kJ/mol
# Density = 1.997801 g / cm^3
# Si number density = 20.023582 Si / 1000 Ang^3
#
#
#
# Elastic Constant Matrix: (Units=GPa)
#
#
# Indices 1 2 3 4 5 6 
#
# 1 95.9054 39.8891 32.8476 -31.9929 -3.5512 4.8699
# 2 39.8891 98.4729 43.6414 -46.2252 -6.5890 -2.1714
# 3 32.8476 43.6414 82.4311 -36.7756 -0.5600 -2.7365
# 4 -31.9929 -46.2252 -36.7756 45.6085 -5.6681 1.1276
# 5 -3.5512 -6.5890 -0.5600 -5.6681 32.1478 -15.7388
# 6 4.8699 -2.1714 -2.7365 1.1276 -15.7388 35.0935
#
#
#
# Elastic Compliance Matrix: (Units=1/GPa)
#
#
# Indices 1 2 3 4 5 6 
#
# 1 0.014222 -0.001473 -0.001609 0.007444 0.001748 -0.001645
# 2 -0.001473 0.022517 -0.001235 0.022035 0.011153 0.005795
# 3 -0.001609 -0.001235 0.019786 0.013975 0.003825 0.002956
# 4 0.007444 0.022035 0.013975 0.063145 0.021036 0.008826
# 5 0.001748 0.011153 0.003825 0.021036 0.047916 0.021559
# 6 -0.001645 0.005795 0.002956 0.008826 0.021559 0.038698
#
#
# Mechanical properties :
#
#
# Convention : Reuss Voigt Hill
#
# Bulk Modulus (GPa) = 20.88146 56.61840 38.74993
# Shear Modulus (GPa) = 21.65611 33.26538 27.46075
#
# Velocity S-wave (km/s) = 3.29223 4.08034 3.70729
# Velocity P-wave (km/s) = 4.99027 7.10888 6.14162
#
# Compressibility (1/GPa) = 0.04788936
#
# Stress axis : x y z
#
# Youngs Moduli (GPa) = 70.31260 44.41104 50.54191
#
# Poissons Ratio (x) = 0.06541 0.08134
# Poissons Ratio (y) = 0.10356 0.06244
# Poissons Ratio (z) = 0.11316 0.05487
#
# Static dielectric constant tensor:
#      x y z
#    x 1.684880 -0.002200 0.038120 
#    y -0.002200 1.711720 0.005050 
#    z 0.038120 0.005050 1.805240 
# 
# From -- ./inp_files/222832.got.cif
#   From: 2010.05.17/outbox.cif.g08.bks.cpg/sg2_112_cif.got.tgz:222832.got - 2010.06.03 11:33:40.
