data_PCOD9102348
_publ_section_title
;
Structure prediction by ZEFSAII (Michael W. Deem and Ramdas Pophale) SiO2 
 PCOD9102348
Probable space group: P -1
;
_chemical_formula_sum "Si O2"
_cell_formula_units_Z 12
_cell_length_a 14.198063
_cell_length_b 8.912918
_cell_length_c 8.765841
_cell_angle_alpha 135.682426
_cell_angle_beta 46.099961
_cell_angle_gamma 104.820430
_cell_volume 490.671770
_symmetry_space_group_name_H-M "P -1"
_symmetry_group_IT_number 2
_symmetry_cell_setting 'triclinic'
loop_
_space_group_symop_operation_xyz
x,y,z
-x,-y,-z
loop_
_atom_site_type_symbol
_atom_site_label
_atom_site_fract_x
_atom_site_fract_y
_atom_site_fract_z
Si Si1 0.002260 0.335830 0.609379
Si Si2 0.346002 0.536111 0.633414
Si Si3 0.030989 0.731800 0.726914
Si Si4 0.817579 0.061355 0.672927
Si Si5 0.586493 0.961440 0.714265
Si Si6 0.380363 0.428599 0.156178
O O1 0.974159 0.612409 0.835200
O O2 0.062118 0.259640 0.313148
O O3 0.895118 0.212467 0.635045
O O4 0.091022 0.216360 0.576976
O O5 0.500000 0.500000 0.500000
O O6 0.323756 0.331700 0.604817
O O7 0.354318 0.501228 0.418420
O O8 0.236013 0.807153 0.006883
O O9 0.211389 0.561754 0.380806
O O10 0.000000 0.000000 0.000000
O O11 0.693886 0.077098 0.708261
O O12 0.500000 0.000000 0.000000
O O13 0.465378 0.129736 0.848587
O O14 0.500000 0.500000 0.000000
#
# Coordination Sequence:
#
# PCOD9102348 Si02
#       6
#     2   2   2   2   2   2
#     4  10  24  40  65  90 127 177 208 264 311 389
#     4  11  22  38  66  95 125 164 211 260 323 384
#     4  11  24  44  63  90 135 172 214 255 325 383
#     4  11  21  41  65  96 126 163 224 259 320 377
#     4  10  20  38  62  92 128 161 203 271 317 365
#     4  11  23  41  66  95 131 165 207 272 323 369
#
# _framework density 24.456267
#
# number of rings (size 3 to 8) (size 9 to 14) (size 15 to 20)
#    0.000    1.333    3.333    4.000    0.000    2.667 
#    0.000    5.000    0.000    0.000    0.000    0.000 
#    0.000    0.000    0.000    0.000    0.000    0.000 
#
# Total GULP energy -66861.939130 kJ/mol
# GULP energy per Si atom -5571.828261 kJ/mol
# Density = 2.440060 g / cm^3
# Si number density = 24.456267 Si / 1000 Ang^3
#
#
#
# Elastic Constant Matrix: (Units=GPa)
#
#
# Indices 1 2 3 4 5 6 
#
# 1 99.3029 34.7481 18.1260 10.3495 -19.4318 -9.8482
# 2 34.7481 184.4531 32.4674 23.8031 -21.2453 4.4232
# 3 18.1260 32.4674 31.6967 15.5629 -0.1566 4.2126
# 4 10.3495 23.8031 15.5629 38.3606 1.6123 0.5079
# 5 -19.4318 -21.2453 -0.1566 1.6123 27.6799 -1.7590
# 6 -9.8482 4.4232 4.2126 0.5079 -1.7590 42.6843
#
#
#
# Elastic Compliance Matrix: (Units=1/GPa)
#
#
# Indices 1 2 3 4 5 6 
#
# 1 0.014095 -0.000044 -0.008078 -0.000985 0.010158 0.004484
# 2 -0.000044 0.007554 -0.006597 -0.002247 0.005869 0.000127
# 3 -0.008078 -0.006597 0.050448 -0.013686 -0.010059 -0.006410
# 4 -0.000985 -0.002247 -0.013686 0.033455 -0.004393 0.000777
# 5 0.010158 0.005869 -0.010059 -0.004393 0.048265 0.004769
# 6 0.004484 0.000127 -0.006410 0.000777 0.004769 0.025269
#
#
# Mechanical properties :
#
#
# Convention : Reuss Voigt Hill
#
# Bulk Modulus (GPa) = 23.44125 54.01508 38.72816
# Shear Modulus (GPa) = 22.44743 37.08571 29.76657
#
# Velocity S-wave (km/s) = 3.03291 3.89833 3.49253
# Velocity P-wave (km/s) = 4.67659 6.51130 5.66866
#
# Compressibility (1/GPa) = 0.04265984
#
# Stress axis : x y z
#
# Youngs Moduli (GPa) = 70.94684 132.38371 19.82252
#
# Poissons Ratio (x) = 0.00582 0.16012
# Poissons Ratio (y) = 0.00312 0.13076
# Poissons Ratio (z) = 0.57308 0.87330
#
# Static dielectric constant tensor:
#      x y z
#    x 2.033680 0.008850 0.111440 
#    y 0.008850 2.033400 0.013360 
#    z 0.111440 0.013360 2.441710 
# 
# From -- ./inp_files/281361.got.cif
#   From: 2010.05.17/outbox.cif.g08.bks.cpg/sg2_141_cif.got.tgz:281361.got - 2010.06.03 11:33:40.
