data_PCOD9102479
_publ_section_title
;
Structure prediction by ZEFSAII (Michael W. Deem and Ramdas Pophale) SiO2 
 PCOD9102479
Probable space group: P -1
;
_chemical_formula_sum "Si O2"
_cell_formula_units_Z 14
_cell_length_a 10.495366
_cell_length_b 6.631870
_cell_length_c 10.586046
_cell_angle_alpha 58.168970
_cell_angle_beta 115.996765
_cell_angle_gamma 116.767685
_cell_volume 538.996758
_symmetry_space_group_name_H-M "P -1"
_symmetry_group_IT_number 2
_symmetry_cell_setting 'triclinic'
loop_
_space_group_symop_operation_xyz
x,y,z
-x,-y,-z
loop_
_atom_site_type_symbol
_atom_site_label
_atom_site_fract_x
_atom_site_fract_y
_atom_site_fract_z
Si Si1 0.851542 0.280871 0.480065
Si Si2 0.823711 0.478907 0.796548
Si Si3 0.127477 0.850652 0.734696
Si Si4 0.131311 0.038113 0.941882
Si Si5 0.376539 0.800740 0.388123
Si Si6 0.546457 0.332509 0.280321
Si Si7 0.302562 0.498760 0.012178
O O1 0.864608 0.098653 0.429983
O O2 0.767808 0.160454 0.611792
O O3 0.722521 0.395128 0.336129
O O4 0.000000 0.500000 0.500000
O O5 0.818273 0.204519 0.928557
O O6 0.693668 0.428683 0.656193
O O7 0.795104 0.601847 0.872152
O O8 0.981414 0.617359 0.762338
O O9 0.107097 0.030588 0.780502
O O10 0.264677 0.745329 0.867958
O O11 0.249126 0.284949 0.957684
O O12 0.000000 0.000000 0.000000
O O13 0.479259 0.724933 0.562283
O O14 0.468562 0.057708 0.281438
O O15 0.467026 0.519012 0.124697
#
# Coordination Sequence:
#
# PCOD9102479 Si02
#       7
#     2   2   2   2   2   2   2
#     4  10  20  38  63  86 124 157 192 254 303 353
#     4  11  19  33  62  92 112 158 204 246 293 348
#     4  11  21  34  59  94 120 156 198 246 305 351
#     4  11  19  34  57  89 124 156 197 248 290 351
#     4   9  19  37  63  85 115 161 204 239 294 357
#     4   9  20  38  61  86 117 166 197 244 300 348
#     4  11  21  34  60  89 120 153 207 246 290 357
#
# _framework density 25.974181999999999
#
# number of rings (size 3 to 8) (size 9 to 14) (size 15 to 20)
#    0.857    0.857    5.714    0.857    0.000    1.143 
#    0.000    0.714    6.286    2.571    0.000    0.000 
#    0.000    0.000    0.000    0.000    0.000    0.000 
#
# Total GULP energy -78124.745281 kJ/mol
# GULP energy per Si atom -5580.338949 kJ/mol
# Density = 2.591506 g / cm^3
# Si number density = 25.974182 Si / 1000 Ang^3
#
#
#
# Elastic Constant Matrix: (Units=GPa)
#
#
# Indices 1 2 3 4 5 6 
#
# 1 125.9034 33.8767 32.1075 4.5157 9.2658 3.1622
# 2 33.8767 104.7786 40.1558 30.5732 4.1413 -13.7996
# 3 32.1075 40.1558 63.2875 18.6017 1.8500 -4.0535
# 4 4.5157 30.5732 18.6017 45.0049 -5.9866 -4.0181
# 5 9.2658 4.1413 1.8500 -5.9866 45.5734 15.4352
# 6 3.1622 -13.7996 -4.0535 -4.0181 15.4352 36.6230
#
#
#
# Elastic Compliance Matrix: (Units=1/GPa)
#
#
# Indices 1 2 3 4 5 6 
#
# 1 0.009638 -0.002330 -0.004099 0.002064 -0.000763 -0.001616
# 2 -0.002330 0.015957 -0.006053 -0.008063 -0.003928 0.006315
# 3 -0.004099 -0.006053 0.023244 -0.005105 -0.000303 0.000213
# 4 0.002064 -0.008063 -0.005105 0.030073 0.005405 -0.002760
# 5 -0.000763 -0.003928 -0.000303 0.005405 0.027374 -0.012392
# 6 -0.001616 0.006315 0.000213 -0.002760 -0.012392 0.034768
#
#
# Mechanical properties :
#
#
# Convention : Reuss Voigt Hill
#
# Bulk Modulus (GPa) = 41.88634 56.24994 49.06814
# Shear Modulus (GPa) = 28.73964 37.96222 33.35093
#
# Velocity S-wave (km/s) = 3.32997 3.82715 3.58719
# Velocity P-wave (km/s) = 5.56292 6.42126 6.00744
#
# Compressibility (1/GPa) = 0.02387413
#
# Stress axis : x y z
#
# Youngs Moduli (GPa) = 103.76103 62.66932 43.02136
#
# Poissons Ratio (x) = 0.14603 0.17634
# Poissons Ratio (y) = 0.24177 0.26042
# Poissons Ratio (z) = 0.42530 0.37935
#
# Static dielectric constant tensor:
#      x y z
#    x 2.124190 -0.082690 -0.028890 
#    y -0.082690 2.064260 0.034560 
#    z -0.028890 0.034560 2.141580 
# 
# From -- ./inp_files/409082.got.cif
#   From: 2010.05.17/outbox.cif.g08.bks.cpg/sg2_205_cif.got.tgz:409082.got - 2010.06.03 11:33:40.
