data_PCOD9102801
_publ_section_title
;
Structure prediction by ZEFSAII (Michael W. Deem and Ramdas Pophale) SiO2 
 PCOD9102801
Probable space group: P -1
;
_chemical_formula_sum "Si O2"
_cell_formula_units_Z 16
_cell_length_a 13.392198
_cell_length_b 11.156368
_cell_length_c 6.458873
_cell_angle_alpha 99.186338
_cell_angle_beta 129.732853
_cell_angle_gamma 95.931658
_cell_volume 705.285131
_symmetry_space_group_name_H-M "P -1"
_symmetry_group_IT_number 2
_symmetry_cell_setting 'triclinic'
loop_
_space_group_symop_operation_xyz
x,y,z
-x,-y,-z
loop_
_atom_site_type_symbol
_atom_site_label
_atom_site_fract_x
_atom_site_fract_y
_atom_site_fract_z
Si Si1 0.156999 0.136310 0.949336
Si Si2 0.808579 0.216522 0.074422
Si Si3 0.939509 0.897868 0.644560
Si Si4 0.598409 0.975380 0.801120
Si Si5 0.778226 0.673374 0.625098
Si Si6 0.630828 0.236372 0.471304
Si Si7 0.477346 0.591774 0.315483
Si Si8 0.752092 0.428882 0.314014
O O1 0.138583 0.110227 0.674994
O O2 0.292473 0.093594 0.162228
O O3 0.177012 0.283134 0.069556
O O4 0.018378 0.043251 0.829235
O O5 0.828336 0.350545 0.249495
O O6 0.941366 0.169890 0.242301
O O7 0.754449 0.211202 0.762987
O O8 0.693270 0.113413 0.021585
O O9 0.834884 0.809308 0.634214
O O10 0.491225 0.884600 0.787500
O O11 0.500000 0.000000 0.500000
O O12 0.617957 0.634002 0.395519
O O13 0.827511 0.561294 0.558016
O O14 0.561529 0.298649 0.578129
O O15 0.682687 0.335152 0.383252
O O16 0.500000 0.500000 0.500000
O O17 0.359137 0.542375 0.980583
#
# Coordination Sequence:
#
# PCOD9102801 Si02
#       8
#     2   2   2   2   2   2   2   2
#     4  10  22  42  65  93 127 161 212 263 310 363
#     4   9  22  43  58  88 131 163 210 262 307 368
#     4  10  24  43  65  92 126 166 214 261 304 375
#     4   9  18  37  64  89 123 166 197 257 321 361
#     4  12  24  37  67  93 123 168 209 253 318 377
#     4  10  20  38  64  88 126 162 208 265 313 372
#     4  11  23  39  60  94 134 157 203 267 315 376
#     4  11  25  38  63  96 122 171 210 253 323 376
#
# _framework density 22.685860000000002
#
# number of rings (size 3 to 8) (size 9 to 14) (size 15 to 20)
#    0.000    1.750    2.500    0.750    3.500    2.000 
#    0.000    8.750    0.000    0.000    0.000    0.000 
#    0.000    0.000    0.000    0.000    0.000    0.000 
#
# Total GULP energy -89246.417917 kJ/mol
# GULP energy per Si atom -5577.901120 kJ/mol
# Density = 2.263423 g / cm^3
# Si number density = 22.685860 Si / 1000 Ang^3
#
#
#
# Elastic Constant Matrix: (Units=GPa)
#
#
# Indices 1 2 3 4 5 6 
#
# 1 46.2191 6.4895 17.7423 -3.1497 7.8185 -5.6662
# 2 6.4895 80.1547 45.2725 10.3213 -0.8605 -5.0557
# 3 17.7423 45.2725 77.9411 12.7751 0.1790 -16.1105
# 4 -3.1497 10.3213 12.7751 41.6687 -7.2862 -10.4422
# 5 7.8185 -0.8605 0.1790 -7.2862 23.6962 -4.0015
# 6 -5.6662 -5.0557 -16.1105 -10.4422 -4.0015 40.9642
#
#
#
# Elastic Compliance Matrix: (Units=1/GPa)
#
#
# Indices 1 2 3 4 5 6 
#
# 1 0.025625 0.001464 -0.006901 0.002642 -0.007374 0.000964
# 2 0.001464 0.018958 -0.011573 -0.001792 -0.000686 -0.002533
# 3 -0.006901 -0.011573 0.022833 -0.002815 0.001842 0.006059
# 4 0.002642 -0.001792 -0.002815 0.028952 0.009223 0.007318
# 5 -0.007374 -0.000686 0.001842 0.009223 0.048565 0.006715
# 6 0.000964 -0.002533 0.006059 0.007318 0.006715 0.029137
#
#
# Mechanical properties :
#
#
# Convention : Reuss Voigt Hill
#
# Bulk Modulus (GPa) = 29.94306 38.14705 34.04506
# Shear Modulus (GPa) = 22.80802 30.25320 26.53061
#
# Velocity S-wave (km/s) = 3.17422 3.65577 3.42347
# Velocity P-wave (km/s) = 5.16351 5.88824 5.53775
#
# Compressibility (1/GPa) = 0.03339672
#
# Stress axis : x y z
#
# Youngs Moduli (GPa) = 39.02411 52.74908 43.79607
#
# Poissons Ratio (x) = -0.07724 0.30222
# Poissons Ratio (y) = -0.05714 0.50687
# Poissons Ratio (z) = 0.26929 0.61048
#
# Static dielectric constant tensor:
#      x y z
#    x 1.892620 0.019930 -0.049330 
#    y 0.019930 1.912600 0.000170 
#    z -0.049330 0.000170 1.895580 
# 
# From -- ./inp_files/95210.got.cif
#   From: 2010.05.17/outbox.cif.g08.bks.cpg/sg2_48_cif.got.tgz:95210.got - 2010.06.03 11:33:40.
