data_PCOD9102022
_publ_section_title
;
Structure prediction by ZEFSAII (Michael W. Deem and Ramdas Pophale) SiO2 
 PCOD9102022
Probable space group: P -1
;
_chemical_formula_sum "Si O2"
_cell_formula_units_Z 16
_cell_length_a 31.722935
_cell_length_b 11.166841
_cell_length_c 14.846704
_cell_angle_alpha 150.229664
_cell_angle_beta 17.443612
_cell_angle_gamma 155.318366
_cell_volume 658.315563
_symmetry_space_group_name_H-M "P -1"
_symmetry_group_IT_number 2
_symmetry_cell_setting 'triclinic'
loop_
_space_group_symop_operation_xyz
x,y,z
-x,-y,-z
loop_
_atom_site_type_symbol
_atom_site_label
_atom_site_fract_x
_atom_site_fract_y
_atom_site_fract_z
Si Si1 0.764647 0.336248 0.566569
Si Si2 0.486734 0.109411 0.856369
Si Si3 0.842791 0.369818 0.085487
Si Si4 0.327264 0.029534 0.323210
Si Si5 0.895143 0.914035 0.748750
Si Si6 0.004109 0.207242 0.205173
Si Si7 0.335354 0.612127 0.717341
Si Si8 0.174132 0.143125 0.480681
O O1 0.764348 0.577029 0.785689
O O2 0.956933 0.432839 0.218349
O O3 0.658867 0.042853 0.648989
O O4 0.676753 0.325538 0.644159
O O5 0.408934 0.020761 0.058263
O O6 0.352243 0.172496 0.127410
O O7 0.479965 0.877758 0.650923
O O8 0.817927 0.106260 0.022123
O O9 0.735261 0.302705 0.168798
O O10 0.790884 0.548554 0.366736
O O11 0.353448 0.347140 0.479087
O O12 0.138332 0.750960 0.512080
O O13 0.000000 0.000000 0.500000
O O14 0.035898 0.000363 0.592190
O O15 0.929285 0.044215 0.343365
O O16 0.186472 0.479429 0.008683
O O17 0.000000 0.000000 0.000000
#
# Coordination Sequence:
#
# PCOD9102022 Si02
#       8
#     2   2   2   2   2   2   2   2
#     4  11  23  42  57  93 133 163 209 266 321 371
#     4  11  24  37  62  96 132 166 203 260 332 384
#     4  11  20  44  67  89 126 165 223 263 303 377
#     4  10  20  38  61  91 133 164 207 261 313 391
#     4  10  24  41  65  90 123 172 219 269 305 367
#     4   9  16  32  60  94 118 155 204 260 297 373
#     4  11  20  39  66  94 127 170 209 258 321 374
#     4  11  21  40  66  95 124 167 219 258 320 384
#
# _framework density 24.304452999999999
#
# number of rings (size 3 to 8) (size 9 to 14) (size 15 to 20)
#    0.000    1.500    5.000    3.000    1.750    1.500 
#    2.250    6.250    0.000    0.000    0.000    0.000 
#    0.000    0.000    0.000    0.000    0.000    0.000 
#
# Total GULP energy -89159.648008 kJ/mol
# GULP energy per Si atom -5572.478001 kJ/mol
# Density = 2.424913 g / cm^3
# Si number density = 24.304453 Si / 1000 Ang^3
#
#
#
# Elastic Constant Matrix: (Units=GPa)
#
#
# Indices 1 2 3 4 5 6 
#
# 1 156.1863 43.2286 68.9681 17.9966 -26.6481 24.1375
# 2 43.2286 60.3592 56.1830 23.4477 -22.5495 24.7286
# 3 68.9681 56.1830 24.9038 -16.2228 -6.6538 2.3449
# 4 17.9966 23.4477 -16.2228 7.3470 -10.6619 6.0562
# 5 -26.6481 -22.5495 -6.6538 -10.6619 42.7637 -0.5479
# 6 24.1375 24.7286 2.3449 6.0562 -0.5479 37.6552
#
#
#
# Elastic Compliance Matrix: (Units=1/GPa)
#
#
# Indices 1 2 3 4 5 6 
#
# 1 0.008340 -0.007102 -0.000137 0.008871 0.003616 -0.002048
# 2 -0.007102 0.011061 0.009333 0.018518 0.007397 -0.006164
# 3 -0.000137 0.009333 0.001506 -0.027142 -0.001720 -0.001795
# 4 0.008871 0.018518 -0.027142 0.047511 0.022614 -0.023470
# 5 0.003616 0.007397 -0.001720 0.022614 0.034779 -0.010200
# 6 -0.002048 -0.006164 -0.001795 -0.023470 -0.010200 0.035655
#
#
# Mechanical properties :
#
#
# Convention : Reuss Voigt Hill
#
# Bulk Modulus (GPa) = 39.84641 64.24542 52.04591
# Shear Modulus (GPa) = 34.95804 22.42447 28.69126
#
# Velocity S-wave (km/s) = 3.79666 3.04081 3.43956
# Velocity P-wave (km/s) = 5.97074 6.23054 6.10203
#
# Compressibility (1/GPa) = 0.02509636
#
# Stress axis : x y z
#
# Youngs Moduli (GPa) = 119.90570 90.40407 664.06389
#
# Poissons Ratio (x) = 0.64204 0.09074
# Poissons Ratio (y) = 0.85156 -6.19780
# Poissons Ratio (z) = 0.01638 -0.84375
#
# Static dielectric constant tensor:
#      x y z
#    x 1.904810 -0.120240 0.051200 
#    y -0.120240 1.961240 0.185240 
#    z 0.051200 0.185240 1.792770 
# 
# From -- ./inp_files/544960.got.cif
#   From: 2010.05.17/outbox.cif.g08.bks.cpg/sg2_273_cif.got.tgz:544960.got - 2010.06.03 11:33:40.
