data_PCOD9102383
_publ_section_title
;
Structure prediction by ZEFSAII (Michael W. Deem and Ramdas Pophale) SiO2 
 PCOD9102383
Probable space group: P -1
;
_chemical_formula_sum "Si O2"
_cell_formula_units_Z 9
_cell_length_a 14.710090
_cell_length_b 8.544592
_cell_length_c 5.038259
_cell_angle_alpha 105.377802
_cell_angle_beta 78.349491
_cell_angle_gamma 148.030924
_cell_volume 322.957799
_symmetry_space_group_name_H-M "P -1"
_symmetry_group_IT_number 2
_symmetry_cell_setting 'triclinic'
loop_
_space_group_symop_operation_xyz
x,y,z
-x,-y,-z
loop_
_atom_site_type_symbol
_atom_site_label
_atom_site_fract_x
_atom_site_fract_y
_atom_site_fract_z
Si Si1 0.620501 0.471761 0.297836
Si Si2 0.336987 0.134462 0.749122
Si Si3 0.000000 0.000000 0.500000
Si Si4 0.952024 0.636693 0.606768
Si Si5 0.733275 0.276249 0.064079
O O1 0.462537 0.272930 0.497132
O O2 0.628993 0.621817 0.130129
O O3 0.631546 0.295802 0.151433
O O4 0.797663 0.762853 0.485595
O O5 0.349560 0.010257 0.904583
O O6 0.133199 0.826925 0.656901
O O7 0.043165 0.163556 0.275231
O O8 0.898270 0.553122 0.288952
O O9 0.806435 0.363640 0.768239
#
# Coordination Sequence:
#
# PCOD9102383 Si02
#       5
#     2   2   1   2   2
#     4   9  20  38  64  91 124 164 205 254 307 362
#     4  10  20  38  62  94 125 159 208 256 302 363
#     4   8  18  38  60  86 118 158 200 242 300 360
#     4  10  22  39  66  91 124 164 204 250 307 365
#     4  11  22  42  64  91 125 165 202 250 308 367
#
# _framework density 27.867415000000001
#
# number of rings (size 3 to 8) (size 9 to 14) (size 15 to 20)
#    0.000    2.222    0.000    2.000    0.000    8.000 
#    0.000   18.889    0.000   34.667    0.000    0.000 
#    0.000    0.000    0.000    0.000    0.000    0.000 
#
# Total GULP energy -50143.202223 kJ/mol
# GULP energy per Si atom -5571.466914 kJ/mol
# Density = 2.780399 g / cm^3
# Si number density = 27.867415 Si / 1000 Ang^3
#
#
#
# Elastic Constant Matrix: (Units=GPa)
#
#
# Indices 1 2 3 4 5 6 
#
# 1 275.5816 65.1922 57.0601 -26.9127 36.7189 -28.5107
# 2 65.1922 136.8492 29.3065 -21.8964 -3.0010 -16.8994
# 3 57.0601 29.3065 80.6042 -21.5151 13.6644 -31.3811
# 4 -26.9127 -21.8964 -21.5151 51.8876 -3.6551 8.6346
# 5 36.7189 -3.0010 13.6644 -3.6551 37.4774 3.6401
# 6 -28.5107 -16.8994 -31.3811 8.6346 3.6401 56.2067
#
#
#
# Elastic Compliance Matrix: (Units=1/GPa)
#
#
# Indices 1 2 3 4 5 6 
#
# 1 0.005272 -0.002022 -0.001396 0.000709 -0.004894 0.001495
# 2 -0.002022 0.009121 -0.001849 0.002270 0.003597 0.000103
# 3 -0.001396 -0.001849 0.020273 0.004812 -0.006649 0.009746
# 4 0.000709 0.002270 0.004812 0.022541 -0.000095 0.000272
# 5 -0.004894 0.003597 -0.006649 -0.000095 0.034896 -0.007359
# 6 0.001495 0.000103 0.009746 0.000272 -0.007359 0.024457
#
#
# Mechanical properties :
#
#
# Convention : Reuss Voigt Hill
#
# Bulk Modulus (GPa) = 41.43786 88.46138 64.94962
# Shear Modulus (GPa) = 36.99943 51.87943 44.43943
#
# Velocity S-wave (km/s) = 3.64771 4.31937 3.99767
# Velocity P-wave (km/s) = 5.71340 7.52918 6.68324
#
# Compressibility (1/GPa) = 0.02413252
#
# Stress axis : x y z
#
# Youngs Moduli (GPa) = 189.67972 109.63468 49.32768
#
# Poissons Ratio (x) = 0.22166 0.06886
# Poissons Ratio (y) = 0.38350 0.09120
# Poissons Ratio (z) = 0.26480 0.20269
#
# Static dielectric constant tensor:
#      x y z
#    x 2.218720 -0.228040 0.012150 
#    y -0.228040 2.641650 0.163810 
#    z 0.012150 0.163810 1.927370 
# 
# From -- ./inp_files/15652.got.cif
#   From: 2010.05.17/outbox.cif.g08.bks.cpg/sg2_8_cif.got.tgz:15652.got - 2010.06.03 11:33:40.
