data_PCOD9102123
_publ_section_title
;
Structure prediction by ZEFSAII (Michael W. Deem and Ramdas Pophale) SiO2 
 PCOD9102123
Probable space group: P -1
;
_chemical_formula_sum "Si O2"
_cell_formula_units_Z 16
_cell_length_a 8.799711
_cell_length_b 14.107006
_cell_length_c 11.891382
_cell_angle_alpha 52.636305
_cell_angle_beta 49.852765
_cell_angle_gamma 50.645314
_cell_volume 822.069726
_symmetry_space_group_name_H-M "P -1"
_symmetry_group_IT_number 2
_symmetry_cell_setting 'triclinic'
loop_
_space_group_symop_operation_xyz
x,y,z
-x,-y,-z
loop_
_atom_site_type_symbol
_atom_site_label
_atom_site_fract_x
_atom_site_fract_y
_atom_site_fract_z
Si Si1 0.251720 0.712727 0.795718
Si Si2 0.233844 0.141476 0.019332
Si Si3 0.736339 0.552221 0.074355
Si Si4 0.091038 0.844452 0.536994
Si Si5 0.900343 0.058513 0.884796
Si Si6 0.676593 0.822473 0.801440
Si Si7 0.423471 0.739606 0.246819
Si Si8 0.630212 0.070013 0.321660
O O1 0.329771 0.558167 0.867699
O O2 0.199584 0.766530 0.654659
O O3 0.388681 0.788970 0.726888
O O4 0.018219 0.760747 0.934927
O O5 0.286864 0.115582 0.144552
O O6 0.236348 0.019824 0.039040
O O7 0.405242 0.195544 0.857267
O O8 0.595129 0.598361 0.223827
O O9 0.683591 0.682304 0.932693
O O10 0.000000 0.500000 0.000000
O O11 0.261640 0.784644 0.397678
O O12 0.880514 0.813483 0.636078
O O13 0.000000 0.000000 0.500000
O O14 0.736253 0.203594 0.826747
O O15 0.114976 0.019392 0.733778
O O16 0.000000 0.000000 0.000000
O O17 0.461945 0.906641 0.777210
O O18 0.500000 0.000000 0.500000
#
# Coordination Sequence:
#
# PCOD9102123 Si02
#       8
#     2   2   2   2   2   2   2   2
#     4  10  21  39  60  87 120 158 202 251 297 362
#     4   9  19  36  58  83 116 156 203 249 300 351
#     4  11  20  41  63  85 120 160 214 252 286 359
#     4  11  21  36  59  91 122 154 202 253 310 363
#     4  11  22  35  54  87 123 152 199 252 304 363
#     4  10  20  38  62  85 117 163 201 247 302 360
#     4  11  21  34  61  88 117 159 201 250 306 357
#     4  11  23  39  61  88 123 159 194 251 320 363
#
# _framework density 19.463068
#
# number of rings (size 3 to 8) (size 9 to 14) (size 15 to 20)
#    0.000    1.500    3.750    5.625    0.000    4.000 
#    0.000    0.000    0.000    3.000    0.000    0.000 
#    0.000    0.000    0.000    0.000    0.000    0.000 
#
# Total GULP energy -89107.465010 kJ/mol
# GULP energy per Si atom -5569.216563 kJ/mol
# Density = 1.941877 g / cm^3
# Si number density = 19.463068 Si / 1000 Ang^3
#
#
#
# Elastic Constant Matrix: (Units=GPa)
#
#
# Indices 1 2 3 4 5 6 
#
# 1 82.5803 20.3851 19.8495 -6.7722 -13.0894 12.2567
# 2 20.3851 91.8974 39.4991 15.5370 -12.7041 9.3663
# 3 19.8495 39.4991 103.4919 16.6426 -23.3301 3.3457
# 4 -6.7722 15.5370 16.6426 36.6297 -7.9030 -6.2856
# 5 -13.0894 -12.7041 -23.3301 -7.9030 36.9905 -3.8985
# 6 12.2567 9.3663 3.3457 -6.2856 -3.8985 25.8327
#
#
#
# Elastic Compliance Matrix: (Units=1/GPa)
#
#
# Indices 1 2 3 4 5 6 
#
# 1 0.014705 -0.002365 -0.001642 0.004586 0.003893 -0.004203
# 2 -0.002365 0.014616 -0.004079 -0.005680 -0.000135 -0.005051
# 3 -0.001642 -0.004079 0.013350 -0.003284 0.005801 0.000605
# 4 0.004586 -0.005680 -0.003284 0.035044 0.006117 0.009758
# 5 0.003893 -0.000135 0.005801 0.006117 0.033755 0.004033
# 6 -0.004203 -0.005051 0.000605 0.009758 0.004033 0.045441
#
#
# Mechanical properties :
#
#
# Convention : Reuss Voigt Hill
#
# Bulk Modulus (GPa) = 37.73605 48.60412 43.17008
# Shear Modulus (GPa) = 27.48536 33.10633 30.29585
#
# Velocity S-wave (km/s) = 3.76198 4.12877 3.94963
# Velocity P-wave (km/s) = 6.18875 6.91055 6.55958
#
# Compressibility (1/GPa) = 0.02649986
#
# Stress axis : x y z
#
# Youngs Moduli (GPa) = 68.00467 68.41939 74.90493
#
# Poissons Ratio (x) = 0.16182 0.12298
# Poissons Ratio (y) = 0.16084 0.30550
# Poissons Ratio (z) = 0.11165 0.27905
#
# Static dielectric constant tensor:
#      x y z
#    x 1.685180 -0.015760 0.015280 
#    y -0.015760 1.795810 0.010910 
#    z 0.015280 0.010910 1.759050 
# 
# From -- ./inp_files/353515.got.cif
#   From: 2010.05.17/outbox.cif.g08.bks.cpg/sg2_177_cif.got.tgz:353515.got - 2010.06.03 11:33:40.
