data_PCOD9102098
_publ_section_title
;
Structure prediction by ZEFSAII (Michael W. Deem and Ramdas Pophale) SiO2 
 PCOD9102098
Probable space group: P -1
;
_chemical_formula_sum "Si O2"
_cell_formula_units_Z 16
_cell_length_a 9.501468
_cell_length_b 10.438698
_cell_length_c 26.111622
_cell_angle_alpha 148.558533
_cell_angle_beta 149.726800
_cell_angle_gamma 40.158077
_cell_volume 677.315121
_symmetry_space_group_name_H-M "P -1"
_symmetry_group_IT_number 2
_symmetry_cell_setting 'triclinic'
loop_
_space_group_symop_operation_xyz
x,y,z
-x,-y,-z
loop_
_atom_site_type_symbol
_atom_site_label
_atom_site_fract_x
_atom_site_fract_y
_atom_site_fract_z
Si Si1 0.165156 0.096282 0.643289
Si Si2 0.866247 0.451256 0.522161
Si Si3 0.567626 0.146092 0.450274
Si Si4 0.145325 0.868677 0.272885
Si Si5 0.573875 0.391033 0.930481
Si Si6 0.714496 0.253902 0.303592
Si Si7 0.786677 0.720585 0.910130
Si Si8 0.226818 0.270864 0.977316
O O1 0.081800 0.822250 0.533985
O O2 0.366786 0.048703 0.641271
O O3 0.345578 0.215578 0.782359
O O4 0.863548 0.244765 0.589810
O O5 0.672299 0.631592 0.559236
O O6 0.691552 0.413315 0.402123
O O7 0.140807 0.575632 0.634122
O O8 0.427157 0.997653 0.400262
O O9 0.204776 0.576589 0.197423
O O10 0.946583 0.018480 0.302496
O O11 0.958416 0.902737 0.173091
O O12 0.579941 0.605373 0.961426
O O13 0.500000 0.500000 0.000000
O O14 0.885932 0.243278 0.978459
O O15 0.427966 0.171148 0.163469
O O16 0.670875 0.805364 0.959238
O O17 0.000000 0.500000 0.000000
#
# Coordination Sequence:
#
# PCOD9102098 Si02
#       8
#     2   2   2   2   2   2   2   2
#     4  11  22  38  61  83 122 159 189 232 304 347
#     4  10  23  38  56  87 119 146 195 251 288 342
#     4  10  21  38  62  89 112 155 197 239 289 358
#     4   9  18  36  62  83 113 143 194 245 290 327
#     4  10  22  36  59  90 121 154 194 238 290 356
#     4  10  22  37  58  86 112 149 198 242 293 343
#     4  10  20  38  62  82 116 156 197 242 284 348
#     4   8  17  35  59  83 110 151 198 238 282 338
#
# _framework density 23.622684
#
# number of rings (size 3 to 8) (size 9 to 14) (size 15 to 20)
#    0.000    2.500    0.000    3.375    5.250    1.500 
#    0.000    6.875    0.000    0.000    0.000    0.000 
#    0.000    0.000    0.000    0.000    0.000    0.000 
#
# Total GULP energy -89326.733012 kJ/mol
# GULP energy per Si atom -5582.920813 kJ/mol
# Density = 2.356892 g / cm^3
# Si number density = 23.622684 Si / 1000 Ang^3
#
#
#
# Elastic Constant Matrix: (Units=GPa)
#
#
# Indices 1 2 3 4 5 6 
#
# 1 101.2904 16.7061 31.5892 -1.5208 6.2768 -11.9816
# 2 16.7061 47.8966 17.8412 0.5308 -0.1554 -13.5231
# 3 31.5892 17.8412 103.0215 -6.9761 -8.0946 -16.1766
# 4 -1.5208 0.5308 -6.9761 35.0322 -2.2804 -1.5934
# 5 6.2768 -0.1554 -8.0946 -2.2804 21.3916 6.9033
# 6 -11.9816 -13.5231 -16.1766 -1.5934 6.9033 21.1549
#
#
#
# Elastic Compliance Matrix: (Units=1/GPa)
#
#
# Indices 1 2 3 4 5 6 
#
# 1 0.012172 -0.001494 -0.003115 -0.000241 -0.006627 0.005701
# 2 -0.001494 0.026807 -0.002064 -0.000492 -0.005517 0.016475
# 3 -0.003115 -0.002064 0.012363 0.002868 0.004200 0.005215
# 4 -0.000241 -0.000492 0.002868 0.029463 0.003370 0.002862
# 5 -0.006627 -0.005517 0.004200 0.003370 0.057932 -0.022719
# 6 0.005701 0.016475 0.005215 0.002862 -0.022719 0.072647
#
#
# Mechanical properties :
#
#
# Convention : Reuss Voigt Hill
#
# Bulk Modulus (GPa) = 26.31978 42.72018 34.51998
# Shear Modulus (GPa) = 21.06178 27.92055 24.49117
#
# Velocity S-wave (km/s) = 2.98919 3.44166 3.22338
# Velocity P-wave (km/s) = 4.80413 5.82383 5.33838
#
# Compressibility (1/GPa) = 0.03799424
#
# Stress axis : x y z
#
# Youngs Moduli (GPa) = 82.15566 37.30300 80.88972
#
# Poissons Ratio (x) = 0.05574 0.25200
# Poissons Ratio (y) = 0.12277 0.16697
# Poissons Ratio (z) = 0.25594 0.07700
#
# Static dielectric constant tensor:
#      x y z
#    x 1.950890 0.051770 -0.014550 
#    y 0.051770 1.963970 -0.004300 
#    z -0.014550 -0.004300 1.852910 
# 
# From -- ./inp_files/617072.got.cif
#   From: 2010.05.17/outbox.cif.g08.bks.cpg/sg2_309_cif.got.tgz:617072.got - 2010.06.03 11:33:40.
