data_PCOD9102265
_publ_section_title
;
Structure prediction by ZEFSAII (Michael W. Deem and Ramdas Pophale) SiO2 
 PCOD9102265
Probable space group: P -1
;
_chemical_formula_sum "Si O2"
_cell_formula_units_Z 16
_cell_length_a 11.685907
_cell_length_b 11.321823
_cell_length_c 11.518622
_cell_angle_alpha 108.514598
_cell_angle_beta 135.538607
_cell_angle_gamma 105.394319
_cell_volume 679.782718
_symmetry_space_group_name_H-M "P -1"
_symmetry_group_IT_number 2
_symmetry_cell_setting 'triclinic'
loop_
_space_group_symop_operation_xyz
x,y,z
-x,-y,-z
loop_
_atom_site_type_symbol
_atom_site_label
_atom_site_fract_x
_atom_site_fract_y
_atom_site_fract_z
Si Si1 0.681004 0.968338 0.989120
Si Si2 0.481550 0.095844 0.794017
Si Si3 0.811547 0.749918 0.976647
Si Si4 0.611070 0.930415 0.529822
Si Si5 0.245956 0.209698 0.288648
Si Si6 0.992765 0.138655 0.496477
Si Si7 0.623345 0.585331 0.314520
Si Si8 0.718894 0.356455 0.264381
O O1 0.754238 0.866029 0.986384
O O2 0.406493 0.804886 0.785717
O O3 0.654415 0.069439 0.914240
O O4 0.849090 0.092908 0.259935
O O5 0.495587 0.168702 0.702395
O O6 0.194109 0.909741 0.558131
O O7 0.583247 0.245665 0.012446
O O8 0.715573 0.673789 0.752516
O O9 0.663664 0.583508 0.910764
O O10 0.099409 0.893479 0.227301
O O11 0.574045 0.804761 0.562001
O O12 0.500000 0.000000 0.500000
O O13 0.244623 0.273873 0.434731
O O14 0.000000 0.000000 0.000000
O O15 0.268221 0.313513 0.700803
O O16 0.000000 0.000000 0.500000
O O17 0.679955 0.471811 0.318382
O O18 0.000000 0.500000 0.500000
#
# Coordination Sequence:
#
# PCOD9102265 Si02
#       8
#     2   2   2   2   2   2   2   2
#     4  10  20  38  62  89 127 173 217 257 310 392
#     4  11  22  40  64  96 136 176 221 264 313 397
#     4  10  22  41  66  99 130 168 222 276 329 378
#     4  11  24  43  67  96 126 170 223 270 324 397
#     4  10  21  41  68  93 125 175 220 263 322 395
#     4  11  21  38  63  91 126 172 216 261 319 395
#     4  11  22  39  65  97 132 168 217 277 328 382
#     4  10  21  36  59  95 131 168 213 266 324 374
#
# _framework density 23.536933000000001
#
# number of rings (size 3 to 8) (size 9 to 14) (size 15 to 20)
#    0.000    1.500    0.000    7.125    0.000    3.000 
#    0.000   20.000    0.000    3.000    0.000    0.000 
#    0.000    0.000    0.000    0.000    0.000    0.000 
#
# Total GULP energy -89110.223441 kJ/mol
# GULP energy per Si atom -5569.388965 kJ/mol
# Density = 2.348336 g / cm^3
# Si number density = 23.536933 Si / 1000 Ang^3
#
#
#
# Elastic Constant Matrix: (Units=GPa)
#
#
# Indices 1 2 3 4 5 6 
#
# 1 83.7131 5.5926 24.2841 -1.7178 12.4445 -16.7856
# 2 5.5926 82.3830 24.0010 -18.9028 13.9040 0.3891
# 3 24.2841 24.0010 88.4540 0.8239 9.2408 -8.7718
# 4 -1.7178 -18.9028 0.8239 43.2611 -0.0089 2.1406
# 5 12.4445 13.9040 9.2408 -0.0089 47.2192 5.9615
# 6 -16.7856 0.3891 -8.7718 2.1406 5.9615 41.8219
#
#
#
# Elastic Compliance Matrix: (Units=1/GPa)
#
#
# Indices 1 2 3 4 5 6 
#
# 1 0.014616 0.000786 -0.003227 0.000700 -0.004177 0.005742
# 2 0.000786 0.015542 -0.004138 0.006925 -0.003910 -0.000494
# 3 -0.003227 -0.004138 0.013603 -0.002286 -0.000825 0.001831
# 4 0.000700 0.006925 -0.002286 0.026280 -0.001597 -0.001380
# 5 -0.004177 -0.003910 -0.000825 -0.001597 0.024246 -0.005187
# 6 0.005742 -0.000494 0.001831 -0.001380 -0.005187 0.027414
#
#
# Mechanical properties :
#
#
# Convention : Reuss Voigt Hill
#
# Bulk Modulus (GPa) = 32.67580 40.25616 36.46598
# Shear Modulus (GPa) = 34.46886 39.83861 37.15373
#
# Velocity S-wave (km/s) = 3.83098 4.11859 3.97738
# Velocity P-wave (km/s) = 5.78631 6.30536 6.05140
#
# Compressibility (1/GPa) = 0.03060369
#
# Stress axis : x y z
#
# Youngs Moduli (GPa) = 68.42010 64.34324 73.51306
#
# Poissons Ratio (x) = -0.05060 0.23721
# Poissons Ratio (y) = -0.05381 0.30419
# Poissons Ratio (z) = 0.22077 0.26625
#
# Static dielectric constant tensor:
#      x y z
#    x 2.042430 0.052740 0.022700 
#    y 0.052740 1.950590 0.061810 
#    z 0.022700 0.061810 1.955940 
# 
# From -- ./inp_files/428596.got.cif
#   From: 2010.05.17/outbox.cif.g08.bks.cpg/sg2_215_cif.got.tgz:428596.got - 2010.06.03 11:33:40.
