data_PCOD9102862
_publ_section_title
;
Structure prediction by ZEFSAII (Michael W. Deem and Ramdas Pophale) SiO2 
 PCOD9102862
Probable space group: P -1
;
_chemical_formula_sum "Si O2"
_cell_formula_units_Z 14
_cell_length_a 12.022427
_cell_length_b 15.653251
_cell_length_c 5.684594
_cell_angle_alpha 92.149817
_cell_angle_beta 82.850792
_cell_angle_gamma 37.324870
_cell_volume 626.823714
_symmetry_space_group_name_H-M "P -1"
_symmetry_group_IT_number 2
_symmetry_cell_setting 'triclinic'
loop_
_space_group_symop_operation_xyz
x,y,z
-x,-y,-z
loop_
_atom_site_type_symbol
_atom_site_label
_atom_site_fract_x
_atom_site_fract_y
_atom_site_fract_z
Si Si1 0.236943 0.143122 0.208889
Si Si2 0.674416 0.979949 0.331379
Si Si3 0.055168 0.774541 0.438105
Si Si4 0.293741 0.492674 0.065625
Si Si5 0.401747 0.307187 0.392106
Si Si6 0.427931 0.629054 0.397089
Si Si7 0.965151 0.448274 0.192761
O O1 0.061166 0.185116 0.300057
O O2 0.151696 0.290705 0.234771
O O3 0.341901 0.064153 0.424078
O O4 0.328816 0.064808 0.925592
O O5 0.524689 0.148171 0.382472
O O6 0.887775 0.888016 0.303211
O O7 0.187907 0.614359 0.300101
O O8 0.202065 0.759808 0.441271
O O9 0.373123 0.355954 0.138487
O O10 0.465120 0.434136 0.886779
O O11 0.135643 0.565781 0.926382
O O12 0.505556 0.324947 0.488397
O O13 0.191640 0.427004 0.566488
O O14 0.500000 0.500000 0.500000
O O15 0.000000 0.500000 0.000000
#
# Coordination Sequence:
#
# PCOD9102862 Si02
#       7
#     2   2   2   2   2   2   2
#     4  10  21  44  65  92 130 177 209 264 327 389
#     4  10  24  40  67  89 143 175 208 263 333 388
#     4  10  20  38  64  90 130 177 212 253 325 382
#     4  11  21  39  65  91 130 166 220 273 322 382
#     4  11  24  41  61  98 126 170 217 272 318 390
#     4  11  22  34  63  97 128 168 223 267 317 372
#     4  11  23  43  70  95 121 165 225 276 323 390
#
# _framework density 22.33483
#
# number of rings (size 3 to 8) (size 9 to 14) (size 15 to 20)
#    0.857    0.571    4.286    1.286    4.000    1.143 
#    0.000    2.857    0.000    0.000    0.000    0.000 
#    0.000    0.000    0.000    0.000    0.000    0.000 
#
# Total GULP energy -78203.577315 kJ/mol
# GULP energy per Si atom -5585.969808 kJ/mol
# Density = 2.228400 g / cm^3
# Si number density = 22.334830 Si / 1000 Ang^3
#
#
#
# Elastic Constant Matrix: (Units=GPa)
#
#
# Indices 1 2 3 4 5 6 
#
# 1 90.0711 40.1284 43.5532 0.3514 1.1130 -9.9550
# 2 40.1284 190.9522 77.4790 -23.4227 5.2646 15.6128
# 3 43.5532 77.4790 167.8781 -11.9260 -17.4731 7.0546
# 4 0.3514 -23.4227 -11.9260 39.5477 -0.0217 3.0657
# 5 1.1130 5.2646 -17.4731 -0.0217 44.0023 -3.7095
# 6 -9.9550 15.6128 7.0546 3.0657 -3.7095 28.9844
#
#
#
# Elastic Compliance Matrix: (Units=1/GPa)
#
#
# Indices 1 2 3 4 5 6 
#
# 1 0.014753 -0.002845 -0.003140 -0.003355 -0.000638 0.007637
# 2 -0.002845 0.007945 -0.002642 0.004350 -0.002379 -0.005379
# 3 -0.003140 -0.002642 0.008510 0.001139 0.003659 -0.001379
# 4 -0.003355 0.004350 0.001139 0.028769 -0.000550 -0.006886
# 5 -0.000638 -0.002379 0.003659 -0.000550 0.024766 0.003400
# 6 0.007637 -0.005379 -0.001379 -0.006886 0.003400 0.041521
#
#
# Mechanical properties :
#
#
# Convention : Reuss Voigt Hill
#
# Bulk Modulus (GPa) = 71.65374 85.69139 78.67257
# Shear Modulus (GPa) = 33.74509 41.68958 37.71734
#
# Velocity S-wave (km/s) = 3.89121 4.32507 4.11387
# Velocity P-wave (km/s) = 7.23464 7.96189 7.60696
#
# Compressibility (1/GPa) = 0.01395601
#
# Stress axis : x y z
#
# Youngs Moduli (GPa) = 67.78210 125.85786 117.50576
#
# Poissons Ratio (x) = 0.35801 0.36900
# Poissons Ratio (y) = 0.19281 0.31040
# Poissons Ratio (z) = 0.21285 0.33246
#
# Static dielectric constant tensor:
#      x y z
#    x 1.866090 -0.037690 0.022540 
#    y -0.037690 1.800010 -0.010460 
#    z 0.022540 -0.010460 1.846870 
# 
# From -- ./inp_files/77568.got.cif
#   From: 2010.05.17/outbox.cif.g08.bks.cpg/sg2_39_cif.got.tgz:77568.got - 2010.06.03 11:33:40.
