data_PCOD9102207
_publ_section_title
;
Structure prediction by ZEFSAII (Michael W. Deem and Ramdas Pophale) SiO2 
 PCOD9102207
Probable space group: P -1
;
_chemical_formula_sum "Si O2"
_cell_formula_units_Z 16
_cell_length_a 8.776526
_cell_length_b 7.655251
_cell_length_c 18.384628
_cell_angle_alpha 101.174891
_cell_angle_beta 137.460879
_cell_angle_gamma 102.611285
_cell_volume 687.192618
_symmetry_space_group_name_H-M "P -1"
_symmetry_group_IT_number 2
_symmetry_cell_setting 'triclinic'
loop_
_space_group_symop_operation_xyz
x,y,z
-x,-y,-z
loop_
_atom_site_type_symbol
_atom_site_label
_atom_site_fract_x
_atom_site_fract_y
_atom_site_fract_z
Si Si1 0.779720 0.169906 0.151860
Si Si2 0.262707 0.723302 0.538345
Si Si3 0.356411 0.351912 0.140714
Si Si4 0.146329 0.403587 0.741029
Si Si5 0.345982 0.885594 0.736436
Si Si6 0.871129 0.275495 0.898693
Si Si7 0.710757 0.185772 0.674397
Si Si8 0.650181 0.563065 0.689221
O O1 0.795509 0.391833 0.177048
O O2 0.787897 0.113411 0.235080
O O3 0.058630 0.236843 0.216944
O O4 0.500000 0.000000 0.000000
O O5 0.193423 0.765059 0.598603
O O6 0.419699 0.603212 0.588656
O O7 0.004005 0.606227 0.387235
O O8 0.469476 0.950850 0.591270
O O9 0.564914 0.543684 0.176427
O O10 0.484969 0.215771 0.189208
O O11 0.346362 0.441023 0.222409
O O12 0.069972 0.207714 0.990982
O O13 0.923161 0.203291 0.692085
O O14 0.570595 0.118432 0.807029
O O15 0.872628 0.280925 0.813618
O O16 0.000000 0.500000 0.000000
O O17 0.615352 0.344805 0.630969
#
# Coordination Sequence:
#
# PCOD9102207 Si02
#       8
#     2   2   2   2   2   2   2   2
#     4  10  21  36  60  92 125 155 202 259 307 360
#     4  10  22  43  66  88 124 169 212 248 314 366
#     4  10  20  38  62  88 121 166 205 248 316 368
#     4  10  23  41  62  90 127 162 205 267 300 364
#     4   9  21  37  62  90 120 161 207 254 305 368
#     4  11  20  35  61  86 125 161 196 251 310 369
#     4  10  22  40  62  93 123 163 208 261 305 362
#     4  10  21  40  66  91 124 166 207 254 311 368
#
# _framework density 23.283135000000001
#
# number of rings (size 3 to 8) (size 9 to 14) (size 15 to 20)
#    0.000    2.000    1.250    1.500    1.750   12.000 
#    2.250    0.625    2.750    0.000    0.000    0.000 
#    0.000    0.000    0.000    0.000    0.000    0.000 
#
# Total GULP energy -89393.462750 kJ/mol
# GULP energy per Si atom -5587.091422 kJ/mol
# Density = 2.323014 g / cm^3
# Si number density = 23.283135 Si / 1000 Ang^3
#
#
#
# Elastic Constant Matrix: (Units=GPa)
#
#
# Indices 1 2 3 4 5 6 
#
# 1 109.0164 20.9393 5.2367 6.4485 0.4414 32.0167
# 2 20.9393 71.4426 18.1507 5.1900 -2.7002 11.3770
# 3 5.2367 18.1507 87.9598 13.3811 -4.3601 -8.7463
# 4 6.4485 5.1900 13.3811 19.8008 2.5147 1.1021
# 5 0.4414 -2.7002 -4.3601 2.5147 22.0776 -2.2704
# 6 32.0167 11.3770 -8.7463 1.1021 -2.2704 43.2191
#
#
#
# Elastic Compliance Matrix: (Units=1/GPa)
#
#
# Indices 1 2 3 4 5 6 
#
# 1 0.012305 -0.001844 -0.000959 -0.002217 -0.001317 -0.008837
# 2 -0.001844 0.016060 -0.003283 -0.001345 0.001153 -0.003431
# 3 -0.000959 -0.003283 0.014184 -0.009189 0.003968 0.004888
# 4 -0.002217 -0.001345 -0.009189 0.059012 -0.008845 -0.001833
# 5 -0.001317 0.001153 0.003968 -0.008845 0.047686 0.004206
# 6 -0.008837 -0.003431 0.004888 -0.001833 0.004206 0.031844
#
#
# Mechanical properties :
#
#
# Convention : Reuss Voigt Hill
#
# Bulk Modulus (GPa) = 32.92134 39.67468 36.29801
# Shear Modulus (GPa) = 24.58339 31.95896 28.27118
#
# Velocity S-wave (km/s) = 3.25290 3.70891 3.48837
# Velocity P-wave (km/s) = 5.31778 5.95134 5.64346
#
# Compressibility (1/GPa) = 0.03037543
#
# Stress axis : x y z
#
# Youngs Moduli (GPa) = 81.26819 62.26760 70.50208
#
# Poissons Ratio (x) = 0.11485 0.06759
# Poissons Ratio (y) = 0.14990 0.23149
# Poissons Ratio (z) = 0.07791 0.20445
#
# Static dielectric constant tensor:
#      x y z
#    x 1.960860 -0.015130 0.021380 
#    y -0.015130 1.956350 -0.014940 
#    z 0.021380 -0.014940 1.846350 
# 
# From -- ./inp_files/313657.got.cif
#   From: 2010.05.17/outbox.cif.g08.bks.cpg/sg2_157_cif.got.tgz:313657.got - 2010.06.03 11:33:40.
