data_PCOD9102165
_publ_section_title
;
Structure prediction by ZEFSAII (Michael W. Deem and Ramdas Pophale) SiO2 
 PCOD9102165
Probable space group: P -1
;
_chemical_formula_sum "Si O2"
_cell_formula_units_Z 16
_cell_length_a 15.781018
_cell_length_b 6.419619
_cell_length_c 16.686606
_cell_angle_alpha 128.428377
_cell_angle_beta 33.412841
_cell_angle_gamma 123.849504
_cell_volume 726.386865
_symmetry_space_group_name_H-M "P -1"
_symmetry_group_IT_number 2
_symmetry_cell_setting 'triclinic'
loop_
_space_group_symop_operation_xyz
x,y,z
-x,-y,-z
loop_
_atom_site_type_symbol
_atom_site_label
_atom_site_fract_x
_atom_site_fract_y
_atom_site_fract_z
Si Si1 0.124683 0.547195 0.167951
Si Si2 0.821145 0.974704 0.661483
Si Si3 0.873887 0.754621 0.057701
Si Si4 0.184575 0.607963 0.524960
Si Si5 0.685342 0.063589 0.628492
Si Si6 0.630053 0.437870 0.486272
Si Si7 0.653484 0.874525 0.132005
Si Si8 0.714047 0.479311 0.252743
O O1 0.186909 0.849708 0.210747
O O2 0.089010 0.485628 0.088253
O O3 0.973156 0.468870 0.321489
O O4 0.248804 0.336037 0.040579
O O5 0.729607 0.114746 0.697312
O O6 0.771571 0.659935 0.620112
O O7 0.000000 0.000000 0.500000
O O8 0.709596 0.828074 0.167933
O O9 0.847316 0.663687 0.147633
O O10 0.000000 0.000000 0.000000
O O11 0.181073 0.825727 0.510887
O O12 0.305390 0.708996 0.523511
O O13 0.527157 0.177223 0.753160
O O14 0.659416 0.747167 0.562471
O O15 0.722237 0.421801 0.326765
O O16 0.448582 0.390551 0.599732
O O17 0.700159 0.186634 0.152322
#
# Coordination Sequence:
#
# PCOD9102165 Si02
#       8
#     2   2   2   2   2   2   2   2
#     4   9  22  40  55  86 123 152 197 246 299 355
#     4   9  20  41  59  88 122 149 202 249 294 363
#     4  10  23  39  56  86 125 159 199 243 295 360
#     4  10  20  38  62  87 116 154 204 248 295 354
#     4  10  20  38  65  87 118 154 199 255 296 347
#     4   9  21  35  62  88 115 159 203 247 293 353
#     4   9  22  39  56  89 120 155 197 245 297 358
#     4  10  20  39  59  85 121 160 200 245 300 352
#
# _framework density 22.026827999999998
#
# number of rings (size 3 to 8) (size 9 to 14) (size 15 to 20)
#    0.750    1.750    0.000    0.750    3.500    3.000 
#    9.000    4.375    0.000    0.000    0.000    0.000 
#    0.000    0.000    0.000    0.000    0.000    0.000 
#
# Total GULP energy -89211.614261 kJ/mol
# GULP energy per Si atom -5575.725891 kJ/mol
# Density = 2.197669 g / cm^3
# Si number density = 22.026828 Si / 1000 Ang^3
#
#
#
# Elastic Constant Matrix: (Units=GPa)
#
#
# Indices 1 2 3 4 5 6 
#
# 1 64.4573 10.6662 20.4761 3.4385 4.2491 16.7388
# 2 10.6662 42.0967 23.2454 -7.4881 14.4104 6.1287
# 3 20.4761 23.2454 77.6848 9.0515 8.7235 4.8903
# 4 3.4385 -7.4881 9.0515 29.9031 0.2789 7.8485
# 5 4.2491 14.4104 8.7235 0.2789 36.4182 3.7870
# 6 16.7388 6.1287 4.8903 7.8485 3.7870 22.2864
#
#
#
# Elastic Compliance Matrix: (Units=1/GPa)
#
#
# Indices 1 2 3 4 5 6 
#
# 1 0.021026 0.000298 -0.005049 0.003383 0.000277 -0.016005
# 2 0.000298 0.038636 -0.011504 0.016422 -0.011428 -0.012166
# 3 -0.005049 -0.011504 0.018339 -0.009492 0.000171 0.006245
# 4 0.003383 0.016422 -0.009492 0.045444 -0.002836 -0.020496
# 5 0.000277 -0.011428 0.000171 -0.002836 0.032091 -0.001557
# 6 -0.016005 -0.012166 0.006245 -0.020496 -0.001557 0.066349
#
#
# Mechanical properties :
#
#
# Convention : Reuss Voigt Hill
#
# Bulk Modulus (GPa) = 21.98225 32.55713 27.26969
# Shear Modulus (GPa) = 18.54882 26.37829 22.46355
#
# Velocity S-wave (km/s) = 2.90505 3.46432 3.19694
# Velocity P-wave (km/s) = 4.61019 5.55111 5.10238
#
# Compressibility (1/GPa) = 0.04549125
#
# Stress axis : x y z
#
# Youngs Moduli (GPa) = 47.55949 25.88264 54.52825
#
# Poissons Ratio (x) = -0.00770 0.27531
# Poissons Ratio (y) = -0.01415 0.62728
# Poissons Ratio (z) = 0.24012 0.29775
#
# Static dielectric constant tensor:
#      x y z
#    x 1.847110 -0.000130 -0.026610 
#    y -0.000130 1.825080 0.024960 
#    z -0.026610 0.024960 1.828450 
# 
# From -- ./inp_files/503228.got.cif
#   From: 2010.05.17/outbox.cif.g08.bks.cpg/sg2_252_cif.got.tgz:503228.got - 2010.06.03 11:33:40.
