data_PCOD9102565
_publ_section_title
;
Structure prediction by ZEFSAII (Michael W. Deem and Ramdas Pophale) SiO2 
 PCOD9102565
Probable space group: P -1
;
_chemical_formula_sum "Si O2"
_cell_formula_units_Z 16
_cell_length_a 9.637819
_cell_length_b 16.029511
_cell_length_c 13.541731
_cell_angle_alpha 135.173464
_cell_angle_beta 30.258251
_cell_angle_gamma 115.794061
_cell_volume 643.756778
_symmetry_space_group_name_H-M "P -1"
_symmetry_group_IT_number 2
_symmetry_cell_setting 'triclinic'
loop_
_space_group_symop_operation_xyz
x,y,z
-x,-y,-z
loop_
_atom_site_type_symbol
_atom_site_label
_atom_site_fract_x
_atom_site_fract_y
_atom_site_fract_z
Si Si1 0.242380 0.372859 0.424738
Si Si2 0.925065 0.740941 0.740044
Si Si3 0.459470 0.990762 0.357935
Si Si4 0.791007 0.099728 0.927989
Si Si5 0.540647 0.444326 0.614678
Si Si6 0.539253 0.797195 0.586499
Si Si7 0.745534 0.184316 0.566771
Si Si8 0.831179 0.348219 0.810455
O O1 0.138540 0.364102 0.370855
O O2 0.423745 0.455990 0.399442
O O3 0.959784 0.417658 0.712330
O O4 0.476664 0.213322 0.167215
O O5 0.105144 0.670445 0.670008
O O6 0.176101 0.762244 0.536070
O O7 0.616291 0.883262 0.080719
O O8 0.469159 0.889902 0.357729
O O9 0.569651 0.099894 0.353168
O O10 0.082851 0.095539 0.687039
O O11 0.743673 0.141278 0.107243
O O12 0.903043 0.940954 0.724775
O O13 0.376914 0.356904 0.615938
O O14 0.380773 0.541398 0.887341
O O15 0.859688 0.772991 0.424907
O O16 0.656912 0.289897 0.799462
#
# Coordination Sequence:
#
# PCOD9102565 Si02
#       8
#     2   2   2   2   2   2   2   2
#     4  10  23  40  64  91 119 158 198 256 302 344
#     4  11  23  40  62  89 125 158 199 250 297 356
#     4  10  20  38  63  91 117 157 195 252 306 341
#     4   9  21  39  65  95 116 147 204 261 299 342
#     4  12  26  41  57  90 128 166 202 228 294 386
#     4  11  23  40  62  89 125 158 199 250 297 356
#     4   9  21  39  65  95 116 147 204 261 299 342
#     4  10  23  40  64  91 119 158 198 256 302 344
#
# _framework density 24.854108
#
# number of rings (size 3 to 8) (size 9 to 14) (size 15 to 20)
#    0.750    1.000    1.250    2.250    1.750    9.000 
#    0.000    1.250    0.000    0.000    0.000    0.000 
#    0.000    0.000    0.000    0.000    0.000    0.000 
#
# Total GULP energy -89133.942949 kJ/mol
# GULP energy per Si atom -5570.871434 kJ/mol
# Density = 2.479754 g / cm^3
# Si number density = 24.854108 Si / 1000 Ang^3
#
#
#
# Elastic Constant Matrix: (Units=GPa)
#
#
# Indices 1 2 3 4 5 6 
#
# 1 21.7826 -15.7983 40.5667 2.7116 9.1480 10.7556
# 2 -15.7983 63.5471 68.9098 0.8458 21.7102 2.4241
# 3 40.5667 68.9098 59.0070 -14.9721 18.3845 3.8792
# 4 2.7116 0.8458 -14.9721 31.3540 -2.2380 4.0723
# 5 9.1480 21.7102 18.3845 -2.2380 26.9527 9.2534
# 6 10.7556 2.4241 3.8792 4.0723 9.2534 19.4457
#
#
#
# Elastic Compliance Matrix: (Units=1/GPa)
#
#
# Indices 1 2 3 4 5 6 
#
# 1 0.007082 -0.016038 0.015476 0.008572 0.003592 -0.008509
# 2 -0.016038 0.003857 0.008963 0.003948 -0.006493 0.008864
# 3 0.015476 0.008963 -0.001253 -0.002413 -0.010465 -0.003942
# 4 0.008572 0.003948 -0.002413 0.031708 0.002511 -0.012587
# 5 0.003592 -0.006493 -0.010465 0.002511 0.057765 -0.027103
# 6 -0.008509 0.008864 -0.003942 -0.012587 -0.027103 0.071346
#
#
# Mechanical properties :
#
#
# Convention : Reuss Voigt Hill
#
# Bulk Modulus (GPa) = 37.75100 36.85479 37.30289
# Shear Modulus (GPa) = 30.76336 18.92771 24.84553
#
# Velocity S-wave (km/s) = 3.52199 2.76262 3.16516
# Velocity P-wave (km/s) = 5.63571 5.00367 5.32907
#
# Compressibility (1/GPa) = 0.02648936
#
# Stress axis : x y z
#
# Youngs Moduli (GPa) = 141.20651 259.27448 -798.35615
#
# Poissons Ratio (x) = 4.15812 12.35506
# Poissons Ratio (y) = 2.26460 7.15606
# Poissons Ratio (z) = -2.18526 -2.32401
#
# Static dielectric constant tensor:
#      x y z
#    x 2.048040 0.022020 -0.046870 
#    y 0.022020 2.040920 -0.043240 
#    z -0.046870 -0.043240 1.949640 
# 
# From -- ./inp_files/471729.got.cif
#   From: 2010.05.17/outbox.cif.g08.bks.cpg/sg2_236_cif.got.tgz:471729.got - 2010.06.03 11:33:40.
