data_PCOD9102526
_publ_section_title
;
Structure prediction by ZEFSAII (Michael W. Deem and Ramdas Pophale) SiO2 
 PCOD9102526
Probable space group: P -1
;
_chemical_formula_sum "Si O2"
_cell_formula_units_Z 14
_cell_length_a 11.859735
_cell_length_b 6.509043
_cell_length_c 11.370839
_cell_angle_alpha 123.132902
_cell_angle_beta 50.185892
_cell_angle_gamma 104.043258
_cell_volume 556.700796
_symmetry_space_group_name_H-M "P -1"
_symmetry_group_IT_number 2
_symmetry_cell_setting 'triclinic'
loop_
_space_group_symop_operation_xyz
x,y,z
-x,-y,-z
loop_
_atom_site_type_symbol
_atom_site_label
_atom_site_fract_x
_atom_site_fract_y
_atom_site_fract_z
Si Si1 0.395606 0.199272 0.437647
Si Si2 0.650416 0.849291 0.910071
Si Si3 0.123956 0.829770 0.244035
Si Si4 0.747522 0.258655 0.635481
Si Si5 0.884920 0.737049 0.195601
Si Si6 0.298627 0.272451 0.897735
Si Si7 0.575919 0.326206 0.565444
O O1 0.253567 0.319545 0.650256
O O2 0.530199 0.183910 0.436743
O O3 0.424629 0.394449 0.384142
O O4 0.349524 0.955374 0.334271
O O5 0.672710 0.547904 0.789656
O O6 0.783357 0.958400 0.791434
O O7 0.668332 0.874977 0.047920
O O8 0.500000 0.000000 0.000000
O O9 0.116054 0.797210 0.381727
O O10 0.980918 0.861044 0.265273
O O11 0.219124 0.556655 0.065759
O O12 0.732972 0.230190 0.494628
O O13 0.811057 0.838877 0.153304
O O14 0.000000 0.500000 0.000000
O O15 0.446198 0.312952 0.741603
#
# Coordination Sequence:
#
# PCOD9102526 Si02
#       7
#     2   2   2   2   2   2   2
#     4  10  22  40  63  90 123 163 205 254 311 370
#     4  11  22  37  60  92 128 168 209 253 307 362
#     4  10  21  38  62  91 125 164 205 252 307 363
#     4  11  22  38  59  90 130 163 203 257 306 363
#     4   9  20  43  67  89 119 158 208 259 307 369
#     4   9  20  38  63  93 123 158 206 259 304 364
#     4  10  20  38  63  89 122 163 202 249 314 371
#
# _framework density 25.148157999999999
#
# number of rings (size 3 to 8) (size 9 to 14) (size 15 to 20)
#    0.000    2.000    0.000    3.000    0.000    4.571 
#    0.000   16.429    0.000    0.000    0.000    0.000 
#    0.000    0.000    0.000    0.000    0.000    0.000 
#
# Total GULP energy -78139.767222 kJ/mol
# GULP energy per Si atom -5581.411944 kJ/mol
# Density = 2.509092 g / cm^3
# Si number density = 25.148158 Si / 1000 Ang^3
#
#
#
# Elastic Constant Matrix: (Units=GPa)
#
#
# Indices 1 2 3 4 5 6 
#
# 1 252.1152 79.9142 51.4034 6.0316 18.8354 -48.1030
# 2 79.9142 149.0091 35.3249 8.3935 13.4005 -23.6494
# 3 51.4034 35.3249 91.0497 11.7190 27.5257 -13.1818
# 4 6.0316 8.3935 11.7190 38.5890 -5.8490 13.8960
# 5 18.8354 13.4005 27.5257 -5.8490 55.1800 2.8758
# 6 -48.1030 -23.6494 -13.1818 13.8960 2.8758 51.4300
#
#
#
# Elastic Compliance Matrix: (Units=1/GPa)
#
#
# Indices 1 2 3 4 5 6 
#
# 1 0.005918 -0.001833 -0.001152 -0.002236 -0.001502 0.005085
# 2 -0.001833 0.008657 -0.001265 -0.002352 -0.001233 0.002647
# 3 -0.001152 -0.001265 0.016449 -0.007682 -0.008585 0.005112
# 4 -0.002236 -0.002352 -0.007682 0.036162 0.009805 -0.015461
# 5 -0.001502 -0.001233 -0.008585 0.009805 0.024684 -0.008202
# 6 0.005085 0.002647 0.005112 -0.015461 -0.008202 0.031364
#
#
# Mechanical properties :
#
#
# Convention : Reuss Voigt Hill
#
# Bulk Modulus (GPa) = 44.39682 91.71768 68.05725
# Shear Modulus (GPa) = 35.90852 50.74191 43.32521
#
# Velocity S-wave (km/s) = 3.78283 4.49678 4.15516
# Velocity P-wave (km/s) = 6.06400 7.96941 7.08109
#
# Compressibility (1/GPa) = 0.02252414
#
# Stress axis : x y z
#
# Youngs Moduli (GPa) = 168.96834 115.50833 60.79487
#
# Poissons Ratio (x) = 0.21170 0.07003
# Poissons Ratio (y) = 0.30968 0.07693
# Poissons Ratio (z) = 0.19465 0.14617
#
# Static dielectric constant tensor:
#      x y z
#    x 2.075500 -0.045410 -0.013910 
#    y -0.045410 1.948930 0.114670 
#    z -0.013910 0.114670 2.185680 
# 
# From -- ./inp_files/411196.got.cif
#   From: 2010.05.17/outbox.cif.g08.bks.cpg/sg2_206_cif.got.tgz:411196.got - 2010.06.03 11:33:40.
