data_PCOD9102171
_publ_section_title
;
Structure prediction by ZEFSAII (Michael W. Deem and Ramdas Pophale) SiO2 
 PCOD9102171
Probable space group: P -1
;
_chemical_formula_sum "Si O2"
_cell_formula_units_Z 16
_cell_length_a 10.023354
_cell_length_b 8.679729
_cell_length_c 11.919509
_cell_angle_alpha 85.607760
_cell_angle_beta 37.989042
_cell_angle_gamma 74.800013
_cell_volume 601.007445
_symmetry_space_group_name_H-M "P -1"
_symmetry_group_IT_number 2
_symmetry_cell_setting 'triclinic'
loop_
_space_group_symop_operation_xyz
x,y,z
-x,-y,-z
loop_
_atom_site_type_symbol
_atom_site_label
_atom_site_fract_x
_atom_site_fract_y
_atom_site_fract_z
Si Si1 0.797912 0.455298 0.925213
Si Si2 0.423297 0.816050 0.443886
Si Si3 0.618200 0.280249 0.900890
Si Si4 0.725624 0.728994 0.438712
Si Si5 0.058724 0.157950 0.501962
Si Si6 0.489071 0.976975 0.152698
Si Si7 0.009690 0.893680 0.883574
Si Si8 0.641271 0.441216 0.267937
O O1 0.629511 0.586157 0.949126
O O2 0.711219 0.503900 0.102376
O O3 0.737545 0.293090 0.938325
O O4 0.061319 0.424736 0.732990
O O5 0.624340 0.833976 0.389772
O O6 0.437043 0.885045 0.307544
O O7 0.185967 0.893497 0.664784
O O8 0.494389 0.615829 0.411145
O O9 0.573325 0.116989 0.905017
O O10 0.806486 0.292232 0.680521
O O11 0.830101 0.821748 0.453023
O O12 0.529404 0.666096 0.623968
O O13 0.281991 0.151215 0.281968
O O14 0.000000 0.000000 0.500000
O O15 0.754350 0.948786 0.999687
O O16 0.117736 0.698580 0.850707
O O17 0.000000 0.000000 0.000000
#
# Coordination Sequence:
#
# PCOD9102171 Si02
#       8
#     2   2   2   2   2   2   2   2
#     4  10  20  38  62  87 119 157 202 246 303 354
#     4  11  24  38  62  97 125 158 200 247 308 371
#     4   9  20  37  59  89 114 155 208 248 290 357
#     4  10  21  37  62  89 124 156 195 253 310 354
#     4   9  20  40  61  83 117 163 203 251 297 353
#     4  11  21  39  66  82 124 163 198 244 314 353
#     4  11  25  40  61  94 125 158 204 247 299 374
#     4  11  23  39  62  94 128 155 200 252 303 370
#
# _framework density 26.621966
#
# number of rings (size 3 to 8) (size 9 to 14) (size 15 to 20)
#    0.000    1.750    1.250    3.750    3.500    5.000 
#    0.000    9.375    0.000    8.250    0.000    0.000 
#    0.000    0.000    0.000    0.000    0.000    0.000 
#
# Total GULP energy -89199.573838 kJ/mol
# GULP energy per Si atom -5574.973365 kJ/mol
# Density = 2.656137 g / cm^3
# Si number density = 26.621966 Si / 1000 Ang^3
#
#
#
# Elastic Constant Matrix: (Units=GPa)
#
#
# Indices 1 2 3 4 5 6 
#
# 1 100.2823 14.6902 38.0289 1.6668 -26.2685 24.7350
# 2 14.6902 100.7317 32.5400 16.1021 0.2002 9.9835
# 3 38.0289 32.5400 193.8668 37.6980 -26.1105 1.6301
# 4 1.6668 16.1021 37.6980 40.6629 -2.7676 12.1567
# 5 -26.2685 0.2002 -26.1105 -2.7676 53.2652 9.0897
# 6 24.7350 9.9835 1.6301 12.1567 9.0897 30.5874
#
#
#
# Elastic Compliance Matrix: (Units=1/GPa)
#
#
# Indices 1 2 3 4 5 6 
#
# 1 0.021385 -0.001157 -0.004342 0.012140 0.013403 -0.025492
# 2 -0.001157 0.011070 -0.001200 -0.002980 -0.001171 -0.001081
# 3 -0.004342 -0.001200 0.007854 -0.008689 0.000082 0.006913
# 4 0.012140 -0.002980 -0.008689 0.042211 0.008665 -0.027733
# 5 0.013403 -0.001171 0.000082 0.008665 0.029761 -0.022749
# 6 -0.025492 -0.001081 0.006913 -0.027733 -0.022749 0.071075
#
#
# Mechanical properties :
#
#
# Convention : Reuss Voigt Hill
#
# Bulk Modulus (GPa) = 37.16046 62.82212 49.99129
# Shear Modulus (GPa) = 24.30459 45.54455 34.92457
#
# Velocity S-wave (km/s) = 3.02479 4.14065 3.62590
# Velocity P-wave (km/s) = 5.11742 6.81976 6.02898
#
# Compressibility (1/GPa) = 0.02691033
#
# Stress axis : x y z
#
# Youngs Moduli (GPa) = 46.76266 90.33741 127.32549
#
# Poissons Ratio (x) = 0.10450 0.55282
# Poissons Ratio (y) = 0.05410 0.15282
# Poissons Ratio (z) = 0.20303 0.10843
#
# Static dielectric constant tensor:
#      x y z
#    x 2.133600 -0.007410 0.046420 
#    y -0.007410 2.231400 0.009880 
#    z 0.046420 0.009880 2.204660 
# 
# From -- ./inp_files/477655.got.cif
#   From: 2010.05.17/outbox.cif.g08.bks.cpg/sg2_239_cif.got.tgz:477655.got - 2010.06.03 11:33:40.
