data_PCOD9102317
_publ_section_title
;
Structure prediction by ZEFSAII (Michael W. Deem and Ramdas Pophale) SiO2 
 PCOD9102317
Probable space group: P -1
;
_chemical_formula_sum "Si O2"
_cell_formula_units_Z 16
_cell_length_a 14.969138
_cell_length_b 7.891789
_cell_length_c 6.575383
_cell_angle_alpha 65.206438
_cell_angle_beta 76.986978
_cell_angle_gamma 66.842715
_cell_volume 646.663834
_symmetry_space_group_name_H-M "P -1"
_symmetry_group_IT_number 2
_symmetry_cell_setting 'triclinic'
loop_
_space_group_symop_operation_xyz
x,y,z
-x,-y,-z
loop_
_atom_site_type_symbol
_atom_site_label
_atom_site_fract_x
_atom_site_fract_y
_atom_site_fract_z
Si Si1 0.895279 0.536325 0.791850
Si Si2 0.726722 0.755080 0.086008
Si Si3 0.000515 0.129727 0.125704
Si Si4 0.874158 0.944872 0.538053
Si Si5 0.740032 0.499739 0.584465
Si Si6 0.602814 0.537268 0.007954
Si Si7 0.433885 0.861590 0.098053
Si Si8 0.323418 0.783797 0.542573
O O1 0.927045 0.709769 0.583818
O O2 0.833498 0.453531 0.706565
O O3 0.820852 0.657206 0.946052
O O4 0.974854 0.353000 0.949993
O O5 0.741948 0.676681 0.346648
O O6 0.652389 0.661282 0.065907
O O7 0.672603 0.992074 0.990141
O O8 0.098913 0.044071 0.245881
O O9 0.917511 0.095076 0.327466
O O10 0.000000 0.000000 0.000000
O O11 0.761708 0.005359 0.504996
O O12 0.727058 0.335887 0.519211
O O13 0.648108 0.547922 0.759589
O O14 0.488811 0.666601 0.035277
O O15 0.644094 0.326891 0.207401
O O16 0.416094 0.795580 0.366307
O O17 0.500000 0.000000 0.000000
#
# Coordination Sequence:
#
# PCOD9102317 Si02
#       8
#     2   2   2   2   2   2   2   2
#     4  11  22  43  66  95 129 172 213 258 322 384
#     4   9  19  38  60  89 126 165 210 262 311 375
#     4  11  25  43  66 100 133 160 210 269 317 383
#     4  11  24  42  68  95 127 173 213 257 323 386
#     4  10  21  37  61  92 126 166 215 265 314 374
#     4   9  20  36  60  86 125 167 209 264 320 365
#     4  10  20  38  62  91 125 168 215 263 320 373
#     4  11  21  41  64  90 125 171 215 262 318 381
#
# _framework density 24.742376
#
# number of rings (size 3 to 8) (size 9 to 14) (size 15 to 20)
#    0.000    1.750    1.250    3.750    0.000    3.500 
#    4.500    1.250    0.000    0.000    0.000    0.000 
#    0.000    0.000    0.000    0.000    0.000    0.000 
#
# Total GULP energy -89447.374722 kJ/mol
# GULP energy per Si atom -5590.460920 kJ/mol
# Density = 2.468606 g / cm^3
# Si number density = 24.742376 Si / 1000 Ang^3
#
#
#
# Elastic Constant Matrix: (Units=GPa)
#
#
# Indices 1 2 3 4 5 6 
#
# 1 72.0146 3.7299 24.0909 6.4839 14.2103 0.8795
# 2 3.7299 103.2513 32.5912 -17.0302 23.9087 -10.7810
# 3 24.0909 32.5912 116.6424 -5.8472 21.7439 -7.0524
# 4 6.4839 -17.0302 -5.8472 31.5671 7.0250 2.5624
# 5 14.2103 23.9087 21.7439 7.0250 32.2074 -6.5170
# 6 0.8795 -10.7810 -7.0524 2.5624 -6.5170 40.1529
#
#
#
# Elastic Compliance Matrix: (Units=1/GPa)
#
#
# Indices 1 2 3 4 5 6 
#
# 1 0.016102 0.001283 -0.002702 -0.001634 -0.006155 -0.001377
# 2 0.001283 0.014796 -0.001489 0.010157 -0.012558 0.000997
# 3 -0.002702 -0.001489 0.010748 0.002930 -0.005504 0.000467
# 4 -0.001634 0.010157 0.002930 0.042357 -0.018528 -0.002433
# 5 -0.006155 -0.012558 -0.005504 -0.018528 0.051938 0.005408
# 6 -0.001377 0.000997 0.000467 -0.002433 0.005408 0.026318
#
#
# Mechanical properties :
#
#
# Convention : Reuss Voigt Hill
#
# Bulk Modulus (GPa) = 27.90859 45.85913 36.88386
# Shear Modulus (GPa) = 27.77495 36.21855 31.99675
#
# Velocity S-wave (km/s) = 3.35411 3.83015 3.60001
# Velocity P-wave (km/s) = 5.12876 6.17535 5.67623
#
# Compressibility (1/GPa) = 0.03583126
#
# Stress axis : x y z
#
# Youngs Moduli (GPa) = 62.10409 67.58574 93.03811
#
# Poissons Ratio (x) = -0.08672 0.25139
# Poissons Ratio (y) = -0.07969 0.13850
# Poissons Ratio (z) = 0.16780 0.10061
#
# Static dielectric constant tensor:
#      x y z
#    x 2.117570 -0.002090 -0.129830 
#    y -0.002090 2.012040 0.000130 
#    z -0.129830 0.000130 2.016380 
# 
# From -- ./inp_files/106243.got.cif
#   From: 2010.05.17/outbox.cif.g08.bks.cpg/sg2_54_cif.got.tgz:106243.got - 2010.06.03 11:33:40.
