data_PCOD9102326
_publ_section_title
;
Structure prediction by ZEFSAII (Michael W. Deem and Ramdas Pophale) SiO2 
 PCOD9102326
Probable space group: P -1
;
_chemical_formula_sum "Si O2"
_cell_formula_units_Z 16
_cell_length_a 20.619441
_cell_length_b 8.828354
_cell_length_c 24.375640
_cell_angle_alpha 43.292981
_cell_angle_beta 21.816084
_cell_angle_gamma 30.794035
_cell_volume 785.634871
_symmetry_space_group_name_H-M "P -1"
_symmetry_group_IT_number 2
_symmetry_cell_setting 'triclinic'
loop_
_space_group_symop_operation_xyz
x,y,z
-x,-y,-z
loop_
_atom_site_type_symbol
_atom_site_label
_atom_site_fract_x
_atom_site_fract_y
_atom_site_fract_z
Si Si1 0.945314 0.698348 0.170777
Si Si2 0.695837 0.790705 0.167169
Si Si3 0.469954 0.347503 0.879237
Si Si4 0.807295 0.893044 0.945275
Si Si5 0.869996 0.720684 0.344014
Si Si6 0.309326 0.653142 0.659695
Si Si7 0.561221 0.741046 0.952603
Si Si8 0.489129 0.253389 0.311850
O O1 0.896414 0.613883 0.288709
O O2 0.046581 0.436459 0.114614
O O3 0.711883 0.037937 0.238668
O O4 0.172256 0.653425 0.021335
O O5 0.610121 0.619273 0.291912
O O6 0.596115 0.031219 0.232057
O O7 0.636834 0.950258 0.112948
O O8 0.000000 0.500000 0.000000
O O9 0.592564 0.427603 0.726334
O O10 0.517499 0.047807 0.906974
O O11 0.524495 0.301843 0.912957
O O12 0.032195 0.837554 0.806683
O O13 0.616636 0.176802 0.977824
O O14 0.733811 0.679247 0.502722
O O15 0.138412 0.542542 0.205756
O O16 0.710050 0.090146 0.366116
O O17 0.500000 0.500000 0.500000
#
# Coordination Sequence:
#
# PCOD9102326 Si02
#       8
#     2   2   2   2   2   2   2   2
#     4  10  20  38  62  92 116 150 199 246 300 352
#     4  10  21  36  61  87 120 150 196 241 294 350
#     4   9  21  37  63  84 118 153 201 252 284 343
#     4  10  21  40  65  83 121 159 200 241 285 355
#     4  11  24  37  62  88 125 156 193 243 297 353
#     4  11  21  40  60  90 124 154 184 249 304 348
#     4   9  21  42  56  86 115 162 205 233 288 355
#     4  12  21  38  59  94 120 151 196 250 303 346
#
# _framework density 20.365694000000001
#
# number of rings (size 3 to 8) (size 9 to 14) (size 15 to 20)
#    0.000    1.750    3.750    1.500    7.000    3.000 
#    0.000    1.875    0.000    0.000    0.000    0.000 
#    0.000    0.000    0.000    0.000    0.000    0.000 
#
# Total GULP energy -89226.540868 kJ/mol
# GULP energy per Si atom -5576.658804 kJ/mol
# Density = 2.031934 g / cm^3
# Si number density = 20.365694 Si / 1000 Ang^3
#
#
#
# Elastic Constant Matrix: (Units=GPa)
#
#
# Indices 1 2 3 4 5 6 
#
# 1 82.4487 17.2342 29.3378 -6.4945 14.6030 -17.5292
# 2 17.2342 65.6688 26.8687 -18.7077 1.0667 -14.5008
# 3 29.3378 26.8687 90.4896 -25.8319 27.6326 -3.1512
# 4 -6.4945 -18.7077 -25.8319 31.6059 -3.3009 -0.2521
# 5 14.6030 1.0667 27.6326 -3.3009 25.7317 6.0217
# 6 -17.5292 -14.5008 -3.1512 -0.2521 6.0217 14.4189
#
#
#
# Elastic Compliance Matrix: (Units=1/GPa)
#
#
# Indices 1 2 3 4 5 6 
#
# 1 0.026796 0.006314 0.002780 0.008850 -0.029488 0.052003
# 2 0.006314 0.027528 -0.000827 0.016070 -0.011164 0.040123
# 3 0.002780 -0.000827 0.026475 0.018469 -0.032840 0.022372
# 4 0.008850 0.016070 0.018469 0.055419 -0.028687 0.043906
# 5 -0.029488 -0.011164 -0.032840 -0.028687 0.111342 -0.101254
# 6 0.052003 0.040123 0.022372 0.043906 -0.101254 0.220867
#
#
# Mechanical properties :
#
#
# Convention : Reuss Voigt Hill
#
# Bulk Modulus (GPa) = 10.27408 42.83206 26.55307
# Shear Modulus (GPa) = 10.32336 25.36239 17.84288
#
# Velocity S-wave (km/s) = 2.25389 3.53278 2.96315
# Velocity P-wave (km/s) = 3.43934 6.14148 4.97729
#
# Compressibility (1/GPa) = 0.09733232
#
# Stress axis : x y z
#
# Youngs Moduli (GPa) = 37.31908 36.32607 37.77153
#
# Poissons Ratio (x) = -0.22935 -0.10500
# Poissons Ratio (y) = -0.23562 0.03124
# Poissons Ratio (z) = -0.10375 0.03004
#
# Static dielectric constant tensor:
#      x y z
#    x 1.769460 0.024970 0.018790 
#    y 0.024970 1.799460 0.016650 
#    z 0.018790 0.016650 1.738330 
# 
# From -- ./inp_files/175172.got.cif
#   From: 2010.05.17/outbox.cif.g08.bks.cpg/sg2_88_cif.got.tgz:175172.got - 2010.06.03 11:33:40.
