data_PCOD9102914
_publ_section_title
;
Structure prediction by ZEFSAII (Michael W. Deem and Ramdas Pophale) SiO2 
 PCOD9102914
Probable space group: P -1
;
_chemical_formula_sum "Si O2"
_cell_formula_units_Z 14
_cell_length_a 9.549697
_cell_length_b 8.388060
_cell_length_c 7.986280
_cell_angle_alpha 75.299383
_cell_angle_beta 77.684184
_cell_angle_gamma 75.367081
_cell_volume 591.059831
_symmetry_space_group_name_H-M "P -1"
_symmetry_group_IT_number 2
_symmetry_cell_setting 'triclinic'
loop_
_space_group_symop_operation_xyz
x,y,z
-x,-y,-z
loop_
_atom_site_type_symbol
_atom_site_label
_atom_site_fract_x
_atom_site_fract_y
_atom_site_fract_z
Si Si1 0.035108 0.911877 0.293389
Si Si2 0.124682 0.342384 0.445879
Si Si3 0.500336 0.771336 0.902852
Si Si4 0.793509 0.596596 0.972332
Si Si5 0.361210 0.893366 0.230936
Si Si6 0.537764 0.794709 0.522559
Si Si7 0.972102 0.239548 0.025337
O O1 0.194133 0.918491 0.319683
O O2 0.944615 0.820011 0.464325
O O3 0.057953 0.802812 0.145283
O O4 0.956767 0.092832 0.194824
O O5 0.153128 0.379906 0.236452
O O6 0.288728 0.292304 0.498642
O O7 0.000000 0.500000 0.500000
O O8 0.620701 0.625703 0.995595
O O9 0.472153 0.734780 0.727235
O O10 0.583227 0.930672 0.833500
O O11 0.374448 0.823948 0.056246
O O12 0.860390 0.732601 0.022393
O O13 0.869886 0.412930 0.061582
O O14 0.461655 0.773113 0.371462
O O15 0.500000 0.000000 0.500000
#
# Coordination Sequence:
#
# PCOD9102914 Si02
#       7
#     2   2   2   2   2   2   2
#     4  11  23  40  62 103 127 162 226 269 329 384
#     4  11  23  42  69  92 132 174 216 272 329 395
#     4   9  19  37  64  89 124 175 220 253 326 403
#     4  10  20  41  63  94 123 174 219 261 323 397
#     4  10  20  38  64  92 131 172 211 273 329 388
#     4   9  21  39  64  94 125 174 222 259 326 404
#     4  10  22  36  63  90 131 159 215 271 316 387
#
# _framework density 23.686267999999998
#
# number of rings (size 3 to 8) (size 9 to 14) (size 15 to 20)
#    0.000    2.000    2.857    0.000    2.000    4.000 
#    2.571    1.429    3.143    0.000    0.000    0.000 
#    0.000    0.000    0.000    0.000    0.000    0.000 
#
# Total GULP energy -78255.745118 kJ/mol
# GULP energy per Si atom -5589.696080 kJ/mol
# Density = 2.363236 g / cm^3
# Si number density = 23.686268 Si / 1000 Ang^3
#
#
#
# Elastic Constant Matrix: (Units=GPa)
#
#
# Indices 1 2 3 4 5 6 
#
# 1 91.3337 22.6905 51.4268 -1.3800 9.0043 -16.5628
# 2 22.6905 72.4623 30.3832 -7.0126 -9.4733 -14.2733
# 3 51.4268 30.3832 78.9734 3.6344 -2.1325 -5.6536
# 4 -1.3800 -7.0126 3.6344 37.2576 -0.4050 -1.1423
# 5 9.0043 -9.4733 -2.1325 -0.4050 29.2378 -5.5464
# 6 -16.5628 -14.2733 -5.6536 -1.1423 -5.5464 25.7268
#
#
#
# Elastic Compliance Matrix: (Units=1/GPa)
#
#
# Indices 1 2 3 4 5 6 
#
# 1 0.020490 0.000504 -0.013103 0.002368 -0.005256 0.009563
# 2 0.000504 0.020781 -0.007453 0.005125 0.008431 0.012261
# 3 -0.013103 -0.007453 0.023808 -0.004408 0.001946 -0.007115
# 4 0.002368 0.005125 -0.004408 0.028500 0.001970 0.005089
# 5 -0.005256 0.008431 0.001946 0.001970 0.040731 0.010590
# 6 0.009563 0.012261 -0.007115 0.005089 0.010590 0.052775
#
#
# Mechanical properties :
#
#
# Convention : Reuss Voigt Hill
#
# Bulk Modulus (GPa) = 40.04140 50.19672 45.11906
# Shear Modulus (GPa) = 21.23013 27.66237 24.44625
#
# Velocity S-wave (km/s) = 2.99708 3.42111 3.21609
# Velocity P-wave (km/s) = 5.37757 6.06990 5.73419
#
# Compressibility (1/GPa) = 0.02497415
#
# Stress axis : x y z
#
# Youngs Moduli (GPa) = 48.80538 48.12062 42.00185
#
# Poissons Ratio (x) = -0.02424 0.55034
# Poissons Ratio (y) = -0.02458 0.31306
# Poissons Ratio (z) = 0.63948 0.35867
#
# Static dielectric constant tensor:
#      x y z
#    x 1.914700 0.013670 0.024010 
#    y 0.013670 1.967700 0.016730 
#    z 0.024010 0.016730 1.864740 
# 
# From -- ./inp_files/157341.got.cif
#   From: 2010.05.17/outbox.cif.g08.bks.cpg/sg2_79_cif.got.tgz:157341.got - 2010.06.03 11:33:40.
