data_PCOD9102226
_publ_section_title
;
Structure prediction by ZEFSAII (Michael W. Deem and Ramdas Pophale) SiO2 
 PCOD9102226
Probable space group: P -1
;
_chemical_formula_sum "Si O2"
_cell_formula_units_Z 15
_cell_length_a 13.734824
_cell_length_b 8.594512
_cell_length_c 13.985495
_cell_angle_alpha 104.198538
_cell_angle_beta 138.261480
_cell_angle_gamma 48.820398
_cell_volume 720.626323
_symmetry_space_group_name_H-M "P -1"
_symmetry_group_IT_number 2
_symmetry_cell_setting 'triclinic'
loop_
_space_group_symop_operation_xyz
x,y,z
-x,-y,-z
loop_
_atom_site_type_symbol
_atom_site_label
_atom_site_fract_x
_atom_site_fract_y
_atom_site_fract_z
Si Si1 0.898784 0.933818 0.106603
Si Si2 0.744715 0.863698 0.161065
Si Si3 0.715972 0.509584 0.762667
Si Si4 0.657484 0.387921 0.887961
Si Si5 0.000000 0.500000 0.000000
Si Si6 0.989444 0.642056 0.800553
Si Si7 0.782385 0.085384 0.378779
Si Si8 0.268010 0.892957 0.427085
O O1 0.787559 0.961188 0.124160
O O2 0.026624 0.684272 0.109365
O O3 0.105213 0.882084 0.272865
O O4 0.732831 0.157878 0.950144
O O5 0.916420 0.585898 0.221690
O O6 0.780046 0.921263 0.296074
O O7 0.500000 0.000000 0.000000
O O8 0.700149 0.375427 0.804099
O O9 0.733455 0.662071 0.854862
O O10 0.526087 0.657083 0.569905
O O11 0.414184 0.643190 0.760712
O O12 0.814445 0.388441 0.053546
O O13 0.923001 0.647974 0.859370
O O14 0.804900 0.887471 0.645846
O O15 0.757351 0.080978 0.472896
O O16 0.000000 0.000000 0.500000
#
# Coordination Sequence:
#
# PCOD9102226 Si02
#       8
#     2   2   2   2   1   2   2   2
#     4  11  21  39  63  91 123 164 213 257 310 378
#     4  12  24  40  65  89 125 166 216 261 302 371
#     4  10  20  38  64  91 126 158 204 263 317 374
#     4   9  21  38  64  91 119 168 211 251 314 376
#     4  10  20  38  62  88 128 158 202 258 314 374
#     4  10  21  41  62  93 123 165 208 253 314 377
#     4  11  22  41  62  89 129 167 208 263 307 362
#     4  10  23  39  64  91 127 165 206 258 321 371
#
# _framework density 20.815225999999999
#
# number of rings (size 3 to 8) (size 9 to 14) (size 15 to 20)
#    0.000    1.600    4.000    0.800    0.000    2.667 
#    0.000    1.333    0.000    0.000    0.000    0.000 
#    0.000    0.000    0.000    0.000    0.000    0.000 
#
# Total GULP energy -83543.555926 kJ/mol
# GULP energy per Si atom -5569.570395 kJ/mol
# Density = 2.076785 g / cm^3
# Si number density = 20.815226 Si / 1000 Ang^3
#
#
#
# Elastic Constant Matrix: (Units=GPa)
#
#
# Indices 1 2 3 4 5 6 
#
# 1 78.2037 37.2673 35.3451 -19.4833 -7.1857 6.7922
# 2 37.2673 94.2189 51.5933 -5.1143 -19.2017 3.3564
# 3 35.3451 51.5933 128.8222 -20.7295 -17.5892 10.2581
# 4 -19.4833 -5.1143 -20.7295 41.6254 9.7742 -7.4735
# 5 -7.1857 -19.2017 -17.5892 9.7742 28.6359 -3.1947
# 6 6.7922 3.3564 10.2581 -7.4735 -3.1947 35.8233
#
#
#
# Elastic Compliance Matrix: (Units=1/GPa)
#
#
# Indices 1 2 3 4 5 6 
#
# 1 0.018335 -0.006690 -0.001517 0.007634 -0.003549 -0.001139
# 2 -0.006690 0.017415 -0.004839 -0.005375 0.008939 0.000698
# 3 -0.001517 -0.004839 0.011047 0.003501 0.001794 -0.001532
# 4 0.007634 -0.005375 0.003501 0.031691 -0.009934 0.003779
# 5 -0.003549 0.008939 0.001794 -0.009934 0.044655 0.001232
# 6 -0.001139 0.000698 -0.001532 0.003779 0.001232 0.029402
#
#
# Mechanical properties :
#
#
# Convention : Reuss Voigt Hill
#
# Bulk Modulus (GPa) = 48.29727 61.07291 54.68509
# Shear Modulus (GPa) = 26.94849 33.01952 29.98400
#
# Velocity S-wave (km/s) = 3.60203 3.98718 3.79949
# Velocity P-wave (km/s) = 6.36810 7.11344 6.75106
#
# Compressibility (1/GPa) = 0.02070510
#
# Stress axis : x y z
#
# Youngs Moduli (GPa) = 54.53913 57.42272 90.52112
#
# Poissons Ratio (x) = 0.38417 0.13730
# Poissons Ratio (y) = 0.36488 0.43804
# Poissons Ratio (z) = 0.08273 0.27787
#
# Static dielectric constant tensor:
#      x y z
#    x 1.759250 0.012830 0.031810 
#    y 0.012830 1.920860 0.067570 
#    z 0.031810 0.067570 1.783730 
# 
# From -- ./inp_files/199098.got.cif
#   From: 2010.05.17/outbox.cif.g08.bks.cpg/sg2_100_cif.got.tgz:199098.got - 2010.06.03 11:33:40.
