data_PCOD9102289
_publ_section_title
;
Structure prediction by ZEFSAII (Michael W. Deem and Ramdas Pophale) SiO2 
 PCOD9102289
Probable space group: P -1
;
_chemical_formula_sum "Si O2"
_cell_formula_units_Z 14
_cell_length_a 15.113623
_cell_length_b 7.813695
_cell_length_c 7.057386
_cell_angle_alpha 123.241004
_cell_angle_beta 80.974157
_cell_angle_gamma 127.178542
_cell_volume 536.033380
_symmetry_space_group_name_H-M "P -1"
_symmetry_group_IT_number 2
_symmetry_cell_setting 'triclinic'
loop_
_space_group_symop_operation_xyz
x,y,z
-x,-y,-z
loop_
_atom_site_type_symbol
_atom_site_label
_atom_site_fract_x
_atom_site_fract_y
_atom_site_fract_z
Si Si1 0.875733 0.227161 0.371577
Si Si2 0.341548 0.856629 0.537311
Si Si3 0.133267 0.243180 0.930429
Si Si4 0.280653 0.344543 0.319712
Si Si5 0.645204 0.260416 0.955415
Si Si6 0.554148 0.761067 0.937186
Si Si7 0.916078 0.206084 0.935898
O O1 0.784111 0.228871 0.513520
O O2 0.848966 0.194283 0.135776
O O3 0.000000 0.500000 0.500000
O O4 0.882675 0.004347 0.299530
O O5 0.325428 0.632140 0.539301
O O6 0.390217 0.854245 0.318298
O O7 0.403925 0.125072 0.795251
O O8 0.206298 0.304320 0.133945
O O9 0.219287 0.506243 0.940644
O O10 0.011751 0.178345 0.954031
O O11 0.390586 0.366927 0.236225
O O12 0.187622 0.070946 0.297505
O O13 0.581163 0.381921 0.100844
O O14 0.604523 0.013341 0.942537
O O15 0.000000 0.500000 0.000000
#
# Coordination Sequence:
#
# PCOD9102289 Si02
#       7
#     2   2   2   2   2   2   2
#     4  11  21  39  60  92 127 162 214 260 311 385
#     4  11  22  42  65  95 124 172 213 255 323 378
#     4  10  20  38  62  90 125 169 205 259 321 371
#     4  10  21  40  64  92 126 165 213 262 310 386
#     4  10  24  42  66  93 130 167 212 270 310 376
#     4  11  22  46  64  94 131 166 215 264 316 372
#     4  11  21  38  62  89 129 162 205 266 318 372
#
# _framework density 26.117777
#
# number of rings (size 3 to 8) (size 9 to 14) (size 15 to 20)
#    0.000    1.429    2.857    5.571    0.000    2.286 
#    7.714    2.857    0.000    0.000    0.000    0.000 
#    0.000    0.000    0.000    0.000    0.000    0.000 
#
# Total GULP energy -78309.894130 kJ/mol
# GULP energy per Si atom -5593.563866 kJ/mol
# Density = 2.605833 g / cm^3
# Si number density = 26.117777 Si / 1000 Ang^3
#
#
#
# Elastic Constant Matrix: (Units=GPa)
#
#
# Indices 1 2 3 4 5 6 
#
# 1 117.9630 -1.6869 19.2028 -11.6080 -42.9472 8.8480
# 2 -1.6869 85.8120 10.5235 -10.9346 -5.9232 -11.7829
# 3 19.2028 10.5235 59.8920 0.5383 -23.0722 -13.6404
# 4 -11.6080 -10.9346 0.5383 36.1113 1.4699 -7.5048
# 5 -42.9472 -5.9232 -23.0722 1.4699 45.2469 1.8834
# 6 8.8480 -11.7829 -13.6404 -7.5048 1.8834 46.2012
#
#
#
# Elastic Compliance Matrix: (Units=1/GPa)
#
#
# Indices 1 2 3 4 5 6 
#
# 1 0.013906 0.001391 -0.000137 0.003883 0.013279 -0.002259
# 2 0.001391 0.013093 -0.001188 0.005062 0.002121 0.003458
# 3 -0.000137 -0.001188 0.022518 0.000048 0.010948 0.005933
# 4 0.003883 0.005062 0.000048 0.031499 0.003119 0.005551
# 5 0.013279 0.002121 0.010948 0.003119 0.040460 0.000087
# 6 -0.002259 0.003458 0.005933 0.005551 0.000087 0.025609
#
#
# Mechanical properties :
#
#
# Convention : Reuss Voigt Hill
#
# Bulk Modulus (GPa) = 20.14121 35.52731 27.83426
# Shear Modulus (GPa) = 30.58101 41.22037 35.90069
#
# Velocity S-wave (km/s) = 3.42554 3.97703 3.71154
# Velocity P-wave (km/s) = 4.83468 5.89248 5.38959
#
# Compressibility (1/GPa) = 0.04964946
#
# Stress axis : x y z
#
# Youngs Moduli (GPa) = 71.91385 76.37937 44.40952
#
# Poissons Ratio (x) = -0.10627 0.00608
# Poissons Ratio (y) = -0.10006 0.05274
# Poissons Ratio (z) = 0.00984 0.09071
#
# Static dielectric constant tensor:
#      x y z
#    x 2.023710 -0.024510 0.088850 
#    y -0.024510 2.117950 -0.003740 
#    z 0.088850 -0.003740 2.228070 
# 
# From -- ./inp_files/187264.got.cif
#   From: 2010.05.17/outbox.cif.g08.bks.cpg/sg2_94_cif.got.tgz:187264.got - 2010.06.03 11:33:40.
