data_PCOD9102066
_publ_section_title
;
Structure prediction by ZEFSAII (Michael W. Deem and Ramdas Pophale) SiO2 
 PCOD9102066
Probable space group: P -1
;
_chemical_formula_sum "Si O2"
_cell_formula_units_Z 16
_cell_length_a 12.242101
_cell_length_b 11.820209
_cell_length_c 11.047275
_cell_angle_alpha 82.189327
_cell_angle_beta 60.350586
_cell_angle_gamma 131.416359
_cell_volume 732.996600
_symmetry_space_group_name_H-M "P -1"
_symmetry_group_IT_number 2
_symmetry_cell_setting 'triclinic'
loop_
_space_group_symop_operation_xyz
x,y,z
-x,-y,-z
loop_
_atom_site_type_symbol
_atom_site_label
_atom_site_fract_x
_atom_site_fract_y
_atom_site_fract_z
Si Si1 0.470399 0.319941 0.983603
Si Si2 0.886748 0.283670 0.526413
Si Si3 0.895055 0.776404 0.790572
Si Si4 0.785795 0.124630 0.226237
Si Si5 0.416906 0.055345 0.888534
Si Si6 0.315727 0.698830 0.694832
Si Si7 0.962872 0.390127 0.728095
Si Si8 0.330314 0.127923 0.353088
O O1 0.285711 0.272572 0.045470
O O2 0.382322 0.223943 0.182316
O O3 0.453516 0.193734 0.931136
O O4 0.728701 0.576270 0.817969
O O5 0.030533 0.469049 0.323514
O O6 0.015174 0.371812 0.572362
O O7 0.772191 0.078753 0.578789
O O8 0.662504 0.193275 0.687940
O O9 0.009394 0.779749 0.825563
O O10 0.114179 0.009718 0.569795
O O11 0.799371 0.273104 0.194244
O O12 0.547029 0.914608 0.461845
O O13 0.741806 0.043032 0.128421
O O14 0.283906 0.851514 0.061247
O O15 0.143894 0.509493 0.719678
O O16 0.423195 0.698563 0.736897
#
# Coordination Sequence:
#
# PCOD9102066 Si02
#       8
#     2   2   2   2   2   2   2   2
#     4  11  26  43  63  93 118 166 219 249 303 359
#     4  11  23  38  57  96 132 161 197 245 320 371
#     4  10  25  45  66  86 120 167 215 259 295 355
#     4  10  21  40  63  90 126 164 197 256 309 360
#     4  12  24  38  61  93 131 157 205 253 306 375
#     4  10  20  38  61  95 125 159 201 243 316 378
#     4  11  23  35  58  91 133 166 193 240 313 377
#     4  11  22  42  68  88 128 160 203 261 302 368
#
# _framework density 21.828206000000002
#
# number of rings (size 3 to 8) (size 9 to 14) (size 15 to 20)
#    0.000    1.250    3.750    2.250    7.000    1.000 
#    0.000    0.000    0.000    1.500    0.000    0.000 
#    0.000    0.000    0.000    0.000    0.000    0.000 
#
# Total GULP energy -89462.428579 kJ/mol
# GULP energy per Si atom -5591.401786 kJ/mol
# Density = 2.177852 g / cm^3
# Si number density = 21.828206 Si / 1000 Ang^3
#
#
#
# Elastic Constant Matrix: (Units=GPa)
#
#
# Indices 1 2 3 4 5 6 
#
# 1 95.4760 37.6059 46.8857 -7.2728 -22.6846 22.1418
# 2 37.6059 95.2135 21.1543 -14.5502 -14.6129 21.0943
# 3 46.8857 21.1543 70.7621 -10.3758 -0.8289 4.8860
# 4 -7.2728 -14.5502 -10.3758 22.5123 2.0189 -1.0713
# 5 -22.6846 -14.6129 -0.8289 2.0189 37.3879 -4.2463
# 6 22.1418 21.0943 4.8860 -1.0713 -4.2463 39.6024
#
#
#
# Elastic Compliance Matrix: (Units=1/GPa)
#
#
# Indices 1 2 3 4 5 6 
#
# 1 0.023024 -0.002599 -0.014071 -0.002191 0.011789 -0.008547
# 2 -0.002599 0.014669 -0.001123 0.007577 0.003076 -0.005687
# 3 -0.014071 -0.001123 0.024382 0.006934 -0.008270 0.004758
# 4 -0.002191 0.007577 0.006934 0.051806 -0.001285 -0.002403
# 5 0.011789 0.003076 -0.008270 -0.001285 0.034586 -0.003536
# 6 -0.008547 -0.005687 0.004758 -0.002403 -0.003536 0.032028
#
#
# Mechanical properties :
#
#
# Convention : Reuss Voigt Hill
#
# Bulk Modulus (GPa) = 37.75370 52.52704 45.14037
# Shear Modulus (GPa) = 22.23092 30.28758 26.25925
#
# Velocity S-wave (km/s) = 3.19478 3.72902 3.47219
# Velocity P-wave (km/s) = 5.56257 6.53122 6.06626
#
# Compressibility (1/GPa) = 0.02648747
#
# Stress axis : x y z
#
# Youngs Moduli (GPa) = 43.43293 68.17218 41.01320
#
# Poissons Ratio (x) = 0.17719 0.57711
# Poissons Ratio (y) = 0.11289 0.04607
# Poissons Ratio (z) = 0.61116 0.07658
#
# Static dielectric constant tensor:
#      x y z
#    x 1.819750 0.024420 -0.003290 
#    y 0.024420 1.806230 0.016710 
#    z -0.003290 0.016710 1.852060 
# 
# From -- ./inp_files/427710.got.cif
#   From: 2010.05.17/outbox.cif.g08.bks.cpg/sg2_214_cif.got.tgz:427710.got - 2010.06.03 11:33:40.
