data_PCOD9102557
_publ_section_title
;
Structure prediction by ZEFSAII (Michael W. Deem and Ramdas Pophale) SiO2 
 PCOD9102557
Probable space group: P -1
;
_chemical_formula_sum "Si O2"
_cell_formula_units_Z 16
_cell_length_a 14.081839
_cell_length_b 7.790772
_cell_length_c 17.370398
_cell_angle_alpha 106.210678
_cell_angle_beta 24.248987
_cell_angle_gamma 95.983453
_cell_volume 694.832004
_symmetry_space_group_name_H-M "P -1"
_symmetry_group_IT_number 2
_symmetry_cell_setting 'triclinic'
loop_
_space_group_symop_operation_xyz
x,y,z
-x,-y,-z
loop_
_atom_site_type_symbol
_atom_site_label
_atom_site_fract_x
_atom_site_fract_y
_atom_site_fract_z
Si Si1 0.426481 0.953556 0.785868
Si Si2 0.398855 0.379327 0.502196
Si Si3 0.110845 0.328632 0.137966
Si Si4 0.857044 0.865062 0.240447
Si Si5 0.651197 0.458561 0.128189
Si Si6 0.288447 0.421049 0.175020
Si Si7 0.459138 0.187459 0.655002
Si Si8 0.737462 0.690462 0.654016
O O1 0.428038 0.782164 0.705702
O O2 0.604935 0.866759 0.715999
O O3 0.536947 0.075771 0.664072
O O4 0.176372 0.122742 0.022586
O O5 0.500000 0.500000 0.500000
O O6 0.273811 0.263083 0.633765
O O7 0.176739 0.533287 0.636766
O O8 0.217163 0.315552 0.143131
O O9 0.246178 0.444245 0.002513
O O10 0.779084 0.848260 0.208283
O O11 0.696225 0.082070 0.412823
O O12 0.144479 0.757712 0.037278
O O13 0.629005 0.587439 0.235971
O O14 0.384949 0.460192 0.302251
O O15 0.034002 0.601621 0.410139
O O16 0.500000 0.500000 0.000000
O O17 0.341878 0.286551 0.194844
#
# Coordination Sequence:
#
# PCOD9102557 Si02
#       8
#     2   2   2   2   2   2   2   2
#     4  10  22  41  60  99 135 163 229 272 327 402
#     4  10  21  38  64  94 138 179 220 275 322 391
#     4  10  21  43  68  91 135 179 211 279 341 383
#     4   9  19  36  58  87 128 181 218 265 328 383
#     4  10  20  38  63  90 125 174 218 270 327 390
#     4  11  23  45  75  96 131 174 223 278 347 404
#     4   9  19  36  59  89 133 174 221 266 325 391
#     4  11  24  42  71 100 126 172 227 276 337 410
#
# _framework density 23.027151
#
# number of rings (size 3 to 8) (size 9 to 14) (size 15 to 20)
#    0.000    2.000    2.500    0.375    1.750    1.000 
#    9.000    0.625    0.000    0.000    0.000    0.000 
#    0.000    0.000    0.000    0.000    0.000    0.000 
#
# Total GULP energy -89346.545704 kJ/mol
# GULP energy per Si atom -5584.159106 kJ/mol
# Density = 2.297474 g / cm^3
# Si number density = 23.027151 Si / 1000 Ang^3
#
#
#
# Elastic Constant Matrix: (Units=GPa)
#
#
# Indices 1 2 3 4 5 6 
#
# 1 144.8003 23.3394 40.3622 4.5499 7.0506 -2.6995
# 2 23.3394 60.6186 36.2688 10.4358 8.1848 -6.7082
# 3 40.3622 36.2688 95.7407 -4.0008 7.1357 6.1101
# 4 4.5499 10.4358 -4.0008 49.8522 1.4684 6.3174
# 5 7.0506 8.1848 7.1357 1.4684 31.5130 8.1207
# 6 -2.6995 -6.7082 6.1101 6.3174 8.1207 40.2683
#
#
#
# Elastic Compliance Matrix: (Units=1/GPa)
#
#
# Indices 1 2 3 4 5 6 
#
# 1 0.008009 -0.000751 -0.003126 -0.000951 -0.001173 0.001272
# 2 -0.000751 0.025435 -0.009667 -0.006861 -0.005974 0.007935
# 3 -0.003126 -0.009667 0.015868 0.004199 0.000718 -0.005031
# 4 -0.000951 -0.006861 0.004199 0.022597 0.001456 -0.005682
# 5 -0.001173 -0.005974 0.000718 0.001456 0.035527 -0.008576
# 6 0.001272 0.007935 -0.005031 -0.005682 -0.008576 0.029625
#
#
# Mechanical properties :
#
#
# Convention : Reuss Voigt Hill
#
# Bulk Modulus (GPa) = 44.99295 55.67783 50.33539
# Shear Modulus (GPa) = 29.14519 37.73931 33.44225
#
# Velocity S-wave (km/s) = 3.56151 4.05273 3.81504
# Velocity P-wave (km/s) = 6.04102 6.79200 6.42749
#
# Compressibility (1/GPa) = 0.02222571
#
# Stress axis : x y z
#
# Youngs Moduli (GPa) = 124.85964 39.31527 63.02154
#
# Poissons Ratio (x) = 0.02952 0.19698
# Poissons Ratio (y) = 0.09374 0.60922
# Poissons Ratio (z) = 0.39025 0.38005
#
# Static dielectric constant tensor:
#      x y z
#    x 1.898420 -0.028340 0.037290 
#    y -0.028340 1.913820 -0.021640 
#    z 0.037290 -0.021640 1.859650 
# 
# From -- ./inp_files/612885.got.cif
#   From: 2010.05.17/outbox.cif.g08.bks.cpg/sg2_307_cif.got.tgz:612885.got - 2010.06.03 11:33:40.
