data_PCOD9102787
_publ_section_title
;
Structure prediction by ZEFSAII (Michael W. Deem and Ramdas Pophale) SiO2 
 PCOD9102787
Probable space group: P -1
;
_chemical_formula_sum "Si O2"
_cell_formula_units_Z 14
_cell_length_a 9.686944
_cell_length_b 12.179432
_cell_length_c 9.689632
_cell_angle_alpha 103.350076
_cell_angle_beta 98.977415
_cell_angle_gamma 39.513712
_cell_volume 707.267738
_symmetry_space_group_name_H-M "P -1"
_symmetry_group_IT_number 2
_symmetry_cell_setting 'triclinic'
loop_
_space_group_symop_operation_xyz
x,y,z
-x,-y,-z
loop_
_atom_site_type_symbol
_atom_site_label
_atom_site_fract_x
_atom_site_fract_y
_atom_site_fract_z
Si Si1 0.725722 0.484337 0.776426
Si Si2 0.194197 0.460144 0.472361
Si Si3 0.074219 0.096407 0.738710
Si Si4 0.357963 0.548355 0.713840
Si Si5 0.703282 0.189776 0.081848
Si Si6 0.602680 0.057032 0.502057
Si Si7 0.287339 0.838373 0.239402
O O1 0.822498 0.504059 0.681384
O O2 0.557064 0.503467 0.674339
O O3 0.560471 0.643958 0.902704
O O4 0.915839 0.294985 0.819727
O O5 0.213583 0.565551 0.591522
O O6 0.418065 0.256212 0.475921
O O7 0.000000 0.500000 0.500000
O O8 0.900637 0.104836 0.683143
O O9 0.220920 0.950847 0.838229
O O10 0.209860 0.054221 0.616383
O O11 0.234968 0.721145 0.831928
O O12 0.494816 0.372470 0.772890
O O13 0.776395 0.123560 0.919041
O O14 0.678466 0.061912 0.660283
O O15 0.500000 0.000000 0.500000
#
# Coordination Sequence:
#
# PCOD9102787 Si02
#       7
#     2   2   2   2   2   2   2
#     4   9  20  36  61  86 124 150 195 245 294 344
#     4  11  20  36  58  87 118 158 200 243 290 346
#     4  11  21  37  63  92 117 156 196 243 295 350
#     4   8  19  34  60  83 118 151 193 240 294 339
#     4  10  20  38  64  87 126 150 194 245 297 350
#     4  11  23  40  60  87 122 155 201 248 289 352
#     4  10  21  38  63  89 118 157 196 241 301 351
#
# _framework density 19.794485000000002
#
# number of rings (size 3 to 8) (size 9 to 14) (size 15 to 20)
#    0.857    1.143    1.429    2.571    0.000    3.429 
#    0.000    0.714    3.143    2.571    0.000    0.000 
#    0.000    0.000    0.000    0.000    0.000    0.000 
#
# Total GULP energy -77999.208615 kJ/mol
# GULP energy per Si atom -5571.372044 kJ/mol
# Density = 1.974943 g / cm^3
# Si number density = 19.794485 Si / 1000 Ang^3
#
#
#
# Elastic Constant Matrix: (Units=GPa)
#
#
# Indices 1 2 3 4 5 6 
#
# 1 96.2763 17.7239 50.3099 12.2154 -19.2767 11.3837
# 2 17.7239 95.3905 27.8419 13.1472 1.1765 -0.3482
# 3 50.3099 27.8419 86.3755 10.4998 -11.1810 10.2135
# 4 12.2154 13.1472 10.4998 16.3164 -5.3452 -8.9994
# 5 -19.2767 1.1765 -11.1810 -5.3452 16.8420 -2.3059
# 6 11.3837 -0.3482 10.2135 -8.9994 -2.3059 25.4438
#
#
#
# Elastic Compliance Matrix: (Units=1/GPa)
#
#
# Indices 1 2 3 4 5 6 
#
# 1 0.018851 -0.000317 -0.007184 -0.009255 0.012842 -0.007664
# 2 -0.000317 0.013371 -0.003093 -0.013354 -0.008121 -0.003893
# 3 -0.007184 -0.003093 0.018628 -0.007593 0.001006 -0.006900
# 4 -0.009255 -0.013354 -0.007593 0.124008 0.032018 0.053769
# 5 0.012842 -0.008121 0.001006 0.032018 0.087247 0.012971
# 6 -0.007664 -0.003893 -0.006900 0.053769 0.012971 0.065641
#
#
# Mechanical properties :
#
#
# Convention : Reuss Voigt Hill
#
# Bulk Modulus (GPa) = 33.71284 52.19932 42.95608
# Shear Modulus (GPa) = 13.93450 23.86487 18.89969
#
# Velocity S-wave (km/s) = 2.65610 3.47599 3.09333
# Velocity P-wave (km/s) = 5.14538 6.52211 5.87421
#
# Compressibility (1/GPa) = 0.02966229
#
# Stress axis : x y z
#
# Youngs Moduli (GPa) = 53.04777 74.78637 53.68289
#
# Poissons Ratio (x) = 0.02367 0.38567
# Poissons Ratio (y) = 0.01679 0.16606
# Poissons Ratio (z) = 0.38111 0.23134
#
# Static dielectric constant tensor:
#      x y z
#    x 1.690170 -0.022820 0.005120 
#    y -0.022820 1.756880 0.010340 
#    z 0.005120 0.010340 1.669380 
# 
# From -- ./inp_files/178884.got.cif
#   From: 2010.05.17/outbox.cif.g08.bks.cpg/sg2_90_cif.got.tgz:178884.got - 2010.06.03 11:33:40.
