data_PCOD9102463
_publ_section_title
;
Structure prediction by ZEFSAII (Michael W. Deem and Ramdas Pophale) SiO2 
 PCOD9102463
Probable space group: P -1
;
_chemical_formula_sum "Si O2"
_cell_formula_units_Z 16
_cell_length_a 9.062556
_cell_length_b 16.395946
_cell_length_c 8.801711
_cell_angle_alpha 140.296938
_cell_angle_beta 132.754617
_cell_angle_gamma 56.677824
_cell_volume 612.429528
_symmetry_space_group_name_H-M "P -1"
_symmetry_group_IT_number 2
_symmetry_cell_setting 'triclinic'
loop_
_space_group_symop_operation_xyz
x,y,z
-x,-y,-z
loop_
_atom_site_type_symbol
_atom_site_label
_atom_site_fract_x
_atom_site_fract_y
_atom_site_fract_z
Si Si1 0.807272 0.007630 0.090405
Si Si2 0.384945 0.194353 0.743029
Si Si3 0.147590 0.345663 0.546674
Si Si4 0.275821 0.421741 0.197306
Si Si5 0.439575 0.306294 0.416554
Si Si6 0.161837 0.825734 0.936943
Si Si7 0.158172 0.600987 0.113190
Si Si8 0.358603 0.048534 0.803790
O O1 0.829504 0.128467 0.167715
O O2 0.577144 0.972128 0.835951
O O3 0.789349 0.015529 0.272560
O O4 0.989036 0.909839 0.026651
O O5 0.393867 0.328365 0.029961
O O6 0.617381 0.157392 0.817448
O O7 0.299649 0.093576 0.658061
O O8 0.239318 0.232769 0.559110
O O9 0.270671 0.330261 0.457519
O O10 0.916164 0.316478 0.316446
O O11 0.177484 0.480697 0.840069
O O12 0.403068 0.423949 0.441300
O O13 0.188388 0.547080 0.229362
O O14 0.071043 0.348331 0.988739
O O15 0.658426 0.309595 0.649958
O O16 0.412113 0.180660 0.116907
#
# Coordination Sequence:
#
# PCOD9102463 Si02
#       8
#     2   2   2   2   2   2   2   2
#     4   9  18  36  64  85 112 154 199 237 294 345
#     4   9  21  38  60  86 120 153 194 240 291 342
#     4  11  23  38  57  89 122 152 193 241 287 350
#     4   9  21  38  58  85 115 157 200 236 281 347
#     4  11  21  37  61  85 119 157 191 237 294 341
#     4  10  20  38  63  85 118 159 187 240 300 342
#     4  10  22  38  59  87 120 151 196 239 286 346
#     4   9  18  37  62  86 115 153 195 245 284 345
#
# _framework density 26.125454999999999
#
# number of rings (size 3 to 8) (size 9 to 14) (size 15 to 20)
#    0.000    2.250    1.250    0.750    0.000   12.500 
#    0.000    6.250    0.000    0.000    0.000    0.000 
#    0.000    0.000    0.000    0.000    0.000    0.000 
#
# Total GULP energy -89481.040226 kJ/mol
# GULP energy per Si atom -5592.565014 kJ/mol
# Density = 2.606599 g / cm^3
# Si number density = 26.125455 Si / 1000 Ang^3
#
#
#
# Elastic Constant Matrix: (Units=GPa)
#
#
# Indices 1 2 3 4 5 6 
#
# 1 142.6321 12.9422 31.5450 4.5837 0.9197 -17.6759
# 2 12.9422 60.7313 8.3980 -4.0580 -10.6322 -16.9797
# 3 31.5450 8.3980 98.6115 11.3440 9.3257 -11.9045
# 4 4.5837 -4.0580 11.3440 36.4150 -3.8942 -2.1004
# 5 0.9197 -10.6322 9.3257 -3.8942 37.5096 -1.3192
# 6 -17.6759 -16.9797 -11.9045 -2.1004 -1.3192 42.9514
#
#
#
# Elastic Compliance Matrix: (Units=1/GPa)
#
#
# Indices 1 2 3 4 5 6 
#
# 1 0.007850 -0.000696 -0.002160 -0.000235 0.000205 0.002351
# 2 -0.000696 0.020514 -0.001717 0.004100 0.006957 0.007761
# 3 -0.002160 -0.001717 0.011965 -0.003967 -0.003770 0.001439
# 4 -0.000235 0.004100 -0.003967 0.029871 0.005327 0.002049
# 5 0.000205 0.006957 -0.003770 0.005327 0.030222 0.002979
# 6 0.002351 0.007761 0.001439 0.002049 0.002979 0.027908
#
#
# Mechanical properties :
#
#
# Convention : Reuss Voigt Hill
#
# Bulk Modulus (GPa) = 32.07119 45.30505 38.68812
# Shear Modulus (GPa) = 33.81344 39.98118 36.89731
#
# Velocity S-wave (km/s) = 3.60150 3.91622 3.76215
# Velocity P-wave (km/s) = 5.44030 6.15045 5.80624
#
# Compressibility (1/GPa) = 0.03118064
#
# Stress axis : x y z
#
# Youngs Moduli (GPa) = 127.39492 48.74788 83.58024
#
# Poissons Ratio (x) = 0.03395 0.18056
# Poissons Ratio (y) = 0.08873 0.14350
# Poissons Ratio (z) = 0.27521 0.08369
#
# Static dielectric constant tensor:
#      x y z
#    x 2.073300 0.070300 0.057500 
#    y 0.070300 2.147810 0.059470 
#    z 0.057500 0.059470 2.078780 
# 
# From -- ./inp_files/208083.got.cif
#   From: 2010.05.17/outbox.cif.g08.bks.cpg/sg2_105_cif.got.tgz:208083.got - 2010.06.03 11:33:40.
