data_PCOD9102693
_publ_section_title
;
Structure prediction by ZEFSAII (Michael W. Deem and Ramdas Pophale) SiO2 
 PCOD9102693
Probable space group: P -1
;
_chemical_formula_sum "Si O2"
_cell_formula_units_Z 14
_cell_length_a 14.012874
_cell_length_b 7.826659
_cell_length_c 9.885045
_cell_angle_alpha 49.341876
_cell_angle_beta 128.541431
_cell_angle_gamma 138.351572
_cell_volume 526.224653
_symmetry_space_group_name_H-M "P -1"
_symmetry_group_IT_number 2
_symmetry_cell_setting 'triclinic'
loop_
_space_group_symop_operation_xyz
x,y,z
-x,-y,-z
loop_
_atom_site_type_symbol
_atom_site_label
_atom_site_fract_x
_atom_site_fract_y
_atom_site_fract_z
Si Si1 0.323998 0.015983 0.271060
Si Si2 0.115143 0.522015 0.973952
Si Si3 0.638852 0.370488 0.669623
Si Si4 0.417818 0.389148 0.729446
Si Si5 0.796539 0.755131 0.164675
Si Si6 0.620866 0.200108 0.130196
Si Si7 0.953056 0.250457 0.686850
O O1 0.313436 0.753947 0.342177
O O2 0.222782 0.941417 0.351300
O O3 0.483558 0.292473 0.296171
O O4 0.258559 0.102855 0.050674
O O5 0.226557 0.482354 0.179963
O O6 0.255111 0.777988 0.872595
O O7 0.015755 0.344296 0.848111
O O8 0.000000 0.500000 0.000000
O O9 0.611254 0.578712 0.467165
O O10 0.494399 0.087062 0.749185
O O11 0.261282 0.243177 0.741902
O O12 0.517951 0.282500 0.921592
O O13 0.969498 0.888653 0.232467
O O14 0.714947 0.446426 0.193607
O O15 0.000000 0.500000 0.500000
#
# Coordination Sequence:
#
# PCOD9102693 Si02
#       7
#     2   2   2   2   2   2   2
#     4  11  20  38  64  95 132 169 213 268 324 371
#     4  11  25  43  64  92 133 174 210 263 329 378
#     4  12  22  39  68  91 132 174 206 266 325 383
#     4  11  22  38  68 102 127 163 225 261 323 379
#     4  10  20  38  63  96 132 166 216 271 317 373
#     4  10  22  42  63  91 131 171 212 268 313 382
#     4  11  24  40  67  93 128 174 222 263 312 388
#
# _framework density 26.604607999999999
#
# number of rings (size 3 to 8) (size 9 to 14) (size 15 to 20)
#    0.000    1.143    4.286    3.000    4.000    0.571 
#    0.000    0.000    3.143    3.429    0.000    0.000 
#    0.000    0.000    0.000    0.000    0.000    0.000 
#
# Total GULP energy -78253.528895 kJ/mol
# GULP energy per Si atom -5589.537778 kJ/mol
# Density = 2.654405 g / cm^3
# Si number density = 26.604608 Si / 1000 Ang^3
#
#
#
# Elastic Constant Matrix: (Units=GPa)
#
#
# Indices 1 2 3 4 5 6 
#
# 1 210.3581 37.4083 64.3888 -14.7968 -41.2622 7.1797
# 2 37.4083 89.0538 22.1588 1.5923 2.4645 8.5285
# 3 64.3888 22.1588 182.2698 -21.0777 7.3723 8.5047
# 4 -14.7968 1.5923 -21.0777 25.3656 2.1034 -4.2432
# 5 -41.2622 2.4645 7.3723 2.1034 49.8084 -13.4892
# 6 7.1797 8.5285 8.5047 -4.2432 -13.4892 42.1149
#
#
#
# Elastic Compliance Matrix: (Units=1/GPa)
#
#
# Indices 1 2 3 4 5 6 
#
# 1 0.007563 -0.003047 -0.002436 0.002374 0.007328 0.002406
# 2 -0.003047 0.013171 -0.000587 -0.003373 -0.003929 -0.003628
# 3 -0.002436 -0.000587 0.007177 0.004612 -0.003688 -0.001632
# 4 0.002374 -0.003373 0.004612 0.045491 0.000651 0.004139
# 5 0.007328 -0.003929 -0.003688 0.000651 0.029518 0.009811
# 6 0.002406 -0.003628 -0.001632 0.004139 0.009811 0.027958
#
#
# Mechanical properties :
#
#
# Convention : Reuss Voigt Hill
#
# Bulk Modulus (GPa) = 63.39806 81.06596 72.23201
# Shear Modulus (GPa) = 33.72125 47.30617 40.51371
#
# Velocity S-wave (km/s) = 3.56405 4.22135 3.90655
# Velocity P-wave (km/s) = 6.38890 7.36862 6.89618
#
# Compressibility (1/GPa) = 0.01577335
#
# Stress axis : x y z
#
# Youngs Moduli (GPa) = 132.21460 75.92174 139.33828
#
# Poissons Ratio (x) = 0.23132 0.33937
# Poissons Ratio (y) = 0.40283 0.08177
# Poissons Ratio (z) = 0.32202 0.04455
#
# Static dielectric constant tensor:
#      x y z
#    x 2.146580 -0.010360 -0.014280 
#    y -0.010360 2.161590 -0.031270 
#    z -0.014280 -0.031270 2.107240 
# 
# From -- ./inp_files/291923.got.cif
#   From: 2010.05.17/outbox.cif.g08.bks.cpg/sg2_146_cif.got.tgz:291923.got - 2010.06.03 11:33:40.
