data_PCOD9102633
_publ_section_title
;
Structure prediction by ZEFSAII (Michael W. Deem and Ramdas Pophale) SiO2 
 PCOD9102633
Probable space group: P -1
;
_chemical_formula_sum "Si O2"
_cell_formula_units_Z 14
_cell_length_a 10.901612
_cell_length_b 20.320115
_cell_length_c 14.068912
_cell_angle_alpha 32.924206
_cell_angle_beta 144.888780
_cell_angle_gamma 160.599336
_cell_volume 556.676545
_symmetry_space_group_name_H-M "P -1"
_symmetry_group_IT_number 2
_symmetry_cell_setting 'triclinic'
loop_
_space_group_symop_operation_xyz
x,y,z
-x,-y,-z
loop_
_atom_site_type_symbol
_atom_site_label
_atom_site_fract_x
_atom_site_fract_y
_atom_site_fract_z
Si Si1 0.951113 0.236174 0.430161
Si Si2 0.380795 0.088152 0.727518
Si Si3 0.681435 0.212710 0.978554
Si Si4 0.494285 0.191900 0.332036
Si Si5 0.414636 0.318668 0.789142
Si Si6 0.482103 0.670079 0.645562
Si Si7 0.413895 0.363297 0.946177
O O1 0.716167 0.230016 0.341475
O O2 0.154684 0.260617 0.616088
O O3 0.218725 0.425606 0.296460
O O4 0.723035 0.021475 0.499882
O O5 0.554189 0.185534 0.823618
O O6 0.524813 0.257927 0.542384
O O7 0.927415 0.878484 0.700155
O O8 0.455510 0.988974 0.852901
O O9 0.519925 0.234261 0.923866
O O10 0.131389 0.429766 0.009341
O O11 0.710170 0.352860 0.360148
O O12 0.278418 0.201344 0.132515
O O13 0.279947 0.263609 0.877742
O O14 0.331208 0.464269 0.792014
#
# Coordination Sequence:
#
# PCOD9102633 Si02
#       7
#     2   2   2   2   2   2   2
#     4  10  25  40  67  90 126 165 216 252 319 363
#     4   9  21  38  64  98 118 165 216 252 311 371
#     4  10  20  38  63  93 126 155 210 266 298 366
#     4  11  23  43  60  96 131 164 200 268 314 367
#     4  11  23  42  67  92 122 169 212 259 299 384
#     4  10  22  39  65  89 129 166 207 258 311 375
#     4  11  24  38  64  95 127 166 209 252 320 368
#
# _framework density 25.149253999999999
#
# number of rings (size 3 to 8) (size 9 to 14) (size 15 to 20)
#    0.000    1.714    1.429    1.714   10.000    1.714 
#    0.000    7.143    0.000    0.000    0.000    0.000 
#    0.000    0.000    0.000    0.000    0.000    0.000 
#
# Total GULP energy -78440.247081 kJ/mol
# GULP energy per Si atom -5602.874792 kJ/mol
# Density = 2.509201 g / cm^3
# Si number density = 25.149254 Si / 1000 Ang^3
#
#
#
# Elastic Constant Matrix: (Units=GPa)
#
#
# Indices 1 2 3 4 5 6 
#
# 1 96.0447 29.5756 61.4455 -30.3735 9.7446 -38.9424
# 2 29.5756 60.7041 19.3679 -3.9280 13.4995 -1.8588
# 3 61.4455 19.3679 108.6893 -11.6846 18.3107 -3.8193
# 4 -30.3735 -3.9280 -11.6846 31.7162 -17.9220 -4.9820
# 5 9.7446 13.4995 18.3107 -17.9220 35.7292 -15.0835
# 6 -38.9424 -1.8588 -3.8193 -4.9820 -15.0835 28.7028
#
#
#
# Elastic Compliance Matrix: (Units=1/GPa)
#
#
# Indices 1 2 3 4 5 6 
#
# 1 -0.006329 0.004733 0.003388 -0.019632 -0.021062 -0.022305
# 2 0.004733 0.015722 -0.004853 0.008493 0.003864 0.010298
# 3 0.003388 -0.004853 0.008605 0.011452 0.006907 0.011045
# 4 -0.019632 0.008493 0.011452 0.004882 -0.014503 -0.031336
# 5 -0.021062 0.003864 0.006907 -0.014503 0.011341 -0.023965
# 6 -0.022305 0.010298 0.011045 -0.031336 -0.023965 -0.011318
#
#
# Mechanical properties :
#
#
# Convention : Reuss Voigt Hill
#
# Bulk Modulus (GPa) = 40.75871 54.02401 47.39136
# Shear Modulus (GPa) = 203.70432 29.56626 116.63529
#
# Velocity S-wave (km/s) = 9.00966 3.43247 6.81747
# Velocity P-wave (km/s) = 11.15679 6.10222 8.99197
#
# Compressibility (1/GPa) = 0.02453463
#
# Stress axis : x y z
#
# Youngs Moduli (GPa) = -158.01029 63.60712 116.20529
#
# Poissons Ratio (x) = -0.30105 -0.39376
# Poissons Ratio (y) = 0.74785 0.56397
# Poissons Ratio (z) = 0.53542 0.30870
#
# Static dielectric constant tensor:
#      x y z
#    x 1.920570 0.057650 0.042710 
#    y 0.057650 2.026440 0.041260 
#    z 0.042710 0.041260 1.939530 
# 
# From -- ./inp_files/181150.got.cif
#   From: 2010.05.17/outbox.cif.g08.bks.cpg/sg2_91_cif.got.tgz:181150.got - 2010.06.03 11:33:40.
