data_PCOD9102771
_publ_section_title
;
Structure prediction by ZEFSAII (Michael W. Deem and Ramdas Pophale) SiO2 
 PCOD9102771
Probable space group: P -1
;
_chemical_formula_sum "Si O2"
_cell_formula_units_Z 13
_cell_length_a 7.605089
_cell_length_b 7.652624
_cell_length_c 14.936706
_cell_angle_alpha 114.049422
_cell_angle_beta 37.601999
_cell_angle_gamma 104.369092
_cell_volume 480.006598
_symmetry_space_group_name_H-M "P -1"
_symmetry_group_IT_number 2
_symmetry_cell_setting 'triclinic'
loop_
_space_group_symop_operation_xyz
x,y,z
-x,-y,-z
loop_
_atom_site_type_symbol
_atom_site_label
_atom_site_fract_x
_atom_site_fract_y
_atom_site_fract_z
Si Si1 0.792770 0.757086 0.886712
Si Si2 0.860586 0.810954 0.375950
Si Si3 0.913910 0.674368 0.502875
Si Si4 0.500000 0.500000 0.500000
Si Si5 0.530534 0.835903 0.829037
Si Si6 0.251649 0.006898 0.719172
Si Si7 0.041963 0.321321 0.011090
O O1 0.651166 0.709035 0.840617
O O2 0.813241 0.637185 0.944242
O O3 0.121171 0.801983 0.738660
O O4 0.618703 0.960136 0.031563
O O5 0.063823 0.749537 0.368246
O O6 0.696471 0.627518 0.380719
O O7 0.941647 0.890094 0.263184
O O8 0.590373 0.968166 0.551096
O O9 0.658649 0.589948 0.536793
O O10 0.789369 0.844848 0.656251
O O11 0.000000 0.500000 0.500000
O O12 0.275032 0.744437 0.864817
O O13 0.209351 0.138156 0.851191
O O14 0.000000 0.500000 0.000000
#
# Coordination Sequence:
#
# PCOD9102771 Si02
#       7
#     2   2   2   1   2   2   2
#     4  10  22  41  64  84 121 162 197 248 298 352
#     4   9  20  37  62  90 116 157 202 240 296 356
#     4  10  21  36  61  90 118 155 193 242 303 345
#     4   8  22  36  62  86 126 156 194 248 296 354
#     4  10  22  40  62  89 118 158 204 239 298 364
#     4  10  20  38  64  86 121 163 198 243 301 354
#     4  11  24  38  64  90 118 158 199 249 303 352
#
# _framework density 27.08296
#
# number of rings (size 3 to 8) (size 9 to 14) (size 15 to 20)
#    0.923    1.231    0.000    3.692    4.308    1.846 
#    0.000    3.846    3.385    0.000    0.000    0.000 
#    0.000    0.000    0.000    0.000    0.000    0.000 
#
# Total GULP energy -72404.447271 kJ/mol
# GULP energy per Si atom -5569.572867 kJ/mol
# Density = 2.702132 g / cm^3
# Si number density = 27.082960 Si / 1000 Ang^3
#
#
#
# Elastic Constant Matrix: (Units=GPa)
#
#
# Indices 1 2 3 4 5 6 
#
# 1 125.2583 15.4165 20.8519 -2.7077 32.6791 -40.3948
# 2 15.4165 93.8768 -4.2371 -23.2450 9.4760 -37.7730
# 3 20.8519 -4.2371 73.2811 0.3800 12.3699 -7.7504
# 4 -2.7077 -23.2450 0.3800 31.1692 -8.0645 14.8976
# 5 32.6791 9.4760 12.3699 -8.0645 41.0841 -11.4026
# 6 -40.3948 -37.7730 -7.7504 14.8976 -11.4026 53.7009
#
#
#
# Elastic Compliance Matrix: (Units=1/GPa)
#
#
# Indices 1 2 3 4 5 6 
#
# 1 0.013662 0.001724 -0.001114 -0.004991 -0.008905 0.010822
# 2 0.001724 0.016809 0.001852 0.006980 -0.001336 0.011168
# 3 -0.001114 0.001852 0.014904 -0.000825 -0.003614 0.002077
# 4 -0.004991 0.006980 -0.000825 0.043486 0.008590 -0.009204
# 5 -0.008905 -0.001336 -0.003614 0.008590 0.033558 -0.003418
# 6 0.010822 0.011168 0.002077 -0.009204 -0.003418 0.036745
#
#
# Mechanical properties :
#
#
# Convention : Reuss Voigt Hill
#
# Bulk Modulus (GPa) = 19.88108 39.60873 29.74490
# Shear Modulus (GPa) = 29.23838 42.54986 35.89412
#
# Velocity S-wave (km/s) = 3.28927 3.96800 3.64447
# Velocity P-wave (km/s) = 4.66717 5.97077 5.35876
#
# Compressibility (1/GPa) = 0.05029908
#
# Stress axis : x y z
#
# Youngs Moduli (GPa) = 73.19322 59.49059 67.09531
#
# Poissons Ratio (x) = -0.10255 0.07476
# Poissons Ratio (y) = -0.12617 -0.12425
# Poissons Ratio (z) = 0.08155 -0.11017
#
# Static dielectric constant tensor:
#      x y z
#    x 2.123670 -0.179690 -0.065660 
#    y -0.179690 2.391540 0.021590 
#    z -0.065660 0.021590 2.058570 
# 
# From -- ./inp_files/489625.got.cif
#   From: 2010.05.17/outbox.cif.g08.bks.cpg/sg2_245_cif.got.tgz:489625.got - 2010.06.03 11:33:40.
