data_PCOD9102924
_publ_section_title
;
Structure prediction by ZEFSAII (Michael W. Deem and Ramdas Pophale) SiO2 
 PCOD9102924
Probable space group: P -1
;
_chemical_formula_sum "Si O2"
_cell_formula_units_Z 16
_cell_length_a 11.364682
_cell_length_b 7.993310
_cell_length_c 15.723172
_cell_angle_alpha 33.340039
_cell_angle_beta 129.080521
_cell_angle_gamma 122.470451
_cell_volume 609.199547
_symmetry_space_group_name_H-M "P -1"
_symmetry_group_IT_number 2
_symmetry_cell_setting 'triclinic'
loop_
_space_group_symop_operation_xyz
x,y,z
-x,-y,-z
loop_
_atom_site_type_symbol
_atom_site_label
_atom_site_fract_x
_atom_site_fract_y
_atom_site_fract_z
Si Si1 0.647848 0.218353 0.046231
Si Si2 0.460469 0.135963 0.148452
Si Si3 0.270982 0.754836 0.669375
Si Si4 0.929140 0.276865 0.261243
Si Si5 0.157135 0.150302 0.836561
Si Si6 0.381037 0.267984 0.315860
Si Si7 0.114059 0.889370 0.374016
Si Si8 0.204358 0.677176 0.193051
O O1 0.576548 0.470422 0.844809
O O2 0.534042 0.037204 0.133941
O O3 0.779207 0.376483 0.097962
O O4 0.730445 0.973221 0.130556
O O5 0.574298 0.082341 0.302045
O O6 0.310614 0.928779 0.180902
O O7 0.500000 0.500000 0.000000
O O8 0.145613 0.883608 0.622061
O O9 0.246357 0.395619 0.830184
O O10 0.227695 0.744972 0.554997
O O11 0.062554 0.518742 0.243614
O O12 0.009502 0.073505 0.313255
O O13 0.004115 0.275863 0.671895
O O14 0.123414 0.855921 0.003403
O O15 0.316324 0.435052 0.301124
O O16 0.500000 0.000000 0.500000
O O17 0.225727 0.107265 0.279084
#
# Coordination Sequence:
#
# PCOD9102924 Si02
#       8
#     2   2   2   2   2   2   2   2
#     4   9  21  40  65  89 123 160 209 258 311 363
#     4  11  23  41  62  91 125 169 204 251 303 375
#     4  11  22  38  63  93 127 165 209 251 305 374
#     4   9  20  41  64  89 120 166 206 259 309 361
#     4  10  20  38  64  93 117 159 209 264 304 356
#     4  10  22  38  62  93 127 166 203 257 314 372
#     4  10  21  39  61  91 128 159 207 259 312 361
#     4  10  21  41  65  92 126 160 212 257 307 365
#
# _framework density 26.263971000000002
#
# number of rings (size 3 to 8) (size 9 to 14) (size 15 to 20)
#    0.000    2.000    1.250    1.500    1.750    6.500 
#    2.250    5.000    0.000    0.000    0.000    0.000 
#    0.000    0.000    0.000    0.000    0.000    0.000 
#
# Total GULP energy -89286.957317 kJ/mol
# GULP energy per Si atom -5580.434832 kJ/mol
# Density = 2.620419 g / cm^3
# Si number density = 26.263971 Si / 1000 Ang^3
#
#
#
# Elastic Constant Matrix: (Units=GPa)
#
#
# Indices 1 2 3 4 5 6 
#
# 1 74.0092 37.4597 1.3753 6.9434 -3.7110 13.2683
# 2 37.4597 192.6421 27.6668 16.1666 1.9690 39.9242
# 3 1.3753 27.6668 93.5134 19.3885 7.2842 4.5974
# 4 6.9434 16.1666 19.3885 28.7036 -2.2940 -0.3464
# 5 -3.7110 1.9690 7.2842 -2.2940 37.5556 -3.3747
# 6 13.2683 39.9242 4.5974 -0.3464 -3.3747 44.9118
#
#
#
# Elastic Compliance Matrix: (Units=1/GPa)
#
#
# Indices 1 2 3 4 5 6 
#
# 1 0.015505 -0.002412 0.001181 -0.003139 0.001013 -0.002505
# 2 -0.002412 0.007267 -0.001149 -0.002890 -0.001088 -0.005734
# 3 0.001181 -0.001149 0.013109 -0.008744 -0.002986 -0.000961
# 4 -0.003139 -0.002890 -0.008744 0.043565 0.004654 0.005077
# 5 0.001013 -0.001088 -0.002986 0.004654 0.027927 0.003108
# 6 -0.002505 -0.005734 -0.000961 0.005077 0.003108 0.028474
#
#
# Mechanical properties :
#
#
# Convention : Reuss Voigt Hill
#
# Bulk Modulus (GPa) = 32.13317 54.79648 43.46483
# Shear Modulus (GPa) = 33.11665 41.81172 37.46418
#
# Velocity S-wave (km/s) = 3.55479 3.99429 3.78093
# Velocity P-wave (km/s) = 5.39536 6.49473 5.97041
#
# Compressibility (1/GPa) = 0.03112049
#
# Stress axis : x y z
#
# Youngs Moduli (GPa) = 64.49405 137.60938 76.28421
#
# Poissons Ratio (x) = 0.33196 -0.09007
# Poissons Ratio (y) = 0.15558 0.08763
# Poissons Ratio (z) = -0.07615 0.15808
#
# Static dielectric constant tensor:
#      x y z
#    x 2.122940 -0.007970 0.042480 
#    y -0.007970 2.086200 0.005110 
#    z 0.042480 0.005110 2.253770 
# 
# From -- ./inp_files/566388.got.cif
#   From: 2010.05.17/outbox.cif.g08.bks.cpg/sg2_284_cif.got.tgz:566388.got - 2010.06.03 11:33:40.
