data_PCOD9102461
_publ_section_title
;
Structure prediction by ZEFSAII (Michael W. Deem and Ramdas Pophale) SiO2 
 PCOD9102461
Probable space group: P -1
;
_chemical_formula_sum "Si O2"
_cell_formula_units_Z 16
_cell_length_a 21.164936
_cell_length_b 15.256869
_cell_length_c 7.492325
_cell_angle_alpha 74.979236
_cell_angle_beta 113.824726
_cell_angle_gamma 160.884321
_cell_volume 661.403863
_symmetry_space_group_name_H-M "P -1"
_symmetry_group_IT_number 2
_symmetry_cell_setting 'triclinic'
loop_
_space_group_symop_operation_xyz
x,y,z
-x,-y,-z
loop_
_atom_site_type_symbol
_atom_site_label
_atom_site_fract_x
_atom_site_fract_y
_atom_site_fract_z
Si Si1 0.696442 0.861249 0.171140
Si Si2 0.849305 0.389743 0.297913
Si Si3 0.456286 0.727287 0.889520
Si Si4 0.394358 0.337934 0.222916
Si Si5 0.602503 0.096242 0.793435
Si Si6 0.843275 0.561761 0.701280
Si Si7 0.235912 0.341284 0.542006
Si Si8 0.037171 0.280622 0.841092
O O1 0.507584 0.577387 0.222100
O O2 0.659366 0.922581 0.091245
O O3 0.666975 0.771410 0.993253
O O4 0.955691 0.172564 0.349689
O O5 0.000000 0.500000 0.500000
O O6 0.993996 0.662740 0.321258
O O7 0.613862 0.118317 0.270028
O O8 0.762288 0.271041 0.055208
O O9 0.328023 0.491147 0.756599
O O10 0.277435 0.542968 0.919652
O O11 0.529369 0.903186 0.757541
O O12 0.590011 0.513879 0.409632
O O13 0.171182 0.046911 0.236120
O O14 0.716655 0.307484 0.672713
O O15 0.750600 0.548542 0.612832
O O16 0.941388 0.668779 0.953402
O O17 0.000000 0.000000 0.500000
#
# Coordination Sequence:
#
# PCOD9102461 Si02
#       8
#     2   2   2   2   2   2   2   2
#     4   9  18  35  57  80 116 160 186 241 304 355
#     4   9  18  36  60  88 126 163 193 245 311 359
#     4  10  22  40  58  87 124 154 196 256 305 345
#     4   9  18  35  57  81 113 154 202 232 297 368
#     4   9  20  38  58  90 125 156 203 249 298 363
#     4  10  20  38  63  85 117 160 199 239 300 370
#     4  11  22  39  60  84 122 159 199 250 303 358
#     4   9  20  38  60  89 115 151 204 246 293 365
#
# _framework density 24.190968999999999
#
# number of rings (size 3 to 8) (size 9 to 14) (size 15 to 20)
#    0.000    2.500    1.250    0.750    3.500    1.500 
#    4.500    0.625    0.000    0.000    0.000    0.000 
#    0.000    0.000    0.000    0.000    0.000    0.000 
#
# Total GULP energy -89214.297081 kJ/mol
# GULP energy per Si atom -5575.893568 kJ/mol
# Density = 2.413591 g / cm^3
# Si number density = 24.190969 Si / 1000 Ang^3
#
#
#
# Elastic Constant Matrix: (Units=GPa)
#
#
# Indices 1 2 3 4 5 6 
#
# 1 45.0806 4.7111 11.7236 -9.9570 12.7988 -21.9822
# 2 4.7111 104.8242 -1.2591 -10.6440 4.9517 -24.7451
# 3 11.7236 -1.2591 65.0751 -7.7965 14.2620 -1.5594
# 4 -9.9570 -10.6440 -7.7965 21.2682 -4.9934 6.0537
# 5 12.7988 4.9517 14.2620 -4.9934 45.8394 -3.5773
# 6 -21.9822 -24.7451 -1.5594 6.0537 -3.5773 28.1912
#
#
#
# Elastic Compliance Matrix: (Units=1/GPa)
#
#
# Indices 1 2 3 4 5 6 
#
# 1 0.047262 0.009084 -0.004129 0.011491 -0.008437 0.041060
# 2 0.009084 0.014050 0.000215 0.005770 -0.002094 0.017923
# 3 -0.004129 0.000215 0.017480 0.004643 -0.004082 -0.003579
# 4 0.011491 0.005770 0.004643 0.056593 0.001065 0.002264
# 5 -0.008437 -0.002094 -0.004082 0.001065 0.025342 -0.005655
# 6 0.041060 0.017923 -0.003579 0.002264 -0.005655 0.081819
#
#
# Mechanical properties :
#
#
# Convention : Reuss Voigt Hill
#
# Bulk Modulus (GPa) = 11.21926 27.25900 19.23913
# Shear Modulus (GPa) = 19.09005 32.38007 25.73506
#
# Velocity S-wave (km/s) = 2.81221 3.66255 3.26518
# Velocity P-wave (km/s) = 3.89776 5.40170 4.71015
#
# Compressibility (1/GPa) = 0.08913246
#
# Stress axis : x y z
#
# Youngs Moduli (GPa) = 21.15871 71.17487 57.20811
#
# Poissons Ratio (x) = -0.64658 0.23621
# Poissons Ratio (y) = -0.19221 -0.01229
# Poissons Ratio (z) = 0.08736 -0.01530
#
# Static dielectric constant tensor:
#      x y z
#    x 1.941090 -0.040040 -0.016870 
#    y -0.040040 1.999170 0.049320 
#    z -0.016870 0.049320 2.070280 
# 
# From -- ./inp_files/347570.got.cif
#   From: 2010.05.17/outbox.cif.g08.bks.cpg/sg2_174_cif.got.tgz:347570.got - 2010.06.03 11:33:40.
