data_PCOD9102337
_publ_section_title
;
Structure prediction by ZEFSAII (Michael W. Deem and Ramdas Pophale) SiO2 
 PCOD9102337
Probable space group: P -1
;
_chemical_formula_sum "Si O2"
_cell_formula_units_Z 16
_cell_length_a 9.498016
_cell_length_b 30.150574
_cell_length_c 14.183995
_cell_angle_alpha 18.145476
_cell_angle_beta 131.003988
_cell_angle_gamma 141.270933
_cell_volume 711.743137
_symmetry_space_group_name_H-M "P -1"
_symmetry_group_IT_number 2
_symmetry_cell_setting 'triclinic'
loop_
_space_group_symop_operation_xyz
x,y,z
-x,-y,-z
loop_
_atom_site_type_symbol
_atom_site_label
_atom_site_fract_x
_atom_site_fract_y
_atom_site_fract_z
Si Si1 0.737866 0.942360 0.517275
Si Si2 0.363126 0.194801 0.049761
Si Si3 0.674948 0.711416 0.516638
Si Si4 0.380764 0.743175 0.446600
Si Si5 0.246479 0.036672 0.121025
Si Si6 0.764075 0.482386 0.909096
Si Si7 0.456589 0.945276 0.252637
Si Si8 0.855289 0.619253 0.466008
O O1 0.709738 0.057844 0.198076
O O2 0.706115 0.939683 0.620648
O O3 0.488924 0.727007 0.812501
O O4 0.000000 0.000000 0.500000
O O5 0.622386 0.409385 0.749062
O O6 0.168562 0.229566 0.884029
O O7 0.373001 0.110757 0.128095
O O8 0.466711 0.639169 0.649235
O O9 0.698642 0.559774 0.805552
O O10 0.634662 0.780876 0.261918
O O11 0.952007 0.904534 0.277632
O O12 0.423453 0.794254 0.472638
O O13 0.103951 0.657381 0.475617
O O14 0.550917 0.935816 0.069343
O O15 0.274371 0.907185 0.332818
O O16 0.841180 0.611707 0.588730
O O17 0.000000 0.500000 0.000000
#
# Coordination Sequence:
#
# PCOD9102337 Si02
#       8
#     2   2   2   2   2   2   2   2
#     4  11  24  40  62  91 127 168 203 252 315 368
#     4  10  22  37  64  85 123 170 203 250 301 381
#     4  10  21  36  63  96 120 156 206 261 309 358
#     4  10  21  37  66  91 122 155 206 266 303 357
#     4  10  20  38  62  92 123 157 210 253 302 375
#     4  11  22  42  67  90 125 164 208 257 307 372
#     4  10  22  39  60  93 121 165 203 252 311 362
#     4  10  20  39  60  89 121 161 212 242 310 369
#
# _framework density 22.480021000000001
#
# number of rings (size 3 to 8) (size 9 to 14) (size 15 to 20)
#    0.000    1.750    1.250    3.000    7.000    0.500 
#    2.250    3.750    0.000    0.000    0.000    0.000 
#    0.000    0.000    0.000    0.000    0.000    0.000 
#
# Total GULP energy -89248.252294 kJ/mol
# GULP energy per Si atom -5578.015768 kJ/mol
# Density = 2.242886 g / cm^3
# Si number density = 22.480021 Si / 1000 Ang^3
#
#
#
# Elastic Constant Matrix: (Units=GPa)
#
#
# Indices 1 2 3 4 5 6 
#
# 1 198.2532 77.2144 30.8113 -6.4186 19.7217 -5.4765
# 2 77.2144 132.5354 16.9680 13.0293 4.0491 -14.8006
# 3 30.8113 16.9680 48.3618 9.2840 12.9109 -12.6604
# 4 -6.4186 13.0293 9.2840 24.3008 1.3241 -1.7549
# 5 19.7217 4.0491 12.9109 1.3241 28.5379 1.7626
# 6 -5.4765 -14.8006 -12.6604 -1.7549 1.7626 51.4234
#
#
#
# Elastic Compliance Matrix: (Units=1/GPa)
#
#
# Indices 1 2 3 4 5 6 
#
# 1 0.008063 -0.004835 -0.004119 0.006384 -0.003244 -0.001218
# 2 -0.004835 0.011237 0.000855 -0.007524 0.001547 0.002620
# 3 -0.004119 0.000855 0.030036 -0.011918 -0.010753 0.007164
# 4 0.006384 -0.007524 -0.011918 0.051241 -0.000166 -0.002665
# 5 -0.003244 0.001547 -0.010753 -0.000166 0.042182 -0.003999
# 6 -0.001218 0.002620 0.007164 -0.002665 -0.003999 0.021881
#
#
# Mechanical properties :
#
#
# Convention : Reuss Voigt Hill
#
# Bulk Modulus (GPa) = 30.17710 69.90419 50.04065
# Shear Modulus (GPa) = 26.05741 37.79620 31.92680
#
# Velocity S-wave (km/s) = 3.40830 4.10484 3.77268
# Velocity P-wave (km/s) = 5.37976 7.32325 6.42541
#
# Compressibility (1/GPa) = 0.03313771
#
# Stress axis : x y z
#
# Youngs Moduli (GPa) = 124.02542 88.98955 33.29360
#
# Poissons Ratio (x) = 0.43023 0.13714
# Poissons Ratio (y) = 0.59961 -0.02845
# Poissons Ratio (z) = 0.51087 -0.07604
#
# Static dielectric constant tensor:
#      x y z
#    x 1.865530 0.018060 -0.002070 
#    y 0.018060 1.833510 0.051100 
#    z -0.002070 0.051100 1.955220 
# 
# From -- ./inp_files/509194.got.cif
#   From: 2010.05.17/outbox.cif.g08.bks.cpg/sg2_255_cif.got.tgz:509194.got - 2010.06.03 11:33:40.
