data_PCOD9102508
_publ_section_title
;
Structure prediction by ZEFSAII (Michael W. Deem and Ramdas Pophale) SiO2 
 PCOD9102508
Probable space group: P -1
;
_chemical_formula_sum "Si O2"
_cell_formula_units_Z 12
_cell_length_a 9.209115
_cell_length_b 13.678385
_cell_length_c 6.595243
_cell_angle_alpha 60.777725
_cell_angle_beta 127.267702
_cell_angle_gamma 126.279020
_cell_volume 521.939115
_symmetry_space_group_name_H-M "P -1"
_symmetry_group_IT_number 2
_symmetry_cell_setting 'triclinic'
loop_
_space_group_symop_operation_xyz
x,y,z
-x,-y,-z
loop_
_atom_site_type_symbol
_atom_site_label
_atom_site_fract_x
_atom_site_fract_y
_atom_site_fract_z
Si Si1 0.352910 0.066161 0.197822
Si Si2 0.577574 0.673342 0.463181
Si Si3 0.016129 0.001448 0.273655
Si Si4 0.350308 0.441800 0.745752
Si Si5 0.941301 0.724955 0.015603
Si Si6 0.599661 0.166824 0.658529
O O1 0.532359 0.174693 0.359048
O O2 0.203101 0.989380 0.336822
O O3 0.417294 0.973290 0.220368
O O4 0.198051 0.092638 0.900649
O O5 0.384832 0.561111 0.517840
O O6 0.585959 0.639238 0.272848
O O7 0.546475 0.795175 0.368341
O O8 0.778226 0.675173 0.743694
O O9 0.000000 0.000000 0.500000
O O10 0.043860 0.137232 0.091194
O O11 0.145543 0.356341 0.773966
O O12 0.500000 0.500000 0.000000
O O13 0.172606 0.748323 0.165248
#
# Coordination Sequence:
#
# PCOD9102508 Si02
#       6
#     2   2   2   2   2   2
#     4   9  20  39  58  89 134 158 207 252 295 367
#     4  10  20  41  66  90 124 162 207 251 316 370
#     4  10  20  38  63  88 125 173 207 246 303 363
#     4   9  21  42  65  90 121 161 206 262 311 368
#     4  10  21  39  63  93 126 161 207 253 311 358
#     4  10  20  39  63  93 128 163 202 252 308 366
#
# _framework density 22.991185999999999
#
# number of rings (size 3 to 8) (size 9 to 14) (size 15 to 20)
#    0.000    2.333    1.667    0.000    0.000    4.667 
#    0.000   26.667    0.000    0.000    0.000    0.000 
#    0.000    0.000    0.000    0.000    0.000    0.000 
#
# Total GULP energy -66844.636480 kJ/mol
# GULP energy per Si atom -5570.386373 kJ/mol
# Density = 2.293886 g / cm^3
# Si number density = 22.991186 Si / 1000 Ang^3
#
#
#
# Elastic Constant Matrix: (Units=GPa)
#
#
# Indices 1 2 3 4 5 6 
#
# 1 111.4108 29.7659 67.7689 20.1544 5.9190 -8.5585
# 2 29.7659 81.7966 22.0437 10.6665 -6.2374 -4.2178
# 3 67.7689 22.0437 109.8783 33.0774 -6.7021 -0.2697
# 4 20.1544 10.6665 33.0774 29.3753 0.5496 -10.2351
# 5 5.9190 -6.2374 -6.7021 0.5496 44.7186 12.2888
# 6 -8.5585 -4.2178 -0.2697 -10.2351 12.2888 41.0752
#
#
#
# Elastic Compliance Matrix: (Units=1/GPa)
#
#
# Indices 1 2 3 4 5 6 
#
# 1 0.016937 -0.003868 -0.011571 0.005093 -0.006283 0.006205
# 2 -0.003868 0.014065 0.000957 -0.004026 0.003013 -0.001260
# 3 -0.011571 0.000957 0.023219 -0.022247 0.008210 -0.010160
# 4 0.005093 -0.004026 -0.022247 0.064127 -0.010773 0.019704
# 5 -0.006283 0.003013 0.008210 -0.010773 0.028301 -0.012097
# 6 0.006205 -0.001260 -0.010160 0.019704 -0.012097 0.033971
#
#
# Mechanical properties :
#
#
# Convention : Reuss Voigt Hill
#
# Bulk Modulus (GPa) = 39.59607 60.24918 49.92262
# Shear Modulus (GPa) = 22.93527 35.26765 29.10146
#
# Velocity S-wave (km/s) = 3.16186 3.92083 3.56162
# Velocity P-wave (km/s) = 5.53077 6.83809 6.21888
#
# Compressibility (1/GPa) = 0.02525503
#
# Stress axis : x y z
#
# Youngs Moduli (GPa) = 59.04235 71.09816 43.06847
#
# Poissons Ratio (x) = 0.27503 0.49836
# Poissons Ratio (y) = 0.22840 -0.04121
# Poissons Ratio (z) = 0.68320 -0.06802
#
# Static dielectric constant tensor:
#      x y z
#    x 1.874230 0.051030 0.029930 
#    y 0.051030 1.946410 0.001940 
#    z 0.029930 0.001940 1.953700 
# 
# From -- ./inp_files/32215.got.cif
#   From: 2010.05.17/outbox.cif.g08.bks.cpg/sg2_17_cif.got.tgz:32215.got - 2010.06.03 11:33:40.
