data_PCOD9102185
_publ_section_title
;
Structure prediction by ZEFSAII (Michael W. Deem and Ramdas Pophale) SiO2 
 PCOD9102185
Probable space group: P -1
;
_chemical_formula_sum "Si O2"
_cell_formula_units_Z 16
_cell_length_a 9.097321
_cell_length_b 11.765162
_cell_length_c 19.339014
_cell_angle_alpha 143.354109
_cell_angle_beta 144.843703
_cell_angle_gamma 45.605469
_cell_volume 705.629301
_symmetry_space_group_name_H-M "P -1"
_symmetry_group_IT_number 2
_symmetry_cell_setting 'triclinic'
loop_
_space_group_symop_operation_xyz
x,y,z
-x,-y,-z
loop_
_atom_site_type_symbol
_atom_site_label
_atom_site_fract_x
_atom_site_fract_y
_atom_site_fract_z
Si Si1 0.190980 0.388652 0.961283
Si Si2 0.834972 0.420609 0.718877
Si Si3 0.413668 0.961424 0.526396
Si Si4 0.782433 0.987788 0.135660
Si Si5 0.821220 0.006656 0.825726
Si Si6 0.439675 0.795723 0.735504
Si Si7 0.966154 0.187804 0.529679
Si Si8 0.293700 0.816623 0.990093
O O1 0.151563 0.171911 0.859073
O O2 0.503953 0.351062 0.049374
O O3 0.066304 0.455035 0.874002
O O4 0.000000 0.500000 0.000000
O O5 0.711688 0.237174 0.612804
O O6 0.626440 0.603592 0.724163
O O7 0.945192 0.365715 0.659147
O O8 0.607106 0.949666 0.661793
O O9 0.500000 0.000000 0.500000
O O10 0.209872 0.147583 0.554976
O O11 0.762721 0.181416 0.267097
O O12 0.978945 0.932424 0.123523
O O13 0.500000 0.000000 0.000000
O O14 0.722608 0.164446 0.923133
O O15 0.006038 0.840604 0.858304
O O16 0.287889 0.800844 0.608212
O O17 0.596777 0.979589 0.884405
O O18 0.000000 0.000000 0.500000
#
# Coordination Sequence:
#
# PCOD9102185 Si02
#       8
#     2   2   2   2   2   2   2   2
#     4  11  22  39  65  92 122 160 216 257 305 375
#     4  11  23  38  63  93 123 165 210 257 308 375
#     4  11  22  41  63  90 127 169 204 256 317 378
#     4  11  20  39  63  88 120 165 210 252 311 375
#     4  11  21  38  67  89 126 160 210 254 322 373
#     4  11  21  39  65  92 123 163 218 256 306 375
#     4  10  20  38  62  87 122 166 210 249 304 377
#     4  10  22  39  65  95 121 166 204 266 320 365
#
# _framework density 22.674796000000001
#
# number of rings (size 3 to 8) (size 9 to 14) (size 15 to 20)
#    0.000    1.250    2.500    7.875    0.000    0.000 
#    0.000    4.375    8.250    0.000    0.000    0.000 
#    0.000    0.000    0.000    0.000    0.000    0.000 
#
# Total GULP energy -89142.896695 kJ/mol
# GULP energy per Si atom -5571.431043 kJ/mol
# Density = 2.262319 g / cm^3
# Si number density = 22.674796 Si / 1000 Ang^3
#
#
#
# Elastic Constant Matrix: (Units=GPa)
#
#
# Indices 1 2 3 4 5 6 
#
# 1 131.4382 35.8459 13.5246 13.4789 -31.2141 -20.7132
# 2 35.8459 141.5103 49.8669 -11.6639 -16.0555 -28.6236
# 3 13.5246 49.8669 72.1247 -27.1527 -18.7554 -1.6202
# 4 13.4789 -11.6639 -27.1527 43.5151 -3.2122 -10.7430
# 5 -31.2141 -16.0555 -18.7554 -3.2122 38.5028 1.9061
# 6 -20.7132 -28.6236 -1.6202 -10.7430 1.9061 42.3948
#
#
#
# Elastic Compliance Matrix: (Units=1/GPa)
#
#
# Indices 1 2 3 4 5 6 
#
# 1 0.010541 -0.001386 0.000315 -0.002036 0.007785 0.003360
# 2 -0.001386 0.011417 -0.007294 0.000632 -0.000206 0.006922
# 3 0.000315 -0.007294 0.028266 0.016480 0.012361 -0.000070
# 4 -0.002036 0.000632 0.016480 0.036974 0.009279 0.009014
# 5 0.007785 -0.000206 0.012361 0.009279 0.038758 0.004746
# 6 0.003360 0.006922 -0.000070 0.009014 0.004746 0.031971
#
#
# Mechanical properties :
#
#
# Convention : Reuss Voigt Hill
#
# Bulk Modulus (GPa) = 29.85595 60.39421 45.12508
# Shear Modulus (GPa) = 26.90781 41.27160 34.08970
#
# Velocity S-wave (km/s) = 3.44856 4.27095 3.88160
# Velocity P-wave (km/s) = 5.39003 7.14242 6.32719
#
# Compressibility (1/GPa) = 0.03349416
#
# Stress axis : x y z
#
# Youngs Moduli (GPa) = 94.87012 87.59059 35.37871
#
# Poissons Ratio (x) = 0.12140 -0.01115
# Poissons Ratio (y) = 0.13149 0.25804
# Poissons Ratio (z) = -0.02991 0.63886
#
# Static dielectric constant tensor:
#      x y z
#    x 2.011420 -0.045960 0.003980 
#    y -0.045960 1.849020 -0.025940 
#    z 0.003980 -0.025940 1.904740 
# 
# From -- ./inp_files/560073.got.cif
#   From: 2010.05.17/outbox.cif.g08.bks.cpg/sg2_281_cif.got.tgz:560073.got - 2010.06.03 11:33:40.
