data_PCOD9102281
_publ_section_title
;
Structure prediction by ZEFSAII (Michael W. Deem and Ramdas Pophale) SiO2 
 PCOD9102281
Probable space group: P -1
;
_chemical_formula_sum "Si O2"
_cell_formula_units_Z 16
_cell_length_a 10.707933
_cell_length_b 9.049065
_cell_length_c 18.649343
_cell_angle_alpha 45.579960
_cell_angle_beta 38.350070
_cell_angle_gamma 73.553291
_cell_volume 640.805497
_symmetry_space_group_name_H-M "P -1"
_symmetry_group_IT_number 2
_symmetry_cell_setting 'triclinic'
loop_
_space_group_symop_operation_xyz
x,y,z
-x,-y,-z
loop_
_atom_site_type_symbol
_atom_site_label
_atom_site_fract_x
_atom_site_fract_y
_atom_site_fract_z
Si Si1 0.680232 0.406806 0.538281
Si Si2 0.598191 0.361409 0.804438
Si Si3 0.181616 0.300276 0.767002
Si Si4 0.088631 0.801272 0.938118
Si Si5 0.772499 0.675185 0.857793
Si Si6 0.025298 0.768042 0.575967
Si Si7 0.852894 0.131388 0.743472
Si Si8 0.667832 0.410497 0.150312
O O1 0.405966 0.332014 0.702037
O O2 0.719806 0.484559 0.409785
O O3 0.741224 0.199445 0.579195
O O4 0.886765 0.654666 0.408024
O O5 0.787967 0.502292 0.737763
O O6 0.729652 0.272541 0.725825
O O7 0.555077 0.573188 0.731495
O O8 0.340318 0.092693 0.036262
O O9 0.977313 0.264213 0.925899
O O10 0.089552 0.047709 0.847679
O O11 0.865663 0.570984 0.069600
O O12 0.331248 0.832162 0.786088
O O13 0.982509 0.711249 0.699050
O O14 0.855187 0.961910 0.738839
O O15 0.500000 0.500000 0.000000
O O16 0.750025 0.552728 0.987017
O O17 0.000000 0.000000 0.500000
#
# Coordination Sequence:
#
# PCOD9102281 Si02
#       8
#     2   2   2   2   2   2   2   2
#     4  10  22  40  64  87 131 163 204 253 313 367
#     4   9  18  36  59  84 119 160 193 244 306 358
#     4  10  21  41  62  94 115 166 212 254 308 363
#     4  10  22  39  64  90 122 159 210 260 305 363
#     4  11  20  38  62  90 121 167 206 241 303 373
#     4  11  23  39  58  93 128 163 200 256 309 366
#     4   9  18  36  60  88 117 159 203 245 294 375
#     4  10  20  38  62  90 123 156 208 255 303 364
#
# _framework density 24.968574
#
# number of rings (size 3 to 8) (size 9 to 14) (size 15 to 20)
#    0.000    2.000    2.500    2.250    1.750    0.000 
#    9.000    1.250    0.000    8.250    0.000    0.000 
#    0.000    0.000    0.000    0.000    0.000    0.000 
#
# Total GULP energy -89277.866618 kJ/mol
# GULP energy per Si atom -5579.866664 kJ/mol
# Density = 2.491174 g / cm^3
# Si number density = 24.968574 Si / 1000 Ang^3
#
#
#
# Elastic Constant Matrix: (Units=GPa)
#
#
# Indices 1 2 3 4 5 6 
#
# 1 41.2890 38.0102 10.1076 -8.8366 6.8433 0.8940
# 2 38.0102 198.8574 24.7933 -10.2801 -17.6094 -6.7989
# 3 10.1076 24.7933 71.5422 -11.0943 -11.2975 11.7665
# 4 -8.8366 -10.2801 -11.0943 28.8062 7.2516 -6.9438
# 5 6.8433 -17.6094 -11.2975 7.2516 40.5724 -4.1000
# 6 0.8940 -6.7989 11.7665 -6.9438 -4.1000 36.8298
#
#
#
# Elastic Compliance Matrix: (Units=1/GPa)
#
#
# Indices 1 2 3 4 5 6 
#
# 1 0.035392 -0.006952 -0.002755 0.010083 -0.011622 -0.000655
# 2 -0.006952 0.006919 -0.001216 -0.000658 0.004174 0.002175
# 3 -0.002755 -0.001216 0.016568 0.003134 0.003539 -0.004466
# 4 0.010083 -0.000658 0.003134 0.042184 -0.008079 0.005686
# 5 -0.011622 0.004174 0.003539 -0.008079 0.031036 0.001854
# 6 -0.000655 0.002175 -0.004466 0.005686 0.001854 0.030275
#
#
# Mechanical properties :
#
#
# Convention : Reuss Voigt Hill
#
# Bulk Modulus (GPa) = 27.00322 50.83454 38.91888
# Shear Modulus (GPa) = 25.43691 37.16018 31.29854
#
# Velocity S-wave (km/s) = 3.19526 3.86201 3.54435
# Velocity P-wave (km/s) = 4.94482 6.34747 5.68954
#
# Compressibility (1/GPa) = 0.03703262
#
# Stress axis : x y z
#
# Youngs Moduli (GPa) = 28.25495 144.52612 60.35766
#
# Poissons Ratio (x) = 1.00471 0.16629
# Poissons Ratio (y) = 0.19642 0.07342
# Poissons Ratio (z) = 0.07785 0.17579
#
# Static dielectric constant tensor:
#      x y z
#    x 2.044090 -0.078990 -0.008720 
#    y -0.078990 2.002060 0.014100 
#    z -0.008720 0.014100 1.999330 
# 
# From -- ./inp_files/593465.got.cif
#   From: 2010.05.17/outbox.cif.g08.bks.cpg/sg2_297_cif.got.tgz:593465.got - 2010.06.03 11:33:40.
