data_PCOD9102981
_publ_section_title
;
Structure prediction by ZEFSAII (Michael W. Deem and Ramdas Pophale) SiO2 
 PCOD9102981
Probable space group: P -1
;
_chemical_formula_sum "Si O2"
_cell_formula_units_Z 14
_cell_length_a 13.261749
_cell_length_b 4.840646
_cell_length_c 18.676251
_cell_angle_alpha 62.246746
_cell_angle_beta 151.621291
_cell_angle_gamma 115.451410
_cell_volume 503.720746
_symmetry_space_group_name_H-M "P -1"
_symmetry_group_IT_number 2
_symmetry_cell_setting 'triclinic'
loop_
_space_group_symop_operation_xyz
x,y,z
-x,-y,-z
loop_
_atom_site_type_symbol
_atom_site_label
_atom_site_fract_x
_atom_site_fract_y
_atom_site_fract_z
Si Si1 0.910123 0.291062 0.312748
Si Si2 0.092914 0.747576 0.182894
Si Si3 0.000000 0.500000 0.000000
Si Si4 0.353513 0.716731 0.716187
Si Si5 0.500000 0.000000 0.500000
Si Si6 0.717830 0.152382 0.921331
Si Si7 0.702710 0.290392 0.044932
Si Si8 0.806478 0.162878 0.537838
O O1 0.992422 0.650719 0.324439
O O2 0.827884 0.210178 0.350043
O O3 0.720160 0.208961 0.147973
O O4 0.103700 0.108321 0.422789
O O5 0.918506 0.510054 0.139786
O O6 0.299707 0.827724 0.348827
O O7 0.138989 0.597556 0.153404
O O8 0.958495 0.070859 0.052968
O O9 0.768827 0.517035 0.899367
O O10 0.278533 0.609470 0.604374
O O11 0.521051 0.006602 0.776031
O O12 0.493715 0.468582 0.874055
O O13 0.642622 0.046991 0.509200
O O14 0.708978 0.057139 0.009761
#
# Coordination Sequence:
#
# PCOD9102981 Si02
#       8
#     2   2   1   2   1   2   2   2
#     4  12  27  51  76 111 159 198 256 321 382 461
#     4  10  21  42  63 103 141 196 246 324 367 469
#     4  10  20  38  64  94 146 184 252 312 374 438
#     4  11  26  46  77 111 150 199 256 311 388 459
#     4  12  24  48  76 102 158 202 262 302 406 458
#     4  10  22  40  68 101 144 189 251 308 378 448
#     4  10  23  44  73 108 144 195 253 312 382 453
#     4  12  29  49  77 113 154 204 255 318 390 455
#
# _framework density 27.79318
#
# number of rings (size 3 to 8) (size 9 to 14) (size 15 to 20)
#    0.000    1.143    1.429    3.429    6.000    3.429 
#    7.714    0.000    0.000    0.000    0.000    0.000 
#    0.000    0.000    0.000    0.000    0.000    0.000 
#
# Total GULP energy -78007.193973 kJ/mol
# GULP energy per Si atom -5571.942427 kJ/mol
# Density = 2.772992 g / cm^3
# Si number density = 27.793180 Si / 1000 Ang^3
#
#
#
# Elastic Constant Matrix: (Units=GPa)
#
#
# Indices 1 2 3 4 5 6 
#
# 1 237.0235 36.6236 66.6523 14.8235 -1.3957 -13.8839
# 2 36.6236 66.8251 16.0624 17.8195 10.2383 -12.1732
# 3 66.6523 16.0624 139.2027 22.1644 -15.5581 -16.4816
# 4 14.8235 17.8195 22.1644 35.8571 -8.3551 -3.0131
# 5 -1.3957 10.2383 -15.5581 -8.3551 51.9724 18.7726
# 6 -13.8839 -12.1732 -16.4816 -3.0131 18.7726 46.7632
#
#
#
# Elastic Compliance Matrix: (Units=1/GPa)
#
#
# Indices 1 2 3 4 5 6 
#
# 1 0.005210 -0.002381 -0.002275 0.000436 -0.000067 0.000180
# 2 -0.002381 0.022180 0.000388 -0.011724 -0.009133 0.008114
# 3 -0.002275 0.000388 0.009320 -0.004566 0.001223 0.001925
# 4 0.000436 -0.011724 -0.004566 0.038004 0.009142 -0.005753
# 5 -0.000067 -0.009133 0.001223 0.009142 0.027335 -0.012351
# 6 0.000180 0.008114 0.001925 -0.005753 -0.012351 0.028816
#
#
# Mechanical properties :
#
#
# Convention : Reuss Voigt Hill
#
# Bulk Modulus (GPa) = 35.49635 75.74754 55.62195
# Shear Modulus (GPa) = 33.60360 48.49941 41.05151
#
# Velocity S-wave (km/s) = 3.48093 4.18187 3.84739
# Velocity P-wave (km/s) = 5.38100 7.11551 6.30815
#
# Compressibility (1/GPa) = 0.02817191
#
# Stress axis : x y z
#
# Youngs Moduli (GPa) = 191.95122 45.08549 107.29427
#
# Poissons Ratio (x) = 0.10737 0.24412
# Poissons Ratio (y) = 0.45711 -0.04159
# Poissons Ratio (z) = 0.43673 -0.01748
#
# Static dielectric constant tensor:
#      x y z
#    x 2.143730 0.073950 -0.040750 
#    y 0.073950 2.391630 -0.192970 
#    z -0.040750 -0.192970 2.258550 
# 
# From -- ./inp_files/61096.got.cif
#   From: 2010.05.17/outbox.cif.g08.bks.cpg/sg2_31_cif.got.tgz:61096.got - 2010.06.03 11:33:40.
