data_PCOD9102379
_publ_section_title
;
Structure prediction by ZEFSAII (Michael W. Deem and Ramdas Pophale) SiO2 
 PCOD9102379
Probable space group: P -1
;
_chemical_formula_sum "Si O2"
_cell_formula_units_Z 16
_cell_length_a 12.549245
_cell_length_b 7.975341
_cell_length_c 7.619711
_cell_angle_alpha 55.864348
_cell_angle_beta 72.628645
_cell_angle_gamma 75.510905
_cell_volume 599.127937
_symmetry_space_group_name_H-M "P -1"
_symmetry_group_IT_number 2
_symmetry_cell_setting 'triclinic'
loop_
_space_group_symop_operation_xyz
x,y,z
-x,-y,-z
loop_
_atom_site_type_symbol
_atom_site_label
_atom_site_fract_x
_atom_site_fract_y
_atom_site_fract_z
Si Si1 0.503666 0.607128 0.183609
Si Si2 0.717118 0.384799 0.903490
Si Si3 0.386139 0.811185 0.449727
Si Si4 0.695316 0.948164 0.351503
Si Si5 0.823799 0.150911 0.676523
Si Si6 0.713300 0.759934 0.102645
Si Si7 0.877493 0.433672 0.088740
Si Si8 0.944363 0.969540 0.239802
O O1 0.409257 0.541774 0.135725
O O2 0.435336 0.770555 0.253724
O O3 0.559889 0.395093 0.362737
O O4 0.614938 0.722370 0.035638
O O5 0.784340 0.327791 0.727769
O O6 0.799907 0.496497 0.919171
O O7 0.699371 0.174184 0.136103
O O8 0.383386 0.006281 0.466418
O O9 0.252862 0.818677 0.474195
O O10 0.827304 0.868086 0.358275
O O11 0.655855 0.815422 0.287803
O O12 0.957649 0.132709 0.623713
O O13 0.783940 0.941618 0.900659
O O14 0.802232 0.562437 0.194214
O O15 0.907590 0.194338 0.194224
O O16 0.000000 0.500000 0.000000
O O17 0.000000 0.000000 0.000000
#
# Coordination Sequence:
#
# PCOD9102379 Si02
#       8
#     2   2   2   2   2   2   2   2
#     4  10  22  43  63  87 122 163 208 258 293 363
#     4   9  20  36  62  89 117 159 210 242 300 362
#     4  10  23  41  60  86 125 169 200 245 321 362
#     4  10  21  36  59  91 122 164 202 247 308 369
#     4  10  20  38  62  94 121 162 203 248 310 369
#     4  11  22  37  63  93 121 156 215 252 289 354
#     4  11  19  32  61  97 117 145 197 266 293 339
#     4  11  17  36  64  90 123 159 201 253 304 369
#
# _framework density 26.705483999999998
#
# number of rings (size 3 to 8) (size 9 to 14) (size 15 to 20)
#    0.000    1.750    5.000    1.500    0.000    7.500 
#    0.000    3.750    0.000    1.500    0.000    0.000 
#    0.000    0.000    0.000    0.000    0.000    0.000 
#
# Total GULP energy -89337.619325 kJ/mol
# GULP energy per Si atom -5583.601208 kJ/mol
# Density = 2.664470 g / cm^3
# Si number density = 26.705484 Si / 1000 Ang^3
#
#
#
# Elastic Constant Matrix: (Units=GPa)
#
#
# Indices 1 2 3 4 5 6 
#
# 1 212.7773 45.2039 23.9230 12.7363 40.8896 -6.9053
# 2 45.2039 127.9317 32.0680 38.2170 -1.3582 -18.3534
# 3 23.9230 32.0680 46.9005 8.7090 5.0769 -11.6742
# 4 12.7363 38.2170 8.7090 42.1839 -4.7155 -0.2667
# 5 40.8896 -1.3582 5.0769 -4.7155 37.5114 -2.7593
# 6 -6.9053 -18.3534 -11.6742 -0.2667 -2.7593 55.1611
#
#
#
# Elastic Compliance Matrix: (Units=1/GPa)
#
#
# Indices 1 2 3 4 5 6 
#
# 1 0.006700 -0.001951 -0.001247 -0.000821 -0.007341 -0.000446
# 2 -0.001951 0.013450 -0.005814 -0.010113 0.002356 0.003069
# 3 -0.001247 -0.005814 0.027092 -0.000182 -0.002281 0.003528
# 4 -0.000821 -0.010113 -0.000182 0.033642 0.004553 -0.003116
# 5 -0.007341 0.002356 -0.002281 0.004553 0.035715 0.001190
# 6 -0.000446 0.003069 0.003528 -0.003116 0.001190 0.019885
#
#
# Mechanical properties :
#
#
# Convention : Reuss Voigt Hill
#
# Bulk Modulus (GPa) = 34.22675 65.55549 49.89112
# Shear Modulus (GPa) = 30.44164 46.06560 38.25362
#
# Velocity S-wave (km/s) = 3.37991 4.15776 3.78885
# Velocity P-wave (km/s) = 5.29867 6.90291 6.15329
#
# Compressibility (1/GPa) = 0.02921691
#
# Stress axis : x y z
#
# Youngs Moduli (GPa) = 149.25415 74.34976 36.91113
#
# Poissons Ratio (x) = 0.14509 0.04603
# Poissons Ratio (y) = 0.29126 0.21460
# Poissons Ratio (z) = 0.18613 0.43227
#
# Static dielectric constant tensor:
#      x y z
#    x 2.100890 0.033950 0.025950 
#    y 0.033950 2.113320 0.038440 
#    z 0.025950 0.038440 2.261250 
# 
# From -- ./inp_files/242986.got.cif
#   From: 2010.05.17/outbox.cif.g08.bks.cpg/sg2_122_cif.got.tgz:242986.got - 2010.06.03 11:33:40.
