data_PCOD9102896
_publ_section_title
;
Structure prediction by ZEFSAII (Michael W. Deem and Ramdas Pophale) SiO2 
 PCOD9102896
Probable space group: P -1
;
_chemical_formula_sum "Si O2"
_cell_formula_units_Z 14
_cell_length_a 14.457462
_cell_length_b 13.947358
_cell_length_c 8.874944
_cell_angle_alpha 44.374868
_cell_angle_beta 101.156187
_cell_angle_gamma 137.110689
_cell_volume 613.443634
_symmetry_space_group_name_H-M "P -1"
_symmetry_group_IT_number 2
_symmetry_cell_setting 'triclinic'
loop_
_space_group_symop_operation_xyz
x,y,z
-x,-y,-z
loop_
_atom_site_type_symbol
_atom_site_label
_atom_site_fract_x
_atom_site_fract_y
_atom_site_fract_z
Si Si1 0.356837 0.188705 0.288794
Si Si2 0.132055 0.075672 0.140259
Si Si3 0.516834 0.673729 0.520597
Si Si4 0.170726 0.078805 0.802118
Si Si5 0.898905 0.505135 0.392203
Si Si6 0.626100 0.281472 0.785388
Si Si7 0.455398 0.046573 0.298121
O O1 0.355296 0.118189 0.532332
O O2 0.422945 0.156463 0.230775
O O3 0.500000 0.500000 0.000000
O O4 0.167076 0.013889 0.354927
O O5 0.309054 0.403968 0.831917
O O6 0.178917 0.075095 0.989919
O O7 0.939648 0.918343 0.262892
O O8 0.481416 0.721989 0.309951
O O9 0.629103 0.682632 0.484790
O O10 0.044598 0.790313 0.035822
O O11 0.817927 0.494789 0.517356
O O12 0.729410 0.241376 0.527131
O O13 0.000000 0.500000 0.500000
O O14 0.500000 0.000000 0.000000
O O15 0.620784 0.265141 0.980398
O O16 0.500000 0.000000 0.500000
#
# Coordination Sequence:
#
# PCOD9102896 Si02
#       7
#     2   2   2   2   2   2   2
#     4  10  22  40  64  94 134 171 218 271 323 390
#     4  10  22  40  62  92 136 164 224 264 333 382
#     4  11  21  40  66  91 130 172 219 262 336 386
#     4  11  22  38  64  95 125 174 217 276 315 400
#     4  11  22  40  65  95 133 165 227 277 324 391
#     4  10  20  38  64  92 123 172 217 260 331 395
#     4  11  24  42  69  95 132 177 221 271 335 396
#
# _framework density 22.821985999999999
#
# number of rings (size 3 to 8) (size 9 to 14) (size 15 to 20)
#    0.000    1.429    1.429    5.571    2.000    1.714 
#    0.000    4.286    0.000    0.000    0.000    0.000 
#    0.000    0.000    0.000    0.000    0.000    0.000 
#
# Total GULP energy -78125.678894 kJ/mol
# GULP energy per Si atom -5580.405635 kJ/mol
# Density = 2.277004 g / cm^3
# Si number density = 22.821986 Si / 1000 Ang^3
#
#
#
# Elastic Constant Matrix: (Units=GPa)
#
#
# Indices 1 2 3 4 5 6 
#
# 1 136.5951 49.0350 28.1553 13.9518 -16.2783 7.6682
# 2 49.0350 126.4738 23.1425 27.6461 -4.8914 15.4333
# 3 28.1553 23.1425 57.7466 14.8559 -6.5068 8.5732
# 4 13.9518 27.6461 14.8559 33.4185 -4.2276 4.8779
# 5 -16.2783 -4.8914 -6.5068 -4.2276 34.1556 -2.3501
# 6 7.6682 15.4333 8.5732 4.8779 -2.3501 44.0570
#
#
#
# Elastic Compliance Matrix: (Units=1/GPa)
#
#
# Indices 1 2 3 4 5 6 
#
# 1 0.009428 -0.003059 -0.003101 0.000393 0.003526 0.000179
# 2 -0.003059 0.011101 -0.000836 -0.007317 -0.001101 -0.002442
# 3 -0.003101 -0.000836 0.021506 -0.007025 0.001458 -0.002497
# 4 0.000393 -0.007317 -0.007025 0.039321 0.002644 -0.000351
# 5 0.003526 -0.001101 0.001458 0.002644 0.031465 0.000874
# 6 0.000179 -0.002442 -0.002497 -0.000351 0.000874 0.024093
#
#
# Mechanical properties :
#
#
# Convention : Reuss Voigt Hill
#
# Bulk Modulus (GPa) = 35.66104 57.94233 46.80168
# Shear Modulus (GPa) = 31.19986 37.02507 34.11247
#
# Velocity S-wave (km/s) = 3.70144 4.03220 3.87035
# Velocity P-wave (km/s) = 5.82470 6.86456 6.36590
#
# Compressibility (1/GPa) = 0.02804181
#
# Stress axis : x y z
#
# Youngs Moduli (GPa) = 106.06296 90.08325 46.49761
#
# Poissons Ratio (x) = 0.27560 0.14420
# Poissons Ratio (y) = 0.32449 0.03888
# Poissons Ratio (z) = 0.32894 0.07533
#
# Static dielectric constant tensor:
#      x y z
#    x 2.553640 0.513460 -0.392400 
#    y 0.513460 2.266300 -0.332740 
#    z -0.392400 -0.332740 2.201220 
# 
# From -- ./inp_files/314675.got.cif
#   From: 2010.05.17/outbox.cif.g08.bks.cpg/sg2_158_cif.got.tgz:314675.got - 2010.06.03 11:33:40.
