data_PCOD9102864
_publ_section_title
;
Structure prediction by ZEFSAII (Michael W. Deem and Ramdas Pophale) SiO2 
 PCOD9102864
Probable space group: P -1
;
_chemical_formula_sum "Si O2"
_cell_formula_units_Z 16
_cell_length_a 10.109531
_cell_length_b 21.341323
_cell_length_c 9.487192
_cell_angle_alpha 28.682544
_cell_angle_beta 120.958662
_cell_angle_gamma 133.615852
_cell_volume 686.557414
_symmetry_space_group_name_H-M "P -1"
_symmetry_group_IT_number 2
_symmetry_cell_setting 'triclinic'
loop_
_space_group_symop_operation_xyz
x,y,z
-x,-y,-z
loop_
_atom_site_type_symbol
_atom_site_label
_atom_site_fract_x
_atom_site_fract_y
_atom_site_fract_z
Si Si1 0.448002 0.751556 0.696151
Si Si2 0.964236 0.295312 0.682854
Si Si3 0.366158 0.987519 0.120074
Si Si4 0.454752 0.671995 0.403010
Si Si5 0.815941 0.489443 0.213380
Si Si6 0.805757 0.906968 0.991214
Si Si7 0.846496 0.848820 0.805377
Si Si8 0.207314 0.630822 0.079507
O O1 0.489822 0.918823 0.333527
O O2 0.298773 0.605461 0.802067
O O3 0.639468 0.766493 0.790800
O O4 0.343594 0.725786 0.838242
O O5 0.810694 0.136406 0.829083
O O6 0.869377 0.375776 0.541355
O O7 0.104761 0.440547 0.367387
O O8 0.079003 0.261050 0.916926
O O9 0.652545 0.728478 0.325205
O O10 0.289273 0.000762 0.203063
O O11 0.332716 0.522372 0.735615
O O12 0.328333 0.663461 0.221687
O O13 0.526596 0.829203 0.228557
O O14 0.027906 0.639464 0.992823
O O15 0.835541 0.898508 0.860962
O O16 0.000000 0.000000 0.000000
O O17 0.000000 0.000000 0.500000
#
# Coordination Sequence:
#
# PCOD9102864 Si02
#       8
#     2   2   2   2   2   2   2   2
#     4  11  22  39  60  97 117 163 202 257 299 353
#     4   9  22  40  61  89 120 171 194 244 304 372
#     4   9  21  37  67  86 121 157 209 244 307 353
#     4  10  20  38  64  91 117 162 202 254 294 368
#     4   9  22  37  65  85 123 157 205 245 304 356
#     4  10  21  40  61  86 122 164 197 242 309 365
#     4  12  25  38  61  94 128 152 203 260 303 355
#     4  10  21  40  63  86 125 157 215 240 302 359
#
# _framework density 23.304679
#
# number of rings (size 3 to 8) (size 9 to 14) (size 15 to 20)
#    1.500    0.500    2.500    0.750    5.250    3.500 
#    0.000    0.000    0.000    0.750    0.000    0.000 
#    0.000    0.000    0.000    0.000    0.000    0.000 
#
# Total GULP energy -89177.170193 kJ/mol
# GULP energy per Si atom -5573.573137 kJ/mol
# Density = 2.325164 g / cm^3
# Si number density = 23.304679 Si / 1000 Ang^3
#
#
#
# Elastic Constant Matrix: (Units=GPa)
#
#
# Indices 1 2 3 4 5 6 
#
# 1 87.0490 27.0248 35.7888 6.5081 -22.1556 20.2134
# 2 27.0248 106.0911 -5.7516 -0.7202 -4.8503 16.3501
# 3 35.7888 -5.7516 41.1643 -1.7342 -16.4452 1.5973
# 4 6.5081 -0.7202 -1.7342 28.7877 0.9242 -4.7209
# 5 -22.1556 -4.8503 -16.4452 0.9242 49.7246 4.7605
# 6 20.2134 16.3501 1.5973 -4.7209 4.7605 45.0208
#
#
#
# Elastic Compliance Matrix: (Units=1/GPa)
#
#
# Indices 1 2 3 4 5 6 
#
# 1 0.027215 -0.006323 -0.022417 -0.009585 0.005297 -0.010692
# 2 -0.006323 0.011759 0.007677 0.001890 0.000988 -0.001610
# 3 -0.022417 0.007677 0.047260 0.008899 0.005657 0.005935
# 4 -0.009585 0.001890 0.008899 0.038825 -0.002597 0.007647
# 5 0.005297 0.000988 0.005657 -0.002597 0.025047 -0.005859
# 6 -0.010692 -0.001610 0.005935 0.007647 -0.005859 0.028808
#
#
# Mechanical properties :
#
#
# Convention : Reuss Voigt Hill
#
# Bulk Modulus (GPa) = 22.67198 38.71427 30.69313
# Shear Modulus (GPa) = 21.20961 36.52278 28.86620
#
# Velocity S-wave (km/s) = 3.02006 3.96307 3.52326
# Velocity P-wave (km/s) = 4.68088 6.13103 5.45436
#
# Compressibility (1/GPa) = 0.04410731
#
# Stress axis : x y z
#
# Youngs Moduli (GPa) = 36.74468 85.04256 21.15963
#
# Poissons Ratio (x) = 0.53771 0.47434
# Poissons Ratio (y) = 0.23233 -0.16244
# Poissons Ratio (z) = 0.82371 -0.65286
#
# Static dielectric constant tensor:
#      x y z
#    x 2.049410 -0.008350 -0.078710 
#    y -0.008350 1.862580 -0.031460 
#    z -0.078710 -0.031460 1.958030 
# 
# From -- ./inp_files/223027.got.cif
#   From: 2010.05.17/outbox.cif.g08.bks.cpg/sg2_112_cif.got.tgz:223027.got - 2010.06.03 11:33:40.
