data_PCOD9102941
_publ_section_title
;
Structure prediction by ZEFSAII (Michael W. Deem and Ramdas Pophale) SiO2 
 PCOD9102941
Probable space group: P -1
;
_chemical_formula_sum "Si O2"
_cell_formula_units_Z 14
_cell_length_a 7.517844
_cell_length_b 8.775727
_cell_length_c 11.238784
_cell_angle_alpha 109.240989
_cell_angle_beta 76.959589
_cell_angle_gamma 128.753449
_cell_volume 545.747466
_symmetry_space_group_name_H-M "P -1"
_symmetry_group_IT_number 2
_symmetry_cell_setting 'triclinic'
loop_
_space_group_symop_operation_xyz
x,y,z
-x,-y,-z
loop_
_atom_site_type_symbol
_atom_site_label
_atom_site_fract_x
_atom_site_fract_y
_atom_site_fract_z
Si Si1 0.069104 0.612830 0.882491
Si Si2 0.975669 0.242337 0.721951
Si Si3 0.782017 0.371208 0.583428
Si Si4 0.768884 0.983496 0.904652
Si Si5 0.016053 0.225726 0.266939
Si Si6 0.688460 0.859870 0.354059
Si Si7 0.527831 0.326262 0.924807
O O1 0.797508 0.447145 0.900888
O O2 0.131263 0.457932 0.826240
O O3 0.126407 0.721924 0.774795
O O4 0.139063 0.800459 0.000272
O O5 0.161697 0.211260 0.645163
O O6 0.852573 0.280302 0.649629
O O7 0.784324 0.046486 0.779602
O O8 0.520546 0.204086 0.547058
O O9 0.000000 0.500000 0.500000
O O10 0.765165 0.550887 0.678200
O O11 0.918433 0.897483 0.851860
O O12 0.568584 0.825855 0.986016
O O13 0.872565 0.097280 0.368170
O O14 0.596831 0.784727 0.210364
O O15 0.500000 0.500000 0.000000
#
# Coordination Sequence:
#
# PCOD9102941 Si02
#       7
#     2   2   2   2   2   2   2
#     4  11  20  37  57  94 138 178 209 244 303 381
#     4  10  24  40  63 100 129 166 225 255 312 393
#     4  11  25  49  69  89 123 163 218 286 330 370
#     4  11  21  36  62  95 140 174 207 256 301 387
#     4  10  20  38  64  93 127 170 215 254 316 386
#     4  11  22  42  66  91 132 169 210 264 319 378
#     4  12  20  33  63  92 130 185 204 236 321 370
#
# _framework density 25.652888999999998
#
# number of rings (size 3 to 8) (size 9 to 14) (size 15 to 20)
#    0.000    1.143    5.714    2.571    0.000    1.714 
#    0.000   14.286    0.000    0.000    0.000    0.000 
#    0.000    0.000    0.000    0.000    0.000    0.000 
#
# Total GULP energy -78075.055414 kJ/mol
# GULP energy per Si atom -5576.789672 kJ/mol
# Density = 2.559450 g / cm^3
# Si number density = 25.652889 Si / 1000 Ang^3
#
#
#
# Elastic Constant Matrix: (Units=GPa)
#
#
# Indices 1 2 3 4 5 6 
#
# 1 87.0105 52.7712 23.7846 -20.5226 -26.5221 -13.1202
# 2 52.7712 171.2635 39.4047 -22.7474 -18.7255 -23.8264
# 3 23.7846 39.4047 79.5824 -19.9326 -19.4758 -1.6507
# 4 -20.5226 -22.7474 -19.9326 50.2230 11.8071 -0.3185
# 5 -26.5221 -18.7255 -19.4758 11.8071 31.9788 -6.2831
# 6 -13.1202 -23.8264 -1.6507 -0.3185 -6.2831 44.4021
#
#
#
# Elastic Compliance Matrix: (Units=1/GPa)
#
#
# Indices 1 2 3 4 5 6 
#
# 1 0.019436 -0.003189 0.000232 0.003245 0.014395 0.006101
# 2 -0.003189 0.008127 -0.002493 0.001217 0.000825 0.003452
# 3 0.000232 -0.002493 0.016514 0.003763 0.007485 0.000431
# 4 0.003245 0.001217 0.003763 0.023962 -0.002854 0.001519
# 5 0.014395 0.000825 0.007485 -0.002854 0.051716 0.012272
# 6 0.006101 0.003452 0.000431 0.001519 0.012272 0.027940
#
#
# Mechanical properties :
#
#
# Convention : Reuss Voigt Hill
#
# Bulk Modulus (GPa) = 30.14047 63.30860 46.72453
# Shear Modulus (GPa) = 29.47188 40.11383 34.79285
#
# Velocity S-wave (km/s) = 3.39318 3.95867 3.68678
# Velocity P-wave (km/s) = 5.20830 6.75480 6.03132
#
# Compressibility (1/GPa) = 0.03317798
#
# Stress axis : x y z
#
# Youngs Moduli (GPa) = 51.45005 123.04638 60.55540
#
# Poissons Ratio (x) = 0.39235 -0.01404
# Poissons Ratio (y) = 0.16406 0.15096
# Poissons Ratio (z) = -0.01193 0.30674
#
# Static dielectric constant tensor:
#      x y z
#    x 2.060060 0.032100 0.071280 
#    y 0.032100 1.988500 0.072660 
#    z 0.071280 0.072660 2.270760 
# 
# From -- ./inp_files/491231.got.cif
#   From: 2010.05.17/outbox.cif.g08.bks.cpg/sg2_246_cif.got.tgz:491231.got - 2010.06.03 11:33:40.
