data_PCOD9102018
_publ_section_title
;
Structure prediction by ZEFSAII (Michael W. Deem and Ramdas Pophale) SiO2 
 PCOD9102018
Probable space group: P -1
;
_chemical_formula_sum "Si O2"
_cell_formula_units_Z 14
_cell_length_a 9.303771
_cell_length_b 12.044553
_cell_length_c 17.124955
_cell_angle_alpha 32.198313
_cell_angle_beta 132.422814
_cell_angle_gamma 145.255650
_cell_volume 581.408056
_symmetry_space_group_name_H-M "P -1"
_symmetry_group_IT_number 2
_symmetry_cell_setting 'triclinic'
loop_
_space_group_symop_operation_xyz
x,y,z
-x,-y,-z
loop_
_atom_site_type_symbol
_atom_site_label
_atom_site_fract_x
_atom_site_fract_y
_atom_site_fract_z
Si Si1 0.162094 0.827158 0.440157
Si Si2 0.742234 0.530343 0.045506
Si Si3 0.506271 0.341863 0.347639
Si Si4 0.643776 0.706183 0.504526
Si Si5 0.987186 0.875977 0.189562
Si Si6 0.544088 0.998606 0.810000
Si Si7 0.052813 0.458990 0.309748
O O1 0.379995 0.813191 0.506189
O O2 0.008031 0.765547 0.343471
O O3 0.003623 0.605780 0.580718
O O4 0.268964 0.118146 0.339834
O O5 0.827050 0.426401 0.205461
O O6 0.659114 0.326425 0.064239
O O7 0.500000 0.500000 0.000000
O O8 0.963680 0.851439 0.932909
O O9 0.452134 0.391695 0.383929
O O10 0.708611 0.624912 0.208398
O O11 0.500000 0.500000 0.500000
O O12 0.598731 0.916929 0.341323
O O13 0.902450 0.748516 0.575197
O O14 0.215204 0.949853 0.174899
O O15 0.691819 0.229556 0.793263
#
# Coordination Sequence:
#
# PCOD9102018 Si02
#       7
#     2   2   2   2   2   2   2
#     4  11  23  36  66  96 121 160 212 264 314 361
#     4  10  25  38  60  93 129 166 210 252 316 379
#     4  11  22  37  62  94 126 157 210 262 313 365
#     4  10  21  39  67  94 126 168 208 261 316 371
#     4  11  21  39  61  91 130 162 203 265 316 361
#     4  10  20  38  61  91 128 157 210 260 304 373
#     4  11  23  41  64  95 124 166 209 259 318 366
#
# _framework density 24.079473
#
# number of rings (size 3 to 8) (size 9 to 14) (size 15 to 20)
#    0.000    1.429    2.857    3.000    6.000    5.714 
#    0.000    0.714    0.000   10.286    0.000    0.000 
#    0.000    0.000    0.000    0.000    0.000    0.000 
#
# Total GULP energy -78100.581569 kJ/mol
# GULP energy per Si atom -5578.612969 kJ/mol
# Density = 2.402467 g / cm^3
# Si number density = 24.079473 Si / 1000 Ang^3
#
#
#
# Elastic Constant Matrix: (Units=GPa)
#
#
# Indices 1 2 3 4 5 6 
#
# 1 75.1197 -3.7724 5.0632 6.6717 13.9399 -13.9700
# 2 -3.7724 95.9676 33.4541 -29.1729 15.2515 -11.8619
# 3 5.0632 33.4541 79.6253 -16.3933 24.3259 -0.2076
# 4 6.6717 -29.1729 -16.3933 64.4917 -2.6218 15.6053
# 5 13.9399 15.2515 24.3259 -2.6218 27.5850 0.3271
# 6 -13.9700 -11.8619 -0.2076 15.6053 0.3271 32.3693
#
#
#
# Elastic Compliance Matrix: (Units=1/GPa)
#
#
# Indices 1 2 3 4 5 6 
#
# 1 0.017748 0.002508 0.000577 -0.003532 -0.011323 0.010400
# 2 0.002508 0.014485 -0.003651 0.004050 -0.005724 0.004472
# 3 0.000577 -0.003651 0.019258 0.003140 -0.014929 -0.002328
# 4 -0.003532 0.004050 0.003140 0.020896 -0.001118 -0.010083
# 5 -0.011323 -0.005724 -0.014929 -0.001118 0.058282 -0.007130
# 6 0.010400 0.004472 -0.002328 -0.010083 -0.007130 0.041939
#
#
# Mechanical properties :
#
#
# Convention : Reuss Voigt Hill
#
# Bulk Modulus (GPa) = 19.85754 35.57803 27.71778
# Shear Modulus (GPa) = 26.24314 39.28703 32.76508
#
# Velocity S-wave (km/s) = 3.30488 4.04364 3.69278
# Velocity P-wave (km/s) = 4.77782 6.05051 5.45143
#
# Compressibility (1/GPa) = 0.05035870
#
# Stress axis : x y z
#
# Youngs Moduli (GPa) = 56.34420 69.03594 51.92778
#
# Poissons Ratio (x) = -0.17313 -0.02997
# Poissons Ratio (y) = -0.14130 0.18959
# Poissons Ratio (z) = -0.03252 0.25205
#
# Static dielectric constant tensor:
#      x y z
#    x 1.926360 -0.002250 0.013240 
#    y -0.002250 2.077740 -0.018290 
#    z 0.013240 -0.018290 1.948360 
# 
# From -- ./inp_files/337627.got.cif
#   From: 2010.05.17/outbox.cif.g08.bks.cpg/sg2_169_cif.got.tgz:337627.got - 2010.06.03 11:33:40.
