data_PCOD9102588
_publ_section_title
;
Structure prediction by ZEFSAII (Michael W. Deem and Ramdas Pophale) SiO2 
 PCOD9102588
Probable space group: P -1
;
_chemical_formula_sum "Si O2"
_cell_formula_units_Z 16
_cell_length_a 12.315929
_cell_length_b 8.984375
_cell_length_c 12.360589
_cell_angle_alpha 50.174493
_cell_angle_beta 129.221088
_cell_angle_gamma 112.732588
_cell_volume 813.362021
_symmetry_space_group_name_H-M "P -1"
_symmetry_group_IT_number 2
_symmetry_cell_setting 'triclinic'
loop_
_space_group_symop_operation_xyz
x,y,z
-x,-y,-z
loop_
_atom_site_type_symbol
_atom_site_label
_atom_site_fract_x
_atom_site_fract_y
_atom_site_fract_z
Si Si1 0.197079 0.140905 0.630488
Si Si2 0.638007 0.096493 0.988956
Si Si3 0.261761 0.779749 0.413081
Si Si4 0.386867 0.059160 0.196471
Si Si5 0.432877 0.416338 0.734077
Si Si6 0.692911 0.544960 0.120594
Si Si7 0.987298 0.497222 0.622112
Si Si8 0.701151 0.111923 0.374016
O O1 0.327590 0.285522 0.658810
O O2 0.062725 0.284226 0.482420
O O3 0.206701 0.025755 0.579381
O O4 0.230153 0.986679 0.820078
O O5 0.588250 0.322252 0.862824
O O6 0.648853 0.025097 0.905678
O O7 0.500000 0.000000 0.000000
O O8 0.399380 0.634985 0.573375
O O9 0.132097 0.652430 0.352991
O O10 0.234827 0.842233 0.490868
O O11 0.293780 0.956601 0.273968
O O12 0.550860 0.018688 0.339495
O O13 0.367996 0.292326 0.073241
O O14 0.373019 0.408604 0.823309
O O15 0.671646 0.316890 0.197766
O O16 0.859642 0.564774 0.213104
O O17 0.000000 0.500000 0.500000
#
# Coordination Sequence:
#
# PCOD9102588 Si02
#       8
#     2   2   2   2   2   2   2   2
#     4  10  18  33  61  86 109 143 200 237 272 330
#     4  10  16  32  57  86 113 144 188 238 277 335
#     4  10  24  36  57  89 115 158 182 232 302 332
#     4  12  21  36  59  89 122 142 190 243 290 342
#     4   9  16  35  55  82 110 145 193 225 280 339
#     4  11  21  36  62  82 111 156 197 235 271 333
#     4  11  19  41  61  81 113 153 205 232 262 351
#     4  11  21  37  57  87 117 151 184 236 294 346
#
# _framework density 19.671436
#
# number of rings (size 3 to 8) (size 9 to 14) (size 15 to 20)
#    0.000    1.500    8.750    0.750    0.000    2.500 
#    0.000    0.000    0.000    0.750    0.000    0.000 
#    0.000    0.000    0.000    0.000    0.000    0.000 
#
# Total GULP energy -89257.981154 kJ/mol
# GULP energy per Si atom -5578.623822 kJ/mol
# Density = 1.962666 g / cm^3
# Si number density = 19.671436 Si / 1000 Ang^3
#
#
#
# Elastic Constant Matrix: (Units=GPa)
#
#
# Indices 1 2 3 4 5 6 
#
# 1 57.5099 29.9978 27.2866 -13.4324 -0.1074 2.5564
# 2 29.9978 78.1071 13.2363 -13.9698 -0.8035 -24.3817
# 3 27.2866 13.2363 55.7818 -8.1598 -1.9475 -3.6733
# 4 -13.4324 -13.9698 -8.1598 26.1456 6.4162 8.1187
# 5 -0.1074 -0.8035 -1.9475 6.4162 31.9645 -7.7233
# 6 2.5564 -24.3817 -3.6733 8.1187 -7.7233 35.1876
#
#
#
# Elastic Compliance Matrix: (Units=1/GPa)
#
#
# Indices 1 2 3 4 5 6 
#
# 1 0.035963 -0.015224 -0.013478 0.014445 -0.008773 -0.019827
# 2 -0.015224 0.024083 0.003005 -0.001578 0.005826 0.019750
# 3 -0.013478 0.003005 0.024264 -0.000510 0.003159 0.006406
# 4 0.014445 -0.001578 -0.000510 0.053983 -0.015205 -0.017989
# 5 -0.008773 0.005826 0.003159 -0.015205 0.038758 0.017019
# 6 -0.019827 0.019750 0.006406 -0.017989 0.017019 0.052099
#
#
# Mechanical properties :
#
#
# Convention : Reuss Voigt Hill
#
# Bulk Modulus (GPa) = 30.37898 36.93781 33.65840
# Shear Modulus (GPa) = 17.15167 26.71810 21.93488
#
# Velocity S-wave (km/s) = 2.95601 3.68940 3.34288
# Velocity P-wave (km/s) = 5.20840 6.08005 5.66103
#
# Compressibility (1/GPa) = 0.03291750
#
# Stress axis : x y z
#
# Youngs Moduli (GPa) = 27.80638 41.52265 41.21255
#
# Poissons Ratio (x) = 0.63212 0.55548
# Poissons Ratio (y) = 0.42331 -0.12386
# Poissons Ratio (z) = 0.37478 -0.12479
#
# Static dielectric constant tensor:
#      x y z
#    x 5.820920 2.298620 2.865160 
#    y 2.298620 3.009460 1.550460 
#    z 2.865160 1.550460 3.669100 
# 
# From -- ./inp_files/418978.got.cif
#   From: 2010.05.17/outbox.cif.g08.bks.cpg/sg2_210_cif.got.tgz:418978.got - 2010.06.03 11:33:40.
