data_PCOD9102716
_publ_section_title
;
Structure prediction by ZEFSAII (Michael W. Deem and Ramdas Pophale) SiO2 
 PCOD9102716
Probable space group: P -1
;
_chemical_formula_sum "Si O2"
_cell_formula_units_Z 16
_cell_length_a 18.475708
_cell_length_b 9.508156
_cell_length_c 9.077613
_cell_angle_alpha 81.013774
_cell_angle_beta 116.754843
_cell_angle_gamma 142.318180
_cell_volume 809.835653
_symmetry_space_group_name_H-M "P -1"
_symmetry_group_IT_number 2
_symmetry_cell_setting 'triclinic'
loop_
_space_group_symop_operation_xyz
x,y,z
-x,-y,-z
loop_
_atom_site_type_symbol
_atom_site_label
_atom_site_fract_x
_atom_site_fract_y
_atom_site_fract_z
Si Si1 0.576058 0.054456 0.705619
Si Si2 0.883929 0.255529 0.534876
Si Si3 0.540796 0.363381 0.145743
Si Si4 0.001430 0.162261 0.306754
Si Si5 0.877903 0.407176 0.813379
Si Si6 0.620675 0.273083 0.995561
Si Si7 0.924293 0.730648 0.309537
Si Si8 0.714282 0.878732 0.210773
O O1 0.727288 0.199896 0.788120
O O2 0.601375 0.221483 0.813904
O O3 0.500000 0.000000 0.500000
O O4 0.478341 0.796402 0.737998
O O5 0.862037 0.306881 0.657051
O O6 0.000000 0.500000 0.500000
O O7 0.949730 0.193767 0.630606
O O8 0.747271 0.038265 0.343502
O O9 0.641511 0.632711 0.248760
O O10 0.599512 0.393282 0.036778
O O11 0.388966 0.208078 0.992162
O O12 0.076309 0.365345 0.220282
O O13 0.087953 0.280701 0.521053
O O14 0.960658 0.943681 0.260894
O O15 0.860107 0.042612 0.243766
O O16 0.000000 0.500000 0.000000
O O17 0.780025 0.462850 0.154785
O O18 0.500000 0.000000 0.000000
#
# Coordination Sequence:
#
# PCOD9102716 Si02
#       8
#     2   2   2   2   2   2   2   2
#     4  11  27  40  60  94 131 170 202 254 326 381
#     4  11  23  37  68  94 124 162 218 260 307 376
#     4  10  22  40  68  86 128 159 215 258 305 378
#     4  10  21  37  68  92 128 158 205 273 312 364
#     4  12  25  43  63  93 137 171 205 258 323 386
#     4  10  22  37  65  88 120 163 212 256 300 377
#     4  10  20  38  63  99 116 154 223 264 309 351
#     4  10  20  39  66  98 113 161 219 266 305 356
#
# _framework density 19.757096000000001
#
# number of rings (size 3 to 8) (size 9 to 14) (size 15 to 20)
#    0.000    1.500    3.750    1.500    8.750    0.000 
#    0.000    4.375    0.000    0.000    0.000    0.000 
#    0.000    0.000    0.000    0.000    0.000    0.000 
#
# Total GULP energy -89342.301241 kJ/mol
# GULP energy per Si atom -5583.893828 kJ/mol
# Density = 1.971213 g / cm^3
# Si number density = 19.757096 Si / 1000 Ang^3
#
#
#
# Elastic Constant Matrix: (Units=GPa)
#
#
# Indices 1 2 3 4 5 6 
#
# 1 61.6192 4.6517 7.8539 -4.9757 -15.5897 0.6425
# 2 4.6517 81.3992 32.5499 2.6574 -14.7415 -10.7530
# 3 7.8539 32.5499 72.1115 13.1312 -15.4387 3.2658
# 4 -4.9757 2.6574 13.1312 31.6313 -4.3417 3.4734
# 5 -15.5897 -14.7415 -15.4387 -4.3417 29.0870 2.1806
# 6 0.6425 -10.7530 3.2658 3.4734 2.1806 27.3006
#
#
#
# Elastic Compliance Matrix: (Units=1/GPa)
#
#
# Indices 1 2 3 4 5 6 
#
# 1 0.019582 0.000969 -0.001012 0.005141 0.011331 -0.001517
# 2 0.000969 0.016898 -0.007292 0.001682 0.004947 0.006896
# 3 -0.001012 -0.007292 0.019895 -0.006487 0.005718 -0.004860
# 4 0.005141 0.001682 -0.006487 0.036189 0.005848 -0.003754
# 5 0.011331 0.004947 0.005718 0.005848 0.047130 -0.003511
# 6 -0.001517 0.006896 -0.004860 -0.003754 -0.003511 0.040720
#
#
# Mechanical properties :
#
#
# Convention : Reuss Voigt Hill
#
# Bulk Modulus (GPa) = 23.97812 33.91565 28.94688
# Shear Modulus (GPa) = 23.92500 28.94207 26.43354
#
# Velocity S-wave (km/s) = 3.48366 3.83155 3.66174
# Velocity P-wave (km/s) = 5.32390 6.06448 5.70622
#
# Compressibility (1/GPa) = 0.04170469
#
# Stress axis : x y z
#
# Youngs Moduli (GPa) = 51.06706 59.17942 50.26458
#
# Poissons Ratio (x) = -0.05736 0.05086
# Poissons Ratio (y) = -0.04950 0.36655
# Poissons Ratio (z) = 0.05167 0.43156
#
# Static dielectric constant tensor:
#      x y z
#    x 1.725750 -0.012320 0.018680 
#    y -0.012320 1.710890 0.014230 
#    z 0.018680 0.014230 1.723190 
# 
# From -- ./inp_files/328914.got.cif
#   From: 2010.05.17/outbox.cif.g08.bks.cpg/sg2_165_cif.got.tgz:328914.got - 2010.06.03 11:33:40.
