data_PCOD9102060
_publ_section_title
;
Structure prediction by ZEFSAII (Michael W. Deem and Ramdas Pophale) SiO2 
 PCOD9102060
Probable space group: P -1
;
_chemical_formula_sum "Si O2"
_cell_formula_units_Z 12
_cell_length_a 14.768780
_cell_length_b 5.752248
_cell_length_c 7.949048
_cell_angle_alpha 61.249679
_cell_angle_beta 124.950421
_cell_angle_gamma 100.839346
_cell_volume 481.664716
_symmetry_space_group_name_H-M "P -1"
_symmetry_group_IT_number 2
_symmetry_cell_setting 'triclinic'
loop_
_space_group_symop_operation_xyz
x,y,z
-x,-y,-z
loop_
_atom_site_type_symbol
_atom_site_label
_atom_site_fract_x
_atom_site_fract_y
_atom_site_fract_z
Si Si1 0.567324 0.211699 0.701380
Si Si2 0.144704 0.252634 0.373662
Si Si3 0.095824 0.808031 0.988618
Si Si4 0.122379 0.339386 0.691942
Si Si5 0.730854 0.397844 0.031984
Si Si6 0.652400 0.945574 0.574516
O O1 0.500000 0.500000 0.500000
O O2 0.469978 0.022027 0.652545
O O3 0.647451 0.166611 0.638702
O O4 0.642198 0.199367 0.952865
O O5 0.142662 0.187316 0.590129
O O6 0.252192 0.108383 0.443882
O O7 0.035304 0.174440 0.192206
O O8 0.130272 0.578757 0.241431
O O9 0.160578 0.673715 0.942741
O O10 0.124288 0.110819 0.917884
O O11 0.217479 0.530227 0.761222
O O12 0.000000 0.500000 0.500000
O O13 0.669652 0.676680 0.798697
#
# Coordination Sequence:
#
# PCOD9102060 Si02
#       6
#     2   2   2   2   2   2
#     4   9  18  37  65  91 126 167 221 270 334 378
#     4  10  22  42  66 100 126 176 225 261 324 388
#     4  10  22  43  61  93 137 172 221 266 317 389
#     4  12  24  40  63  96 140 179 209 264 330 385
#     4  10  20  38  61  94 128 176 211 262 332 383
#     4   9  19  39  65  93 124 171 219 275 318 387
#
# _framework density 24.913594
#
# number of rings (size 3 to 8) (size 9 to 14) (size 15 to 20)
#    0.000    2.000    1.667    1.500    0.000    0.667 
#    9.000    0.833    0.000   14.000    0.000   14.000 
#    0.000    0.000    0.000    0.000    0.000    0.000 
#
# Total GULP energy -67034.475237 kJ/mol
# GULP energy per Si atom -5586.206270 kJ/mol
# Density = 2.485689 g / cm^3
# Si number density = 24.913594 Si / 1000 Ang^3
#
#
#
# Elastic Constant Matrix: (Units=GPa)
#
#
# Indices 1 2 3 4 5 6 
#
# 1 101.8794 29.3996 51.3277 10.7364 38.6915 -23.9111
# 2 29.3996 95.3034 47.1367 15.0909 15.0242 1.8257
# 3 51.3277 47.1367 109.1491 12.1608 18.2836 9.7746
# 4 10.7364 15.0909 12.1608 50.5737 8.9605 10.4416
# 5 38.6915 15.0242 18.2836 8.9605 43.8522 -1.4664
# 6 -23.9111 1.8257 9.7746 10.4416 -1.4664 44.5358
#
#
#
# Elastic Compliance Matrix: (Units=1/GPa)
#
#
# Indices 1 2 3 4 5 6 
#
# 1 0.025670 0.000109 -0.010331 -0.003314 -0.017158 0.016257
# 2 0.000109 0.013922 -0.005545 -0.002765 -0.001946 0.001289
# 3 -0.010331 -0.005545 0.016500 0.001117 0.003603 -0.009084
# 4 -0.003314 -0.002765 0.001117 0.022808 -0.001499 -0.007308
# 5 -0.017158 -0.001946 0.003603 -0.001499 0.037134 -0.008349
# 6 0.016257 0.001289 -0.009084 -0.007308 -0.008349 0.034562
#
#
# Mechanical properties :
#
#
# Convention : Reuss Voigt Hill
#
# Bulk Modulus (GPa) = 40.71946 62.45111 51.58529
# Shear Modulus (GPa) = 26.27228 39.69019 32.98123
#
# Velocity S-wave (km/s) = 3.25088 3.99571 3.64239
# Velocity P-wave (km/s) = 5.52003 6.81242 6.20000
#
# Compressibility (1/GPa) = 0.02455828
#
# Stress axis : x y z
#
# Youngs Moduli (GPa) = 38.95582 71.83121 60.60634
#
# Poissons Ratio (x) = -0.00784 0.62612
# Poissons Ratio (y) = -0.00425 0.33605
# Poissons Ratio (z) = 0.40245 0.39829
#
# Static dielectric constant tensor:
#      x y z
#    x 1.948350 0.070720 -0.002070 
#    y 0.070720 2.104240 -0.002760 
#    z -0.002070 -0.002760 1.977690 
# 
# From -- ./inp_files/59022.got.cif
#   From: 2010.05.17/outbox.cif.g08.bks.cpg/sg2_30_cif.got.tgz:59022.got - 2010.06.03 11:33:40.
