data_PCOD9102885
_publ_section_title
;
Structure prediction by ZEFSAII (Michael W. Deem and Ramdas Pophale) SiO2 
 PCOD9102885
Probable space group: P -1
;
_chemical_formula_sum "Si O2"
_cell_formula_units_Z 16
_cell_length_a 13.644634
_cell_length_b 16.453670
_cell_length_c 7.745689
_cell_angle_alpha 121.392246
_cell_angle_beta 79.659772
_cell_angle_gamma 147.654752
_cell_volume 652.224019
_symmetry_space_group_name_H-M "P -1"
_symmetry_group_IT_number 2
_symmetry_cell_setting 'triclinic'
loop_
_space_group_symop_operation_xyz
x,y,z
-x,-y,-z
loop_
_atom_site_type_symbol
_atom_site_label
_atom_site_fract_x
_atom_site_fract_y
_atom_site_fract_z
Si Si1 0.460275 0.917993 0.693673
Si Si2 0.982029 0.072044 0.787919
Si Si3 0.163899 0.792232 0.851387
Si Si4 0.930123 0.107897 0.224629
Si Si5 0.384146 0.278837 0.872551
Si Si6 0.664792 0.637284 0.440413
Si Si7 0.813407 0.561579 0.962822
Si Si8 0.253116 0.678520 0.129596
O O1 0.378135 0.804536 0.413403
O O2 0.635807 0.009879 0.857858
O O3 0.598292 0.133323 0.841622
O O4 0.250316 0.769736 0.711767
O O5 0.164775 0.151770 0.758881
O O6 0.028774 0.209892 0.824959
O O7 0.754262 0.819434 0.578329
O O8 0.001673 0.115179 0.032644
O O9 0.939107 0.605682 0.828065
O O10 0.124093 0.833061 0.755874
O O11 0.713916 0.880764 0.135963
O O12 0.133418 0.259836 0.455813
O O13 0.534920 0.482617 0.152284
O O14 0.562908 0.382710 0.804416
O O15 0.500000 0.500000 0.500000
O O16 0.779714 0.463435 0.027931
O O17 0.000000 0.500000 0.000000
#
# Coordination Sequence:
#
# PCOD9102885 Si02
#       8
#     2   2   2   2   2   2   2   2
#     4  10  23  46  74  90 135 173 217 280 337 390
#     4  10  21  40  60  88 131 168 219 275 312 390
#     4  10  22  45  64 102 130 172 222 276 324 395
#     4  10  20  38  64  91 132 163 224 270 318 398
#     4  11  21  39  62  90 129 181 211 268 334 381
#     4  11  19  37  64  90 123 179 220 265 327 382
#     4  11  24  41  61  95 135 166 220 274 324 397
#     4  11  23  46  70  98 130 172 215 273 342 403
#
# _framework density 24.531448000000001
#
# number of rings (size 3 to 8) (size 9 to 14) (size 15 to 20)
#    0.000    1.500    3.750    1.875    0.000    2.000 
#   13.500    0.000    0.000    0.000    0.000    0.000 
#    0.000    0.000    0.000    0.000    0.000    0.000 
#
# Total GULP energy -89406.491020 kJ/mol
# GULP energy per Si atom -5587.905689 kJ/mol
# Density = 2.447561 g / cm^3
# Si number density = 24.531448 Si / 1000 Ang^3
#
#
#
# Elastic Constant Matrix: (Units=GPa)
#
#
# Indices 1 2 3 4 5 6 
#
# 1 127.0723 38.6540 25.9284 24.3374 12.9157 -4.7440
# 2 38.6540 147.7804 26.4109 27.4621 -11.2326 17.1148
# 3 25.9284 26.4109 81.2602 5.1630 20.6950 -11.3628
# 4 24.3374 27.4621 5.1630 47.2100 -4.8619 -12.6736
# 5 12.9157 -11.2326 20.6950 -4.8619 28.0033 7.5863
# 6 -4.7440 17.1148 -11.3628 -12.6736 7.5863 60.8163
#
#
#
# Elastic Compliance Matrix: (Units=1/GPa)
#
#
# Indices 1 2 3 4 5 6 
#
# 1 0.010198 -0.002528 -0.000297 -0.004049 -0.006588 0.001429
# 2 -0.002528 0.011237 -0.006408 -0.005257 0.011413 -0.007076
# 3 -0.000297 -0.006408 0.020528 0.001889 -0.019564 0.008449
# 4 -0.004049 -0.005257 0.001889 0.028195 0.001299 0.007230
# 5 -0.006588 0.011413 -0.019564 0.001299 0.062033 -0.014848
# 6 0.001429 -0.007076 0.008449 0.007230 -0.014848 0.023483
#
#
# Mechanical properties :
#
#
# Convention : Reuss Voigt Hill
#
# Bulk Modulus (GPa) = 42.55979 59.78881 51.17430
# Shear Modulus (GPa) = 27.47687 44.88058 36.17872
#
# Velocity S-wave (km/s) = 3.35037 4.28192 3.84447
# Velocity P-wave (km/s) = 5.68800 6.99083 6.37280
#
# Compressibility (1/GPa) = 0.02349636
#
# Stress axis : x y z
#
# Youngs Moduli (GPa) = 98.06253 88.99181 48.71483
#
# Poissons Ratio (x) = 0.22498 0.01448
# Poissons Ratio (y) = 0.24792 0.31214
# Poissons Ratio (z) = 0.02915 0.57022
#
# Static dielectric constant tensor:
#      x y z
#    x 1.999780 -0.027050 0.012450 
#    y -0.027050 1.974400 -0.008620 
#    z 0.012450 -0.008620 2.001170 
# 
# From -- ./inp_files/317797.got.cif
#   From: 2010.05.17/outbox.cif.g08.bks.cpg/sg2_159_cif.got.tgz:317797.got - 2010.06.03 11:33:40.
