data_PCOD9102311
_publ_section_title
;
Structure prediction by ZEFSAII (Michael W. Deem and Ramdas Pophale) SiO2 
 PCOD9102311
Probable space group: P -1
;
_chemical_formula_sum "Si O2"
_cell_formula_units_Z 16
_cell_length_a 9.347298
_cell_length_b 16.118315
_cell_length_c 14.984955
_cell_angle_alpha 36.660215
_cell_angle_beta 104.594350
_cell_angle_gamma 132.476491
_cell_volume 748.715845
_symmetry_space_group_name_H-M "P -1"
_symmetry_group_IT_number 2
_symmetry_cell_setting 'triclinic'
loop_
_space_group_symop_operation_xyz
x,y,z
-x,-y,-z
loop_
_atom_site_type_symbol
_atom_site_label
_atom_site_fract_x
_atom_site_fract_y
_atom_site_fract_z
Si Si1 0.640570 0.942064 0.319768
Si Si2 0.835401 0.794672 0.546468
Si Si3 0.740581 0.501793 0.483506
Si Si4 0.382518 0.801840 0.581649
Si Si5 0.835297 0.282543 0.911448
Si Si6 0.456374 0.352886 0.742723
Si Si7 0.378618 0.291443 0.226102
Si Si8 0.755688 0.083922 0.878122
O O1 0.761005 0.889480 0.415875
O O2 0.402475 0.716943 0.413434
O O3 0.536894 0.936923 0.396273
O O4 0.836635 0.175439 0.086516
O O5 0.660184 0.549730 0.680090
O O6 0.755148 0.731681 0.691782
O O7 0.139150 0.019097 0.383489
O O8 0.614568 0.399110 0.648846
O O9 0.664918 0.597081 0.354195
O O10 0.043829 0.715521 0.338486
O O11 0.434410 0.682973 0.726855
O O12 0.075808 0.570489 0.714386
O O13 0.500000 0.000000 0.500000
O O14 0.848167 0.219397 0.870457
O O15 0.542776 0.113392 0.016099
O O16 0.241900 0.080413 0.974070
O O17 0.500000 0.500000 0.000000
#
# Coordination Sequence:
#
# PCOD9102311 Si02
#       8
#     2   2   2   2   2   2   2   2
#     4  10  20  42  64  85 127 166 202 255 314 376
#     4   9  21  38  63  91 121 159 204 262 310 365
#     4  10  20  38  62  91 121 166 199 253 320 363
#     4  11  25  43  66  91 124 166 213 263 312 373
#     4  11  24  40  62  89 125 169 207 253 307 376
#     4  10  21  37  61  92 126 153 206 260 306 374
#     4  10  21  42  66  90 121 163 209 260 315 368
#     4  11  23  38  60  93 126 164 208 251 303 379
#
# _framework density 21.369923
#
# number of rings (size 3 to 8) (size 9 to 14) (size 15 to 20)
#    0.000    1.750    2.500    1.125    1.750    3.000 
#    2.250    0.000    0.000    0.000    0.000    0.000 
#    0.000    0.000    0.000    0.000    0.000    0.000 
#
# Total GULP energy -89367.548041 kJ/mol
# GULP energy per Si atom -5585.471753 kJ/mol
# Density = 2.132128 g / cm^3
# Si number density = 21.369923 Si / 1000 Ang^3
#
#
#
# Elastic Constant Matrix: (Units=GPa)
#
#
# Indices 1 2 3 4 5 6 
#
# 1 51.4903 24.9198 21.4547 -6.8062 -9.6083 -0.5591
# 2 24.9198 95.1539 31.9940 -21.6388 -12.6544 -16.2580
# 3 21.4547 31.9940 96.5655 -5.4641 -15.7174 5.3800
# 4 -6.8062 -21.6388 -5.4641 38.6387 6.3681 -0.3493
# 5 -9.6083 -12.6544 -15.7174 6.3681 30.2641 -3.8618
# 6 -0.5591 -16.2580 5.3800 -0.3493 -3.8618 28.9514
#
#
#
# Elastic Compliance Matrix: (Units=1/GPa)
#
#
# Indices 1 2 3 4 5 6 
#
# 1 0.023737 -0.004826 -0.002977 0.000432 0.003729 -0.001196
# 2 -0.004826 0.017288 -0.004300 0.007792 0.003219 0.010937
# 3 -0.002977 -0.004300 0.013229 -0.001750 0.003930 -0.004427
# 4 0.000432 0.007792 -0.001750 0.030672 -0.003376 0.004629
# 5 0.003729 0.003219 0.003930 -0.003376 0.039132 0.006329
# 6 -0.001196 0.010937 -0.004427 0.004629 0.006329 0.042382
#
#
# Mechanical properties :
#
#
# Convention : Reuss Voigt Hill
#
# Bulk Modulus (GPa) = 33.27942 44.43851 38.85897
# Shear Modulus (GPa) = 24.91763 30.56025 27.73894
#
# Velocity S-wave (km/s) = 3.41840 3.78571 3.60674
# Velocity P-wave (km/s) = 5.58457 6.32051 5.96390
#
# Compressibility (1/GPa) = 0.03004860
#
# Stress axis : x y z
#
# Youngs Moduli (GPa) = 42.12831 57.84446 75.59021
#
# Poissons Ratio (x) = 0.27913 0.22504
# Poissons Ratio (y) = 0.20329 0.32505
# Poissons Ratio (z) = 0.12542 0.24874
#
# Static dielectric constant tensor:
#      x y z
#    x 1.814460 0.044140 0.020080 
#    y 0.044140 1.780030 0.006610 
#    z 0.020080 0.006610 1.748280 
# 
# From -- ./inp_files/315054.got.cif
#   From: 2010.05.17/outbox.cif.g08.bks.cpg/sg2_158_cif.got.tgz:315054.got - 2010.06.03 11:33:40.
