data_PCOD9102152
_publ_section_title
;
Structure prediction by ZEFSAII (Michael W. Deem and Ramdas Pophale) SiO2 
 PCOD9102152
Probable space group: P -1
;
_chemical_formula_sum "Si O2"
_cell_formula_units_Z 16
_cell_length_a 10.997577
_cell_length_b 13.174835
_cell_length_c 15.006856
_cell_angle_alpha 53.525292
_cell_angle_beta 153.603182
_cell_angle_gamma 113.070386
_cell_volume 714.669950
_symmetry_space_group_name_H-M "P -1"
_symmetry_group_IT_number 2
_symmetry_cell_setting 'triclinic'
loop_
_space_group_symop_operation_xyz
x,y,z
-x,-y,-z
loop_
_atom_site_type_symbol
_atom_site_label
_atom_site_fract_x
_atom_site_fract_y
_atom_site_fract_z
Si Si1 0.255701 0.638902 0.361502
Si Si2 0.673569 0.172737 0.423726
Si Si3 0.664275 0.822770 0.981001
Si Si4 0.910065 0.625090 0.781438
Si Si5 0.266928 0.333685 0.547469
Si Si6 0.908233 0.691456 0.929515
Si Si7 0.033824 0.350240 0.576023
Si Si8 0.331521 0.964585 0.993471
O O1 0.572299 0.646048 0.573850
O O2 0.291055 0.481924 0.481920
O O3 0.992872 0.742139 0.195836
O O4 0.147675 0.679872 0.168105
O O5 0.554375 0.178453 0.241216
O O6 0.400560 0.192618 0.300409
O O7 0.770214 0.298571 0.445102
O O8 0.978323 0.040486 0.705328
O O9 0.608606 0.970358 0.908504
O O10 0.687640 0.741389 0.131536
O O11 0.888985 0.679773 0.639659
O O12 0.996747 0.697455 0.882451
O O13 0.100298 0.461462 0.989937
O O14 0.070563 0.338233 0.501346
O O15 0.549509 0.195775 0.825759
O O16 0.000000 0.500000 0.500000
O O17 0.500000 0.000000 0.000000
#
# Coordination Sequence:
#
# PCOD9102152 Si02
#       8
#     2   2   2   2   2   2   2   2
#     4  10  20  40  64  87 119 155 198 246 300 355
#     4  10  22  40  61  84 121 163 200 241 297 361
#     4  10  21  40  64  85 118 164 198 241 304 352
#     4  10  20  38  62  86 125 152 191 252 304 343
#     4  11  21  37  59  91 119 154 203 240 297 360
#     4   9  19  36  59  89 111 153 197 239 294 354
#     4  11  21  38  58  91 124 151 198 251 302 356
#     4  11  22  41  58  83 127 161 200 245 293 359
#
# _framework density 22.387955000000002
#
# number of rings (size 3 to 8) (size 9 to 14) (size 15 to 20)
#    0.000    1.750    3.750    3.000    0.000    1.000 
#    0.000    7.500    0.000    5.250    0.000    0.000 
#    0.000    0.000    0.000    0.000    0.000    0.000 
#
# Total GULP energy -89273.981370 kJ/mol
# GULP energy per Si atom -5579.623836 kJ/mol
# Density = 2.233700 g / cm^3
# Si number density = 22.387955 Si / 1000 Ang^3
#
#
#
# Elastic Constant Matrix: (Units=GPa)
#
#
# Indices 1 2 3 4 5 6 
#
# 1 92.0390 23.8993 36.9334 5.1510 -24.8167 -36.0049
# 2 23.8993 88.5005 29.6568 14.2328 -1.8706 -21.0199
# 3 36.9334 29.6568 96.3307 17.0085 1.2504 -23.7738
# 4 5.1510 14.2328 17.0085 36.2231 -22.8397 -10.3259
# 5 -24.8167 -1.8706 1.2504 -22.8397 38.9187 6.4531
# 6 -36.0049 -21.0199 -23.7738 -10.3259 6.4531 27.2488
#
#
#
# Elastic Compliance Matrix: (Units=1/GPa)
#
#
# Indices 1 2 3 4 5 6 
#
# 1 0.055032 -0.001861 -0.014564 0.053919 0.056220 0.065692
# 2 -0.001861 0.014673 -0.000871 -0.006558 -0.005447 0.006904
# 3 -0.014564 -0.000871 0.018730 -0.022009 -0.021724 -0.006770
# 4 0.053919 -0.006558 -0.022009 0.106102 0.085958 0.066835
# 5 0.056220 -0.005447 -0.021724 0.085958 0.102574 0.059413
# 6 0.065692 0.006904 -0.006770 0.066835 0.059413 0.134176
#
#
# Mechanical properties :
#
#
# Convention : Reuss Voigt Hill
#
# Bulk Modulus (GPa) = 18.57270 50.87213 34.72241
# Shear Modulus (GPa) = 10.33426 32.90350 21.61888
#
# Velocity S-wave (km/s) = 2.15082 3.83782 3.11086
# Velocity P-wave (km/s) = 3.80551 6.51236 5.33351
#
# Compressibility (1/GPa) = 0.05384248
#
# Stress axis : x y z
#
# Youngs Moduli (GPa) = 18.17136 68.15061 53.39004
#
# Poissons Ratio (x) = 0.12685 0.77756
# Poissons Ratio (y) = 0.03382 0.04651
# Poissons Ratio (z) = 0.26464 0.05937
#
# Static dielectric constant tensor:
#      x y z
#    x 1.886420 0.004960 0.003380 
#    y 0.004960 1.889220 -0.034150 
#    z 0.003380 -0.034150 1.842970 
# 
# From -- ./inp_files/520830.got.cif
#   From: 2010.05.17/outbox.cif.g08.bks.cpg/sg2_261_cif.got.tgz:520830.got - 2010.06.03 11:33:40.
