data_PCOD9102174
_publ_section_title
;
Structure prediction by ZEFSAII (Michael W. Deem and Ramdas Pophale) SiO2 
 PCOD9102174
Probable space group: P -1
;
_chemical_formula_sum "Si O2"
_cell_formula_units_Z 14
_cell_length_a 14.209814
_cell_length_b 12.105002
_cell_length_c 13.006011
_cell_angle_alpha 142.382055
_cell_angle_beta 30.745318
_cell_angle_gamma 135.341981
_cell_volume 694.746617
_symmetry_space_group_name_H-M "P -1"
_symmetry_group_IT_number 2
_symmetry_cell_setting 'triclinic'
loop_
_space_group_symop_operation_xyz
x,y,z
-x,-y,-z
loop_
_atom_site_type_symbol
_atom_site_label
_atom_site_fract_x
_atom_site_fract_y
_atom_site_fract_z
Si Si1 0.252758 0.383148 0.113945
Si Si2 0.370006 0.984742 0.710751
Si Si3 0.467637 0.713693 0.585714
Si Si4 0.135539 0.422887 0.616068
Si Si5 0.717016 0.483363 0.050978
Si Si6 0.440556 0.199371 0.202839
Si Si7 0.832961 0.363517 0.460007
O O1 0.302149 0.558627 0.270865
O O2 0.031229 0.342213 0.306040
O O3 0.283576 0.442493 0.010118
O O4 0.323188 0.188553 0.925814
O O5 0.443387 0.898306 0.682212
O O6 0.221488 0.822967 0.688307
O O7 0.500000 0.000000 0.500000
O O8 0.280909 0.576727 0.645040
O O9 0.638119 0.631590 0.308289
O O10 0.506885 0.729998 0.680421
O O11 0.227994 0.236704 0.410903
O O12 0.147517 0.477210 0.525358
O O13 0.922076 0.435545 0.853853
O O14 0.566142 0.312877 0.084268
O O15 0.500000 0.000000 0.000000
#
# Coordination Sequence:
#
# PCOD9102174 Si02
#       7
#     2   2   2   2   2   2   2
#     4  10  20  38  62  87 120 155 195 245 291 350
#     4  11  21  36  59  89 120 155 193 236 299 356
#     4  10  22  40  58  88 116 151 199 242 288 348
#     4   9  20  40  63  83 114 158 194 242 294 343
#     4  10  20  41  63  84 115 154 200 237 293 352
#     4  11  25  39  58  87 120 150 195 247 293 352
#     4   9  21  37  59  90 119 154 197 242 293 350
#
# _framework density 20.151233000000001
#
# number of rings (size 3 to 8) (size 9 to 14) (size 15 to 20)
#    0.000    2.000    1.429    2.143    2.000    4.571 
#    0.000    0.000    0.000    0.000    0.000    0.000 
#    0.000    0.000    0.000    0.000    0.000    0.000 
#
# Total GULP energy -78034.677120 kJ/mol
# GULP energy per Si atom -5573.905509 kJ/mol
# Density = 2.010537 g / cm^3
# Si number density = 20.151233 Si / 1000 Ang^3
#
#
#
# Elastic Constant Matrix: (Units=GPa)
#
#
# Indices 1 2 3 4 5 6 
#
# 1 54.3339 12.6166 28.0382 13.3552 -21.5129 -1.7238
# 2 12.6166 71.5169 45.2797 21.9475 -17.3845 -20.6484
# 3 28.0382 45.2797 121.2946 20.5384 -20.6944 -0.8325
# 4 13.3552 21.9475 20.5384 34.0009 -8.2390 -8.6844
# 5 -21.5129 -17.3845 -20.6944 -8.2390 41.5868 6.0147
# 6 -1.7238 -20.6484 -0.8325 -8.6844 6.0147 24.2786
#
#
#
# Elastic Compliance Matrix: (Units=1/GPa)
#
#
# Indices 1 2 3 4 5 6 
#
# 1 0.025992 0.002177 -0.003694 -0.007083 0.011372 -0.001780
# 2 0.002177 0.028527 -0.009021 -0.007624 0.004107 0.020363
# 3 -0.003694 -0.009021 0.013103 -0.002491 0.001614 -0.008776
# 4 -0.007083 -0.007624 -0.002491 0.040275 -0.001216 0.007635
# 5 0.011372 0.004107 0.001614 -0.001216 0.032817 -0.004209
# 6 -0.001780 0.020363 -0.008776 0.007635 -0.004209 0.061853
#
#
# Mechanical properties :
#
#
# Convention : Reuss Voigt Hill
#
# Bulk Modulus (GPa) = 21.48366 46.55716 34.02041
# Shear Modulus (GPa) = 20.90664 30.72065 25.81364
#
# Velocity S-wave (km/s) = 3.22450 3.90873 3.58298
# Velocity P-wave (km/s) = 4.95455 6.59734 5.83406
#
# Compressibility (1/GPa) = 0.04654700
#
# Stress axis : x y z
#
# Youngs Moduli (GPa) = 38.47272 35.05397 76.31907
#
# Poissons Ratio (x) = -0.07632 0.28191
# Poissons Ratio (y) = -0.08376 0.68849
# Poissons Ratio (z) = 0.14211 0.31623
#
# Static dielectric constant tensor:
#      x y z
#    x 1.767840 0.065290 0.000690 
#    y 0.065290 1.773350 0.034910 
#    z 0.000690 0.034910 1.754720 
# 
# From -- ./inp_files/253893.got.cif
#   From: 2010.05.17/outbox.cif.g08.bks.cpg/sg2_127_cif.got.tgz:253893.got - 2010.06.03 11:33:40.
