data_PCOD9102504
_publ_section_title
;
Structure prediction by ZEFSAII (Michael W. Deem and Ramdas Pophale) SiO2 
 PCOD9102504
Probable space group: P -1
;
_chemical_formula_sum "Si O2"
_cell_formula_units_Z 16
_cell_length_a 19.183506
_cell_length_b 16.779791
_cell_length_c 26.116236
_cell_angle_alpha 18.457477
_cell_angle_beta 160.623797
_cell_angle_gamma 151.533564
_cell_volume 873.059606
_symmetry_space_group_name_H-M "P -1"
_symmetry_group_IT_number 2
_symmetry_cell_setting 'triclinic'
loop_
_space_group_symop_operation_xyz
x,y,z
-x,-y,-z
loop_
_atom_site_type_symbol
_atom_site_label
_atom_site_fract_x
_atom_site_fract_y
_atom_site_fract_z
Si Si1 0.857700 0.933201 0.789699
Si Si2 0.930561 0.684012 0.101963
Si Si3 0.303431 0.822267 0.122582
Si Si4 0.647586 0.156783 0.660991
Si Si5 0.978272 0.097442 0.483800
Si Si6 0.624498 0.782862 0.462181
Si Si7 0.543582 0.045766 0.061698
Si Si8 0.501885 0.354074 0.329582
O O1 0.710855 0.744706 0.777455
O O2 0.699649 0.192233 0.534948
O O3 0.941273 0.809994 0.976769
O O4 0.065077 0.959437 0.884505
O O5 0.152535 0.700572 0.273841
O O6 0.892068 0.396779 0.244046
O O7 0.747788 0.866908 0.893840
O O8 0.463722 0.868171 0.251714
O O9 0.299694 0.519259 0.305972
O O10 0.399825 0.905027 0.085943
O O11 0.497901 0.171037 0.597421
O O12 0.534238 0.279825 0.456839
O O13 0.211571 0.055902 0.694772
O O14 0.000000 0.000000 0.500000
O O15 0.821229 0.934982 0.502065
O O16 0.505570 0.346513 0.864162
O O17 0.500000 0.000000 0.000000
#
# Coordination Sequence:
#
# PCOD9102504 Si02
#       8
#     2   2   2   2   2   2   2   2
#     4  10  21  39  64  88 117 158 197 243 293 355
#     4  10  20  38  63  88 120 156 200 242 295 351
#     4  11  22  38  61  89 119 155 201 246 294 354
#     4  10  21  39  63  88 119 158 195 244 296 354
#     4  12  23  38  62  90 120 157 201 250 291 348
#     4  11  22  37  61  91 119 152 201 251 295 344
#     4  12  25  40  60  88 123 159 194 243 302 356
#     4  10  22  40  61  88 122 157 193 238 300 359
#
# _framework density 18.326353000000001
#
# number of rings (size 3 to 8) (size 9 to 14) (size 15 to 20)
#    0.000    1.250    2.500    4.500    0.000    2.000 
#    0.000    2.500    0.000    0.000    0.000    0.000 
#    0.000    0.000    0.000    0.000    0.000    0.000 
#
# Total GULP energy -89436.823592 kJ/mol
# GULP energy per Si atom -5589.801474 kJ/mol
# Density = 1.828464 g / cm^3
# Si number density = 18.326353 Si / 1000 Ang^3
#
#
#
# Elastic Constant Matrix: (Units=GPa)
#
#
# Indices 1 2 3 4 5 6 
#
# 1 60.6921 -11.5000 7.2118 12.0059 13.2944 3.3340
# 2 -11.5000 44.2647 17.9296 -8.8982 4.9194 -3.2578
# 3 7.2118 17.9296 52.2568 -2.3162 5.9360 4.7949
# 4 12.0059 -8.8982 -2.3162 38.7936 -0.7163 -3.7943
# 5 13.2944 4.9194 5.9360 -0.7163 21.6931 9.7972
# 6 3.3340 -3.2578 4.7949 -3.7943 9.7972 33.7972
#
#
#
# Elastic Compliance Matrix: (Units=1/GPa)
#
#
# Indices 1 2 3 4 5 6 
#
# 1 0.023357 0.009145 -0.005018 -0.005393 -0.016797 0.003553
# 2 0.009145 0.032637 -0.011491 0.004532 -0.013452 0.008282
# 3 -0.005018 -0.011491 0.024047 -0.000052 0.001058 -0.004337
# 4 -0.005393 0.004532 -0.000052 0.028880 0.001542 0.003772
# 5 -0.016797 -0.013452 0.001058 0.001542 0.067923 -0.019306
# 6 0.003553 0.008282 -0.004337 0.003772 -0.019306 0.036671
#
#
# Mechanical properties :
#
#
# Convention : Reuss Voigt Hill
#
# Bulk Modulus (GPa) = 15.31109 20.49962 17.90536
# Shear Modulus (GPa) = 19.99880 28.42827 24.21353
#
# Velocity S-wave (km/s) = 3.30701 3.94283 3.63883
# Velocity P-wave (km/s) = 4.79109 5.65137 5.23892
#
# Compressibility (1/GPa) = 0.06531212
#
# Stress axis : x y z
#
# Youngs Moduli (GPa) = 42.81423 30.63981 41.58535
#
# Poissons Ratio (x) = -0.28019 0.20868
# Poissons Ratio (y) = -0.39153 0.47786
# Poissons Ratio (z) = 0.21484 0.35209
#
# Static dielectric constant tensor:
#      x y z
#    x 1.607310 -0.014730 0.010750 
#    y -0.014730 1.609670 -0.007450 
#    z 0.010750 -0.007450 1.630420 
# 
# From -- ./inp_files/185071.got.cif
#   From: 2010.05.17/outbox.cif.g08.bks.cpg/sg2_93_cif.got.tgz:185071.got - 2010.06.03 11:33:40.
