data_PCOD9102698
_publ_section_title
;
Structure prediction by ZEFSAII (Michael W. Deem and Ramdas Pophale) SiO2 
 PCOD9102698
Probable space group: P -1
;
_chemical_formula_sum "Si O2"
_cell_formula_units_Z 14
_cell_length_a 8.998440
_cell_length_b 15.195902
_cell_length_c 10.614107
_cell_angle_alpha 116.120917
_cell_angle_beta 129.854205
_cell_angle_gamma 102.577059
_cell_volume 688.756939
_symmetry_space_group_name_H-M "P -1"
_symmetry_group_IT_number 2
_symmetry_cell_setting 'triclinic'
loop_
_space_group_symop_operation_xyz
x,y,z
-x,-y,-z
loop_
_atom_site_type_symbol
_atom_site_label
_atom_site_fract_x
_atom_site_fract_y
_atom_site_fract_z
Si Si1 0.833529 0.940403 0.234240
Si Si2 0.603200 0.149077 0.643367
Si Si3 0.283253 0.721886 0.937318
Si Si4 0.158321 0.279703 0.913516
Si Si5 0.662732 0.574226 0.502960
Si Si6 0.759236 0.807408 0.572764
Si Si7 0.441351 0.366096 0.890055
O O1 0.853099 0.837353 0.121158
O O2 0.509990 0.841931 0.033551
O O3 0.000000 0.000000 0.500000
O O4 0.965125 0.059531 0.274337
O O5 0.401409 0.149965 0.459798
O O6 0.906978 0.252745 0.810671
O O7 0.500000 0.000000 0.500000
O O8 0.627286 0.197884 0.829549
O O9 0.342962 0.627473 0.919482
O O10 0.959506 0.627929 0.685157
O O11 0.442753 0.441420 0.205258
O O12 0.156449 0.261134 0.750924
O O13 0.500000 0.500000 0.500000
O O14 0.749351 0.720758 0.620317
O O15 0.583514 0.686941 0.293982
O O16 0.500000 0.500000 0.000000
#
# Coordination Sequence:
#
# PCOD9102698 Si02
#       7
#     2   2   2   2   2   2   2
#     4  11  19  40  67  96 119 157 215 277 310 358
#     4  11  20  38  67  97 119 165 212 264 315 362
#     4  10  23  39  65  87 135 166 202 262 322 371
#     4  11  21  37  67  90 129 160 209 262 322 361
#     4  12  26  43  58  93 139 175 201 253 319 392
#     4  11  23  39  67  95 127 163 215 264 315 370
#     4  10  20  38  63  97 115 156 219 269 302 363
#
# _framework density 20.326474999999999
#
# number of rings (size 3 to 8) (size 9 to 14) (size 15 to 20)
#    0.000    1.143    8.571    0.000    0.000    4.571 
#    0.000    2.857    0.000    0.000    0.000    0.000 
#    0.000    0.000    0.000    0.000    0.000    0.000 
#
# Total GULP energy -77935.200296 kJ/mol
# GULP energy per Si atom -5566.800021 kJ/mol
# Density = 2.028021 g / cm^3
# Si number density = 20.326475 Si / 1000 Ang^3
#
#
#
# Elastic Constant Matrix: (Units=GPa)
#
#
# Indices 1 2 3 4 5 6 
#
# 1 134.3753 56.2562 30.3752 5.3306 33.6502 -12.5472
# 2 56.2562 141.0417 33.4543 38.7868 18.7352 -6.3715
# 3 30.3752 33.4543 61.3382 18.8616 28.1527 -5.5484
# 4 5.3306 38.7868 18.8616 24.5579 -2.2144 -7.5248
# 5 33.6502 18.7352 28.1527 -2.2144 48.1647 8.1651
# 6 -12.5472 -6.3715 -5.5484 -7.5248 8.1651 33.4666
#
#
#
# Elastic Compliance Matrix: (Units=1/GPa)
#
#
# Indices 1 2 3 4 5 6 
#
# 1 0.012158 -0.006294 -0.003412 0.011499 -0.004626 0.006509
# 2 -0.006294 0.018454 0.007198 -0.035133 -0.007993 -0.003602
# 3 -0.003412 0.007198 0.039109 -0.041938 -0.025786 0.003437
# 4 0.011499 -0.035133 -0.041938 0.132736 0.034184 0.012175
# 5 -0.004626 -0.007993 -0.025786 0.034184 0.045607 -0.010972
# 6 0.006509 -0.003602 0.003437 0.012175 -0.010972 0.037619
#
#
# Mechanical properties :
#
#
# Convention : Reuss Voigt Hill
#
# Bulk Modulus (GPa) = 15.45472 64.10295 39.77884
# Shear Modulus (GPa) = 16.01192 35.68247 25.84719
#
# Velocity S-wave (km/s) = 2.80971 4.19438 3.56982
# Velocity P-wave (km/s) = 4.25978 7.42039 6.05012
#
# Compressibility (1/GPa) = 0.06470514
#
# Stress axis : x y z
#
# Youngs Moduli (GPa) = 82.24925 54.18957 25.56964
#
# Poissons Ratio (x) = 0.34106 0.08724
# Poissons Ratio (y) = 0.51767 -0.18405
# Poissons Ratio (z) = 0.28063 -0.39006
#
# Static dielectric constant tensor:
#      x y z
#    x 1.758990 0.014180 -0.031920 
#    y 0.014180 1.861560 0.051180 
#    z -0.031920 0.051180 1.824810 
# 
# From -- ./inp_files/167847.got.cif
#   From: 2010.05.17/outbox.cif.g08.bks.cpg/sg2_84_cif.got.tgz:167847.got - 2010.06.03 11:33:40.
