data_PCOD9102521
_publ_section_title
;
Structure prediction by ZEFSAII (Michael W. Deem and Ramdas Pophale) SiO2 
 PCOD9102521
Probable space group: P -1
;
_chemical_formula_sum "Si O2"
_cell_formula_units_Z 14
_cell_length_a 11.324783
_cell_length_b 18.231448
_cell_length_c 8.009556
_cell_angle_alpha 140.865353
_cell_angle_beta 135.796147
_cell_angle_gamma 32.646216
_cell_volume 553.086075
_symmetry_space_group_name_H-M "P -1"
_symmetry_group_IT_number 2
_symmetry_cell_setting 'triclinic'
loop_
_space_group_symop_operation_xyz
x,y,z
-x,-y,-z
loop_
_atom_site_type_symbol
_atom_site_label
_atom_site_fract_x
_atom_site_fract_y
_atom_site_fract_z
Si Si1 0.970877 0.873060 0.491122
Si Si2 0.395966 0.318864 0.931954
Si Si3 0.464180 0.064978 0.391349
Si Si4 0.684803 0.595743 0.474968
Si Si5 0.296312 0.623460 0.638928
Si Si6 0.654174 0.121784 0.177354
Si Si7 0.073167 0.601222 0.941734
O O1 0.075389 0.765453 0.572413
O O2 0.103421 0.933633 0.710530
O O3 0.707555 0.991891 0.445292
O O4 0.036524 0.752438 0.200842
O O5 0.178415 0.495984 0.028777
O O6 0.334569 0.241033 0.608457
O O7 0.600609 0.305935 0.050212
O O8 0.487976 0.232439 0.050126
O O9 0.500000 0.000000 0.500000
O O10 0.358245 0.012006 0.076438
O O11 0.726668 0.474508 0.436546
O O12 0.447917 0.761680 0.565246
O O13 0.747181 0.506180 0.207790
O O14 0.852173 0.629241 0.727404
O O15 0.500000 0.500000 0.500000
#
# Coordination Sequence:
#
# PCOD9102521 Si02
#       7
#     2   2   2   2   2   2   2
#     4  11  21  39  65  89 123 157 204 248 310 349
#     4  10  21  39  57  92 120 154 203 244 305 352
#     4  10  23  38  59  90 127 160 198 251 301 362
#     4  11  22  37  60  95 123 153 212 244 310 357
#     4  11  20  36  62  96 116 151 203 256 297 361
#     4  10  20  38  63  89 120 160 201 249 296 366
#     4  11  23  37  63  89 122 166 196 257 298 365
#
# _framework density 25.312515999999999
#
# number of rings (size 3 to 8) (size 9 to 14) (size 15 to 20)
#    0.000    1.429    5.714    0.000    4.000    8.571 
#    0.000    0.714    0.000    1.714    0.000    0.000 
#    0.000    0.000    0.000    0.000    0.000    0.000 
#
# Total GULP energy -78326.542283 kJ/mol
# GULP energy per Si atom -5594.753020 kJ/mol
# Density = 2.525490 g / cm^3
# Si number density = 25.312516 Si / 1000 Ang^3
#
#
#
# Elastic Constant Matrix: (Units=GPa)
#
#
# Indices 1 2 3 4 5 6 
#
# 1 89.0898 22.5804 35.5659 -1.2251 -0.7291 -5.6107
# 2 22.5804 39.6509 -2.0968 -4.3578 0.9792 -0.8916
# 3 35.5659 -2.0968 85.3940 9.6118 14.6910 -6.1426
# 4 -1.2251 -4.3578 9.6118 28.4994 4.1826 -7.0738
# 5 -0.7291 0.9792 14.6910 4.1826 29.0074 2.3536
# 6 -5.6107 -0.8916 -6.1426 -7.0738 2.3536 28.1820
#
#
#
# Elastic Compliance Matrix: (Units=1/GPa)
#
#
# Indices 1 2 3 4 5 6 
#
# 1 0.017279 -0.010185 -0.008337 0.001642 0.004656 0.001324
# 2 -0.010185 0.031866 0.005547 0.003640 -0.004788 0.001503
# 3 -0.008337 0.005547 0.017399 -0.003540 -0.008874 0.002161
# 4 0.001642 0.003640 -0.003540 0.040150 -0.004902 0.010158
# 5 0.004656 -0.004788 -0.008874 -0.004902 0.040422 -0.005765
# 6 0.001324 0.001503 0.002161 0.010158 -0.005765 0.039297
#
#
# Mechanical properties :
#
#
# Convention : Reuss Voigt Hill
#
# Bulk Modulus (GPa) = 24.63536 36.24820 30.44178
# Shear Modulus (GPa) = 22.13417 27.67677 24.90547
#
# Velocity S-wave (km/s) = 2.96029 3.31025 3.14015
# Velocity P-wave (km/s) = 4.63013 5.38161 5.01995
#
# Compressibility (1/GPa) = 0.04059205
#
# Stress axis : x y z
#
# Youngs Moduli (GPa) = 57.87510 31.38155 57.47294
#
# Poissons Ratio (x) = 0.31963 0.47916
# Poissons Ratio (y) = 0.58948 -0.31878
# Poissons Ratio (z) = 0.48252 -0.17406
#
# Static dielectric constant tensor:
#      x y z
#    x 2.035440 0.044950 -0.023970 
#    y 0.044950 1.962060 -0.015100 
#    z -0.023970 -0.015100 2.064010 
# 
# From -- ./inp_files/154799.got.cif
#   From: 2010.05.17/outbox.cif.g08.bks.cpg/sg2_78_cif.got.tgz:154799.got - 2010.06.03 11:33:40.
