data_PCOD9102490
_publ_section_title
;
Structure prediction by ZEFSAII (Michael W. Deem and Ramdas Pophale) SiO2 
 PCOD9102490
Probable space group: P -1
;
_chemical_formula_sum "Si O2"
_cell_formula_units_Z 12
_cell_length_a 8.984872
_cell_length_b 7.952220
_cell_length_c 11.867573
_cell_angle_alpha 82.695697
_cell_angle_beta 139.005782
_cell_angle_gamma 111.971951
_cell_volume 498.746461
_symmetry_space_group_name_H-M "P -1"
_symmetry_group_IT_number 2
_symmetry_cell_setting 'triclinic'
loop_
_space_group_symop_operation_xyz
x,y,z
-x,-y,-z
loop_
_atom_site_type_symbol
_atom_site_label
_atom_site_fract_x
_atom_site_fract_y
_atom_site_fract_z
Si Si1 0.873921 0.704985 0.924534
Si Si2 0.601023 0.964135 0.773359
Si Si3 0.686659 0.293510 0.566962
Si Si4 0.727483 0.124779 0.198021
Si Si5 0.755054 0.510639 0.089367
Si Si6 0.759606 0.700241 0.591501
O O1 0.766739 0.521431 0.958360
O O2 0.169702 0.832539 0.100795
O O3 0.736180 0.826016 0.888919
O O4 0.822802 0.685493 0.762679
O O5 0.470193 0.877031 0.589048
O O6 0.378108 0.927153 0.734404
O O7 0.713975 0.501501 0.524885
O O8 0.492116 0.269274 0.559854
O O9 0.971348 0.319972 0.740256
O O10 0.772969 0.331305 0.167419
O O11 0.997531 0.128423 0.332344
O O12 0.500000 0.000000 0.000000
O O13 0.500000 0.500000 0.000000
#
# Coordination Sequence:
#
# PCOD9102490 Si02
#       6
#     2   2   2   2   2   2
#     4  10  20  38  63  87 120 159 199 240 302 358
#     4  10  20  38  63  88 118 162 198 238 297 367
#     4   9  21  37  59  90 118 159 196 248 297 353
#     4  11  21  38  64  91 120 158 204 243 292 359
#     4  11  23  39  62  91 120 155 203 254 296 350
#     4   9  19  38  60  88 119 159 199 242 293 361
#
# _framework density 24.060320000000001
#
# number of rings (size 3 to 8) (size 9 to 14) (size 15 to 20)
#    0.000    2.000    3.333    0.000    0.000    6.000 
#    3.000    0.000    0.000    2.000    0.000    0.000 
#    0.000    0.000    0.000    0.000    0.000    0.000 
#
# Total GULP energy -66924.682054 kJ/mol
# GULP energy per Si atom -5577.056838 kJ/mol
# Density = 2.400556 g / cm^3
# Si number density = 24.060320 Si / 1000 Ang^3
#
#
#
# Elastic Constant Matrix: (Units=GPa)
#
#
# Indices 1 2 3 4 5 6 
#
# 1 149.7261 25.8656 57.7298 8.8271 32.2626 30.8837
# 2 25.8656 44.9147 30.4682 11.3708 4.2099 12.3946
# 3 57.7298 30.4682 135.9317 15.1456 33.6295 4.7932
# 4 8.8271 11.3708 15.1456 28.0028 4.4976 2.5639
# 5 32.2626 4.2099 33.6295 4.4976 57.3896 5.8209
# 6 30.8837 12.3946 4.7932 2.5639 5.8209 37.9341
#
#
#
# Elastic Compliance Matrix: (Units=1/GPa)
#
#
# Indices 1 2 3 4 5 6 
#
# 1 0.010213 -0.001744 -0.002933 0.000223 -0.003212 -0.006896
# 2 -0.001744 0.031417 -0.005939 -0.008847 0.003666 -0.008060
# 3 -0.002933 -0.005939 0.011220 -0.002326 -0.004692 0.003788
# 4 0.000223 -0.008847 -0.002326 0.040665 -0.001347 0.000461
# 5 -0.003212 0.003666 -0.004692 -0.001347 0.021945 -0.001266
# 6 -0.006896 -0.008060 0.003788 0.000461 -0.001266 0.034294
#
#
# Mechanical properties :
#
#
# Convention : Reuss Voigt Hill
#
# Bulk Modulus (GPa) = 31.62687 62.07775 46.85231
# Shear Modulus (GPa) = 27.54452 39.09922 33.32187
#
# Velocity S-wave (km/s) = 3.38718 4.03556 3.72550
# Velocity P-wave (km/s) = 5.33579 6.89719 6.16611
#
# Compressibility (1/GPa) = 0.03161869
#
# Stress axis : x y z
#
# Youngs Moduli (GPa) = 97.91789 31.82959 89.12772
#
# Poissons Ratio (x) = 0.05550 0.26144
# Poissons Ratio (y) = 0.17073 0.52930
# Poissons Ratio (z) = 0.28723 0.18902
#
# Static dielectric constant tensor:
#      x y z
#    x 1.960050 -0.037760 0.077500 
#    y -0.037760 2.009700 0.000300 
#    z 0.077500 0.000300 1.969170 
# 
# From -- ./inp_files/155017.got.cif
#   From: 2010.05.17/outbox.cif.g08.bks.cpg/sg2_78_cif.got.tgz:155017.got - 2010.06.03 11:33:40.
