data_PCOD9102930
_publ_section_title
;
Structure prediction by ZEFSAII (Michael W. Deem and Ramdas Pophale) SiO2 
 PCOD9102930
Probable space group: P -1
;
_chemical_formula_sum "Si O2"
_cell_formula_units_Z 16
_cell_length_a 13.654059
_cell_length_b 10.930669
_cell_length_c 11.422051
_cell_angle_alpha 87.303517
_cell_angle_beta 42.779061
_cell_angle_gamma 121.317634
_cell_volume 666.789440
_symmetry_space_group_name_H-M "P -1"
_symmetry_group_IT_number 2
_symmetry_cell_setting 'triclinic'
loop_
_space_group_symop_operation_xyz
x,y,z
-x,-y,-z
loop_
_atom_site_type_symbol
_atom_site_label
_atom_site_fract_x
_atom_site_fract_y
_atom_site_fract_z
Si Si1 0.524975 0.394084 0.154762
Si Si2 0.963984 0.330435 0.526854
Si Si3 0.747916 0.059932 0.943601
Si Si4 0.823340 0.776728 0.326148
Si Si5 0.026622 0.872416 0.911104
Si Si6 0.540254 0.670245 0.036384
Si Si7 0.501682 0.104048 0.593639
Si Si8 0.025218 0.646792 0.744471
O O1 0.395966 0.327728 0.394728
O O2 0.623855 0.598882 0.021162
O O3 0.365069 0.250726 0.185202
O O4 0.730283 0.429520 0.989064
O O5 0.237593 0.460540 0.300124
O O6 0.877911 0.247332 0.473513
O O7 0.000000 0.500000 0.500000
O O8 0.773919 0.156001 0.800290
O O9 0.027716 0.219376 0.730339
O O10 0.614679 0.839736 0.037610
O O11 0.618978 0.025236 0.173030
O O12 0.991872 0.014394 0.146266
O O13 0.815549 0.718326 0.203807
O O14 0.027164 0.759382 0.829133
O O15 0.302655 0.064652 0.722909
O O16 0.791977 0.329369 0.362965
O O17 0.500000 0.000000 0.500000
#
# Coordination Sequence:
#
# PCOD9102930 Si02
#       8
#     2   2   2   2   2   2   2   2
#     4  10  21  38  59  93 135 158 201 265 302 369
#     4  11  24  41  62  96 130 156 210 261 306 382
#     4  11  22  40  71  90 121 175 199 252 328 363
#     4  10  20  38  64  93 123 164 208 256 310 364
#     4   9  20  38  64  91 120 163 217 255 299 375
#     4  10  22  39  60  97 131 160 206 252 309 380
#     4   9  20  41  63  86 123 162 217 257 298 369
#     4  10  21  39  60  87 126 164 200 256 312 363
#
# _framework density 23.995583
#
# number of rings (size 3 to 8) (size 9 to 14) (size 15 to 20)
#    0.000    2.000    1.250    1.500    1.750    3.000 
#    6.750    0.625    2.750    0.000    0.000    0.000 
#    0.000    0.000    0.000    0.000    0.000    0.000 
#
# Total GULP energy -89260.779726 kJ/mol
# GULP energy per Si atom -5578.798733 kJ/mol
# Density = 2.394097 g / cm^3
# Si number density = 23.995583 Si / 1000 Ang^3
#
#
#
# Elastic Constant Matrix: (Units=GPa)
#
#
# Indices 1 2 3 4 5 6 
#
# 1 81.4238 14.0329 50.0225 5.3516 2.8219 14.9128
# 2 14.0329 49.4425 30.9925 25.9301 27.1558 12.1041
# 3 50.0225 30.9925 105.9704 40.6418 15.2939 12.8753
# 4 5.3516 25.9301 40.6418 31.5801 14.7138 5.7090
# 5 2.8219 27.1558 15.2939 14.7138 49.9181 14.8878
# 6 14.9128 12.1041 12.8753 5.7090 14.8878 29.3638
#
#
#
# Elastic Compliance Matrix: (Units=1/GPa)
#
#
# Indices 1 2 3 4 5 6 
#
# 1 0.025812 -0.010660 -0.020151 0.029833 0.004022 -0.007718
# 2 -0.010660 0.049032 0.009991 -0.043606 -0.015419 -0.002883
# 3 -0.020151 0.009991 0.035164 -0.049903 -0.000565 0.000685
# 4 0.029833 -0.043606 -0.049903 0.126633 -0.000032 0.000101
# 5 0.004022 -0.015419 -0.000565 -0.000032 0.031826 -0.011570
# 6 -0.007718 -0.002883 0.000685 0.000101 -0.011570 0.044710
#
#
# Mechanical properties :
#
#
# Convention : Reuss Voigt Hill
#
# Bulk Modulus (GPa) = 14.62669 47.43696 31.03182
# Shear Modulus (GPa) = 13.24136 31.62500 22.43318
#
# Velocity S-wave (km/s) = 2.35164 3.63430 3.06091
# Velocity P-wave (km/s) = 3.67185 6.11742 5.04506
#
# Compressibility (1/GPa) = 0.06836817
#
# Stress axis : x y z
#
# Youngs Moduli (GPa) = 38.74225 20.39496 28.43846
#
# Poissons Ratio (x) = 0.21741 0.57305
# Poissons Ratio (y) = 0.41300 -0.28414
# Poissons Ratio (z) = 0.78068 -0.20377
#
# Static dielectric constant tensor:
#      x y z
#    x 1.932340 0.072030 -0.046320 
#    y 0.072030 1.905060 -0.014670 
#    z -0.046320 -0.014670 1.985510 
# 
# From -- ./inp_files/452350.got.cif
#   From: 2010.05.17/outbox.cif.g08.bks.cpg/sg2_227_cif.got.tgz:452350.got - 2010.06.03 11:33:40.
