data_PCOD9102240
_publ_section_title
;
Structure prediction by ZEFSAII (Michael W. Deem and Ramdas Pophale) SiO2 
 PCOD9102240
Probable space group: P -1
;
_chemical_formula_sum "Si O2"
_cell_formula_units_Z 16
_cell_length_a 9.458171
_cell_length_b 19.405373
_cell_length_c 12.937546
_cell_angle_alpha 150.030053
_cell_angle_beta 44.073195
_cell_angle_gamma 128.725421
_cell_volume 825.054960
_symmetry_space_group_name_H-M "P -1"
_symmetry_group_IT_number 2
_symmetry_cell_setting 'triclinic'
loop_
_space_group_symop_operation_xyz
x,y,z
-x,-y,-z
loop_
_atom_site_type_symbol
_atom_site_label
_atom_site_fract_x
_atom_site_fract_y
_atom_site_fract_z
Si Si1 0.962579 0.114117 0.755224
Si Si2 0.142715 0.228665 0.260534
Si Si3 0.335674 0.102032 0.807893
Si Si4 0.968948 0.091437 0.368643
Si Si5 0.342280 0.290488 0.849223
Si Si6 0.155311 0.616540 0.106310
Si Si7 0.588858 0.243431 0.011853
Si Si8 0.251042 0.597854 0.268874
O O1 0.760359 0.196937 0.940236
O O2 0.156443 0.216084 0.791908
O O3 0.950101 0.030119 0.759932
O O4 0.000000 0.000000 0.500000
O O5 0.099750 0.124297 0.241311
O O6 0.959278 0.334986 0.499577
O O7 0.156083 0.155956 0.047586
O O8 0.372289 0.287251 0.228950
O O9 0.367993 0.207467 0.834316
O O10 0.525444 0.112673 0.800406
O O11 0.254480 0.959310 0.619050
O O12 0.948393 0.233885 0.627334
O O13 0.552680 0.302981 0.691291
O O14 0.284867 0.449137 0.106955
O O15 0.322036 0.642568 0.964413
O O16 0.239799 0.578285 0.124854
O O17 0.000000 0.500000 0.000000
#
# Coordination Sequence:
#
# PCOD9102240 Si02
#       8
#     2   2   2   2   2   2   2   2
#     4  11  22  37  58  90 120 153 200 249 298 341
#     4   9  21  38  61  90 120 157 196 241 304 359
#     4   9  20  39  60  89 120 153 203 244 295 355
#     4  10  21  38  61  87 117 161 199 245 299 348
#     4  10  21  38  63  89 117 154 204 253 284 351
#     4  11  21  37  60  86 119 157 203 246 290 355
#     4  10  21  39  60  88 122 157 194 248 298 355
#     4  10  20  38  62  89 118 155 203 243 298 346
#
# _framework density 19.392647
#
# number of rings (size 3 to 8) (size 9 to 14) (size 15 to 20)
#    0.750    1.250    2.500    1.125    0.000    3.500 
#    0.000    5.625    0.000    0.000    0.000    0.000 
#    0.000    0.000    0.000    0.000    0.000    0.000 
#
# Total GULP energy -89219.509658 kJ/mol
# GULP energy per Si atom -5576.219354 kJ/mol
# Density = 1.934851 g / cm^3
# Si number density = 19.392647 Si / 1000 Ang^3
#
#
#
# Elastic Constant Matrix: (Units=GPa)
#
#
# Indices 1 2 3 4 5 6 
#
# 1 91.1455 45.5276 37.7263 -1.5165 -10.6146 22.8547
# 2 45.5276 153.1480 61.5460 -4.7379 -1.4240 15.3630
# 3 37.7263 61.5460 77.5011 -9.7066 -16.6293 4.2054
# 4 -1.5165 -4.7379 -9.7066 26.9452 10.4040 6.0112
# 5 -10.6146 -1.4240 -16.6293 10.4040 22.8571 -1.2641
# 6 22.8547 15.3630 4.2054 6.0112 -1.2641 38.9506
#
#
#
# Elastic Compliance Matrix: (Units=1/GPa)
#
#
# Indices 1 2 3 4 5 6 
#
# 1 0.016650 -0.001926 -0.005478 -0.000949 0.003608 -0.008155
# 2 -0.001926 0.011051 -0.009122 0.002292 -0.008044 -0.002859
# 3 -0.005478 -0.009122 0.026028 0.000317 0.015927 0.004470
# 4 -0.000949 0.002292 0.000317 0.048153 -0.022458 -0.008542
# 5 0.003608 -0.008044 0.015927 -0.022458 0.067009 0.004977
# 6 -0.008155 -0.002859 0.004470 -0.008542 0.004977 0.032583
#
#
# Mechanical properties :
#
#
# Convention : Reuss Voigt Hill
#
# Bulk Modulus (GPa) = 48.36142 67.93270 58.14706
# Shear Modulus (GPa) = 20.71084 29.55023 25.13054
#
# Velocity S-wave (km/s) = 3.27153 3.90780 3.60374
# Velocity P-wave (km/s) = 6.26600 7.44765 6.88223
#
# Compressibility (1/GPa) = 0.02067764
#
# Stress axis : x y z
#
# Youngs Moduli (GPa) = 60.05977 90.48910 38.41980
#
# Poissons Ratio (x) = 0.17430 0.21045
# Poissons Ratio (y) = 0.11568 0.35047
# Poissons Ratio (z) = 0.32898 0.82546
#
# Static dielectric constant tensor:
#      x y z
#    x 1.701010 0.021520 0.002800 
#    y 0.021520 1.693720 -0.007090 
#    z 0.002800 -0.007090 1.687040 
# 
# From -- ./inp_files/508149.got.cif
#   From: 2010.05.17/outbox.cif.g08.bks.cpg/sg2_255_cif.got.tgz:508149.got - 2010.06.03 11:33:40.
