data_PCOD9102392
_publ_section_title
;
Structure prediction by ZEFSAII (Michael W. Deem and Ramdas Pophale) SiO2 
 PCOD9102392
Probable space group: P -1
;
_chemical_formula_sum "Si O2"
_cell_formula_units_Z 14
_cell_length_a 11.141012
_cell_length_b 9.109388
_cell_length_c 8.137188
_cell_angle_alpha 49.459436
_cell_angle_beta 103.189201
_cell_angle_gamma 98.904097
_cell_volume 611.004809
_symmetry_space_group_name_H-M "P -1"
_symmetry_group_IT_number 2
_symmetry_cell_setting 'triclinic'
loop_
_space_group_symop_operation_xyz
x,y,z
-x,-y,-z
loop_
_atom_site_type_symbol
_atom_site_label
_atom_site_fract_x
_atom_site_fract_y
_atom_site_fract_z
Si Si1 0.119341 0.083174 0.185720
Si Si2 0.935330 0.199440 0.380997
Si Si3 0.889342 0.539674 0.559237
Si Si4 0.644924 0.549731 0.309348
Si Si5 0.835945 0.115946 0.983878
Si Si6 0.254695 0.486547 0.000870
Si Si7 0.389883 0.679852 0.198037
O O1 0.150157 0.888178 0.436434
O O2 0.160529 0.037418 0.048499
O O3 0.183737 0.279669 0.123069
O O4 0.969405 0.093638 0.126746
O O5 0.847762 0.343666 0.150824
O O6 0.050020 0.327993 0.381990
O O7 0.000000 0.000000 0.500000
O O8 0.773532 0.627125 0.367624
O O9 0.850398 0.333308 0.763298
O O10 0.000000 0.500000 0.500000
O O11 0.672878 0.495592 0.166057
O O12 0.531876 0.695938 0.178132
O O13 0.610913 0.386685 0.559575
O O14 0.697691 0.135157 0.996522
O O15 0.336087 0.518381 0.167586
#
# Coordination Sequence:
#
# PCOD9102392 Si02
#       7
#     2   2   2   2   2   2   2
#     4  11  23  38  67 102 137 175 218 279 339 395
#     4  12  25  37  63 105 140 166 220 285 333 394
#     4  11  18  40  67  93 131 177 213 276 339 385
#     4  10  22  42  71  95 133 180 227 267 337 395
#     4  10  20  38  62  94 137 169 223 270 330 394
#     4  12  24  45  70  99 137 176 220 279 339 390
#     4  10  23  42  70  97 132 184 224 270 329 404
#
# _framework density 22.913076
#
# number of rings (size 3 to 8) (size 9 to 14) (size 15 to 20)
#    0.000    1.143    4.286    2.143    6.000    1.143 
#    0.000    0.714    3.143    7.714    0.000    0.000 
#    0.000    0.000    0.000    0.000    0.000    0.000 
#
# Total GULP energy -78001.013305 kJ/mol
# GULP energy per Si atom -5571.500950 kJ/mol
# Density = 2.286093 g / cm^3
# Si number density = 22.913076 Si / 1000 Ang^3
#
#
#
# Elastic Constant Matrix: (Units=GPa)
#
#
# Indices 1 2 3 4 5 6 
#
# 1 124.4520 36.6429 18.1636 11.9771 33.2372 -22.4765
# 2 36.6429 87.2667 43.2561 3.5900 4.0348 -7.4898
# 3 18.1636 43.2561 83.9033 2.3652 -1.0113 6.3000
# 4 11.9771 3.5900 2.3652 33.8945 -5.0193 -5.8514
# 5 33.2372 4.0348 -1.0113 -5.0193 42.1506 4.1077
# 6 -22.4765 -7.4898 6.3000 -5.8514 4.1077 38.0663
#
#
#
# Elastic Compliance Matrix: (Units=1/GPa)
#
#
# Indices 1 2 3 4 5 6 
#
# 1 0.015059 -0.003712 -0.002044 -0.005147 -0.013070 0.009119
# 2 -0.003712 0.017293 -0.008313 0.000640 0.000896 0.002588
# 3 -0.002044 -0.008313 0.017147 -0.000139 0.003394 -0.006068
# 4 -0.005147 0.000640 -0.000139 0.032635 0.007754 0.001290
# 5 -0.013070 0.000896 0.003394 0.007754 0.036002 -0.010796
# 6 0.009119 0.002588 -0.006068 0.001290 -0.010796 0.034531
#
#
# Mechanical properties :
#
#
# Convention : Reuss Voigt Hill
#
# Bulk Modulus (GPa) = 46.81226 54.63856 50.72541
# Shear Modulus (GPa) = 26.60642 35.99290 31.29966
#
# Velocity S-wave (km/s) = 3.41132 3.96769 3.69998
# Velocity P-wave (km/s) = 5.99924 6.69984 6.35919
#
# Compressibility (1/GPa) = 0.02136193
#
# Stress axis : x y z
#
# Youngs Moduli (GPa) = 66.40491 57.82774 58.31844
#
# Poissons Ratio (x) = 0.21463 0.11919
# Poissons Ratio (y) = 0.24647 0.48482
# Poissons Ratio (z) = 0.13571 0.48074
#
# Static dielectric constant tensor:
#      x y z
#    x 2.286830 -0.030810 0.038360 
#    y -0.030810 1.904990 0.105070 
#    z 0.038360 0.105070 1.987170 
# 
# From -- ./inp_files/236873.got.cif
#   From: 2010.05.17/outbox.cif.g08.bks.cpg/sg2_119_cif.got.tgz:236873.got - 2010.06.03 11:33:40.
