data_PCOD9102202
_publ_section_title
;
Structure prediction by ZEFSAII (Michael W. Deem and Ramdas Pophale) SiO2 
 PCOD9102202
Probable space group: P -1
;
_chemical_formula_sum "Si O2"
_cell_formula_units_Z 13
_cell_length_a 13.877592
_cell_length_b 9.564716
_cell_length_c 9.883421
_cell_angle_alpha 124.370383
_cell_angle_beta 119.993866
_cell_angle_gamma 29.418375
_cell_volume 531.760718
_symmetry_space_group_name_H-M "P -1"
_symmetry_group_IT_number 2
_symmetry_cell_setting 'triclinic'
loop_
_space_group_symop_operation_xyz
x,y,z
-x,-y,-z
loop_
_atom_site_type_symbol
_atom_site_label
_atom_site_fract_x
_atom_site_fract_y
_atom_site_fract_z
Si Si1 0.106008 0.096596 0.801942
Si Si2 0.633639 0.732379 0.050923
Si Si3 0.000000 0.500000 0.500000
Si Si4 0.945687 0.619231 0.834149
Si Si5 0.564113 0.525726 0.405140
Si Si6 0.751376 0.315046 0.697772
Si Si7 0.634579 0.713833 0.346386
O O1 0.963485 0.410710 0.799584
O O2 0.976574 0.086871 0.714853
O O3 0.299700 0.812640 0.697888
O O4 0.158843 0.117972 0.993656
O O5 0.831435 0.592655 0.120167
O O6 0.558106 0.805649 0.189331
O O7 0.685535 0.491847 0.883638
O O8 0.500000 0.000000 0.000000
O O9 0.101926 0.334245 0.330575
O O10 0.851619 0.521151 0.389428
O O11 0.639765 0.515098 0.591312
O O12 0.334254 0.767688 0.390966
O O13 0.614753 0.561853 0.325941
O O14 0.500000 0.000000 0.500000
#
# Coordination Sequence:
#
# PCOD9102202 Si02
#       7
#     2   2   1   2   2   2   2
#     4  10  20  38  62  88 119 158 198 241 294 356
#     4  10  20  39  63  89 121 158 202 249 297 357
#     4  10  22  42  62  90 124 154 198 254 298 352
#     4   9  20  38  64  91 118 159 201 242 299 353
#     4  11  23  39  59  88 121 158 199 245 298 352
#     4  10  22  37  58  88 121 157 197 242 293 356
#     4  11  25  41  63  90 119 159 202 248 303 355
#
# _framework density 24.447085000000001
#
# number of rings (size 3 to 8) (size 9 to 14) (size 15 to 20)
#    0.000    1.846    0.000    3.231    0.000    9.231 
#    0.000    8.462    0.000    0.000    0.000    0.000 
#    0.000    0.000    0.000    0.000    0.000    0.000 
#
# Total GULP energy -72405.054703 kJ/mol
# GULP energy per Si atom -5569.619593 kJ/mol
# Density = 2.439144 g / cm^3
# Si number density = 24.447085 Si / 1000 Ang^3
#
#
#
# Elastic Constant Matrix: (Units=GPa)
#
#
# Indices 1 2 3 4 5 6 
#
# 1 141.7486 19.8752 46.4414 -22.0552 -3.6441 -4.5084
# 2 19.8752 33.2367 23.6776 -4.0727 -2.9938 -2.3957
# 3 46.4414 23.6776 154.7870 -18.4949 -37.3523 4.7470
# 4 -22.0552 -4.0727 -18.4949 28.0793 -7.3015 -4.0332
# 5 -3.6441 -2.9938 -37.3523 -7.3015 59.9691 -11.1727
# 6 -4.5084 -2.3957 4.7470 -4.0332 -11.1727 30.9517
#
#
#
# Elastic Compliance Matrix: (Units=1/GPa)
#
#
# Indices 1 2 3 4 5 6 
#
# 1 0.009042 -0.003459 -0.001328 0.006256 0.000747 0.002338
# 2 -0.003459 0.035594 -0.004809 -0.000626 -0.001032 0.002535
# 3 -0.001328 -0.004809 0.010083 0.006926 0.007052 0.001336
# 4 0.006256 -0.000626 0.006926 0.049886 0.012770 0.010910
# 5 0.000747 -0.001032 0.007052 0.012770 0.024369 0.009408
# 6 0.002338 0.002535 0.001336 0.010910 0.009408 0.037458
#
#
# Mechanical properties :
#
#
# Convention : Reuss Voigt Hill
#
# Bulk Modulus (GPa) = 28.14644 56.64006 42.39325
# Shear Modulus (GPa) = 25.32110 39.78523 32.55317
#
# Velocity S-wave (km/s) = 3.22180 4.03848 3.65304
# Velocity P-wave (km/s) = 5.03768 6.70556 5.93054
#
# Compressibility (1/GPa) = 0.03552847
#
# Stress axis : x y z
#
# Youngs Moduli (GPa) = 110.60010 28.09449 99.17978
#
# Poissons Ratio (x) = 0.09717 0.13168
# Poissons Ratio (y) = 0.38252 0.47693
# Poissons Ratio (z) = 0.14684 0.13510
#
# Static dielectric constant tensor:
#      x y z
#    x 1.862530 0.146230 -0.047470 
#    y 0.146230 2.116030 0.047410 
#    z -0.047470 0.047410 1.898440 
# 
# From -- ./inp_files/151183.got.cif
#   From: 2010.05.17/outbox.cif.g08.bks.cpg/sg2_76_cif.got.tgz:151183.got - 2010.06.03 11:33:40.
