data_PCOD9102401
_publ_section_title
;
Structure prediction by ZEFSAII (Michael W. Deem and Ramdas Pophale) SiO2 
 PCOD9102401
Probable space group: P -1
;
_chemical_formula_sum "Si O2"
_cell_formula_units_Z 14
_cell_length_a 9.018694
_cell_length_b 7.983517
_cell_length_c 10.003263
_cell_angle_alpha 69.311703
_cell_angle_beta 64.168166
_cell_angle_gamma 99.592074
_cell_volume 560.801730
_symmetry_space_group_name_H-M "P -1"
_symmetry_group_IT_number 2
_symmetry_cell_setting 'triclinic'
loop_
_space_group_symop_operation_xyz
x,y,z
-x,-y,-z
loop_
_atom_site_type_symbol
_atom_site_label
_atom_site_fract_x
_atom_site_fract_y
_atom_site_fract_z
Si Si1 0.266205 0.454557 0.661063
Si Si2 0.792150 0.432750 0.628855
Si Si3 0.597710 0.152737 0.134002
Si Si4 0.282967 0.981958 0.147922
Si Si5 0.045986 0.961147 0.644751
Si Si6 0.094401 0.490526 0.150123
Si Si7 0.594839 0.828387 0.416125
O O1 0.278045 0.479273 0.487448
O O2 0.418101 0.657473 0.588025
O O3 0.323039 0.272038 0.703570
O O4 0.069753 0.437116 0.786803
O O5 0.789699 0.491856 0.764872
O O6 0.000000 0.500000 0.500000
O O7 0.712967 0.202581 0.719762
O O8 0.421350 0.159829 0.127880
O O9 0.560565 0.006254 0.312430
O O10 0.756162 0.358924 0.044732
O O11 0.667735 0.055789 0.010138
O O12 0.084753 0.972702 0.233287
O O13 0.996220 0.738218 0.767929
O O14 0.249941 0.080995 0.562809
O O15 0.000000 0.000000 0.500000
#
# Coordination Sequence:
#
# PCOD9102401 Si02
#       7
#     2   2   2   2   2   2   2
#     4  10  20  38  62  96 118 159 214 268 297 353
#     4   9  15  33  62  86 116 154 205 256 290 350
#     4  10  22  42  66  93 120 167 208 263 302 362
#     4  10  21  40  65  91 125 160 212 257 308 365
#     4  12  25  41  62  94 129 170 202 253 316 381
#     4  10  22  37  62  90 130 165 200 247 319 374
#     4  11  23  39  67  93 124 160 215 261 309 356
#
# _framework density 24.964259999999999
#
# number of rings (size 3 to 8) (size 9 to 14) (size 15 to 20)
#    0.000    1.714    1.429    5.143    0.000    4.000 
#    0.000    0.000    0.000    0.000    0.000    0.000 
#    0.000    0.000    0.000    0.000    0.000    0.000 
#
# Total GULP energy -78235.793772 kJ/mol
# GULP energy per Si atom -5588.270984 kJ/mol
# Density = 2.490744 g / cm^3
# Si number density = 24.964260 Si / 1000 Ang^3
#
#
#
# Elastic Constant Matrix: (Units=GPa)
#
#
# Indices 1 2 3 4 5 6 
#
# 1 105.6024 22.4559 30.0841 -5.6796 -11.2686 29.6818
# 2 22.4559 80.4918 25.1105 -31.7397 -3.6377 8.6672
# 3 30.0841 25.1105 87.5874 -20.3354 -9.9914 8.8392
# 4 -5.6796 -31.7397 -20.3354 43.7297 4.3217 -8.3099
# 5 -11.2686 -3.6377 -9.9914 4.3217 31.1052 -8.9911
# 6 29.6818 8.6672 8.8392 -8.3099 -8.9911 45.6779
#
#
#
# Elastic Compliance Matrix: (Units=1/GPa)
#
#
# Indices 1 2 3 4 5 6 
#
# 1 0.013317 -0.003233 -0.003593 -0.003917 0.001598 -0.007742
# 2 -0.003233 0.018653 -0.001495 0.012703 -0.000953 0.000974
# 3 -0.003593 -0.001495 0.014465 0.005144 0.002835 0.001313
# 4 -0.003917 0.012703 0.005144 0.035124 -0.001657 0.005203
# 5 0.001598 -0.000953 0.002835 -0.001657 0.035270 0.005235
# 6 -0.007742 0.000974 0.001313 0.005203 0.005235 0.028462
#
#
# Mechanical properties :
#
#
# Convention : Reuss Voigt Hill
#
# Bulk Modulus (GPa) = 33.56476 47.66476 40.61476
# Shear Modulus (GPa) = 29.09299 37.17128 33.13214
#
# Velocity S-wave (km/s) = 3.41748 3.86292 3.64700
# Velocity P-wave (km/s) = 5.38948 6.24746 5.83427
#
# Compressibility (1/GPa) = 0.02979315
#
# Stress axis : x y z
#
# Youngs Moduli (GPa) = 75.09456 53.61079 69.13224
#
# Poissons Ratio (x) = 0.17332 0.24838
# Poissons Ratio (y) = 0.24277 0.10335
# Poissons Ratio (z) = 0.26980 0.08015
#
# Static dielectric constant tensor:
#      x y z
#    x 3.371660 0.796550 0.131940 
#    y 0.796550 2.449610 0.054070 
#    z 0.131940 0.054070 2.038970 
# 
# From -- ./inp_files/205238.got.cif
#   From: 2010.05.17/outbox.cif.g08.bks.cpg/sg2_103_cif.got.tgz:205238.got - 2010.06.03 11:33:40.
