data_PCOD9102297
_publ_section_title
;
Structure prediction by ZEFSAII (Michael W. Deem and Ramdas Pophale) SiO2 
 PCOD9102297
Probable space group: P -1
;
_chemical_formula_sum "Si O2"
_cell_formula_units_Z 15
_cell_length_a 16.332668
_cell_length_b 11.734546
_cell_length_c 10.625914
_cell_angle_alpha 31.368002
_cell_angle_beta 39.939810
_cell_angle_gamma 34.727070
_cell_volume 589.220130
_symmetry_space_group_name_H-M "P -1"
_symmetry_group_IT_number 2
_symmetry_cell_setting 'triclinic'
loop_
_space_group_symop_operation_xyz
x,y,z
-x,-y,-z
loop_
_atom_site_type_symbol
_atom_site_label
_atom_site_fract_x
_atom_site_fract_y
_atom_site_fract_z
Si Si1 0.571714 0.988800 0.060699
Si Si2 0.903517 0.312173 0.542005
Si Si3 0.385953 0.904939 0.700030
Si Si4 0.000000 0.500000 0.500000
Si Si5 0.599037 0.375966 0.817869
Si Si6 0.100400 0.748639 0.930718
Si Si7 0.143407 0.315242 0.121813
Si Si8 0.688604 0.048004 0.499093
O O1 0.477914 0.901297 0.339488
O O2 0.745843 0.805244 0.010390
O O3 0.500000 0.000000 0.000000
O O4 0.551270 0.258793 0.871303
O O5 0.736241 0.416699 0.601540
O O6 0.929402 0.459680 0.486377
O O7 0.993296 0.309647 0.314030
O O8 0.974917 0.031378 0.779855
O O9 0.466933 0.628409 0.797687
O O10 0.261692 0.077336 0.581130
O O11 0.500000 0.000000 0.500000
O O12 0.342373 0.852730 0.934285
O O13 0.072863 0.642676 0.192549
O O14 0.252136 0.757876 0.747275
O O15 0.112672 0.584067 0.950136
O O16 0.228969 0.141864 0.306516
#
# Coordination Sequence:
#
# PCOD9102297 Si02
#       8
#     2   2   2   1   2   2   2   2
#     4  10  22  44  65  93 131 175 223 270 319 383
#     4  10  22  41  61  95 128 172 214 261 335 390
#     4  11  24  41  62  98 129 167 212 269 339 390
#     4  10  20  38  62  90 128 164 216 266 320 386
#     4  11  25  42  65  94 136 171 211 275 330 387
#     4  10  21  37  64  94 125 171 213 270 322 384
#     4   9  22  41  64  94 130 164 220 274 311 383
#     4  10  21  39  64  93 129 165 221 264 325 384
#
# _framework density 25.457377999999999
#
# number of rings (size 3 to 8) (size 9 to 14) (size 15 to 20)
#    0.000    1.867    1.333    1.200    3.733    8.533 
#    4.800    0.667    0.000    0.000    0.000    0.000 
#    0.000    0.000    0.000    0.000    0.000    0.000 
#
# Total GULP energy -83596.395645 kJ/mol
# GULP energy per Si atom -5573.093043 kJ/mol
# Density = 2.539944 g / cm^3
# Si number density = 25.457378 Si / 1000 Ang^3
#
#
#
# Elastic Constant Matrix: (Units=GPa)
#
#
# Indices 1 2 3 4 5 6 
#
# 1 110.8724 20.1019 33.6430 -4.8845 -18.7813 4.8749
# 2 20.1019 108.1794 38.0303 6.3599 -16.9236 7.4386
# 3 33.6430 38.0303 107.9084 4.8311 -25.4557 2.8743
# 4 -4.8845 6.3599 4.8311 34.4680 -5.6550 -6.7760
# 5 -18.7813 -16.9236 -25.4557 -5.6550 32.9468 1.7580
# 6 4.8749 7.4386 2.8743 -6.7760 1.7580 41.9151
#
#
#
# Elastic Compliance Matrix: (Units=1/GPa)
#
#
# Indices 1 2 3 4 5 6 
#
# 1 0.010704 -0.000615 -0.002123 0.002534 0.004622 -0.000774
# 2 -0.000615 0.011073 -0.002889 -0.001654 0.002932 -0.002086
# 3 -0.002123 -0.002889 0.012636 -0.000483 0.007011 -0.000479
# 4 0.002534 -0.001654 -0.000483 0.031593 0.005382 0.004914
# 5 0.004622 0.002932 0.007011 0.005382 0.040961 -0.002387
# 6 -0.000774 -0.002086 -0.000479 0.004914 -0.002387 0.025245
#
#
# Mechanical properties :
#
#
# Convention : Reuss Voigt Hill
#
# Bulk Modulus (GPa) = 43.18290 56.72340 49.95315
# Shear Modulus (GPa) = 33.07177 37.54501 35.30839
#
# Velocity S-wave (km/s) = 3.60822 3.84450 3.72823
# Velocity P-wave (km/s) = 5.86162 6.48360 6.18044
#
# Compressibility (1/GPa) = 0.02315731
#
# Stress axis : x y z
#
# Youngs Moduli (GPa) = 93.42603 90.30630 79.14177
#
# Poissons Ratio (x) = 0.05557 0.16800
# Poissons Ratio (y) = 0.05749 0.22868
# Poissons Ratio (z) = 0.19833 0.26093
#
# Static dielectric constant tensor:
#      x y z
#    x 2.053550 -0.018000 0.049400 
#    y -0.018000 2.139970 0.057170 
#    z 0.049400 0.057170 2.005650 
# 
# From -- ./inp_files/463399.got.cif
#   From: 2010.05.17/outbox.cif.g08.bks.cpg/sg2_232_cif.got.tgz:463399.got - 2010.06.03 11:33:40.
