data_PCOD9102470
_publ_section_title
;
Structure prediction by ZEFSAII (Michael W. Deem and Ramdas Pophale) SiO2 
 PCOD9102470
Probable space group: P -1
;
_chemical_formula_sum "Si O2"
_cell_formula_units_Z 14
_cell_length_a 16.827553
_cell_length_b 6.985879
_cell_length_c 9.378890
_cell_angle_alpha 92.767840
_cell_angle_beta 135.684897
_cell_angle_gamma 60.209831
_cell_volume 576.293377
_symmetry_space_group_name_H-M "P -1"
_symmetry_group_IT_number 2
_symmetry_cell_setting 'triclinic'
loop_
_space_group_symop_operation_xyz
x,y,z
-x,-y,-z
loop_
_atom_site_type_symbol
_atom_site_label
_atom_site_fract_x
_atom_site_fract_y
_atom_site_fract_z
Si Si1 0.238690 0.428805 0.364516
Si Si2 0.899475 0.014293 0.708737
Si Si3 0.344546 0.328702 0.966225
Si Si4 0.450517 0.303118 0.390712
Si Si5 0.685442 0.949807 0.299362
Si Si6 0.204671 0.798089 0.953005
Si Si7 0.192292 0.126088 0.141733
O O1 0.277205 0.245965 0.536541
O O2 0.159522 0.704281 0.334778
O O3 0.384053 0.338768 0.460680
O O4 0.150893 0.390042 0.136381
O O5 0.790691 0.014262 0.464593
O O6 0.068939 0.835352 0.857819
O O7 0.879863 0.934245 0.834326
O O8 0.379838 0.244856 0.174581
O O9 0.506508 0.198037 0.095761
O O10 0.285742 0.204173 0.811154
O O11 0.238855 0.637986 0.848034
O O12 0.627956 0.081327 0.602258
O O13 0.367565 0.586711 0.235584
O O14 0.165676 0.062127 0.949535
#
# Coordination Sequence:
#
# PCOD9102470 Si02
#       7
#     2   2   2   2   2   2   2
#     4  11  22  35  63  91 115 148 200 236 289 346
#     4  11  21  38  57  87 122 158 186 236 293 347
#     4   9  20  41  63  83 115 158 192 237 295 339
#     4  10  20  38  63  86 115 148 197 243 285 339
#     4  10  22  42  63  81 121 153 191 247 287 335
#     4  10  21  36  61  86 117 158 192 230 296 350
#     4  11  21  37  60  86 124 149 186 252 292 327
#
# _framework density 24.293184
#
# number of rings (size 3 to 8) (size 9 to 14) (size 15 to 20)
#    0.857    0.857    4.286    1.286    2.000    1.143 
#    2.571    5.000    0.000    0.000    0.000    0.000 
#    0.000    0.000    0.000    0.000    0.000    0.000 
#
# Total GULP energy -78099.962643 kJ/mol
# GULP energy per Si atom -5578.568760 kJ/mol
# Density = 2.423789 g / cm^3
# Si number density = 24.293184 Si / 1000 Ang^3
#
#
#
# Elastic Constant Matrix: (Units=GPa)
#
#
# Indices 1 2 3 4 5 6 
#
# 1 62.6873 33.6319 22.6454 -6.0726 8.3309 -17.2804
# 2 33.6319 197.8548 53.5344 42.9169 -4.0826 -27.6265
# 3 22.6454 53.5344 82.2297 27.6722 20.5535 -24.0313
# 4 -6.0726 42.9169 27.6722 43.5891 -12.9468 -5.6581
# 5 8.3309 -4.0826 20.5535 -12.9468 28.5518 4.7439
# 6 -17.2804 -27.6265 -24.0313 -5.6581 4.7439 39.4262
#
#
#
# Elastic Compliance Matrix: (Units=1/GPa)
#
#
# Indices 1 2 3 4 5 6 
#
# 1 0.023184 -0.004217 -0.009727 0.015801 0.006337 0.002783
# 2 -0.004217 0.007992 0.001005 -0.009629 -0.003277 0.003377
# 3 -0.009727 0.001005 0.066231 -0.063173 -0.079541 0.037315
# 4 0.015801 -0.009629 -0.063173 0.096642 0.089157 -0.035186
# 5 0.006337 -0.003277 -0.079541 0.089157 0.139022 -0.051934
# 6 0.002783 0.003377 0.037315 -0.035186 -0.051934 0.052893
#
#
# Mechanical properties :
#
#
# Convention : Reuss Voigt Hill
#
# Bulk Modulus (GPa) = 13.98053 62.48837 38.23445
# Shear Modulus (GPa) = 11.47615 37.84409 24.66012
#
# Velocity S-wave (km/s) = 2.17584 3.95119 3.18953
# Velocity P-wave (km/s) = 3.47560 6.82600 5.41637
#
# Compressibility (1/GPa) = 0.07152806
#
# Stress axis : x y z
#
# Youngs Moduli (GPa) = 43.13311 125.13157 15.09858
#
# Poissons Ratio (x) = 0.52767 0.14687
# Poissons Ratio (y) = 0.18189 -0.01517
# Poissons Ratio (z) = 0.41957 -0.12574
#
# Static dielectric constant tensor:
#      x y z
#    x 1.927390 -0.002710 -0.025850 
#    y -0.002710 2.058590 0.047570 
#    z -0.025850 0.047570 1.976080 
# 
# From -- ./inp_files/541957.got.cif
#   From: 2010.05.17/outbox.cif.g08.bks.cpg/sg2_271_cif.got.tgz:541957.got - 2010.06.03 11:33:40.
