data_PCOD9102614
_publ_section_title
;
Structure prediction by ZEFSAII (Michael W. Deem and Ramdas Pophale) SiO2 
 PCOD9102614
Probable space group: P -1
;
_chemical_formula_sum "Si O2"
_cell_formula_units_Z 16
_cell_length_a 8.268571
_cell_length_b 14.511030
_cell_length_c 6.266047
_cell_angle_alpha 117.130574
_cell_angle_beta 92.776529
_cell_angle_gamma 75.186837
_cell_volume 644.839557
_symmetry_space_group_name_H-M "P -1"
_symmetry_group_IT_number 2
_symmetry_cell_setting 'triclinic'
loop_
_space_group_symop_operation_xyz
x,y,z
-x,-y,-z
loop_
_atom_site_type_symbol
_atom_site_label
_atom_site_fract_x
_atom_site_fract_y
_atom_site_fract_z
Si Si1 0.743907 0.925872 0.999938
Si Si2 0.213337 0.669907 0.491562
Si Si3 0.675845 0.698768 0.875262
Si Si4 0.893733 0.172346 0.978326
Si Si5 0.988620 0.364522 0.930507
Si Si6 0.186156 0.486346 0.592217
Si Si7 0.405025 0.749535 0.225424
Si Si8 0.540701 0.919671 0.612531
O O1 0.686631 0.821180 0.970918
O O2 0.712988 0.919782 0.739450
O O3 0.933186 0.916996 0.071200
O O4 0.613456 0.033200 0.185965
O O5 0.261535 0.569321 0.547558
O O6 0.338323 0.679160 0.318310
O O7 0.048074 0.658643 0.339227
O O8 0.174937 0.777711 0.744656
O O9 0.710108 0.632229 0.588068
O O10 0.824680 0.642901 0.988285
O O11 0.504186 0.692113 0.966122
O O12 0.749129 0.159395 0.794866
O O13 0.947784 0.269903 0.968863
O O14 0.144137 0.529015 0.874579
O O15 0.000000 0.500000 0.500000
O O16 0.530223 0.805899 0.410068
O O17 0.500000 0.000000 0.500000
#
# Coordination Sequence:
#
# PCOD9102614 Si02
#       8
#     2   2   2   2   2   2   2   2
#     4  10  23  43  68  93 120 168 214 257 315 371
#     4  10  21  39  61  90 134 168 204 259 311 369
#     4  10  20  38  63  92 128 165 213 259 308 371
#     4   9  21  40  63  89 128 166 204 254 311 374
#     4   8  18  38  60  91 122 167 215 253 297 371
#     4   9  19  38  60  94 129 168 213 260 297 373
#     4  11  24  39  62  95 131 166 203 263 320 369
#     4  11  24  43  67  95 126 156 213 269 310 379
#
# _framework density 24.812376
#
# number of rings (size 3 to 8) (size 9 to 14) (size 15 to 20)
#    0.000    2.250    1.250    0.750    3.500    4.000 
#    2.250    6.875    0.000    0.000    0.000    0.000 
#    0.000    0.000    0.000    0.000    0.000    0.000 
#
# Total GULP energy -89430.719935 kJ/mol
# GULP energy per Si atom -5589.419996 kJ/mol
# Density = 2.475590 g / cm^3
# Si number density = 24.812376 Si / 1000 Ang^3
#
#
#
# Elastic Constant Matrix: (Units=GPa)
#
#
# Indices 1 2 3 4 5 6 
#
# 1 62.9610 14.3670 11.8671 -18.9258 -7.8896 -5.1681
# 2 14.3670 73.9041 11.2953 -18.1583 -7.0944 5.1066
# 3 11.8671 11.2953 70.2108 -6.8270 6.0921 -14.2249
# 4 -18.9258 -18.1583 -6.8270 39.0473 -9.7680 -2.7342
# 5 -7.8896 -7.0944 6.0921 -9.7680 34.6015 -1.7826
# 6 -5.1681 5.1066 -14.2249 -2.7342 -1.7826 26.7060
#
#
#
# Elastic Compliance Matrix: (Units=1/GPa)
#
#
# Indices 1 2 3 4 5 6 
#
# 1 0.021704 -0.000248 -0.002178 0.012652 0.009110 0.004991
# 2 -0.000248 0.017007 -0.003151 0.008531 0.006203 -0.003691
# 3 -0.002178 -0.003151 0.017319 0.000237 -0.003651 0.009186
# 4 0.012652 0.008531 0.000237 0.040252 0.016272 0.006151
# 5 0.009110 0.006203 -0.003651 0.016272 0.037631 0.002810
# 6 0.004991 -0.003691 0.009186 0.006151 0.002810 0.044827
#
#
# Mechanical properties :
#
#
# Convention : Reuss Voigt Hill
#
# Bulk Modulus (GPa) = 22.28269 31.34831 26.81550
# Shear Modulus (GPa) = 24.40773 31.37407 27.89090
#
# Velocity S-wave (km/s) = 3.13979 3.55977 3.35636
# Velocity P-wave (km/s) = 4.70578 5.43668 5.08438
#
# Compressibility (1/GPa) = 0.04487789
#
# Stress axis : x y z
#
# Youngs Moduli (GPa) = 46.07349 58.79760 57.74067
#
# Poissons Ratio (x) = 0.01459 0.12574
# Poissons Ratio (y) = 0.01144 0.18192
# Poissons Ratio (z) = 0.10033 0.18525
#
# Static dielectric constant tensor:
#      x y z
#    x 1.996260 0.015550 -0.012210 
#    y 0.015550 1.967930 -0.005020 
#    z -0.012210 -0.005020 2.012730 
# 
# From -- ./inp_files/39841.got.cif
#   From: 2010.05.17/outbox.cif.g08.bks.cpg/sg2_20_cif.got.tgz:39841.got - 2010.06.03 11:33:40.
