data_PCOD9102187
_publ_section_title
;
Structure prediction by ZEFSAII (Michael W. Deem and Ramdas Pophale) SiO2 
 PCOD9102187
Probable space group: P -1
;
_chemical_formula_sum "Si O2"
_cell_formula_units_Z 15
_cell_length_a 10.808238
_cell_length_b 5.571123
_cell_length_c 10.180722
_cell_angle_alpha 86.782116
_cell_angle_beta 105.782893
_cell_angle_gamma 93.665236
_cell_volume 588.224880
_symmetry_space_group_name_H-M "P -1"
_symmetry_group_IT_number 2
_symmetry_cell_setting 'triclinic'
loop_
_space_group_symop_operation_xyz
x,y,z
-x,-y,-z
loop_
_atom_site_type_symbol
_atom_site_label
_atom_site_fract_x
_atom_site_fract_y
_atom_site_fract_z
Si Si1 0.996499 0.707378 0.880967
Si Si2 0.634657 0.690383 0.436991
Si Si3 0.204624 0.570630 0.322333
Si Si4 0.310428 0.659637 0.768032
Si Si5 0.859409 0.094637 0.461811
Si Si6 0.500000 0.500000 0.000000
Si Si7 0.209178 0.936509 0.079812
Si Si8 0.521829 0.080253 0.806649
O O1 0.925607 0.590798 0.738211
O O2 0.894115 0.898246 0.890248
O O3 0.000000 0.500000 0.000000
O O4 0.138205 0.840308 0.930480
O O5 0.675282 0.583578 0.591778
O O6 0.634804 0.469638 0.342389
O O7 0.756799 0.869207 0.433260
O O8 0.510940 0.837170 0.354727
O O9 0.232043 0.716381 0.192695
O O10 0.170482 0.758219 0.419939
O O11 0.173974 0.734312 0.674767
O O12 0.405294 0.892300 0.814354
O O13 0.344420 0.496487 0.904636
O O14 0.000000 0.000000 0.500000
O O15 0.472498 0.693618 0.102189
O O16 0.350928 0.061038 0.119214
#
# Coordination Sequence:
#
# PCOD9102187 Si02
#       8
#     2   2   2   2   2   1   2   2
#     4   9  20  39  57  83 123 159 203 251 293 356
#     4   9  20  39  61  86 122 154 197 250 301 365
#     4  10  20  38  62  87 123 160 196 254 303 362
#     4   9  20  38  59  85 122 158 200 253 298 367
#     4  10  21  40  61  89 120 158 204 257 306 365
#     4  10  20  40  58  84 124 156 206 250 302 356
#     4  10  21  39  61  89 124 160 204 249 300 362
#     4  10  21  39  62  89 123 161 202 251 302 363
#
# _framework density 25.500453
#
# number of rings (size 3 to 8) (size 9 to 14) (size 15 to 20)
#    0.000    2.400    0.000    1.200    0.000    6.933 
#   16.800    9.333    0.000    0.000    0.000    0.000 
#    0.000    0.000    0.000    0.000    0.000    0.000 
#
# Total GULP energy -83521.430298 kJ/mol
# GULP energy per Si atom -5568.095353 kJ/mol
# Density = 2.544241 g / cm^3
# Si number density = 25.500453 Si / 1000 Ang^3
#
#
#
# Elastic Constant Matrix: (Units=GPa)
#
#
# Indices 1 2 3 4 5 6 
#
# 1 69.3727 15.2505 29.4690 -8.5638 33.2785 -16.0575
# 2 15.2505 60.2819 38.6930 -11.8357 8.1036 -10.9407
# 3 29.4690 38.6930 163.4852 -12.6950 30.0401 -13.8726
# 4 -8.5638 -11.8357 -12.6950 57.3861 -11.7223 12.6284
# 5 33.2785 8.1036 30.0401 -11.7223 45.8328 -10.9224
# 6 -16.0575 -10.9407 -13.8726 12.6284 -10.9224 27.6770
#
#
#
# Elastic Compliance Matrix: (Units=1/GPa)
#
#
# Indices 1 2 3 4 5 6 
#
# 1 0.024094 -0.002807 -0.000349 -0.001857 -0.015472 0.007436
# 2 -0.002807 0.021069 -0.004444 0.002562 0.002945 0.004466
# 3 -0.000349 -0.004444 0.008022 -0.000149 -0.004139 0.000497
# 4 -0.001857 0.002562 -0.000149 0.020214 0.004340 -0.007650
# 5 -0.015472 0.002945 -0.004139 0.004340 0.037007 0.002737
# 6 0.007436 0.004466 0.000497 -0.007650 0.002737 0.047030
#
#
# Mechanical properties :
#
#
# Convention : Reuss Voigt Hill
#
# Bulk Modulus (GPa) = 26.32505 51.10720 38.71612
# Shear Modulus (GPa) = 26.98359 40.16100 33.57229
#
# Velocity S-wave (km/s) = 3.25647 3.97282 3.63235
# Velocity P-wave (km/s) = 4.94825 6.41324 5.72778
#
# Compressibility (1/GPa) = 0.03798664
#
# Stress axis : x y z
#
# Youngs Moduli (GPa) = 41.50362 47.46360 124.64962
#
# Poissons Ratio (x) = 0.13321 0.04351
# Poissons Ratio (y) = 0.11649 0.55391
# Poissons Ratio (z) = 0.01449 0.21092
#
# Static dielectric constant tensor:
#      x y z
#    x 2.184430 0.048820 -0.075190 
#    y 0.048820 2.177900 -0.039550 
#    z -0.075190 -0.039550 2.166590 
# 
# From -- ./inp_files/67192.got.cif
#   From: 2010.05.17/outbox.cif.g08.bks.cpg/sg2_34_cif.got.tgz:67192.got - 2010.06.03 11:33:40.
