data_PCOD9102417
_publ_section_title
;
Structure prediction by ZEFSAII (Michael W. Deem and Ramdas Pophale) SiO2 
 PCOD9102417
Probable space group: P -1
;
_chemical_formula_sum "Si O2"
_cell_formula_units_Z 15
_cell_length_a 12.619173
_cell_length_b 13.734281
_cell_length_c 12.368607
_cell_angle_alpha 132.885753
_cell_angle_beta 22.859941
_cell_angle_gamma 131.422926
_cell_volume 605.677113
_symmetry_space_group_name_H-M "P -1"
_symmetry_group_IT_number 2
_symmetry_cell_setting 'triclinic'
loop_
_space_group_symop_operation_xyz
x,y,z
-x,-y,-z
loop_
_atom_site_type_symbol
_atom_site_label
_atom_site_fract_x
_atom_site_fract_y
_atom_site_fract_z
Si Si1 0.792762 0.076705 0.320125
Si Si2 0.194590 0.673270 0.639299
Si Si3 0.500000 0.500000 0.500000
Si Si4 0.923402 0.907716 0.706145
Si Si5 0.238510 0.289668 0.753179
Si Si6 0.396768 0.055674 0.273928
Si Si7 0.596830 0.300236 0.141734
Si Si8 0.912369 0.622811 0.420564
O O1 0.831307 0.232588 0.367597
O O2 0.881442 0.070883 0.356692
O O3 0.500000 0.000000 0.500000
O O4 0.000000 0.000000 0.000000
O O5 0.514462 0.687161 0.375556
O O6 0.088728 0.514644 0.618602
O O7 0.029840 0.731595 0.936429
O O8 0.282722 0.416965 0.730659
O O9 0.689313 0.367850 0.218211
O O10 0.124783 0.949174 0.446809
O O11 0.832584 0.748582 0.658591
O O12 0.661116 0.989246 0.016663
O O13 0.285370 0.162811 0.540700
O O14 0.512845 0.853483 0.847839
O O15 0.335502 0.390968 0.446924
O O16 0.805591 0.332849 0.873742
#
# Coordination Sequence:
#
# PCOD9102417 Si02
#       8
#     2   2   1   2   2   2   2   2
#     4  12  26  46  74 100 126 171 227 290 340 390
#     4  12  23  42  67  98 135 172 218 275 339 402
#     4  10  20  38  62  96 134 168 216 266 320 388
#     4  12  26  45  66  96 137 176 229 275 333 399
#     4  11  22  38  66  96 134 168 218 278 335 380
#     4  11  24  42  66  98 132 182 226 282 320 392
#     4  11  24  41  65 100 137 183 223 266 333 394
#     4  12  25  43  65  98 141 182 215 269 335 412
#
# _framework density 24.765671000000001
#
# number of rings (size 3 to 8) (size 9 to 14) (size 15 to 20)
#    0.000    0.533    2.667    6.400    0.000    8.000 
#    0.000    0.000    0.000    6.400    0.000    0.000 
#    0.000    0.000    0.000    0.000    0.000    0.000 
#
# Total GULP energy -83791.135684 kJ/mol
# GULP energy per Si atom -5586.075712 kJ/mol
# Density = 2.470930 g / cm^3
# Si number density = 24.765671 Si / 1000 Ang^3
#
#
#
# Elastic Constant Matrix: (Units=GPa)
#
#
# Indices 1 2 3 4 5 6 
#
# 1 93.9250 30.2950 19.6681 -6.3199 -10.0821 -18.4906
# 2 30.2950 166.1038 31.9675 11.9181 -6.5879 -25.7218
# 3 19.6681 31.9675 111.4690 -6.0630 -18.0855 -6.6986
# 4 -6.3199 11.9181 -6.0630 42.3773 6.0880 4.3003
# 5 -10.0821 -6.5879 -18.0855 6.0880 27.7715 2.5578
# 6 -18.4906 -25.7218 -6.6986 4.3003 2.5578 49.2261
#
#
#
# Elastic Compliance Matrix: (Units=1/GPa)
#
#
# Indices 1 2 3 4 5 6 
#
# 1 0.012432 -0.001521 -0.001008 0.001372 0.002876 0.003469
# 2 -0.001521 0.007367 -0.001742 -0.002938 0.000404 0.003277
# 3 -0.001008 -0.001742 0.010657 0.001033 0.005956 -0.000238
# 4 0.001372 -0.002938 0.001033 0.025774 -0.004911 -0.002876
# 5 0.002876 0.000404 0.005956 -0.004911 0.042072 0.000345
# 6 0.003469 0.003277 -0.000238 -0.002876 0.000345 0.023531
#
#
# Mechanical properties :
#
#
# Convention : Reuss Voigt Hill
#
# Bulk Modulus (GPa) = 45.63004 59.48432 52.55718
# Shear Modulus (GPa) = 36.31652 43.17947 39.74800
#
# Velocity S-wave (km/s) = 3.83352 4.18008 4.01055
# Velocity P-wave (km/s) = 6.16922 6.88247 6.53558
#
# Compressibility (1/GPa) = 0.02191539
#
# Stress axis : x y z
#
# Youngs Moduli (GPa) = 80.43577 135.73605 93.83748
#
# Poissons Ratio (x) = 0.20642 0.09456
# Poissons Ratio (y) = 0.12232 0.16346
# Poissons Ratio (z) = 0.08106 0.23644
#
# Static dielectric constant tensor:
#      x y z
#    x 2.577030 0.473330 -0.018040 
#    y 0.473330 2.434850 -0.000180 
#    z -0.018040 -0.000180 2.002320 
# 
# From -- ./inp_files/454848.got.cif
#   From: 2010.05.17/outbox.cif.g08.bks.cpg/sg2_228_cif.got.tgz:454848.got - 2010.06.03 11:33:40.
