data_PCOD9102884
_publ_section_title
;
Structure prediction by ZEFSAII (Michael W. Deem and Ramdas Pophale) SiO2 
 PCOD9102884
Probable space group: P -1
;
_chemical_formula_sum "Si O2"
_cell_formula_units_Z 16
_cell_length_a 12.499450
_cell_length_b 6.133603
_cell_length_c 9.917114
_cell_angle_alpha 99.411352
_cell_angle_beta 65.280871
_cell_angle_gamma 97.906580
_cell_volume 679.314210
_symmetry_space_group_name_H-M "P -1"
_symmetry_group_IT_number 2
_symmetry_cell_setting 'triclinic'
loop_
_space_group_symop_operation_xyz
x,y,z
-x,-y,-z
loop_
_atom_site_type_symbol
_atom_site_label
_atom_site_fract_x
_atom_site_fract_y
_atom_site_fract_z
Si Si1 0.032326 0.535730 0.275330
Si Si2 0.619433 0.376063 0.913876
Si Si3 0.775334 0.050063 0.828968
Si Si4 0.903186 0.821163 0.983415
Si Si5 0.437111 0.707713 0.615573
Si Si6 0.443028 0.850194 0.340293
Si Si7 0.313981 0.386131 0.839591
Si Si8 0.097156 0.208512 0.450027
O O1 0.914491 0.648203 0.394822
O O2 0.137262 0.731583 0.228802
O O3 0.033569 0.388687 0.127486
O O4 0.060082 0.366308 0.363874
O O5 0.646480 0.133560 0.933246
O O6 0.631217 0.307118 0.743415
O O7 0.500000 0.500000 0.000000
O O8 0.696342 0.537320 0.990867
O O9 0.831141 0.936761 0.914963
O O10 0.785042 0.890641 0.677985
O O11 0.808210 0.747795 0.139591
O O12 0.000000 0.000000 0.000000
O O13 0.500000 0.500000 0.500000
O O14 0.392885 0.820773 0.514774
O O15 0.340202 0.603725 0.758258
O O16 0.526995 0.885634 0.663008
O O17 0.573768 0.757374 0.251313
O O18 0.000000 0.000000 0.500000
#
# Coordination Sequence:
#
# PCOD9102884 Si02
#       8
#     2   2   2   2   2   2   2   2
#     4   9  17  36  62  85 123 161 220 277 330 383
#     4  10  21  40  66 105 134 171 219 277 349 409
#     4  10  20  38  64  91 130 169 219 283 336 391
#     4  11  24  40  64  91 133 182 231 279 339 401
#     4   9  19  40  67  88 130 176 214 273 332 403
#     4   9  20  39  68  93 133 169 219 271 339 412
#     4  10  21  39  64  95 132 171 223 280 335 396
#     4   8  16  32  63  83 114 168 203 268 341 380
#
# _framework density 23.553166999999998
#
# number of rings (size 3 to 8) (size 9 to 14) (size 15 to 20)
#    0.000    2.500    1.250    0.000    1.750    1.000 
#    6.750    0.000   66.000    0.000    0.000    0.000 
#    0.000    0.000    0.000    0.000    0.000    0.000 
#
# Total GULP energy -89104.609145 kJ/mol
# GULP energy per Si atom -5569.038072 kJ/mol
# Density = 2.349956 g / cm^3
# Si number density = 23.553167 Si / 1000 Ang^3
#
#
#
# Elastic Constant Matrix: (Units=GPa)
#
#
# Indices 1 2 3 4 5 6 
#
# 1 54.8933 31.9719 47.5430 3.7467 1.5571 5.5665
# 2 31.9719 131.5869 57.5017 -6.2891 -2.4347 8.6910
# 3 47.5430 57.5017 89.9928 9.2472 0.9401 6.1699
# 4 3.7467 -6.2891 9.2472 62.5936 -8.1018 -13.2262
# 5 1.5571 -2.4347 0.9401 -8.1018 24.8054 12.2933
# 6 5.5665 8.6910 6.1699 -13.2262 12.2933 35.2040
#
#
#
# Elastic Compliance Matrix: (Units=1/GPa)
#
#
# Indices 1 2 3 4 5 6 
#
# 1 0.033782 -0.000483 -0.017398 0.000012 -0.000520 -0.001987
# 2 -0.000483 0.011006 -0.006922 0.002190 0.002888 -0.001613
# 3 -0.017398 -0.006922 0.025185 -0.003735 -0.001317 -0.000897
# 4 0.000012 0.002190 -0.003735 0.018428 0.003492 0.005816
# 5 -0.000520 0.002888 -0.001317 0.003492 0.050026 -0.016557
# 6 -0.001987 -0.001613 -0.000897 0.005816 -0.016557 0.037242
#
#
# Mechanical properties :
#
#
# Convention : Reuss Voigt Hill
#
# Bulk Modulus (GPa) = 49.09764 61.16735 55.13250
# Shear Modulus (GPa) = 21.54559 33.81769 27.68164
#
# Velocity S-wave (km/s) = 3.02779 3.79331 3.43196
# Velocity P-wave (km/s) = 5.75448 6.72398 6.25803
#
# Compressibility (1/GPa) = 0.02036758
#
# Stress axis : x y z
#
# Youngs Moduli (GPa) = 29.60129 90.85587 39.70583
#
# Poissons Ratio (x) = 0.04391 0.69080
# Poissons Ratio (y) = 0.01431 0.27484
# Poissons Ratio (z) = 0.51500 0.62890
#
# Static dielectric constant tensor:
#      x y z
#    x 1.949290 -0.024040 -0.005880 
#    y -0.024040 1.890150 0.009980 
#    z -0.005880 0.009980 1.944160 
# 
# From -- ./inp_files/410736.got.cif
#   From: 2010.05.17/outbox.cif.g08.bks.cpg/sg2_206_cif.got.tgz:410736.got - 2010.06.03 11:33:40.
