data_PCOD9102906
_publ_section_title
;
Structure prediction by ZEFSAII (Michael W. Deem and Ramdas Pophale) SiO2 
 PCOD9102906
Probable space group: P -1
;
_chemical_formula_sum "Si O2"
_cell_formula_units_Z 14
_cell_length_a 22.173765
_cell_length_b 6.346472
_cell_length_c 9.841082
_cell_angle_alpha 128.557684
_cell_angle_beta 30.062260
_cell_angle_gamma 122.095561
_cell_volume 542.380218
_symmetry_space_group_name_H-M "P -1"
_symmetry_group_IT_number 2
_symmetry_cell_setting 'triclinic'
loop_
_space_group_symop_operation_xyz
x,y,z
-x,-y,-z
loop_
_atom_site_type_symbol
_atom_site_label
_atom_site_fract_x
_atom_site_fract_y
_atom_site_fract_z
Si Si1 0.966611 0.436330 0.751711
Si Si2 0.547401 0.833667 0.181482
Si Si3 0.670440 0.783769 0.177228
Si Si4 0.620531 0.644525 0.669700
Si Si5 0.824803 0.310962 0.716893
Si Si6 0.836137 0.228748 0.151601
Si Si7 0.182857 0.038074 0.660032
O O1 0.880017 0.296607 0.753227
O O2 0.089276 0.488377 0.455957
O O3 0.954778 0.275386 0.850659
O O4 0.908504 0.729494 0.018628
O O5 0.664395 0.845537 0.052261
O O6 0.478552 0.567689 0.265208
O O7 0.456937 0.086489 0.475453
O O8 0.573861 0.781539 0.952801
O O9 0.773826 0.955779 0.115380
O O10 0.697685 0.472241 0.031252
O O11 0.738258 0.459997 0.400401
O O12 0.679290 0.866186 0.547797
O O13 0.824260 0.048849 0.517770
O O14 0.846936 0.209796 0.283803
#
# Coordination Sequence:
#
# PCOD9102906 Si02
#       7
#     2   2   2   2   2   2   2
#     4  10  24  44  63  95 132 163 211 265 310 380
#     4   9  19  39  63  95 125 166 209 266 312 370
#     4  10  20  38  64  92 129 161 215 255 316 377
#     4   9  20  39  64  89 128 163 210 261 315 372
#     4  11  23  42  66  96 126 169 213 257 321 375
#     4  10  21  40  66  90 132 165 207 264 314 374
#     4  11  22  42  66  95 126 169 211 262 312 381
#
# _framework density 25.812152000000001
#
# number of rings (size 3 to 8) (size 9 to 14) (size 15 to 20)
#    0.000    2.000    1.429    1.286    2.000    1.143 
#    0.000   12.857    0.000    0.000    0.000    0.000 
#    0.000    0.000    0.000    0.000    0.000    0.000 
#
# Total GULP energy -78345.061649 kJ/mol
# GULP energy per Si atom -5596.075832 kJ/mol
# Density = 2.575340 g / cm^3
# Si number density = 25.812152 Si / 1000 Ang^3
#
#
#
# Elastic Constant Matrix: (Units=GPa)
#
#
# Indices 1 2 3 4 5 6 
#
# 1 75.8505 17.5612 14.2252 6.4456 14.3115 11.1651
# 2 17.5612 64.1743 29.7013 -25.1292 10.7442 2.0794
# 3 14.2252 29.7013 90.4033 11.8559 21.6026 11.0846
# 4 6.4456 -25.1292 11.8559 49.4179 8.7736 5.4968
# 5 14.3115 10.7442 21.6026 8.7736 35.3878 -0.0127
# 6 11.1651 2.0794 11.0846 5.4968 -0.0127 24.9449
#
#
#
# Elastic Compliance Matrix: (Units=1/GPa)
#
#
# Indices 1 2 3 4 5 6 
#
# 1 0.016485 -0.005848 0.001898 -0.003912 -0.005083 -0.006875
# 2 -0.005848 0.030717 -0.010511 0.019835 -0.005462 0.000354
# 3 0.001898 -0.010511 0.017501 -0.008011 -0.006275 -0.005988
# 4 -0.003912 0.019835 -0.008011 0.034642 -0.008140 -0.003980
# 5 -0.005083 -0.005462 -0.006275 -0.008140 0.037824 0.007332
# 6 -0.006875 0.000354 -0.005988 -0.003980 0.007332 0.046678
#
#
# Mechanical properties :
#
#
# Convention : Reuss Voigt Hill
#
# Bulk Modulus (GPa) = 27.94777 39.26704 33.60741
# Shear Modulus (GPa) = 22.25232 33.21281 27.73257
#
# Velocity S-wave (km/s) = 2.93932 3.59097 3.28136
# Velocity P-wave (km/s) = 4.72973 5.69553 5.23495
#
# Compressibility (1/GPa) = 0.03578103
#
# Stress axis : x y z
#
# Youngs Moduli (GPa) = 60.66057 32.55476 57.14060
#
# Poissons Ratio (x) = 0.19037 -0.10844
# Poissons Ratio (y) = 0.35472 0.60062
# Poissons Ratio (z) = -0.11512 0.34219
#
# Static dielectric constant tensor:
#      x y z
#    x 2.008790 0.015270 -0.002230 
#    y 0.015270 2.159150 -0.030980 
#    z -0.002230 -0.030980 1.971460 
# 
# From -- ./inp_files/288615.got.cif
#   From: 2010.05.17/outbox.cif.g08.bks.cpg/sg2_145_cif.got.tgz:288615.got - 2010.06.03 11:33:40.
