data_PCOD9102192
_publ_section_title
;
Structure prediction by ZEFSAII (Michael W. Deem and Ramdas Pophale) SiO2 
 PCOD9102192
Probable space group: P -1
;
_chemical_formula_sum "Si O2"
_cell_formula_units_Z 15
_cell_length_a 23.313799
_cell_length_b 7.468279
_cell_length_c 23.248608
_cell_angle_alpha 132.708183
_cell_angle_beta 167.255912
_cell_angle_gamma 46.971625
_cell_volume 650.732534
_symmetry_space_group_name_H-M "P -1"
_symmetry_group_IT_number 2
_symmetry_cell_setting 'triclinic'
loop_
_space_group_symop_operation_xyz
x,y,z
-x,-y,-z
loop_
_atom_site_type_symbol
_atom_site_label
_atom_site_fract_x
_atom_site_fract_y
_atom_site_fract_z
Si Si1 0.677289 0.176796 0.492570
Si Si2 0.527956 0.199334 0.484419
Si Si3 0.625799 0.644490 0.458852
Si Si4 0.221253 0.648932 0.772343
Si Si5 0.000000 0.500000 0.000000
Si Si6 0.223813 0.071726 0.776665
Si Si7 0.225233 0.999212 0.949342
Si Si8 0.822336 0.550894 0.090302
O O1 0.562893 0.177672 0.444204
O O2 0.634379 0.434256 0.471078
O O3 0.986883 0.081272 0.777516
O O4 0.512608 0.998389 0.256337
O O5 0.237666 0.346131 0.238068
O O6 0.556178 0.920176 0.473256
O O7 0.773305 0.341327 0.771989
O O8 0.906088 0.611605 0.694243
O O9 0.416604 0.588339 0.193568
O O10 0.210664 0.888447 0.776085
O O11 0.000000 0.500000 0.500000
O O12 0.190937 0.747675 0.828907
O O13 0.500000 0.500000 0.000000
O O14 0.192636 0.336049 0.835474
O O15 0.000000 0.000000 0.500000
O O16 0.500000 0.000000 0.000000
O O17 0.192469 0.219568 0.918669
#
# Coordination Sequence:
#
# PCOD9102192 Si02
#       8
#     2   2   2   2   1   2   2   2
#     4  10  20  38  62  88 114 151 196 246 285 344
#     4  11  22  42  62  90 120 156 188 232 292 346
#     4  10  20  38  62  88 114 151 196 246 285 344
#     4  11  22  39  56  80 117 161 201 254 313 369
#     4  10  24  42  62  86 132 156 176 230 294 358
#     4  11  22  39  56  80 117 161 201 254 313 369
#     4   9  19  36  57  79 114 152 192 242 305 340
#     4   9  19  36  57  79 114 152 192 242 305 340
#
# _framework density 23.050944000000001
#
# number of rings (size 3 to 8) (size 9 to 14) (size 15 to 20)
#    0.000    1.867    0.000    4.000    0.000    4.267 
#   14.400    4.000    0.000    0.000    0.000    0.000 
#    0.000    0.000    0.000    0.000    0.000    0.000 
#
# Total GULP energy -83562.183653 kJ/mol
# GULP energy per Si atom -5570.812244 kJ/mol
# Density = 2.299848 g / cm^3
# Si number density = 23.050944 Si / 1000 Ang^3
#
#
#
# Elastic Constant Matrix: (Units=GPa)
#
#
# Indices 1 2 3 4 5 6 
#
# 1 61.8420 7.3530 0.8856 1.7884 -2.0977 -0.9892
# 2 7.3530 66.9294 11.5062 -8.6937 11.6786 -1.6099
# 3 0.8856 11.5062 152.8997 -29.8103 21.3622 -8.8728
# 4 1.7884 -8.6937 -29.8103 9.9717 17.9314 3.4346
# 5 -2.0977 11.6786 21.3622 17.9314 -6.5961 5.1083
# 6 -0.9892 -1.6099 -8.8728 3.4346 5.1083 25.6289
#
#
#
# Elastic Compliance Matrix: (Units=1/GPa)
#
#
# Indices 1 2 3 4 5 6 
#
# 1 0.016238 -0.001353 0.000565 0.001041 -0.002111 0.001018
# 2 -0.001353 0.014095 -0.002613 -0.004214 0.005068 -0.000517
# 3 0.000565 -0.002613 0.005287 -0.001554 0.008284 0.000245
# 4 0.001041 -0.004214 -0.001554 0.023020 0.040520 -0.011924
# 5 -0.002111 0.005068 0.008284 0.040520 -0.005872 -0.001155
# 6 0.001018 -0.000517 0.000245 -0.011924 -0.001155 0.040938
#
#
# Mechanical properties :
#
#
# Convention : Reuss Voigt Hill
#
# Bulk Modulus (GPa) = 34.70007 35.68454 35.19231
# Shear Modulus (GPa) = 45.40774 23.26265 34.33519
#
# Velocity S-wave (km/s) = 4.44315 3.18021 3.86364
# Velocity P-wave (km/s) = 6.43494 5.38510 5.93329
#
# Compressibility (1/GPa) = 0.02881838
#
# Stress axis : x y z
#
# Youngs Moduli (GPa) = 61.58548 70.94843 189.12895
#
# Poissons Ratio (x) = 0.09599 -0.10682
# Poissons Ratio (y) = 0.08332 0.49410
# Poissons Ratio (z) = -0.03478 0.18535
#
# Static dielectric constant tensor:
#      x y z
#    x 1.888650 -0.027210 -0.027050 
#    y -0.027210 1.935510 0.011730 
#    z -0.027050 0.011730 1.799180 
# 
# From -- ./inp_files/621183.got.cif
#   From: 2010.05.17/outbox.cif.g08.bks.cpg/sg2_311_cif.got.tgz:621183.got - 2010.06.03 11:33:40.
