data_PCOD9102931
_publ_section_title
;
Structure prediction by ZEFSAII (Michael W. Deem and Ramdas Pophale) SiO2 
 PCOD9102931
Probable space group: P -1
;
_chemical_formula_sum "Si O2"
_cell_formula_units_Z 16
_cell_length_a 9.907671
_cell_length_b 7.862160
_cell_length_c 17.941683
_cell_angle_alpha 39.928209
_cell_angle_beta 125.211030
_cell_angle_gamma 107.668709
_cell_volume 706.804399
_symmetry_space_group_name_H-M "P -1"
_symmetry_group_IT_number 2
_symmetry_cell_setting 'triclinic'
loop_
_space_group_symop_operation_xyz
x,y,z
-x,-y,-z
loop_
_atom_site_type_symbol
_atom_site_label
_atom_site_fract_x
_atom_site_fract_y
_atom_site_fract_z
Si Si1 0.624870 0.219284 0.663252
Si Si2 0.999768 0.866784 0.159973
Si Si3 0.237995 0.616718 0.843885
Si Si4 0.804371 0.697037 0.284637
Si Si5 0.036796 0.883187 0.421722
Si Si6 0.976313 0.413193 0.898764
Si Si7 0.330666 0.088561 0.366692
Si Si8 0.488103 0.055090 0.134570
O O1 0.500000 0.500000 0.500000
O O2 0.810689 0.275173 0.703757
O O3 0.623093 0.995325 0.674995
O O4 0.585988 0.099669 0.770916
O O5 0.987290 0.741065 0.117241
O O6 0.860078 0.826126 0.185814
O O7 0.995352 0.184766 0.043575
O O8 0.380393 0.782261 0.844438
O O9 0.124315 0.574552 0.894525
O O10 0.347123 0.304195 0.966821
O O11 0.081757 0.830670 0.678335
O O12 0.874314 0.368870 0.412523
O O13 0.909787 0.783595 0.358062
O O14 0.604827 0.822066 0.197221
O O15 0.193432 0.936287 0.406303
O O16 0.783193 0.599259 0.771955
O O17 0.500000 0.000000 0.500000
#
# Coordination Sequence:
#
# PCOD9102931 Si02
#       8
#     2   2   2   2   2   2   2   2
#     4  12  24  39  68  96 125 167 219 260 320 379
#     4  11  23  42  67  92 122 177 213 262 316 381
#     4   9  19  38  59  85 129 160 201 263 318 365
#     4  10  20  38  64  93 123 164 213 257 316 377
#     4   9  19  37  63  87 122 162 208 261 307 384
#     4  10  23  43  64  91 130 166 219 263 317 375
#     4  11  23  42  62  94 131 165 208 269 318 376
#     4  10  21  37  62  94 125 163 210 265 311 383
#
# _framework density 22.637097000000001
#
# number of rings (size 3 to 8) (size 9 to 14) (size 15 to 20)
#    0.000    1.750    2.500    1.500    3.500    3.500 
#    2.250    1.875    0.000    0.000    0.000    0.000 
#    0.000    0.000    0.000    0.000    0.000    0.000 
#
# Total GULP energy -89277.783221 kJ/mol
# GULP energy per Si atom -5579.861451 kJ/mol
# Density = 2.258557 g / cm^3
# Si number density = 22.637097 Si / 1000 Ang^3
#
#
#
# Elastic Constant Matrix: (Units=GPa)
#
#
# Indices 1 2 3 4 5 6 
#
# 1 100.1863 25.9245 26.2610 -4.0505 19.3018 -14.5621
# 2 25.9245 30.4667 15.9300 -5.0095 0.8714 -8.5831
# 3 26.2610 15.9300 72.7010 -29.5461 29.7421 2.3346
# 4 -4.0505 -5.0095 -29.5461 31.6320 1.4753 0.9867
# 5 19.3018 0.8714 29.7421 1.4753 42.5676 2.7636
# 6 -14.5621 -8.5831 2.3346 0.9867 2.7636 25.0623
#
#
#
# Elastic Compliance Matrix: (Units=1/GPa)
#
#
# Indices 1 2 3 4 5 6 
#
# 1 0.014999 -0.010512 -0.000933 -0.000506 -0.006301 0.005917
# 2 -0.010512 0.054041 -0.022157 -0.014766 0.018811 0.012971
# 3 -0.000933 -0.022157 0.056148 0.050999 -0.039406 -0.011023
# 4 -0.000506 -0.014766 0.050999 0.078868 -0.037244 -0.009099
# 5 -0.006301 0.018811 -0.039406 -0.037244 0.054666 0.001890
# 6 0.005917 0.012971 -0.011023 -0.009099 0.001890 0.048957
#
#
# Mechanical properties :
#
#
# Convention : Reuss Voigt Hill
#
# Bulk Modulus (GPa) = 17.24565 37.73167 27.48866
# Shear Modulus (GPa) = 12.68361 28.86830 20.77595
#
# Velocity S-wave (km/s) = 2.36964 3.57496 3.03278
# Velocity P-wave (km/s) = 3.88867 5.80902 4.94300
#
# Compressibility (1/GPa) = 0.05798563
#
# Stress axis : x y z
#
# Youngs Moduli (GPa) = 66.66933 18.50463 17.80997
#
# Poissons Ratio (x) = 0.19451 0.01661
# Poissons Ratio (y) = 0.70080 0.39462
# Poissons Ratio (z) = 0.06217 0.41001
#
# Static dielectric constant tensor:
#      x y z
#    x 1.814630 0.024900 0.007650 
#    y 0.024900 1.937160 -0.068340 
#    z 0.007650 -0.068340 1.884490 
# 
# From -- ./inp_files/379698.got.cif
#   From: 2010.05.17/outbox.cif.g08.bks.cpg/sg2_190_cif.got.tgz:379698.got - 2010.06.03 11:33:40.
