data_PCOD9102780
_publ_section_title
;
Structure prediction by ZEFSAII (Michael W. Deem and Ramdas Pophale) SiO2 
 PCOD9102780
Probable space group: P -1
;
_chemical_formula_sum "Si O2"
_cell_formula_units_Z 16
_cell_length_a 11.121535
_cell_length_b 5.175908
_cell_length_c 16.812091
_cell_angle_alpha 93.565324
_cell_angle_beta 127.092837
_cell_angle_gamma 73.827001
_cell_volume 734.297741
_symmetry_space_group_name_H-M "P -1"
_symmetry_group_IT_number 2
_symmetry_cell_setting 'triclinic'
loop_
_space_group_symop_operation_xyz
x,y,z
-x,-y,-z
loop_
_atom_site_type_symbol
_atom_site_label
_atom_site_fract_x
_atom_site_fract_y
_atom_site_fract_z
Si Si1 0.356716 0.325311 0.023911
Si Si2 0.290895 0.841606 0.900303
Si Si3 0.388290 0.476381 0.212295
Si Si4 0.716273 0.370840 0.663284
Si Si5 0.016393 0.041384 0.323811
Si Si6 0.604549 0.869230 0.316727
Si Si7 0.603574 0.740845 0.489826
Si Si8 0.947485 0.609464 0.392970
O O1 0.547974 0.233443 0.088562
O O2 0.315754 0.434446 0.098259
O O3 0.289559 0.567323 0.939038
O O4 0.304246 0.066074 0.973682
O O5 0.137097 0.957971 0.788089
O O6 0.262717 0.551846 0.236372
O O7 0.478868 0.704893 0.246444
O O8 0.517064 0.186637 0.277299
O O9 0.724892 0.569441 0.598853
O O10 0.529083 0.400882 0.589484
O O11 0.831382 0.084727 0.674149
O O12 0.024367 0.836839 0.397213
O O13 0.987224 0.344775 0.348418
O O14 0.661745 0.817503 0.430661
O O15 0.758527 0.753356 0.322543
O O16 0.500000 0.000000 0.500000
O O17 0.000000 0.500000 0.500000
#
# Coordination Sequence:
#
# PCOD9102780 Si02
#       8
#     2   2   2   2   2   2   2   2
#     4  10  20  38  64  87 118 150 210 255 305 365
#     4  10  21  39  62  89 117 161 196 253 312 366
#     4  11  22  39  63  93 117 157 206 267 302 353
#     4  10  24  38  61  90 124 167 208 250 304 365
#     4  12  26  43  62  91 133 165 203 247 315 376
#     4  11  22  37  62  89 123 155 213 256 305 354
#     4  10  20  39  62  85 118 166 212 252 288 352
#     4  12  26  40  61  91 127 168 200 251 306 363
#
# _framework density 21.789525000000001
#
# number of rings (size 3 to 8) (size 9 to 14) (size 15 to 20)
#    0.000    1.250    1.250    4.875    3.500    2.000 
#    0.000    1.250    0.000    0.000    0.000    0.000 
#    0.000    0.000    0.000    0.000    0.000    0.000 
#
# Total GULP energy -89449.983364 kJ/mol
# GULP energy per Si atom -5590.623960 kJ/mol
# Density = 2.173993 g / cm^3
# Si number density = 21.789525 Si / 1000 Ang^3
#
#
#
# Elastic Constant Matrix: (Units=GPa)
#
#
# Indices 1 2 3 4 5 6 
#
# 1 69.6975 27.9145 16.4623 -2.0456 -7.9686 -15.7057
# 2 27.9145 124.5161 -0.1303 3.7462 -6.2095 -17.2168
# 3 16.4623 -0.1303 56.1321 10.6785 -12.0803 -12.2778
# 4 -2.0456 3.7462 10.6785 33.0450 -7.7284 -6.6251
# 5 -7.9686 -6.2095 -12.0803 -7.7284 21.5505 5.8118
# 6 -15.7057 -17.2168 -12.2778 -6.6251 5.8118 36.4211
#
#
#
# Elastic Compliance Matrix: (Units=1/GPa)
#
#
# Indices 1 2 3 4 5 6 
#
# 1 0.018485 -0.003395 -0.004422 0.004866 0.003730 0.005166
# 2 -0.003395 0.009353 0.002240 -0.000994 0.001449 0.003301
# 3 -0.004422 0.002240 0.022972 -0.004958 0.008875 0.004578
# 4 0.004866 -0.000994 -0.004958 0.035631 0.010215 0.004809
# 5 0.003730 0.001449 0.008875 0.010215 0.057380 -0.002013
# 6 0.005166 0.003301 0.004578 0.004809 -0.002013 0.033984
#
#
# Mechanical properties :
#
#
# Convention : Reuss Voigt Hill
#
# Bulk Modulus (GPa) = 25.21684 37.64874 31.43279
# Shear Modulus (GPa) = 24.73073 31.94325 28.33699
#
# Velocity S-wave (km/s) = 3.37261 3.83298 3.61014
# Velocity P-wave (km/s) = 5.17339 6.07494 5.64220
#
# Compressibility (1/GPa) = 0.03965604
#
# Stress axis : x y z
#
# Youngs Moduli (GPa) = 54.09723 106.91731 43.53177
#
# Poissons Ratio (x) = 0.36297 0.19251
# Poissons Ratio (y) = 0.18365 -0.09752
# Poissons Ratio (z) = 0.23923 -0.23951
#
# Static dielectric constant tensor:
#      x y z
#    x 1.855520 0.014030 0.006480 
#    y 0.014030 1.782010 0.020900 
#    z 0.006480 0.020900 1.835300 
# 
# From -- ./inp_files/71259.got.cif
#   From: 2010.05.17/outbox.cif.g08.bks.cpg/sg2_36_cif.got.tgz:71259.got - 2010.06.03 11:33:40.
