data_PCOD9102615
_publ_section_title
;
Structure prediction by ZEFSAII (Michael W. Deem and Ramdas Pophale) SiO2 
 PCOD9102615
Probable space group: P -1
;
_chemical_formula_sum "Si O2"
_cell_formula_units_Z 16
_cell_length_a 8.524020
_cell_length_b 12.220646
_cell_length_c 9.272608
_cell_angle_alpha 45.809769
_cell_angle_beta 84.290299
_cell_angle_gamma 81.104616
_cell_volume 684.214895
_symmetry_space_group_name_H-M "P -1"
_symmetry_group_IT_number 2
_symmetry_cell_setting 'triclinic'
loop_
_space_group_symop_operation_xyz
x,y,z
-x,-y,-z
loop_
_atom_site_type_symbol
_atom_site_label
_atom_site_fract_x
_atom_site_fract_y
_atom_site_fract_z
Si Si1 0.935503 0.900661 0.724005
Si Si2 0.911244 0.845024 0.074383
Si Si3 0.355784 0.873607 0.440821
Si Si4 0.216289 0.640432 0.885935
Si Si5 0.387352 0.003792 0.866274
Si Si6 0.805821 0.313417 0.614627
Si Si7 0.221835 0.430172 0.825544
Si Si8 0.404260 0.642338 0.151656
O O1 0.046012 0.738991 0.839744
O O2 0.746105 0.959524 0.674352
O O3 0.971416 0.945076 0.845727
O O4 0.000000 0.000000 0.500000
O O5 0.779829 0.922180 0.123855
O O6 0.829725 0.724379 0.092971
O O7 0.056921 0.766123 0.224087
O O8 0.320037 0.753804 0.679525
O O9 0.532683 0.902827 0.352389
O O10 0.281871 0.800499 0.372511
O O11 0.193952 0.489851 0.934852
O O12 0.310506 0.594782 0.064985
O O13 0.500000 0.000000 0.000000
O O14 0.384992 0.828591 0.979351
O O15 0.865549 0.434776 0.389054
O O16 0.679446 0.401374 0.654528
O O17 0.411963 0.419989 0.803648
#
# Coordination Sequence:
#
# PCOD9102615 Si02
#       8
#     2   2   2   2   2   2   2   2
#     4  10  20  38  63  92 128 166 205 259 317 380
#     4  12  23  41  67  98 130 164 216 268 317 377
#     4  10  21  42  64  95 131 163 211 266 322 380
#     4  10  24  40  64  93 127 176 215 250 320 386
#     4  12  22  39  67  99 125 162 208 276 330 363
#     4  11  23  39  67  96 124 173 218 260 315 381
#     4  11  24  43  62  89 135 172 215 262 311 375
#     4  12  22  41  67  94 127 168 216 264 319 383
#
# _framework density 23.384464000000001
#
# number of rings (size 3 to 8) (size 9 to 14) (size 15 to 20)
#    0.000    1.000    5.000    1.125    1.750    3.000 
#    0.000    0.000    0.000    0.000    0.000    0.000 
#    0.000    0.000    0.000    0.000    0.000    0.000 
#
# Total GULP energy -89399.968564 kJ/mol
# GULP energy per Si atom -5587.498035 kJ/mol
# Density = 2.333124 g / cm^3
# Si number density = 23.384464 Si / 1000 Ang^3
#
#
#
# Elastic Constant Matrix: (Units=GPa)
#
#
# Indices 1 2 3 4 5 6 
#
# 1 81.9564 40.9106 18.2977 16.4389 5.9371 -19.5624
# 2 40.9106 102.4619 11.4976 20.1802 -1.1097 -1.3710
# 3 18.2977 11.4976 65.9283 18.6148 0.5611 5.7049
# 4 16.4389 20.1802 18.6148 31.8711 -1.4583 -7.0398
# 5 5.9371 -1.1097 0.5611 -1.4583 33.0301 4.0291
# 6 -19.5624 -1.3710 5.7049 -7.0398 4.0291 47.5718
#
#
#
# Elastic Compliance Matrix: (Units=1/GPa)
#
#
# Indices 1 2 3 4 5 6 
#
# 1 0.019248 -0.006861 -0.004463 -0.001324 -0.004704 0.008455
# 2 -0.006861 0.013625 0.001789 -0.006893 0.001822 -0.003818
# 3 -0.004463 0.001789 0.019924 -0.011754 0.000734 -0.005975
# 4 -0.001324 -0.006893 -0.011754 0.044941 0.001311 0.007206
# 5 -0.004704 0.001822 0.000734 0.001311 0.031773 -0.004467
# 6 0.008455 -0.003818 -0.005975 0.007206 -0.004467 0.026549
#
#
# Mechanical properties :
#
#
# Convention : Reuss Voigt Hill
#
# Bulk Modulus (GPa) = 29.65053 43.52873 36.58963
# Shear Modulus (GPa) = 26.82829 34.47063 30.64946
#
# Velocity S-wave (km/s) = 3.39081 3.84354 3.62425
# Velocity P-wave (km/s) = 5.29502 6.19289 5.76147
#
# Compressibility (1/GPa) = 0.03372621
#
# Stress axis : x y z
#
# Youngs Moduli (GPa) = 51.95472 73.39601 50.19047
#
# Poissons Ratio (x) = 0.50359 0.22400
# Poissons Ratio (y) = 0.35647 -0.08980
# Poissons Ratio (z) = 0.23188 -0.13132
#
# Static dielectric constant tensor:
#      x y z
#    x 1.879480 -0.001480 -0.068820 
#    y -0.001480 1.888970 -0.048710 
#    z -0.068820 -0.048710 2.005350 
# 
# From -- ./inp_files/184083.got.cif
#   From: 2010.05.17/outbox.cif.g08.bks.cpg/sg2_93_cif.got.tgz:184083.got - 2010.06.03 11:33:40.
