data_PCOD9102045
_publ_section_title
;
Structure prediction by ZEFSAII (Michael W. Deem and Ramdas Pophale) SiO2 
 PCOD9102045
Probable space group: P -1
;
_chemical_formula_sum "Si O2"
_cell_formula_units_Z 16
_cell_length_a 9.136340
_cell_length_b 20.573657
_cell_length_c 10.814475
_cell_angle_alpha 141.957359
_cell_angle_beta 139.419126
_cell_angle_gamma 46.128906
_cell_volume 791.739105
_symmetry_space_group_name_H-M "P -1"
_symmetry_group_IT_number 2
_symmetry_cell_setting 'triclinic'
loop_
_space_group_symop_operation_xyz
x,y,z
-x,-y,-z
loop_
_atom_site_type_symbol
_atom_site_label
_atom_site_fract_x
_atom_site_fract_y
_atom_site_fract_z
Si Si1 0.710432 0.807467 0.616738
Si Si2 0.308202 0.502786 0.053682
Si Si3 0.385022 0.261456 0.819615
Si Si4 0.786268 0.090923 0.444775
Si Si5 0.164110 0.899470 0.060897
Si Si6 0.037940 0.729717 0.295557
Si Si7 0.849798 0.098486 0.225962
Si Si8 0.780049 0.564870 0.379686
O O1 0.710515 0.773211 0.422473
O O2 0.457126 0.881357 0.599100
O O3 0.920222 0.864679 0.857315
O O4 0.755463 0.694341 0.552326
O O5 0.128540 0.602560 0.148970
O O6 0.545032 0.541736 0.248499
O O7 0.363047 0.389646 0.991060
O O8 0.213922 0.478815 0.822619
O O9 0.233509 0.239330 0.804783
O O10 0.643997 0.191631 0.889463
O O11 0.879800 0.201968 0.659132
O O12 0.741759 0.064847 0.232613
O O13 0.000000 0.000000 0.500000
O O14 0.237184 0.908905 0.979217
O O15 0.106902 0.017553 0.264299
O O16 0.145508 0.777929 0.555823
O O17 0.000000 0.500000 0.500000
#
# Coordination Sequence:
#
# PCOD9102045 Si02
#       8
#     2   2   2   2   2   2   2   2
#     4  11  21  40  63  89 130 154 209 266 298 377
#     4  10  21  40  63  90 128 160 210 254 305 373
#     4  11  23  39  68  90 120 171 210 250 312 376
#     4  10  21  39  64  90 121 169 202 254 317 363
#     4  11  22  41  63  93 119 169 210 254 317 367
#     4  10  21  44  59  90 130 160 204 263 304 361
#     4   9  22  41  60  88 129 154 210 261 304 366
#     4  10  20  38  61  93 125 164 198 254 316 365
#
# _framework density 20.208677999999999
#
# number of rings (size 3 to 8) (size 9 to 14) (size 15 to 20)
#    0.750    1.000    2.500    1.875    0.000    3.000 
#    6.750    0.625    0.000    0.000    0.000    0.000 
#    0.000    0.000    0.000    0.000    0.000    0.000 
#
# Total GULP energy -89183.676279 kJ/mol
# GULP energy per Si atom -5573.979767 kJ/mol
# Density = 2.016268 g / cm^3
# Si number density = 20.208678 Si / 1000 Ang^3
#
#
#
# Elastic Constant Matrix: (Units=GPa)
#
#
# Indices 1 2 3 4 5 6 
#
# 1 64.3881 8.0956 11.5542 -4.6588 3.0942 -9.4194
# 2 8.0956 107.9284 20.8267 -5.5426 8.4152 -9.7218
# 3 11.5542 20.8267 40.0725 5.1007 8.6580 -0.1243
# 4 -4.6588 -5.5426 5.1007 30.8687 -8.4637 -2.2374
# 5 3.0942 8.4152 8.6580 -8.4637 21.6891 9.1185
# 6 -9.4194 -9.7218 -0.1243 -2.2374 9.1185 30.5049
#
#
#
# Elastic Compliance Matrix: (Units=1/GPa)
#
#
# Indices 1 2 3 4 5 6 
#
# 1 0.017740 0.000649 -0.005486 0.003650 -0.001900 0.006498
# 2 0.000649 0.011110 -0.005552 0.002466 -0.003275 0.004878
# 3 -0.005486 -0.005552 0.034261 -0.011702 -0.015495 0.000450
# 4 0.003650 0.002466 -0.011702 0.040582 0.019437 -0.000968
# 5 -0.001900 -0.003275 -0.015495 0.019437 0.070375 -0.021304
# 6 0.006498 0.004878 0.000450 -0.000968 -0.021304 0.042642
#
#
# Mechanical properties :
#
#
# Convention : Reuss Voigt Hill
#
# Bulk Modulus (GPa) = 23.62311 32.59356 28.10834
# Shear Modulus (GPa) = 19.87302 28.07339 23.97321
#
# Velocity S-wave (km/s) = 3.13931 3.73121 3.44798
# Velocity P-wave (km/s) = 4.98551 5.89288 5.45808
#
# Compressibility (1/GPa) = 0.04233143
#
# Stress axis : x y z
#
# Youngs Moduli (GPa) = 56.37068 90.01295 29.18788
#
# Poissons Ratio (x) = -0.05841 0.16013
# Poissons Ratio (y) = -0.03658 0.16205
# Poissons Ratio (z) = 0.30926 0.49975
#
# Static dielectric constant tensor:
#      x y z
#    x 1.736760 0.015520 0.011520 
#    y 0.015520 1.703610 0.026930 
#    z 0.011520 0.026930 1.728180 
# 
# From -- ./inp_files/405621.got.cif
#   From: 2010.05.17/outbox.cif.g08.bks.cpg/sg2_203_cif.got.tgz:405621.got - 2010.06.03 11:33:40.
