data_PCOD9102224
_publ_section_title
;
Structure prediction by ZEFSAII (Michael W. Deem and Ramdas Pophale) SiO2 
 PCOD9102224
Probable space group: P -1
;
_chemical_formula_sum "Si O2"
_cell_formula_units_Z 16
_cell_length_a 12.291438
_cell_length_b 7.833640
_cell_length_c 14.183845
_cell_angle_alpha 122.744596
_cell_angle_beta 38.407885
_cell_angle_gamma 105.594230
_cell_volume 681.499293
_symmetry_space_group_name_H-M "P -1"
_symmetry_group_IT_number 2
_symmetry_cell_setting 'triclinic'
loop_
_space_group_symop_operation_xyz
x,y,z
-x,-y,-z
loop_
_atom_site_type_symbol
_atom_site_label
_atom_site_fract_x
_atom_site_fract_y
_atom_site_fract_z
Si Si1 0.107199 0.368112 0.184068
Si Si2 0.460485 0.800168 0.345022
Si Si3 0.444404 0.604891 0.723860
Si Si4 0.117338 0.835725 0.297968
Si Si5 0.900346 0.057028 0.870822
Si Si6 0.471869 0.746201 0.115200
Si Si7 0.762207 0.432346 0.320734
Si Si8 0.762724 0.979566 0.260542
O O1 0.102890 0.609343 0.277708
O O2 0.972480 0.399968 0.194391
O O3 0.039096 0.201566 0.244321
O O4 0.323100 0.247261 0.006924
O O5 0.488113 0.559502 0.286521
O O6 0.383746 0.824157 0.299728
O O7 0.333648 0.954977 0.553111
O O8 0.656899 0.843197 0.235657
O O9 0.624600 0.594902 0.536106
O O10 0.320020 0.507791 0.708930
O O11 0.308447 0.821057 0.920592
O O12 0.065126 0.866778 0.233277
O O13 0.324267 0.857319 0.170746
O O14 0.000000 0.000000 0.500000
O O15 0.026041 0.117519 0.884372
O O16 0.500000 0.500000 0.000000
O O17 0.735730 0.200434 0.289563
#
# Coordination Sequence:
#
# PCOD9102224 Si02
#       8
#     2   2   2   2   2   2   2   2
#     4  10  24  42  66  93 130 169 204 269 322 371
#     4  10  20  38  62  88 127 170 204 267 324 376
#     4  10  21  36  61  94 132 162 207 259 306 399
#     4  11  25  46  68  94 125 169 222 266 309 379
#     4  11  24  41  65  99 125 165 212 266 320 383
#     4  10  22  41  63  90 125 169 215 262 312 373
#     4   9  21  40  58  95 134 165 206 253 329 386
#     4   9  21  37  60  94 127 162 209 258 331 391
#
# _framework density 23.477649
#
# number of rings (size 3 to 8) (size 9 to 14) (size 15 to 20)
#    0.000    2.000    0.000    2.250    5.250    3.500 
#    2.250    2.500    0.000    0.000    0.000    0.000 
#    0.000    0.000    0.000    0.000    0.000    0.000 
#
# Total GULP energy -89236.034077 kJ/mol
# GULP energy per Si atom -5577.252130 kJ/mol
# Density = 2.342421 g / cm^3
# Si number density = 23.477649 Si / 1000 Ang^3
#
#
#
# Elastic Constant Matrix: (Units=GPa)
#
#
# Indices 1 2 3 4 5 6 
#
# 1 87.1373 9.7946 8.7538 -1.2843 -14.1718 4.8803
# 2 9.7946 66.0538 25.5541 14.9184 10.6055 2.9947
# 3 8.7538 25.5541 76.3773 9.7015 -5.8937 4.4778
# 4 -1.2843 14.9184 9.7015 19.5055 7.1819 -10.0231
# 5 -14.1718 10.6055 -5.8937 7.1819 42.2304 -1.4772
# 6 4.8803 2.9947 4.4778 -10.0231 -1.4772 23.3628
#
#
#
# Elastic Compliance Matrix: (Units=1/GPa)
#
#
# Indices 1 2 3 4 5 6 
#
# 1 0.012662 -0.002516 -0.000130 0.000046 0.004786 -0.001975
# 2 -0.002516 0.022662 -0.004710 -0.018529 -0.004381 -0.009703
# 3 -0.000130 -0.004710 0.016695 -0.009853 0.004918 -0.006485
# 4 0.000046 -0.018529 -0.009853 0.098121 -0.011798 0.045604
# 5 0.004786 -0.004381 0.004918 -0.011798 0.028917 -0.004614
# 6 -0.001975 -0.009703 -0.006485 0.045604 -0.004614 0.064976
#
#
# Mechanical properties :
#
#
# Convention : Reuss Voigt Hill
#
# Bulk Modulus (GPa) = 26.80459 35.30816 31.05637
# Shear Modulus (GPa) = 18.43783 29.38414 23.91099
#
# Velocity S-wave (km/s) = 2.80542 3.54160 3.19479
# Velocity P-wave (km/s) = 4.68356 5.63876 5.18321
#
# Compressibility (1/GPa) = 0.03730705
#
# Stress axis : x y z
#
# Youngs Moduli (GPa) = 78.97808 44.12576 59.89890
#
# Poissons Ratio (x) = 0.11104 0.00778
# Poissons Ratio (y) = 0.19875 0.28210
# Poissons Ratio (z) = 0.01026 0.20781
#
# Static dielectric constant tensor:
#      x y z
#    x 1.838710 0.030320 -0.054140 
#    y 0.030320 1.910610 -0.056530 
#    z -0.054140 -0.056530 1.935990 
# 
# From -- ./inp_files/245072.got.cif
#   From: 2010.05.17/outbox.cif.g08.bks.cpg/sg2_123_cif.got.tgz:245072.got - 2010.06.03 11:33:40.
