data_PCOD9102443
_publ_section_title
;
Structure prediction by ZEFSAII (Michael W. Deem and Ramdas Pophale) SiO2 
 PCOD9102443
Probable space group: P -1
;
_chemical_formula_sum "Si O2"
_cell_formula_units_Z 12
_cell_length_a 9.522842
_cell_length_b 15.018144
_cell_length_c 5.699716
_cell_angle_alpha 120.957334
_cell_angle_beta 123.600952
_cell_angle_gamma 51.638506
_cell_volume 513.808813
_symmetry_space_group_name_H-M "P -1"
_symmetry_group_IT_number 2
_symmetry_cell_setting 'triclinic'
loop_
_space_group_symop_operation_xyz
x,y,z
-x,-y,-z
loop_
_atom_site_type_symbol
_atom_site_label
_atom_site_fract_x
_atom_site_fract_y
_atom_site_fract_z
Si Si1 0.021821 0.602035 0.403841
Si Si2 0.685025 0.562752 0.201543
Si Si3 0.990648 0.175720 0.051492
Si Si4 0.623740 0.237131 0.054773
Si Si5 0.758217 0.344458 0.695803
Si Si6 0.420612 0.978455 0.146774
O O1 0.204251 0.487554 0.521378
O O2 0.079858 0.636899 0.263436
O O3 0.840403 0.581039 0.214496
O O4 0.984129 0.711985 0.687358
O O5 0.499600 0.687883 0.179447
O O6 0.658102 0.456262 0.922970
O O7 0.844716 0.164082 0.081684
O O8 0.194459 0.066198 0.061011
O O9 0.870969 0.220986 0.764365
O O10 0.619274 0.332733 0.364234
O O11 0.547468 0.154111 0.982649
O O12 0.500000 0.000000 0.500000
O O13 0.500000 0.000000 0.000000
#
# Coordination Sequence:
#
# PCOD9102443 Si02
#       6
#     2   2   2   2   2   2
#     4   9  20  39  64  97 142 181 231 287 340 421
#     4  10  20  38  63 101 138 185 229 283 350 416
#     4  10  24  44  69  98 142 180 232 290 358 413
#     4  11  25  42  69 100 143 180 234 291 357 420
#     4  10  22  38  66 100 139 183 224 289 349 424
#     4  12  30  51  77 104 136 187 243 298 351 422
#
# _framework density 23.354990000000001
#
# number of rings (size 3 to 8) (size 9 to 14) (size 15 to 20)
#    0.000    1.667    0.000    2.500    9.333    8.000 
#    0.000    0.000    0.000    0.000    0.000    0.000 
#    0.000    0.000    0.000    0.000    0.000    0.000 
#
# Total GULP energy -67099.082850 kJ/mol
# GULP energy per Si atom -5591.590238 kJ/mol
# Density = 2.330183 g / cm^3
# Si number density = 23.354990 Si / 1000 Ang^3
#
#
#
# Elastic Constant Matrix: (Units=GPa)
#
#
# Indices 1 2 3 4 5 6 
#
# 1 132.0298 42.9482 35.3722 -1.6483 -5.3905 13.8919
# 2 42.9482 110.4676 2.7012 -22.1691 1.2333 -7.0260
# 3 35.3722 2.7012 49.2692 -7.7683 0.0878 0.4341
# 4 -1.6483 -22.1691 -7.7683 23.6323 5.9038 6.0524
# 5 -5.3905 1.2333 0.0878 5.9038 29.1926 1.1029
# 6 13.8919 -7.0260 0.4341 6.0524 1.1029 49.1957
#
#
#
# Elastic Compliance Matrix: (Units=1/GPa)
#
#
# Indices 1 2 3 4 5 6 
#
# 1 0.013117 -0.007008 -0.010491 -0.009390 0.004783 -0.003564
# 2 -0.007008 0.015180 0.006840 0.016810 -0.005436 0.002140
# 3 -0.010491 0.006840 0.030056 0.016543 -0.005729 0.001767
# 4 -0.009390 0.016810 0.016543 0.067663 -0.016062 -0.003058
# 5 0.004783 -0.005436 -0.005729 -0.016062 0.038670 -0.000967
# 6 -0.003564 0.002140 0.001767 -0.003058 -0.000967 0.022021
#
#
# Mechanical properties :
#
#
# Convention : Reuss Voigt Hill
#
# Bulk Modulus (GPa) = 27.00015 50.42331 38.71173
# Shear Modulus (GPa) = 22.68903 34.45378 28.57141
#
# Velocity S-wave (km/s) = 3.12025 3.84503 3.50144
# Velocity P-wave (km/s) = 4.95652 6.43033 5.74092
#
# Compressibility (1/GPa) = 0.03703684
#
# Stress axis : x y z
#
# Youngs Moduli (GPa) = 76.23513 65.87634 33.27078
#
# Poissons Ratio (x) = 0.46164 0.34904
# Poissons Ratio (y) = 0.53424 -0.22758
# Poissons Ratio (z) = 0.79976 -0.45060
#
# Static dielectric constant tensor:
#      x y z
#    x 1.881910 -0.005350 -0.031380 
#    y -0.005350 1.843080 0.002760 
#    z -0.031380 0.002760 1.913660 
# 
# From -- ./inp_files/28636.got.cif
#   From: 2010.05.17/outbox.cif.g08.bks.cpg/sg2_15_cif.got.tgz:28636.got - 2010.06.03 11:33:40.
