data_PCOD9102283
_publ_section_title
;
Structure prediction by ZEFSAII (Michael W. Deem and Ramdas Pophale) SiO2 
 PCOD9102283
Probable space group: P -1
;
_chemical_formula_sum "Si O2"
_cell_formula_units_Z 16
_cell_length_a 9.178473
_cell_length_b 8.810808
_cell_length_c 12.440627
_cell_angle_alpha 99.184058
_cell_angle_beta 45.479195
_cell_angle_gamma 92.593583
_cell_volume 704.945703
_symmetry_space_group_name_H-M "P -1"
_symmetry_group_IT_number 2
_symmetry_cell_setting 'triclinic'
loop_
_space_group_symop_operation_xyz
x,y,z
-x,-y,-z
loop_
_atom_site_type_symbol
_atom_site_label
_atom_site_fract_x
_atom_site_fract_y
_atom_site_fract_z
Si Si1 0.985964 0.533145 0.638257
Si Si2 0.689907 0.027484 0.618196
Si Si3 0.903103 0.595474 0.223804
Si Si4 0.389359 0.659201 0.166682
Si Si5 0.772740 0.646958 0.071214
Si Si6 0.248532 0.001975 0.885023
Si Si7 0.742127 0.175901 0.939511
Si Si8 0.076238 0.108745 0.316766
O O1 0.147521 0.451727 0.633342
O O2 0.783887 0.454871 0.767395
O O3 0.963483 0.716765 0.681506
O O4 0.000000 0.500000 0.500000
O O5 0.682094 0.195464 0.701824
O O6 0.856810 0.040565 0.440984
O O7 0.458421 0.994072 0.702376
O O8 0.798393 0.908490 0.636978
O O9 0.058361 0.729366 0.158850
O O10 0.749488 0.648488 0.212502
O O11 0.022401 0.442662 0.090679
O O12 0.585640 0.569697 0.107944
O O13 0.423068 0.736778 0.043280
O O14 0.751188 0.820550 0.058590
O O15 0.309562 0.860145 0.917044
O O16 0.000000 0.000000 0.000000
O O17 0.798376 0.006585 0.841763
#
# Coordination Sequence:
#
# PCOD9102283 Si02
#       8
#     2   2   2   2   2   2   2   2
#     4  11  21  37  63  89 119 162 208 250 304 371
#     4   9  20  36  60  88 120 156 199 251 315 358
#     4  10  22  38  60  89 124 164 201 252 316 368
#     4   9  20  37  62  87 118 155 207 261 306 361
#     4  10  21  40  61  85 127 161 201 258 316 365
#     4  11  21  38  62  89 122 162 205 256 307 374
#     4  10  21  37  63  92 121 160 210 258 311 366
#     4  10  20  38  62  90 124 157 202 262 307 366
#
# _framework density 22.696784999999998
#
# number of rings (size 3 to 8) (size 9 to 14) (size 15 to 20)
#    0.000    2.000    2.500    0.750    1.750    8.500 
#    0.000    1.250    0.000    0.000    0.000    0.000 
#    0.000    0.000    0.000    0.000    0.000    0.000 
#
# Total GULP energy -89115.486160 kJ/mol
# GULP energy per Si atom -5569.717885 kJ/mol
# Density = 2.264513 g / cm^3
# Si number density = 22.696785 Si / 1000 Ang^3
#
#
#
# Elastic Constant Matrix: (Units=GPa)
#
#
# Indices 1 2 3 4 5 6 
#
# 1 110.4961 11.7715 34.7498 -20.8970 -2.5711 -11.7127
# 2 11.7715 87.6744 14.6860 -22.8705 14.7344 -7.0974
# 3 34.7498 14.6860 54.7978 -16.4263 2.0776 -9.9514
# 4 -20.8970 -22.8705 -16.4263 28.1764 1.2719 6.7280
# 5 -2.5711 14.7344 2.0776 1.2719 40.4365 -8.1829
# 6 -11.7127 -7.0974 -9.9514 6.7280 -8.1829 26.2927
#
#
#
# Elastic Compliance Matrix: (Units=1/GPa)
#
#
# Indices 1 2 3 4 5 6 
#
# 1 0.012141 0.000841 -0.005843 0.005684 0.001052 0.002297
# 2 0.000841 0.015976 -0.000641 0.013759 -0.006383 -0.001063
# 3 -0.005843 -0.000641 0.025681 0.009120 -0.000866 0.004341
# 4 0.005684 0.013759 0.009120 0.058472 -0.008565 -0.007929
# 5 0.001052 -0.006383 -0.000866 -0.008565 0.029412 0.009763
# 6 0.002297 -0.001063 0.004341 -0.007929 0.009763 0.045480
#
#
# Mechanical properties :
#
#
# Convention : Reuss Voigt Hill
#
# Bulk Modulus (GPa) = 23.52355 41.70924 32.61639
# Shear Modulus (GPa) = 23.51599 31.76519 27.64059
#
# Velocity S-wave (km/s) = 3.22233 3.74511 3.49351
# Velocity P-wave (km/s) = 4.92253 6.09243 5.53846
#
# Compressibility (1/GPa) = 0.04251059
#
# Stress axis : x y z
#
# Youngs Moduli (GPa) = 82.36442 62.59272 38.93882
#
# Poissons Ratio (x) = -0.05262 0.22754
# Poissons Ratio (y) = -0.06924 0.02497
# Poissons Ratio (z) = 0.48129 0.04014
#
# Static dielectric constant tensor:
#      x y z
#    x 1.979510 -0.021390 -0.016860 
#    y -0.021390 1.827910 0.000510 
#    z -0.016860 0.000510 1.924710 
# 
# From -- ./inp_files/283447.got.cif
#   From: 2010.05.17/outbox.cif.g08.bks.cpg/sg2_142_cif.got.tgz:283447.got - 2010.06.03 11:33:40.
