data_PCOD9102959
_publ_section_title
;
Structure prediction by ZEFSAII (Michael W. Deem and Ramdas Pophale) SiO2 
 PCOD9102959
Probable space group: P -1
;
_chemical_formula_sum "Si O2"
_cell_formula_units_Z 16
_cell_length_a 8.930459
_cell_length_b 9.302603
_cell_length_c 14.479268
_cell_angle_alpha 63.770000
_cell_angle_beta 84.972756
_cell_angle_gamma 50.346723
_cell_volume 797.166814
_symmetry_space_group_name_H-M "P -1"
_symmetry_group_IT_number 2
_symmetry_cell_setting 'triclinic'
loop_
_space_group_symop_operation_xyz
x,y,z
-x,-y,-z
loop_
_atom_site_type_symbol
_atom_site_label
_atom_site_fract_x
_atom_site_fract_y
_atom_site_fract_z
Si Si1 0.125588 0.616896 0.733730
Si Si2 0.146695 0.584299 0.531216
Si Si3 0.535143 0.620742 0.079882
Si Si4 0.020779 0.036383 0.701541
Si Si5 0.884177 0.160673 0.875831
Si Si6 0.694122 0.756241 0.525286
Si Si7 0.805599 0.565486 0.762933
Si Si8 0.580927 0.220657 0.153459
O O1 0.208545 0.565602 0.639129
O O2 0.288969 0.435904 0.849971
O O3 0.934863 0.633903 0.744209
O O4 0.067971 0.838604 0.702158
O O5 0.299406 0.350691 0.539076
O O6 0.118131 0.755511 0.415878
O O7 0.911343 0.691882 0.523498
O O8 0.350014 0.701877 0.130855
O O9 0.614093 0.390665 0.104780
O O10 0.453748 0.783898 0.952242
O O11 0.929634 0.065448 0.798755
O O12 0.230113 0.976193 0.739887
O O13 0.935309 0.312182 0.836689
O O14 0.000000 0.000000 0.000000
O O15 0.718902 0.618754 0.649018
O O16 0.500000 0.000000 0.500000
O O17 0.623214 0.684785 0.811124
#
# Coordination Sequence:
#
# PCOD9102959 Si02
#       8
#     2   2   2   2   2   2   2   2
#     4  10  23  40  59  91 132 161 198 263 323 365
#     4  10  21  39  62  91 130 164 206 260 315 376
#     4   9  19  37  55  85 120 159 202 253 304 370
#     4  11  20  39  66  90 121 168 209 257 313 370
#     4  11  21  39  64  89 119 164 219 255 301 376
#     4  10  20  38  64  94 122 164 216 259 307 375
#     4  10  21  39  61  91 122 160 209 262 310 370
#     4   9  18  34  63  83 111 163 212 244 300 373
#
# _framework density 20.071082000000001
#
# number of rings (size 3 to 8) (size 9 to 14) (size 15 to 20)
#    0.000    2.000    2.500    1.125    1.750    0.500 
#    4.500    1.250    0.000    0.000    0.000    0.000 
#    0.000    0.000    0.000    0.000    0.000    0.000 
#
# Total GULP energy -89107.811291 kJ/mol
# GULP energy per Si atom -5569.238206 kJ/mol
# Density = 2.002540 g / cm^3
# Si number density = 20.071082 Si / 1000 Ang^3
#
#
#
# Elastic Constant Matrix: (Units=GPa)
#
#
# Indices 1 2 3 4 5 6 
#
# 1 38.2324 22.1988 22.4606 15.2610 2.8435 0.9085
# 2 22.1988 114.2471 42.7788 23.9946 -0.1677 -1.0294
# 3 22.4606 42.7788 119.7035 23.8940 -3.5576 12.0025
# 4 15.2610 23.9946 23.8940 40.4756 2.7628 0.3196
# 5 2.8435 -0.1677 -3.5576 2.7628 23.1004 1.0818
# 6 0.9085 -1.0294 12.0025 0.3196 1.0818 17.0417
#
#
#
# Elastic Compliance Matrix: (Units=1/GPa)
#
#
# Indices 1 2 3 4 5 6 
#
# 1 0.033903 -0.003463 -0.003676 -0.008307 -0.003816 0.000971
# 2 -0.003463 0.011340 -0.002949 -0.003724 0.000360 0.002993
# 3 -0.003676 -0.002949 0.011835 -0.003999 0.003127 -0.008441
# 4 -0.008307 -0.003724 -0.003999 0.032635 -0.003648 0.002654
# 5 -0.003816 0.000360 0.003127 -0.003648 0.044902 -0.004760
# 6 0.000971 0.002993 -0.008441 0.002654 -0.004760 0.065006
#
#
# Mechanical properties :
#
#
# Convention : Reuss Voigt Hill
#
# Bulk Modulus (GPa) = 27.09947 49.67325 38.38636
# Shear Modulus (GPa) = 21.54258 28.43986 24.99122
#
# Velocity S-wave (km/s) = 3.27970 3.76833 3.53248
# Velocity P-wave (km/s) = 5.27949 6.61333 5.98369
#
# Compressibility (1/GPa) = 0.03690109
#
# Stress axis : x y z
#
# Youngs Moduli (GPa) = 29.49600 88.18622 84.49338
#
# Poissons Ratio (x) = 0.30540 0.31063
# Poissons Ratio (y) = 0.10215 0.24915
# Poissons Ratio (z) = 0.10844 0.26004
#
# Static dielectric constant tensor:
#      x y z
#    x 1.726720 -0.012860 0.022610 
#    y -0.012860 1.778740 -0.025910 
#    z 0.022610 -0.025910 1.743650 
# 
# From -- ./inp_files/492515.got.cif
#   From: 2010.05.17/outbox.cif.g08.bks.cpg/sg2_247_cif.got.tgz:492515.got - 2010.06.03 11:33:40.
