data_PCOD9102604
_publ_section_title
;
Structure prediction by ZEFSAII (Michael W. Deem and Ramdas Pophale) SiO2 
 PCOD9102604
Probable space group: P -1
;
_chemical_formula_sum "Si O2"
_cell_formula_units_Z 14
_cell_length_a 12.593355
_cell_length_b 18.749096
_cell_length_c 9.881341
_cell_angle_alpha 29.698352
_cell_angle_beta 145.394626
_cell_angle_gamma 147.626126
_cell_volume 582.674578
_symmetry_space_group_name_H-M "P -1"
_symmetry_group_IT_number 2
_symmetry_cell_setting 'triclinic'
loop_
_space_group_symop_operation_xyz
x,y,z
-x,-y,-z
loop_
_atom_site_type_symbol
_atom_site_label
_atom_site_fract_x
_atom_site_fract_y
_atom_site_fract_z
Si Si1 0.733463 0.148306 0.500013
Si Si2 0.342968 0.826987 0.928472
Si Si3 0.827555 0.775689 0.072054
Si Si4 0.268335 0.496280 0.389992
Si Si5 0.205840 0.476612 0.771386
Si Si6 0.920429 0.592482 0.953518
Si Si7 0.472146 0.819457 0.516808
O O1 0.741279 0.207498 0.258220
O O2 0.698129 0.236266 0.448841
O O3 0.935450 0.124992 0.788983
O O4 0.500000 0.000000 0.500000
O O5 0.126159 0.769896 0.878415
O O6 0.503707 0.016632 0.798612
O O7 0.419143 0.688247 0.255047
O O8 0.698470 0.641187 0.272455
O O9 0.821803 0.669195 0.112578
O O10 0.700394 0.869754 0.738236
O O11 0.220813 0.447265 0.263864
O O12 0.051674 0.487460 0.244445
O O13 0.396584 0.649639 0.640054
O O14 0.000000 0.500000 0.500000
O O15 0.208435 0.434097 0.001439
#
# Coordination Sequence:
#
# PCOD9102604 Si02
#       7
#     2   2   2   2   2   2   2
#     4  10  20  38  63  92 125 157 203 253 316 356
#     4   9  18  37  62  89 125 159 197 253 316 355
#     4  12  22  40  65  94 122 165 211 254 298 373
#     4   9  16  34  63  86 119 162 196 248 312 356
#     4  12  21  39  64  89 123 170 211 246 305 373
#     4   9  17  35  65  87 119 169 198 249 308 368
#     4  11  24  37  63  97 123 160 213 257 300 365
#
# _framework density 24.027132999999999
#
# number of rings (size 3 to 8) (size 9 to 14) (size 15 to 20)
#    0.857    0.857    4.286    1.286    0.000    2.286 
#    0.000    6.429    3.143    0.000    0.000    0.000 
#    0.000    0.000    0.000    0.000    0.000    0.000 
#
# Total GULP energy -78037.261418 kJ/mol
# GULP energy per Si atom -5574.090101 kJ/mol
# Density = 2.397245 g / cm^3
# Si number density = 24.027133 Si / 1000 Ang^3
#
#
#
# Elastic Constant Matrix: (Units=GPa)
#
#
# Indices 1 2 3 4 5 6 
#
# 1 62.7209 27.6968 16.5636 2.3984 -13.9168 -11.5280
# 2 27.6968 111.5253 5.4320 -5.0314 -8.9030 12.3983
# 3 16.5636 5.4320 54.5587 2.3809 -2.5224 2.2342
# 4 2.3984 -5.0314 2.3809 36.2881 7.2875 0.6703
# 5 -13.9168 -8.9030 -2.5224 7.2875 37.4996 6.3180
# 6 -11.5280 12.3983 2.2342 0.6703 6.3180 31.5614
#
#
#
# Elastic Compliance Matrix: (Units=1/GPa)
#
#
# Indices 1 2 3 4 5 6 
#
# 1 0.023943 -0.006505 -0.006645 -0.003402 0.005754 0.010692
# 2 -0.006505 0.011520 0.001104 0.001835 0.001264 -0.007272
# 3 -0.006645 0.001104 0.020443 -0.000675 0.000027 -0.004299
# 4 -0.003402 0.001835 -0.000675 0.029383 -0.006369 -0.001265
# 5 0.005754 0.001264 0.000027 -0.006369 0.031098 -0.004487
# 6 0.010692 -0.007272 -0.004299 -0.001265 -0.004487 0.039675
#
#
# Mechanical properties :
#
#
# Convention : Reuss Voigt Hill
#
# Bulk Modulus (GPa) = 31.43189 36.46551 33.94870
# Shear Modulus (GPa) = 26.21109 33.01065 29.61087
#
# Velocity S-wave (km/s) = 3.30645 3.71062 3.51435
# Velocity P-wave (km/s) = 5.26185 5.79379 5.53422
#
# Compressibility (1/GPa) = 0.03181482
#
# Stress axis : x y z
#
# Youngs Moduli (GPa) = 41.76609 86.80241 48.91666
#
# Poissons Ratio (x) = 0.56467 0.32503
# Poissons Ratio (y) = 0.27170 -0.05401
# Poissons Ratio (z) = 0.27752 -0.09583
#
# Static dielectric constant tensor:
#      x y z
#    x 1.993490 -0.000190 -0.047300 
#    y -0.000190 2.029860 -0.046550 
#    z -0.047300 -0.046550 1.962370 
# 
# From -- ./inp_files/278863.got.cif
#   From: 2010.05.17/outbox.cif.g08.bks.cpg/sg2_140_cif.got.tgz:278863.got - 2010.06.03 11:33:40.
