data_PCOD9102531
_publ_section_title
;
Structure prediction by ZEFSAII (Michael W. Deem and Ramdas Pophale) SiO2 
 PCOD9102531
Probable space group: P -1
;
_chemical_formula_sum "Si O2"
_cell_formula_units_Z 16
_cell_length_a 14.834250
_cell_length_b 15.250253
_cell_length_c 11.724999
_cell_angle_alpha 153.039563
_cell_angle_beta 143.688674
_cell_angle_gamma 41.880803
_cell_volume 708.708390
_symmetry_space_group_name_H-M "P -1"
_symmetry_group_IT_number 2
_symmetry_cell_setting 'triclinic'
loop_
_space_group_symop_operation_xyz
x,y,z
-x,-y,-z
loop_
_atom_site_type_symbol
_atom_site_label
_atom_site_fract_x
_atom_site_fract_y
_atom_site_fract_z
Si Si1 0.430409 0.015258 0.162902
Si Si2 0.559230 0.714627 0.306915
Si Si3 0.384858 0.665287 0.860995
Si Si4 0.872826 0.538057 0.511375
Si Si5 0.086060 0.165997 0.919953
Si Si6 0.484191 0.699405 0.567682
Si Si7 0.015474 0.235465 0.660267
Si Si8 0.254843 0.484765 0.216087
O O1 0.488637 0.131317 0.465142
O O2 0.536326 0.081825 0.246512
O O3 0.266688 0.110404 0.059148
O O4 0.397039 0.801542 0.920001
O O5 0.739534 0.673994 0.466968
O O6 0.500000 0.500000 0.000000
O O7 0.488367 0.771623 0.179078
O O8 0.223940 0.624807 0.712394
O O9 0.460903 0.453596 0.654308
O O10 0.000000 0.500000 0.500000
O O11 0.948672 0.651931 0.822268
O O12 0.048267 0.208463 0.798727
O O13 0.007360 0.974795 0.654025
O O14 0.329395 0.635718 0.387492
O O15 0.613943 0.643123 0.729538
O O16 0.864484 0.387482 0.675970
O O17 0.156953 0.339907 0.879324
#
# Coordination Sequence:
#
# PCOD9102531 Si02
#       8
#     2   2   2   2   2   2   2   2
#     4  11  20  38  65  88 121 165 207 250 317 368
#     4   9  18  38  61  84 121 154 203 256 303 364
#     4  11  21  39  65  89 120 167 201 259 316 366
#     4  10  21  40  66  88 124 168 206 257 317 370
#     4  10  20  38  63  89 125 166 204 259 307 372
#     4  11  21  41  62  91 128 158 211 254 313 370
#     4  10  20  40  63  88 126 165 210 252 311 369
#     4  10  22  39  63  91 123 169 204 259 313 371
#
# _framework density 22.576280000000001
#
# number of rings (size 3 to 8) (size 9 to 14) (size 15 to 20)
#    0.000    1.750    5.000    1.125    0.000    2.000 
#    4.500    5.625    0.000    0.000    0.000    0.000 
#    0.000    0.000    0.000    0.000    0.000    0.000 
#
# Total GULP energy -89216.024787 kJ/mol
# GULP energy per Si atom -5576.001549 kJ/mol
# Density = 2.252490 g / cm^3
# Si number density = 22.576280 Si / 1000 Ang^3
#
#
#
# Elastic Constant Matrix: (Units=GPa)
#
#
# Indices 1 2 3 4 5 6 
#
# 1 91.4078 21.4764 46.9666 4.6360 21.4267 17.6296
# 2 21.4764 54.6139 35.2913 20.6932 14.1350 23.6421
# 3 46.9666 35.2913 145.5854 0.7746 11.5149 13.7326
# 4 4.6360 20.6932 0.7746 36.7391 11.0385 11.6335
# 5 21.4267 14.1350 11.5149 11.0385 44.9767 5.7786
# 6 17.6296 23.6421 13.7326 11.6335 5.7786 22.8313
#
#
#
# Elastic Compliance Matrix: (Units=1/GPa)
#
#
# Indices 1 2 3 4 5 6 
#
# 1 0.016250 0.002177 -0.004144 0.002539 -0.006450 -0.011971
# 2 0.002177 0.042964 -0.007394 -0.011843 -0.005328 -0.034341
# 3 -0.004144 -0.007394 0.009626 0.003273 0.000613 0.003243
# 4 0.002539 -0.011843 0.003273 0.038517 -0.006540 -0.009636
# 5 -0.006450 -0.005328 0.000613 -0.006540 0.027597 0.006476
# 6 -0.011971 -0.034341 0.003243 -0.009636 0.006476 0.089923
#
#
# Mechanical properties :
#
#
# Convention : Reuss Voigt Hill
#
# Bulk Modulus (GPa) = 19.95253 55.45287 37.70270
# Shear Modulus (GPa) = 19.20827 33.43427 26.32127
#
# Velocity S-wave (km/s) = 2.92004 3.85248 3.41821
# Velocity P-wave (km/s) = 4.49732 6.66368 5.68465
#
# Compressibility (1/GPa) = 0.05011897
#
# Stress axis : x y z
#
# Youngs Moduli (GPa) = 61.53996 23.27506 103.88290
#
# Poissons Ratio (x) = -0.05068 0.43052
# Poissons Ratio (y) = -0.13399 0.76808
# Poissons Ratio (z) = 0.25504 0.17209
#
# Static dielectric constant tensor:
#      x y z
#    x 1.902870 0.074750 0.008340 
#    y 0.074750 1.942400 -0.002660 
#    z 0.008340 -0.002660 1.884290 
# 
# From -- ./inp_files/455300.got.cif
#   From: 2010.05.17/outbox.cif.g08.bks.cpg/sg2_228_cif.got.tgz:455300.got - 2010.06.03 11:33:40.
