data_PCOD9102497
_publ_section_title
;
Structure prediction by ZEFSAII (Michael W. Deem and Ramdas Pophale) SiO2 
 PCOD9102497
Probable space group: P -1
;
_chemical_formula_sum "Si O2"
_cell_formula_units_Z 16
_cell_length_a 22.027413
_cell_length_b 14.309887
_cell_length_c 11.509694
_cell_angle_alpha 32.885212
_cell_angle_beta 156.517786
_cell_angle_gamma 156.955188
_cell_volume 565.679511
_symmetry_space_group_name_H-M "P -1"
_symmetry_group_IT_number 2
_symmetry_cell_setting 'triclinic'
loop_
_space_group_symop_operation_xyz
x,y,z
-x,-y,-z
loop_
_atom_site_type_symbol
_atom_site_label
_atom_site_fract_x
_atom_site_fract_y
_atom_site_fract_z
Si Si1 0.706614 0.161815 0.980538
Si Si2 0.385596 0.079025 0.142582
Si Si3 0.821879 0.589348 0.429059
Si Si4 0.882727 0.035324 0.011760
Si Si5 0.509544 0.677336 0.444179
Si Si6 0.099936 0.816745 0.374814
Si Si7 0.259100 0.324676 0.551450
Si Si8 0.672081 0.366764 0.056998
O O1 0.685278 0.140214 0.826491
O O2 0.549176 0.879900 0.028662
O O3 0.748932 0.919927 0.581431
O O4 0.948141 0.318060 0.276190
O O5 0.251921 0.129506 0.795961
O O6 0.304241 0.011990 0.200679
O O7 0.627162 0.329683 0.305894
O O8 0.770725 0.582081 0.484531
O O9 0.834882 0.794060 0.186618
O O10 0.085315 0.220560 0.256526
O O11 0.902480 0.131526 0.819215
O O12 0.473584 0.515519 0.653778
O O13 0.384607 0.558454 0.229618
O O14 0.786969 0.278568 0.309553
O O15 0.398956 0.758327 0.226729
O O16 0.858490 0.602245 0.210605
#
# Coordination Sequence:
#
# PCOD9102497 Si02
#       8
#     2   2   2   2   2   2   2   2
#     4  11  23  39  59  92 126 155 199 248 305 346
#     4  11  22  40  63  91 123 159 197 246 298 361
#     4  11  22  39  64  90 125 159 193 245 306 360
#     4  11  19  40  67  88 121 160 201 245 295 363
#     4  11  23  41  65  89 119 160 203 250 296 358
#     4  10  20  38  63  88 111 156 211 240 291 350
#     4  11  20  41  66  89 121 162 201 239 300 362
#     4  10  23  41  62  84 122 162 202 250 297 353
#
# _framework density 28.284568
#
# number of rings (size 3 to 8) (size 9 to 14) (size 15 to 20)
#    0.000    1.250    3.750    5.250    0.000    4.500 
#    0.000    5.625    0.000    5.250    0.000    0.000 
#    0.000    0.000    0.000    0.000    0.000    0.000 
#
# Total GULP energy -89791.011393 kJ/mol
# GULP energy per Si atom -5611.938212 kJ/mol
# Density = 2.822019 g / cm^3
# Si number density = 28.284568 Si / 1000 Ang^3
#
#
#
# Elastic Constant Matrix: (Units=GPa)
#
#
# Indices 1 2 3 4 5 6 
#
# 1 84.8212 5.2639 15.3478 0.2050 0.6015 13.4903
# 2 5.2639 110.0989 33.1445 10.2812 1.0824 6.5780
# 3 15.3478 33.1445 162.6897 11.4595 -5.1084 0.3328
# 4 0.2050 10.2812 11.4595 72.3910 4.1996 8.2542
# 5 0.6015 1.0824 -5.1084 4.1996 39.6114 5.8554
# 6 13.4903 6.5780 0.3328 8.2542 5.8554 46.8104
#
#
#
# Elastic Compliance Matrix: (Units=1/GPa)
#
#
# Indices 1 2 3 4 5 6 
#
# 1 0.012603 -0.000073 -0.001203 0.000582 0.000146 -0.003734
# 2 -0.000073 0.009828 -0.001934 -0.000944 -0.000247 -0.001149
# 3 -0.001203 -0.001934 0.006747 -0.000915 0.000948 0.000613
# 4 0.000582 -0.000944 -0.000915 0.014441 -0.001275 -0.002416
# 5 0.000146 -0.000247 0.000948 -0.001275 0.025956 -0.003036
# 6 -0.003734 -0.001149 0.000613 -0.002416 -0.003036 0.023402
#
#
# Mechanical properties :
#
#
# Convention : Reuss Voigt Hill
#
# Bulk Modulus (GPa) = 43.94138 51.68025 47.81082
# Shear Modulus (GPa) = 46.73660 52.01947 49.37803
#
# Velocity S-wave (km/s) = 4.06935 4.29318 4.18276
# Velocity P-wave (km/s) = 6.13585 6.54877 6.34567
#
# Compressibility (1/GPa) = 0.02275759
#
# Stress axis : x y z
#
# Youngs Moduli (GPa) = 79.34518 101.75275 148.21102
#
# Poissons Ratio (x) = 0.00745 0.17828
# Poissons Ratio (y) = 0.00581 0.28667
# Poissons Ratio (z) = 0.09544 0.19681
#
# Static dielectric constant tensor:
#      x y z
#    x 2.275240 0.017300 0.002630 
#    y 0.017300 2.187150 -0.027990 
#    z 0.002630 -0.027990 2.131360 
# 
# From -- ./inp_files/447319.got.cif
#   From: 2010.05.17/outbox.cif.g08.bks.cpg/sg2_224_cif.got.tgz:447319.got - 2010.06.03 11:33:40.
