data_PCOD9102809
_publ_section_title
;
Structure prediction by ZEFSAII (Michael W. Deem and Ramdas Pophale) SiO2 
 PCOD9102809
Probable space group: P -1
;
_chemical_formula_sum "Si O2"
_cell_formula_units_Z 16
_cell_length_a 11.933185
_cell_length_b 8.240889
_cell_length_c 16.625378
_cell_angle_alpha 125.759308
_cell_angle_beta 135.163915
_cell_angle_gamma 89.050827
_cell_volume 672.301508
_symmetry_space_group_name_H-M "P -1"
_symmetry_group_IT_number 2
_symmetry_cell_setting 'triclinic'
loop_
_space_group_symop_operation_xyz
x,y,z
-x,-y,-z
loop_
_atom_site_type_symbol
_atom_site_label
_atom_site_fract_x
_atom_site_fract_y
_atom_site_fract_z
Si Si1 0.205387 0.801630 0.228664
Si Si2 0.040556 0.595166 0.792438
Si Si3 0.136962 0.575447 0.512972
Si Si4 0.493839 0.552533 0.728775
Si Si5 0.635827 0.389886 0.620941
Si Si6 0.342885 0.270059 0.963547
Si Si7 0.090857 0.943828 0.361479
Si Si8 0.518777 0.190823 0.886899
O O1 0.313235 0.726304 0.317251
O O2 0.099293 0.873645 0.253755
O O3 0.412570 0.104654 0.382088
O O4 0.000000 0.500000 0.000000
O O5 0.027619 0.620653 0.699204
O O6 0.854003 0.572725 0.730419
O O7 0.968122 0.301634 0.688078
O O8 0.285720 0.803210 0.014277
O O9 0.319393 0.568564 0.621641
O O10 0.000000 0.500000 0.500000
O O11 0.288084 0.896010 0.658225
O O12 0.600445 0.561247 0.703340
O O13 0.641588 0.738268 0.934865
O O14 0.332214 0.235173 0.587252
O O15 0.420962 0.562848 0.063452
O O16 0.491356 0.244986 0.980989
O O17 0.099336 0.056364 0.737305
#
# Coordination Sequence:
#
# PCOD9102809 Si02
#       8
#     2   2   2   2   2   2   2   2
#     4   9  16  30  56  88 120 150 186 237 288 336
#     4  10  22  41  61  83 119 156 193 243 288 347
#     4  12  26  41  60  84 117 158 197 242 298 351
#     4  11  22  37  60  90 121 154 191 237 292 349
#     4   9  20  35  55  87 119 152 194 233 285 350
#     4  10  20  38  64  89 117 148 196 250 287 339
#     4   9  19  35  60  90 116 150 192 238 291 341
#     4  10  23  41  62  88 114 155 201 242 295 345
#
# _framework density 23.798845
#
# number of rings (size 3 to 8) (size 9 to 14) (size 15 to 20)
#    0.000    2.000    0.000    3.750    0.000    6.500 
#    0.000    5.625    0.000    0.000    0.000    0.000 
#    0.000    0.000    0.000    0.000    0.000    0.000 
#
# Total GULP energy -89335.965636 kJ/mol
# GULP energy per Si atom -5583.497852 kJ/mol
# Density = 2.374468 g / cm^3
# Si number density = 23.798845 Si / 1000 Ang^3
#
#
#
# Elastic Constant Matrix: (Units=GPa)
#
#
# Indices 1 2 3 4 5 6 
#
# 1 119.8341 13.1423 36.5076 -12.2882 18.5884 -17.6451
# 2 13.1423 15.5137 -1.1740 -2.6749 0.5754 -0.9887
# 3 36.5076 -1.1740 131.7291 7.5804 -2.9270 9.1366
# 4 -12.2882 -2.6749 7.5804 31.2252 -0.8210 5.1546
# 5 18.5884 0.5754 -2.9270 -0.8210 31.0710 -4.8472
# 6 -17.6451 -0.9887 9.1366 5.1546 -4.8472 21.1537
#
#
#
# Elastic Compliance Matrix: (Units=1/GPa)
#
#
# Indices 1 2 3 4 5 6 
#
# 1 0.014216 -0.010797 -0.005182 0.003922 -0.006967 0.011040
# 2 -0.010797 0.073712 0.004091 0.002324 0.004469 -0.006870
# 3 -0.005182 0.004091 0.009776 -0.002829 0.002774 -0.007029
# 4 0.003922 0.002324 -0.002829 0.035137 -0.002432 -0.004517
# 5 -0.006967 0.004469 0.002774 -0.002432 0.036814 0.002227
# 6 0.011040 -0.006870 -0.007029 -0.004517 0.002227 0.060808
#
#
# Mechanical properties :
#
#
# Convention : Reuss Voigt Hill
#
# Bulk Modulus (GPa) = 13.52660 40.44766 26.98713
# Shear Modulus (GPa) = 17.92870 31.26338 24.59604
#
# Velocity S-wave (km/s) = 2.74769 3.62836 3.21829
# Velocity P-wave (km/s) = 3.97019 5.88098 5.01739
#
# Compressibility (1/GPa) = 0.07392838
#
# Stress axis : x y z
#
# Youngs Moduli (GPa) = 70.34152 13.56624 102.29105
#
# Poissons Ratio (x) = 0.14648 0.53011
# Poissons Ratio (y) = 0.75949 -0.41851
# Poissons Ratio (z) = 0.36454 -0.05550
#
# Static dielectric constant tensor:
#      x y z
#    x 1.916520 -0.023960 0.015050 
#    y -0.023960 1.979940 0.096800 
#    z 0.015050 0.096800 1.978040 
# 
# From -- ./inp_files/417362.got.cif
#   From: 2010.05.17/outbox.cif.g08.bks.cpg/sg2_209_cif.got.tgz:417362.got - 2010.06.03 11:33:40.
