data_PCOD9102296
_publ_section_title
;
Structure prediction by ZEFSAII (Michael W. Deem and Ramdas Pophale) SiO2 
 PCOD9102296
Probable space group: P -1
;
_chemical_formula_sum "Si O2"
_cell_formula_units_Z 14
_cell_length_a 5.270245
_cell_length_b 9.563320
_cell_length_c 17.781901
_cell_angle_alpha 66.485100
_cell_angle_beta 122.440198
_cell_angle_gamma 135.467946
_cell_volume 530.241128
_symmetry_space_group_name_H-M "P -1"
_symmetry_group_IT_number 2
_symmetry_cell_setting 'triclinic'
loop_
_space_group_symop_operation_xyz
x,y,z
-x,-y,-z
loop_
_atom_site_type_symbol
_atom_site_label
_atom_site_fract_x
_atom_site_fract_y
_atom_site_fract_z
Si Si1 0.423636 0.931392 0.416204
Si Si2 0.438728 0.490598 0.138112
Si Si3 0.494627 0.417885 0.695461
Si Si4 0.545923 0.379652 0.475416
Si Si5 0.449787 0.877461 0.191352
Si Si6 0.636679 0.869894 0.767341
Si Si7 0.312086 0.774411 0.030655
O O1 0.606208 0.821921 0.465755
O O2 0.966743 0.753803 0.360538
O O3 0.500000 0.000000 0.500000
O O4 0.538125 0.104225 0.340470
O O5 0.439225 0.522680 0.220180
O O6 0.559210 0.350574 0.187157
O O7 0.568496 0.702972 0.083273
O O8 0.028454 0.349327 0.058018
O O9 0.642562 0.612262 0.631471
O O10 0.642228 0.293679 0.730451
O O11 0.500000 0.500000 0.500000
O O12 0.000000 0.500000 0.500000
O O13 0.191070 0.751746 0.103771
O O14 0.390567 0.014666 0.195612
O O15 0.905068 0.014981 0.206228
O O16 0.500000 0.000000 0.000000
#
# Coordination Sequence:
#
# PCOD9102296 Si02
#       7
#     2   2   2   2   2   2   2
#     4  10  21  39  65  94 130 176 221 275 329 391
#     4  10  21  39  68  99 132 176 218 275 332 399
#     4   9  20  40  62  93 134 171 223 270 333 392
#     4  10  20  38  62  90 127 170 217 270 323 388
#     4  10  22  41  68  94 135 175 216 278 328 396
#     4  11  22  42  65  98 132 174 223 269 335 394
#     4  10  20  42  70  98 135 171 225 270 335 397
#
# _framework density 26.403082000000001
#
# number of rings (size 3 to 8) (size 9 to 14) (size 15 to 20)
#    0.000    2.000    1.429    1.714    0.000    0.571 
#    0.000   32.143    0.000    0.000    0.000    0.000 
#    0.000    0.000    0.000    0.000    0.000    0.000 
#
# Total GULP energy -78157.681262 kJ/mol
# GULP energy per Si atom -5582.691519 kJ/mol
# Density = 2.634299 g / cm^3
# Si number density = 26.403082 Si / 1000 Ang^3
#
#
#
# Elastic Constant Matrix: (Units=GPa)
#
#
# Indices 1 2 3 4 5 6 
#
# 1 142.6515 72.2585 25.0033 7.0788 8.0516 -17.5816
# 2 72.2585 160.0376 85.9379 -3.8328 45.0299 -30.8179
# 3 25.0033 85.9379 197.7460 -23.0501 9.4805 -19.0256
# 4 7.0788 -3.8328 -23.0501 66.4808 -34.3783 7.2776
# 5 8.0516 45.0299 9.4805 -34.3783 -2.7910 -5.8793
# 6 -17.5816 -30.8179 -19.0256 7.2776 -5.8793 64.1069
#
#
#
# Elastic Compliance Matrix: (Units=1/GPa)
#
#
# Indices 1 2 3 4 5 6 
#
# 1 0.009092 -0.003497 0.000298 -0.002348 -0.002275 0.000959
# 2 -0.003497 0.006246 -0.001976 0.005600 0.011127 0.001842
# 3 0.000298 -0.001976 0.006096 -0.000549 -0.004747 0.000568
# 4 -0.002348 0.005600 -0.000549 0.007884 -0.014657 -0.000354
# 5 -0.002275 0.011127 -0.004747 -0.014657 -0.026327 0.002566
# 6 0.000959 0.001842 0.000568 -0.000354 0.002566 0.017192
#
#
# Mechanical properties :
#
#
# Convention : Reuss Voigt Hill
#
# Bulk Modulus (GPa) = 90.21229 96.31496 93.26363
# Shear Modulus (GPa) = 146.07685 46.70838 96.39261
#
# Velocity S-wave (km/s) = 7.44619 4.21057 6.04875
# Velocity P-wave (km/s) = 10.40044 7.75863 9.17512
#
# Compressibility (1/GPa) = 0.01108496
#
# Stress axis : x y z
#
# Youngs Moduli (GPa) = 109.98515 160.09174 164.03229
#
# Poissons Ratio (x) = 0.55977 -0.04881
# Poissons Ratio (y) = 0.38457 0.32413
# Poissons Ratio (z) = -0.03273 0.31634
#
# Static dielectric constant tensor:
#      x y z
#    x 2.123020 0.119160 -0.026000 
#    y 0.119160 2.145420 -0.096970 
#    z -0.026000 -0.096970 2.168560 
# 
# From -- ./inp_files/547101.got.cif
#   From: 2010.05.17/outbox.cif.g08.bks.cpg/sg2_274_cif.got.tgz:547101.got - 2010.06.03 11:33:40.
