data_PCOD9102739
_publ_section_title
;
Structure prediction by ZEFSAII (Michael W. Deem and Ramdas Pophale) SiO2 
 PCOD9102739
Probable space group: P -1
;
_chemical_formula_sum "Si O2"
_cell_formula_units_Z 14
_cell_length_a 11.636506
_cell_length_b 9.721803
_cell_length_c 12.066662
_cell_angle_alpha 145.750747
_cell_angle_beta 46.425899
_cell_angle_gamma 117.426074
_cell_volume 536.270107
_symmetry_space_group_name_H-M "P -1"
_symmetry_group_IT_number 2
_symmetry_cell_setting 'triclinic'
loop_
_space_group_symop_operation_xyz
x,y,z
-x,-y,-z
loop_
_atom_site_type_symbol
_atom_site_label
_atom_site_fract_x
_atom_site_fract_y
_atom_site_fract_z
Si Si1 0.375118 0.816715 0.081349
Si Si2 0.903128 0.729812 0.643885
Si Si3 0.531160 0.724597 0.236365
Si Si4 0.786922 0.348460 0.353598
Si Si5 0.811309 0.076620 0.517917
Si Si6 0.850193 0.836009 0.106969
Si Si7 0.372997 0.851066 0.845652
O O1 0.454575 0.522127 0.863428
O O2 0.488437 0.002575 0.160912
O O3 0.212875 0.934234 0.341930
O O4 0.346969 0.809839 0.964572
O O5 0.767285 0.625496 0.601597
O O6 0.000000 0.500000 0.500000
O O7 0.035841 0.814265 0.538959
O O8 0.803131 0.950659 0.936279
O O9 0.373934 0.757774 0.283864
O O10 0.716799 0.703514 0.057341
O O11 0.500000 0.000000 0.500000
O O12 0.802158 0.128897 0.289901
O O13 0.636791 0.359648 0.377618
O O14 0.966331 0.295899 0.141821
O O15 0.839690 0.845963 0.255498
#
# Coordination Sequence:
#
# PCOD9102739 Si02
#       7
#     2   2   2   2   2   2   2
#     4  11  25  46  66  95 141 180 222 275 342 401
#     4  12  22  41  73 102 134 175 229 280 331 395
#     4  10  22  39  67  98 129 171 227 281 327 392
#     4  11  21  41  67  98 137 174 222 279 334 394
#     4  11  21  40  68 101 131 173 226 283 330 392
#     4  10  20  38  64 104 129 166 228 279 332 391
#     4  11  26  47  66  99 138 183 223 272 339 411
#
# _framework density 26.106249999999999
#
# number of rings (size 3 to 8) (size 9 to 14) (size 15 to 20)
#    0.000    1.143    2.857    3.857    2.000    0.571 
#    5.143    2.857    0.000    0.000    0.000    0.000 
#    0.000    0.000    0.000    0.000    0.000    0.000 
#
# Total GULP energy -78369.992262 kJ/mol
# GULP energy per Si atom -5597.856590 kJ/mol
# Density = 2.604683 g / cm^3
# Si number density = 26.106250 Si / 1000 Ang^3
#
#
#
# Elastic Constant Matrix: (Units=GPa)
#
#
# Indices 1 2 3 4 5 6 
#
# 1 118.3645 41.5744 10.7306 11.2773 26.9484 24.5209
# 2 41.5744 118.3339 13.5059 -22.6620 16.4860 20.5037
# 3 10.7306 13.5059 54.9409 -20.9070 18.5325 -0.3886
# 4 11.2773 -22.6620 -20.9070 44.0664 5.7450 3.3714
# 5 26.9484 16.4860 18.5325 5.7450 47.1475 6.8595
# 6 24.5209 20.5037 -0.3886 3.3714 6.8595 49.3660
#
#
#
# Elastic Compliance Matrix: (Units=1/GPa)
#
#
# Indices 1 2 3 4 5 6 
#
# 1 0.012084 -0.003949 -0.002371 -0.005534 -0.003406 -0.003530
# 2 -0.003949 0.012430 0.002499 0.009327 -0.003728 -0.003301
# 3 -0.002371 0.002499 0.029125 0.017357 -0.013231 0.001022
# 4 -0.005534 0.009327 0.017357 0.038778 -0.011346 -0.002060
# 5 -0.003406 -0.003728 -0.013231 -0.011346 0.031104 -0.000411
# 6 -0.003530 -0.003301 0.001022 -0.002060 -0.000411 0.023587
#
#
# Mechanical properties :
#
#
# Convention : Reuss Voigt Hill
#
# Bulk Modulus (GPa) = 21.74000 47.02903 34.38451
# Shear Modulus (GPa) = 29.39735 43.17119 36.28427
#
# Velocity S-wave (km/s) = 3.35933 4.07095 3.73214
# Velocity P-wave (km/s) = 4.83657 6.33644 5.63661
#
# Compressibility (1/GPa) = 0.04599817
#
# Stress axis : x y z
#
# Youngs Moduli (GPa) = 82.75066 80.44846 34.33436
#
# Poissons Ratio (x) = 0.31766 0.08142
# Poissons Ratio (y) = 0.32675 -0.08581
# Poissons Ratio (z) = 0.19624 -0.20105
#
# Static dielectric constant tensor:
#      x y z
#    x 2.143610 -0.040840 0.024700 
#    y -0.040840 2.021190 -0.008750 
#    z 0.024700 -0.008750 2.095510 
# 
# From -- ./inp_files/420157.got.cif
#   From: 2010.05.17/outbox.cif.g08.bks.cpg/sg2_211_cif.got.tgz:420157.got - 2010.06.03 11:33:40.
