data_PCOD9102800
_publ_section_title
;
Structure prediction by ZEFSAII (Michael W. Deem and Ramdas Pophale) SiO2 
 PCOD9102800
Probable space group: P -1
;
_chemical_formula_sum "Si O2"
_cell_formula_units_Z 16
_cell_length_a 12.078589
_cell_length_b 21.222506
_cell_length_c 9.332357
_cell_angle_alpha 152.598240
_cell_angle_beta 38.773089
_cell_angle_gamma 136.549183
_cell_volume 684.710750
_symmetry_space_group_name_H-M "P -1"
_symmetry_group_IT_number 2
_symmetry_cell_setting 'triclinic'
loop_
_space_group_symop_operation_xyz
x,y,z
-x,-y,-z
loop_
_atom_site_type_symbol
_atom_site_label
_atom_site_fract_x
_atom_site_fract_y
_atom_site_fract_z
Si Si1 0.565132 0.242391 0.609969
Si Si2 0.809390 0.140250 0.952645
Si Si3 0.686221 0.335279 0.964289
Si Si4 0.833931 0.837133 0.201095
Si Si5 0.973104 0.839148 0.743054
Si Si6 0.214153 0.612796 0.733968
Si Si7 0.699444 0.516581 0.884883
Si Si8 0.178730 0.380405 0.750419
O O1 0.553799 0.256815 0.822040
O O2 0.367525 0.236381 0.733059
O O3 0.698967 0.375383 0.692099
O O4 0.668423 0.124866 0.195694
O O5 0.005307 0.196173 0.926673
O O6 0.818599 0.996391 0.574929
O O7 0.756270 0.248047 0.106956
O O8 0.847675 0.238045 0.602660
O O9 0.645557 0.366826 0.235604
O O10 0.735112 0.489321 0.163761
O O11 0.899922 0.822081 0.942665
O O12 0.836288 0.757412 0.605004
O O13 0.000000 0.000000 0.000000
O O14 0.199808 0.494121 0.387661
O O15 0.023897 0.591838 0.958744
O O16 0.500000 0.500000 0.000000
O O17 0.742485 0.630393 0.191707
#
# Coordination Sequence:
#
# PCOD9102800 Si02
#       8
#     2   2   2   2   2   2   2   2
#     4  10  22  41  63  90 130 167 214 262 324 381
#     4  10  22  41  61  94 128 167 217 264 318 387
#     4  10  21  42  64  90 131 168 213 265 315 395
#     4  11  22  38  68  90 126 176 210 262 326 379
#     4  11  22  40  64  98 129 160 221 268 310 383
#     4  10  20  38  64  88 124 167 212 262 327 371
#     4  10  23  38  57  93 128 157 217 274 308 384
#     4  10  22  40  64  89 127 176 208 259 329 379
#
# _framework density 23.367531
#
# number of rings (size 3 to 8) (size 9 to 14) (size 15 to 20)
#    0.000    1.750    1.250    3.750    1.750    3.000 
#    0.000    6.250    0.000    0.000    0.000    0.000 
#    0.000    0.000    0.000    0.000    0.000    0.000 
#
# Total GULP energy -89311.001774 kJ/mol
# GULP energy per Si atom -5581.937611 kJ/mol
# Density = 2.331435 g / cm^3
# Si number density = 23.367531 Si / 1000 Ang^3
#
#
#
# Elastic Constant Matrix: (Units=GPa)
#
#
# Indices 1 2 3 4 5 6 
#
# 1 137.4861 29.2026 58.1394 -2.3208 43.4957 -9.8970
# 2 29.2026 64.8246 32.5182 -3.5367 10.0339 -8.1136
# 3 58.1394 32.5182 121.3284 5.3978 38.5758 -8.5264
# 4 -2.3208 -3.5367 5.3978 30.6064 -5.7952 3.4683
# 5 43.4957 10.0339 38.5758 -5.7952 46.5827 -10.3576
# 6 -9.8970 -8.1136 -8.5264 3.4683 -10.3576 31.3169
#
#
#
# Elastic Compliance Matrix: (Units=1/GPa)
#
#
# Indices 1 2 3 4 5 6 
#
# 1 0.011386 -0.002920 -0.001946 -0.000704 -0.008578 -0.000447
# 2 -0.002920 0.019211 -0.004843 0.003160 0.003802 0.003643
# 3 -0.001946 -0.004843 0.013522 -0.004735 -0.009074 -0.000665
# 4 -0.000704 0.003160 -0.004735 0.035539 0.007869 -0.002027
# 5 -0.008578 0.003802 -0.009074 0.007869 0.038883 0.007792
# 6 -0.000447 0.003643 -0.000665 -0.002027 0.007792 0.035355
#
#
# Mechanical properties :
#
#
# Convention : Reuss Voigt Hill
#
# Bulk Modulus (GPa) = 40.48493 62.59548 51.54020
# Shear Modulus (GPa) = 27.54083 35.28647 31.41365
#
# Velocity S-wave (km/s) = 3.43679 3.89017 3.67049
# Velocity P-wave (km/s) = 5.75427 6.85736 6.32989
#
# Compressibility (1/GPa) = 0.02470055
#
# Stress axis : x y z
#
# Youngs Moduli (GPa) = 87.82357 52.05383 73.95502
#
# Poissons Ratio (x) = 0.15198 0.14395
# Poissons Ratio (y) = 0.25641 0.35818
# Poissons Ratio (z) = 0.17095 0.25210
#
# Static dielectric constant tensor:
#      x y z
#    x 1.998760 -0.128750 0.221010 
#    y -0.128750 2.091520 -0.319510 
#    z 0.221010 -0.319510 2.424860 
# 
# From -- ./inp_files/282531.got.cif
#   From: 2010.05.17/outbox.cif.g08.bks.cpg/sg2_142_cif.got.tgz:282531.got - 2010.06.03 11:33:40.
