data_PCOD9102001
_publ_section_title
;
Structure prediction by ZEFSAII (Michael W. Deem and Ramdas Pophale) SiO2 
 PCOD9102001
Probable space group: P -1
;
_chemical_formula_sum "Si O2"
_cell_formula_units_Z 16
_cell_length_a 7.883626
_cell_length_b 9.386530
_cell_length_c 24.221707
_cell_angle_alpha 149.949597
_cell_angle_beta 116.961414
_cell_angle_gamma 68.590369
_cell_volume 798.501817
_symmetry_space_group_name_H-M "P -1"
_symmetry_group_IT_number 2
_symmetry_cell_setting 'triclinic'
loop_
_space_group_symop_operation_xyz
x,y,z
-x,-y,-z
loop_
_atom_site_type_symbol
_atom_site_label
_atom_site_fract_x
_atom_site_fract_y
_atom_site_fract_z
Si Si1 0.136306 0.195214 0.363485
Si Si2 0.977278 0.138229 0.983412
Si Si3 0.251986 0.452461 0.981762
Si Si4 0.278896 0.762310 0.637029
Si Si5 0.568155 0.206317 0.772075
Si Si6 0.404436 0.257560 0.102280
Si Si7 0.035074 0.892115 0.801032
Si Si8 0.432037 0.879042 0.812975
O O1 0.230360 0.462989 0.499781
O O2 0.925352 0.126247 0.335367
O O3 0.094588 0.264456 0.316395
O O4 0.277710 0.944477 0.293544
O O5 0.828260 0.370282 0.021827
O O6 0.953594 0.899460 0.852142
O O7 0.191919 0.276438 0.053894
O O8 0.000000 0.000000 0.000000
O O9 0.336328 0.657158 0.111754
O O10 0.592547 0.782828 0.086830
O O11 0.079487 0.225625 0.900721
O O12 0.405194 0.734268 0.701571
O O13 0.400652 0.979973 0.689675
O O14 0.489130 0.455104 0.807009
O O15 0.402062 0.194053 0.145925
O O16 0.500000 0.000000 0.000000
O O17 0.245205 0.782123 0.789469
#
# Coordination Sequence:
#
# PCOD9102001 Si02
#       8
#     2   2   2   2   2   2   2   2
#     4  10  21  43  66  92 128 166 229 267 306 376
#     4  12  23  33  56  95 129 162 205 255 324 391
#     4  10  20  38  61  90 126 171 209 254 335 394
#     4  10  24  40  67  97 118 176 227 262 307 388
#     4  12  22  38  70  90 130 169 221 259 330 382
#     4  12  22  40  56  94 136 166 196 270 331 385
#     4   9  17  37  61  79 124 170 193 256 319 375
#     4   9  21  39  60  88 129 163 206 261 322 377
#
# _framework density 20.037526
#
# number of rings (size 3 to 8) (size 9 to 14) (size 15 to 20)
#    0.750    0.750    5.000    1.500    1.750    1.500 
#    0.000    0.625    0.000    8.250    0.000    0.000 
#    0.000    0.000    0.000    0.000    0.000    0.000 
#
# Total GULP energy -89188.918099 kJ/mol
# GULP energy per Si atom -5574.307381 kJ/mol
# Density = 1.999192 g / cm^3
# Si number density = 20.037526 Si / 1000 Ang^3
#
#
#
# Elastic Constant Matrix: (Units=GPa)
#
#
# Indices 1 2 3 4 5 6 
#
# 1 63.0594 39.3982 34.7055 -1.1413 -5.3668 -1.1390
# 2 39.3982 145.7523 44.1680 -9.5597 -6.0138 -4.1285
# 3 34.7055 44.1680 115.4203 -18.0785 -14.5156 -4.6420
# 4 -1.1413 -9.5597 -18.0785 24.3425 4.1928 0.5957
# 5 -5.3668 -6.0138 -14.5156 4.1928 25.8183 -6.8632
# 6 -1.1390 -4.1285 -4.6420 0.5957 -6.8632 29.0748
#
#
#
# Elastic Compliance Matrix: (Units=1/GPa)
#
#
# Indices 1 2 3 4 5 6 
#
# 1 0.021663 -0.004494 -0.005444 -0.004979 0.001127 -0.000291
# 2 -0.004494 0.008727 -0.001641 0.001968 0.000063 0.000776
# 3 -0.005444 -0.001641 0.012899 0.007720 0.005198 0.002682
# 4 -0.004979 0.001968 0.007720 0.048097 -0.004224 -0.000666
# 5 0.001127 0.000063 0.005198 -0.004224 0.045716 0.011761
# 6 -0.000291 0.000776 0.002682 -0.000666 0.011761 0.037711
#
#
# Mechanical properties :
#
#
# Convention : Reuss Voigt Hill
#
# Bulk Modulus (GPa) = 49.67420 62.30836 55.99128
# Shear Modulus (GPa) = 24.42840 29.57781 27.00310
#
# Velocity S-wave (km/s) = 3.49540 3.84620 3.67499
# Velocity P-wave (km/s) = 6.41364 7.13356 6.78316
#
# Compressibility (1/GPa) = 0.02013117
#
# Stress axis : x y z
#
# Youngs Moduli (GPa) = 46.16264 114.59176 77.52298
#
# Poissons Ratio (x) = 0.51501 0.42201
# Poissons Ratio (y) = 0.20747 0.12719
# Poissons Ratio (z) = 0.25130 0.18801
#
# Static dielectric constant tensor:
#      x y z
#    x 1.904240 -0.027300 0.030080 
#    y -0.027300 1.736080 -0.014830 
#    z 0.030080 -0.014830 1.701300 
# 
# From -- ./inp_files/187446.got.cif
#   From: 2010.05.17/outbox.cif.g08.bks.cpg/sg2_94_cif.got.tgz:187446.got - 2010.06.03 11:33:40.
