data_PCOD9102031
_publ_section_title
;
Structure prediction by ZEFSAII (Michael W. Deem and Ramdas Pophale) SiO2 
 PCOD9102031
Probable space group: P -1
;
_chemical_formula_sum "Si O2"
_cell_formula_units_Z 16
_cell_length_a 8.959280
_cell_length_b 7.712377
_cell_length_c 14.006393
_cell_angle_alpha 70.698325
_cell_angle_beta 50.290994
_cell_angle_gamma 87.473590
_cell_volume 683.819281
_symmetry_space_group_name_H-M "P -1"
_symmetry_group_IT_number 2
_symmetry_cell_setting 'triclinic'
loop_
_space_group_symop_operation_xyz
x,y,z
-x,-y,-z
loop_
_atom_site_type_symbol
_atom_site_label
_atom_site_fract_x
_atom_site_fract_y
_atom_site_fract_z
Si Si1 0.564412 0.294749 0.394386
Si Si2 0.737874 0.566707 0.881139
Si Si3 0.615266 0.042423 0.599581
Si Si4 0.744044 0.958986 0.138959
Si Si5 0.973826 0.729476 0.577158
Si Si6 0.831282 0.624229 0.442938
Si Si7 0.040955 0.781853 0.145130
Si Si8 0.950499 0.319152 0.121156
O O1 0.564589 0.167674 0.510526
O O2 0.408012 0.420670 0.455995
O O3 0.791246 0.358788 0.257179
O O4 0.464524 0.166818 0.369292
O O5 0.838644 0.384268 0.875949
O O6 0.803882 0.683941 0.735545
O O7 0.850752 0.690345 0.900460
O O8 0.500000 0.500000 0.000000
O O9 0.849342 0.087643 0.512825
O O10 0.487937 0.080992 0.735046
O O11 0.847131 0.131539 0.138302
O O12 0.800841 0.039094 0.995961
O O13 0.850337 0.790494 0.153014
O O14 0.094073 0.563540 0.572340
O O15 0.899191 0.698982 0.505876
O O16 0.940410 0.773672 0.291847
O O17 0.000000 0.500000 0.000000
#
# Coordination Sequence:
#
# PCOD9102031 Si02
#       8
#     2   2   2   2   2   2   2   2
#     4  10  21  37  64  91 120 155 207 254 300 366
#     4  11  24  41  64  90 126 165 207 254 313 369
#     4  10  20  38  61  92 122 157 199 253 308 361
#     4  10  21  39  66  92 126 157 205 263 309 364
#     4  10  23  41  60  90 128 164 201 251 306 369
#     4  10  22  40  61  88 127 163 206 247 303 366
#     4  10  21  41  60  89 125 165 201 257 306 364
#     4  11  22  40  65  94 119 158 213 259 306 367
#
# _framework density 23.397995000000002
#
# number of rings (size 3 to 8) (size 9 to 14) (size 15 to 20)
#    0.000    1.750    3.750    0.000    1.750    2.000 
#    0.000    2.500    0.000    0.000    0.000    0.000 
#    0.000    0.000    0.000    0.000    0.000    0.000 
#
# Total GULP energy -89378.165253 kJ/mol
# GULP energy per Si atom -5586.135328 kJ/mol
# Density = 2.334474 g / cm^3
# Si number density = 23.397995 Si / 1000 Ang^3
#
#
#
# Elastic Constant Matrix: (Units=GPa)
#
#
# Indices 1 2 3 4 5 6 
#
# 1 99.4216 21.5160 48.3685 4.7286 -19.0113 5.8299
# 2 21.5160 62.6776 13.8690 4.6490 -10.1779 0.0241
# 3 48.3685 13.8690 174.2262 14.8326 -17.0498 -3.3372
# 4 4.7286 4.6490 14.8326 23.8945 -4.2220 -6.5585
# 5 -19.0113 -10.1779 -17.0498 -4.2220 53.3930 3.5144
# 6 5.8299 0.0241 -3.3372 -6.5585 3.5144 38.1381
#
#
#
# Elastic Compliance Matrix: (Units=1/GPa)
#
#
# Indices 1 2 3 4 5 6 
#
# 1 0.013033 -0.003260 -0.003081 -0.000178 0.003191 -0.002584
# 2 -0.003260 0.017595 -0.000100 -0.002398 0.001979 -0.000116
# 3 -0.003081 -0.000100 0.006984 -0.003449 0.000814 0.000414
# 4 -0.000178 -0.002398 -0.003449 0.046870 0.001581 0.007641
# 5 0.003191 0.001979 0.000814 0.001581 0.020763 -0.002059
# 6 -0.002584 -0.000116 0.000414 0.007641 -0.002059 0.028156
#
#
# Mechanical properties :
#
#
# Convention : Reuss Voigt Hill
#
# Bulk Modulus (GPa) = 40.43494 55.98136 48.20815
# Shear Modulus (GPa) = 32.35710 39.92325 36.14018
#
# Velocity S-wave (km/s) = 3.72277 4.13518 3.93438
# Velocity P-wave (km/s) = 5.98311 6.83939 6.42553
#
# Compressibility (1/GPa) = 0.02473108
#
# Stress axis : x y z
#
# Youngs Moduli (GPa) = 76.73056 56.83373 143.18238
#
# Poissons Ratio (x) = 0.18526 0.44110
# Poissons Ratio (y) = 0.25012 0.01432
# Poissons Ratio (z) = 0.23638 0.00568
#
# Static dielectric constant tensor:
#      x y z
#    x 1.871170 -0.010100 -0.019350 
#    y -0.010100 1.998510 -0.011660 
#    z -0.019350 -0.011660 1.909250 
# 
# From -- ./inp_files/277771.got.cif
#   From: 2010.05.17/outbox.cif.g08.bks.cpg/sg2_139_cif.got.tgz:277771.got - 2010.06.03 11:33:40.
