data_PCOD9102237
_publ_section_title
;
Structure prediction by ZEFSAII (Michael W. Deem and Ramdas Pophale) SiO2 
 PCOD9102237
Probable space group: P -1
;
_chemical_formula_sum "Si O2"
_cell_formula_units_Z 16
_cell_length_a 8.881753
_cell_length_b 17.969199
_cell_length_c 9.394118
_cell_angle_alpha 150.185127
_cell_angle_beta 93.593308
_cell_angle_gamma 91.540015
_cell_volume 733.934933
_symmetry_space_group_name_H-M "P -1"
_symmetry_group_IT_number 2
_symmetry_cell_setting 'triclinic'
loop_
_space_group_symop_operation_xyz
x,y,z
-x,-y,-z
loop_
_atom_site_type_symbol
_atom_site_label
_atom_site_fract_x
_atom_site_fract_y
_atom_site_fract_z
Si Si1 0.705125 0.290943 0.282172
Si Si2 0.307974 0.371516 0.160301
Si Si3 0.164686 0.163879 0.052093
Si Si4 0.994161 0.325664 0.883885
Si Si5 0.448310 0.010790 0.855066
Si Si6 0.005261 0.677602 0.455430
Si Si7 0.131710 0.874480 0.207452
Si Si8 0.577194 0.882310 0.400597
O O1 0.647554 0.449639 0.532700
O O2 0.819497 0.288648 0.420003
O O3 0.562678 0.158273 0.052716
O O4 0.809792 0.257170 0.100537
O O5 0.258616 0.301215 0.194054
O O6 0.427053 0.277707 0.940171
O O7 0.157956 0.344367 0.004003
O O8 0.093571 0.226039 0.292855
O O9 0.277378 0.044657 0.890296
O O10 0.026811 0.102230 0.834730
O O11 0.003140 0.288014 0.655267
O O12 0.888219 0.197739 0.757296
O O13 0.950648 0.495804 0.171215
O O14 0.494111 0.876969 0.538568
O O15 0.500000 0.000000 0.000000
O O16 0.248200 0.029578 0.446907
O O17 0.500000 0.000000 0.500000
#
# Coordination Sequence:
#
# PCOD9102237 Si02
#       8
#     2   2   2   2   2   2   2   2
#     4   9  20  41  63  88 117 160 200 243 296 359
#     4  10  20  38  64  87 120 152 206 247 291 349
#     4  10  20  38  62  89 116 159 203 246 292 357
#     4   9  18  33  61  90 122 151 194 256 294 348
#     4  11  25  43  60  85 127 161 197 243 304 360
#     4   9  18  35  58  92 121 151 198 244 304 350
#     4   9  20  39  64  89 115 156 204 245 297 348
#     4  11  23  43  59  89 124 158 197 249 297 354
#
# _framework density 21.800298999999999
#
# number of rings (size 3 to 8) (size 9 to 14) (size 15 to 20)
#    0.000    2.250    1.250    0.750    1.750    6.500 
#    4.500    2.500    0.000    0.000    0.000    0.000 
#    0.000    0.000    0.000    0.000    0.000    0.000 
#
# Total GULP energy -89446.076454 kJ/mol
# GULP energy per Si atom -5590.379778 kJ/mol
# Density = 2.175068 g / cm^3
# Si number density = 21.800299 Si / 1000 Ang^3
#
#
#
# Elastic Constant Matrix: (Units=GPa)
#
#
# Indices 1 2 3 4 5 6 
#
# 1 88.0720 26.5166 25.7113 -0.2157 -15.3765 -9.1102
# 2 26.5166 106.7520 31.4230 -27.5409 -18.0125 -12.1714
# 3 25.7113 31.4230 99.7513 0.1162 -21.0570 2.7658
# 4 -0.2157 -27.5409 0.1162 33.7297 -3.7862 -4.2389
# 5 -15.3765 -18.0125 -21.0570 -3.7862 29.9379 -3.5550
# 6 -9.1102 -12.1714 2.7658 -4.2389 -3.5550 13.5987
#
#
#
# Elastic Compliance Matrix: (Units=1/GPa)
#
#
# Indices 1 2 3 4 5 6 
#
# 1 0.014933 0.001594 -0.002888 0.004399 0.009024 0.015748
# 2 0.001594 0.026053 -0.005296 0.028693 0.021139 0.039934
# 3 -0.002888 -0.005296 0.013320 -0.005373 0.002793 -0.010329
# 4 0.004399 0.028693 -0.005373 0.063805 0.030655 0.057624
# 5 0.009024 0.021139 0.002793 0.030655 0.062571 0.050311
# 6 0.015748 0.039934 -0.010329 0.057624 0.050311 0.153045
#
#
# Mechanical properties :
#
#
# Convention : Reuss Voigt Hill
#
# Bulk Modulus (GPa) = 24.31604 51.31967 37.81786
# Shear Modulus (GPa) = 13.86517 29.51487 21.69002
#
# Velocity S-wave (km/s) = 2.52466 3.68349 3.15769
# Velocity P-wave (km/s) = 4.43585 6.45622 5.53893
#
# Compressibility (1/GPa) = 0.04112512
#
# Stress axis : x y z
#
# Youngs Moduli (GPa) = 66.96672 38.38343 75.07580
#
# Poissons Ratio (x) = -0.06118 0.21682
# Poissons Ratio (y) = -0.10674 0.39761
# Poissons Ratio (z) = 0.19340 0.20328
#
# Static dielectric constant tensor:
#      x y z
#    x 1.896340 -0.004760 -0.011390 
#    y -0.004760 1.807160 -0.031070 
#    z -0.011390 -0.031070 1.829210 
# 
# From -- ./inp_files/217065.got.cif
#   From: 2010.05.17/outbox.cif.g08.bks.cpg/sg2_109_cif.got.tgz:217065.got - 2010.06.03 11:33:40.
