data_PCOD9102570
_publ_section_title
;
Structure prediction by ZEFSAII (Michael W. Deem and Ramdas Pophale) SiO2 
 PCOD9102570
Probable space group: P -1
;
_chemical_formula_sum "Si O2"
_cell_formula_units_Z 16
_cell_length_a 8.701128
_cell_length_b 17.470180
_cell_length_c 8.900374
_cell_angle_alpha 130.877154
_cell_angle_beta 52.907748
_cell_angle_gamma 109.333430
_cell_volume 811.445360
_symmetry_space_group_name_H-M "P -1"
_symmetry_group_IT_number 2
_symmetry_cell_setting 'triclinic'
loop_
_space_group_symop_operation_xyz
x,y,z
-x,-y,-z
loop_
_atom_site_type_symbol
_atom_site_label
_atom_site_fract_x
_atom_site_fract_y
_atom_site_fract_z
Si Si1 0.972937 0.399864 0.791506
Si Si2 0.701593 0.719344 0.392205
Si Si3 0.379601 0.909131 0.503244
Si Si4 0.442945 0.502480 0.861312
Si Si5 0.974865 0.965001 0.142229
Si Si6 0.834007 0.570359 0.603346
Si Si7 0.405991 0.909911 0.854327
Si Si8 0.733772 0.776287 0.100966
O O1 0.094300 0.302753 0.670250
O O2 0.082375 0.414649 0.590570
O O3 0.740374 0.410931 0.930504
O O4 0.000000 0.500000 0.000000
O O5 0.617209 0.609533 0.288413
O O6 0.541850 0.804043 0.667071
O O7 0.747570 0.755512 0.243838
O O8 0.390846 0.911920 0.682557
O O9 0.505822 0.807836 0.245720
O O10 0.500000 0.000000 0.500000
O O11 0.168257 0.937417 0.593282
O O12 0.627272 0.525857 0.683873
O O13 0.500000 0.500000 0.000000
O O14 0.854001 0.868083 0.099348
O O15 0.178431 0.930417 0.056019
O O16 0.000000 0.000000 0.000000
O O17 0.000000 0.500000 0.500000
O O18 0.808268 0.677277 0.840055
O O19 0.500000 0.000000 0.000000
#
# Coordination Sequence:
#
# PCOD9102570 Si02
#       8
#     2   2   2   2   2   2   2   2
#     4  10  23  42  60  89 133 165 209 262 312 377
#     4  10  22  41  59  87 133 168 198 265 319 376
#     4   8  17  37  60  80 115 153 197 260 300 355
#     4  11  21  42  66  94 128 168 214 263 314 368
#     4   9  19  37  63  89 114 161 209 262 310 371
#     4  12  23  38  67  99 125 167 216 261 309 385
#     4  10  21  37  57  86 120 156 203 253 312 372
#     4  10  20  38  63  91 121 163 211 256 322 370
#
# _framework density 19.717901999999999
#
# number of rings (size 3 to 8) (size 9 to 14) (size 15 to 20)
#    0.000    2.000    2.500    0.750    1.750    5.000 
#    6.750    5.625    0.000    0.000    0.000    0.000 
#    0.000    0.000    0.000    0.000    0.000    0.000 
#
# Total GULP energy -89095.505404 kJ/mol
# GULP energy per Si atom -5568.469088 kJ/mol
# Density = 1.967302 g / cm^3
# Si number density = 19.717902 Si / 1000 Ang^3
#
#
#
# Elastic Constant Matrix: (Units=GPa)
#
#
# Indices 1 2 3 4 5 6 
#
# 1 102.1998 35.9809 71.4388 20.6380 -49.3090 -3.6709
# 2 35.9809 95.2148 43.4300 2.7429 -20.4886 -1.9415
# 3 71.4388 43.4300 152.4462 20.4860 -39.2523 -8.9582
# 4 20.6380 2.7429 20.4860 37.7383 -4.5434 -6.8053
# 5 -49.3090 -20.4886 -39.2523 -4.5434 45.7956 5.8000
# 6 -3.6709 -1.9415 -8.9582 -6.8053 5.8000 33.1469
#
#
#
# Elastic Compliance Matrix: (Units=1/GPa)
#
#
# Indices 1 2 3 4 5 6 
#
# 1 0.027601 -0.002877 -0.004883 -0.010213 0.023828 -0.004698
# 2 -0.002877 0.012778 -0.002357 0.002033 0.000791 0.000072
# 3 -0.004883 -0.002357 0.010501 -0.002353 0.002294 0.001275
# 4 -0.010213 0.002033 -0.002353 0.033289 -0.009672 0.006879
# 5 0.023828 0.000791 0.002294 -0.009672 0.049788 -0.007393
# 6 -0.004698 0.000072 0.001275 0.006879 -0.007393 0.032703
#
#
# Mechanical properties :
#
#
# Convention : Reuss Voigt Hill
#
# Bulk Modulus (GPa) = 32.63144 72.39558 52.51351
# Shear Modulus (GPa) = 25.36648 36.60357 30.98503
#
# Velocity S-wave (km/s) = 3.59063 4.31323 3.96841
# Velocity P-wave (km/s) = 5.81165 7.84860 6.90564
#
# Compressibility (1/GPa) = 0.03064529
#
# Stress axis : x y z
#
# Youngs Moduli (GPa) = 36.23077 78.25837 95.22769
#
# Poissons Ratio (x) = 0.22516 0.46499
# Poissons Ratio (y) = 0.10424 0.22448
# Poissons Ratio (z) = 0.17691 0.18448
#
# Static dielectric constant tensor:
#      x y z
#    x 1.727360 -0.020650 -0.063570 
#    y -0.020650 1.587850 0.007870 
#    z -0.063570 0.007870 1.699890 
# 
# From -- ./inp_files/218488.got.cif
#   From: 2010.05.17/outbox.cif.g08.bks.cpg/sg2_110_cif.got.tgz:218488.got - 2010.06.03 11:33:40.
