data_PCOD9102608
_publ_section_title
;
Structure prediction by ZEFSAII (Michael W. Deem and Ramdas Pophale) SiO2 
 PCOD9102608
Probable space group: P -1
;
_chemical_formula_sum "Si O2"
_cell_formula_units_Z 12
_cell_length_a 8.250378
_cell_length_b 10.099389
_cell_length_c 8.451871
_cell_angle_alpha 131.761603
_cell_angle_beta 116.301814
_cell_angle_gamma 59.730860
_cell_volume 447.346469
_symmetry_space_group_name_H-M "P -1"
_symmetry_group_IT_number 2
_symmetry_cell_setting 'triclinic'
loop_
_space_group_symop_operation_xyz
x,y,z
-x,-y,-z
loop_
_atom_site_type_symbol
_atom_site_label
_atom_site_fract_x
_atom_site_fract_y
_atom_site_fract_z
Si Si1 0.000010 0.135766 0.954185
Si Si2 0.358564 0.105900 0.661850
Si Si3 0.190785 0.553363 0.679382
Si Si4 0.425347 0.692354 0.472715
Si Si5 0.381440 0.212114 0.084127
Si Si6 0.941492 0.213519 0.491419
O O1 0.002048 0.008866 0.700901
O O2 0.176836 0.214523 0.064491
O O3 0.835121 0.324669 0.075826
O O4 0.000000 0.000000 0.000000
O O5 0.150672 0.229739 0.612007
O O6 0.500000 0.000000 0.500000
O O7 0.352359 0.917974 0.598340
O O8 0.407216 0.229139 0.920961
O O9 0.398007 0.400618 0.640131
O O10 0.173591 0.700110 0.646716
O O11 0.000000 0.500000 0.500000
O O12 0.532926 0.665603 0.668315
O O13 0.214503 0.670992 0.357113
O O14 0.500000 0.000000 0.000000
#
# Coordination Sequence:
#
# PCOD9102608 Si02
#       6
#     2   2   2   2   2   2
#     4  10  21  36  65  93 125 164 218 252 311 378
#     4  11  24  39  65  95 130 167 216 263 321 375
#     4  11  22  38  65  96 130 164 213 260 321 379
#     4  11  22  41  66  94 128 168 214 263 316 380
#     4  10  20  38  63  92 125 167 214 254 312 379
#     4  11  23  40  65  94 126 169 211 265 313 380
#
# _framework density 26.824846000000001
#
# number of rings (size 3 to 8) (size 9 to 14) (size 15 to 20)
#    0.000    1.333    5.000    2.000    7.000    0.000 
#    0.000    1.667    0.000    0.000    0.000    0.000 
#    0.000    0.000    0.000    0.000    0.000    0.000 
#
# Total GULP energy -66821.489032 kJ/mol
# GULP energy per Si atom -5568.457419 kJ/mol
# Density = 2.676379 g / cm^3
# Si number density = 26.824846 Si / 1000 Ang^3
#
#
#
# Elastic Constant Matrix: (Units=GPa)
#
#
# Indices 1 2 3 4 5 6 
#
# 1 159.3670 15.2853 68.2799 1.0835 -23.2696 -46.2908
# 2 15.2853 92.9415 21.1358 4.0600 -13.5553 -33.1709
# 3 68.2799 21.1358 116.8286 14.1200 -23.9909 -9.1647
# 4 1.0835 4.0600 14.1200 42.0328 -6.5893 -7.9825
# 5 -23.2696 -13.5553 -23.9909 -6.5893 43.4121 17.1183
# 6 -46.2908 -33.1709 -9.1647 -7.9825 17.1183 22.8100
#
#
#
# Elastic Compliance Matrix: (Units=1/GPa)
#
#
# Indices 1 2 3 4 5 6 
#
# 1 -0.009127 -0.017158 0.008197 -0.008880 0.014206 -0.053950
# 2 -0.017158 -0.004890 0.011025 -0.010400 0.014222 -0.051815
# 3 0.008197 0.011025 0.003270 0.004289 -0.005251 0.039424
# 4 -0.008880 -0.010400 0.004289 0.019023 0.009964 -0.032242
# 5 0.014206 0.014222 -0.005251 0.009964 0.019365 0.036356
# 6 -0.053950 -0.051815 0.039424 -0.032242 0.036356 -0.163724
#
#
# Mechanical properties :
#
#
# Convention : Reuss Voigt Hill
#
# Bulk Modulus (GPa) = -151.08401 64.28213 -43.40094
# Shear Modulus (GPa) = -35.10790 39.28005 2.08608
#
# Velocity S-wave (km/s) = -3.62164 3.83079 0.88281
# Velocity P-wave (km/s) = 8.59843 6.60169 3.89556
#
# Compressibility (1/GPa) = -0.00661883
#
# Stress axis : x y z
#
# Youngs Moduli (GPa) = -109.55984 -204.48989 305.78448
#
# Poissons Ratio (x) = -3.50862 -2.50645
# Poissons Ratio (y) = -1.87982 -3.37139
# Poissons Ratio (z) = 0.89804 2.25458
#
# Static dielectric constant tensor:
#      x y z
#    x 2.201220 0.126430 0.033460 
#    y 0.126430 2.139390 -0.016700 
#    z 0.033460 -0.016700 2.109200 
# 
# From -- ./inp_files/174614.got.cif
#   From: 2010.05.17/outbox.cif.g08.bks.cpg/sg2_88_cif.got.tgz:174614.got - 2010.06.03 11:33:40.
