data_PCOD9102610
_publ_section_title
;
Structure prediction by ZEFSAII (Michael W. Deem and Ramdas Pophale) SiO2 
 PCOD9102610
Probable space group: P -1
;
_chemical_formula_sum "Si O2"
_cell_formula_units_Z 16
_cell_length_a 14.491321
_cell_length_b 7.199197
_cell_length_c 7.517452
_cell_angle_alpha 64.522791
_cell_angle_beta 109.217496
_cell_angle_gamma 81.920466
_cell_volume 630.869338
_symmetry_space_group_name_H-M "P -1"
_symmetry_group_IT_number 2
_symmetry_cell_setting 'triclinic'
loop_
_space_group_symop_operation_xyz
x,y,z
-x,-y,-z
loop_
_atom_site_type_symbol
_atom_site_label
_atom_site_fract_x
_atom_site_fract_y
_atom_site_fract_z
Si Si1 0.205021 0.871174 0.263203
Si Si2 0.924035 0.153686 0.123037
Si Si3 0.842520 0.496294 0.390607
Si Si4 0.582323 0.271141 0.081422
Si Si5 0.362230 0.060154 0.432332
Si Si6 0.734033 0.514867 0.974589
Si Si7 0.939616 0.770853 0.553811
Si Si8 0.572856 0.260300 0.690112
O O1 0.191132 0.692639 0.462574
O O2 0.247791 0.040972 0.322567
O O3 0.306862 0.759189 0.251206
O O4 0.106114 0.938762 0.041617
O O5 0.839446 0.391015 0.990829
O O6 0.031297 0.184150 0.244450
O O7 0.907597 0.995364 0.331555
O O8 0.763218 0.615657 0.134796
O O9 0.860469 0.648749 0.495646
O O10 0.951179 0.377786 0.406312
O O11 0.605346 0.071677 0.312208
O O12 0.683480 0.339584 0.083514
O O13 0.500000 0.500000 0.000000
O O14 0.549996 0.209418 0.895226
O O15 0.436090 0.913535 0.387120
O O16 0.343721 0.309025 0.273918
O O17 0.500000 0.500000 0.500000
#
# Coordination Sequence:
#
# PCOD9102610 Si02
#       8
#     2   2   2   2   2   2   2   2
#     4  10  20  38  63  92 127 171 212 272 323 387
#     4  10  20  39  59  86 127 167 212 271 322 377
#     4  10  20  38  64  89 126 172 218 265 335 387
#     4  12  22  42  69  95 131 171 217 270 329 385
#     4  10  23  40  65  97 126 178 211 264 328 378
#     4  11  21  42  63  91 131 168 217 269 318 395
#     4   9  21  38  61  88 124 175 213 278 327 386
#     4  10  21  43  65  93 133 168 210 274 316 381
#
# _framework density 25.361829
#
# number of rings (size 3 to 8) (size 9 to 14) (size 15 to 20)
#    0.750    1.000    3.750    0.750    0.000    1.500 
#    4.500    0.625    0.000    0.000    0.000    0.000 
#    0.000    0.000    0.000    0.000    0.000    0.000 
#
# Total GULP energy -89446.278314 kJ/mol
# GULP energy per Si atom -5590.392395 kJ/mol
# Density = 2.530410 g / cm^3
# Si number density = 25.361829 Si / 1000 Ang^3
#
#
#
# Elastic Constant Matrix: (Units=GPa)
#
#
# Indices 1 2 3 4 5 6 
#
# 1 65.4221 -1.5013 20.2965 -1.0811 3.2689 3.6992
# 2 -1.5013 87.8838 38.7613 21.2019 -1.8844 14.0288
# 3 20.2965 38.7613 198.1350 12.1338 -5.9981 -2.3753
# 4 -1.0811 21.2019 12.1338 49.5435 -4.2213 2.7708
# 5 3.2689 -1.8844 -5.9981 -4.2213 35.6288 -5.9156
# 6 3.6992 14.0288 -2.3753 2.7708 -5.9156 37.6871
#
#
#
# Elastic Compliance Matrix: (Units=1/GPa)
#
#
# Indices 1 2 3 4 5 6 
#
# 1 0.016223 0.001523 -0.002068 0.000171 -0.002175 -0.002644
# 2 0.001523 0.014841 -0.002838 -0.005426 -0.001418 -0.005677
# 3 -0.002068 -0.002838 0.005892 -0.000266 0.001308 0.001856
# 4 0.000171 -0.005426 -0.000266 0.022746 0.002464 0.000701
# 5 -0.002175 -0.001418 0.001308 0.002464 0.029582 0.005286
# 6 -0.002644 -0.005677 0.001856 0.000701 0.005286 0.029802
#
#
# Mechanical properties :
#
#
# Convention : Reuss Voigt Hill
#
# Bulk Modulus (GPa) = 33.12256 51.83931 42.48093
# Shear Modulus (GPa) = 36.78770 44.16415 40.47592
#
# Velocity S-wave (km/s) = 3.81269 4.17749 3.99925
# Velocity P-wave (km/s) = 5.69829 6.61459 6.17347
#
# Compressibility (1/GPa) = 0.03019091
#
# Stress axis : x y z
#
# Youngs Moduli (GPa) = 61.64165 67.37965 169.71447
#
# Poissons Ratio (x) = -0.10264 0.35094
# Poissons Ratio (y) = -0.09389 0.48167
# Poissons Ratio (z) = 0.12746 0.19123
#
# Static dielectric constant tensor:
#      x y z
#    x 2.066370 0.030210 0.051260 
#    y 0.030210 2.103820 0.078320 
#    z 0.051260 0.078320 1.960660 
# 
# From -- ./inp_files/291660.got.cif
#   From: 2010.05.17/outbox.cif.g08.bks.cpg/sg2_146_cif.got.tgz:291660.got - 2010.06.03 11:33:40.
