data_PCOD9102818
_publ_section_title
;
Structure prediction by ZEFSAII (Michael W. Deem and Ramdas Pophale) SiO2 
 PCOD9102818
Probable space group: P -1
;
_chemical_formula_sum "Si O2"
_cell_formula_units_Z 16
_cell_length_a 14.437145
_cell_length_b 14.961082
_cell_length_c 10.129277
_cell_angle_alpha 146.353885
_cell_angle_beta 134.869303
_cell_angle_gamma 33.550147
_cell_volume 669.463130
_symmetry_space_group_name_H-M "P -1"
_symmetry_group_IT_number 2
_symmetry_cell_setting 'triclinic'
loop_
_space_group_symop_operation_xyz
x,y,z
-x,-y,-z
loop_
_atom_site_type_symbol
_atom_site_label
_atom_site_fract_x
_atom_site_fract_y
_atom_site_fract_z
Si Si1 0.640550 0.761852 0.476959
Si Si2 0.642488 0.250272 0.843513
Si Si3 0.220347 0.986044 0.050303
Si Si4 0.355291 0.340816 0.354917
Si Si5 0.251877 0.870452 0.481562
Si Si6 0.697746 0.329512 0.467488
Si Si7 0.059749 0.586356 0.775502
Si Si8 0.900533 0.692614 0.037480
O O1 0.449927 0.853186 0.385658
O O2 0.678143 0.922524 0.722846
O O3 0.696405 0.636415 0.516673
O O4 0.742318 0.596106 0.258127
O O5 0.751739 0.177095 0.732010
O O6 0.500000 0.500000 0.000000
O O7 0.736785 0.165629 0.972757
O O8 0.027531 0.187679 0.093394
O O9 0.010420 0.378079 0.103577
O O10 0.267886 0.861907 0.810224
O O11 0.554522 0.220816 0.409886
O O12 0.260772 0.556555 0.447627
O O13 0.286641 0.234477 0.084945
O O14 0.222878 0.746535 0.401749
O O15 0.127426 0.110777 0.686367
O O16 0.500000 0.500000 0.500000
O O17 0.000000 0.500000 0.500000
O O18 0.000000 0.500000 0.000000
#
# Coordination Sequence:
#
# PCOD9102818 Si02
#       8
#     2   2   2   2   2   2   2   2
#     4  10  21  40  66  92 125 159 211 250 305 372
#     4  11  24  41  61  99 127 157 206 264 305 355
#     4  11  20  39  67  91 119 165 208 249 305 365
#     4  10  20  40  65  91 122 162 207 253 313 363
#     4  10  22  41  63  88 126 162 207 253 309 371
#     4  10  20  38  64  89 122 162 201 255 308 368
#     4  10  21  41  65  85 125 165 207 247 306 373
#     4  12  24  41  63  93 127 160 210 262 303 362
#
# _framework density 23.899746
#
# number of rings (size 3 to 8) (size 9 to 14) (size 15 to 20)
#    0.000    1.500    3.750    3.000    3.500    3.000 
#    6.750    4.375    0.000    0.000    0.000    0.000 
#    0.000    0.000    0.000    0.000    0.000    0.000 
#
# Total GULP energy -89415.027649 kJ/mol
# GULP energy per Si atom -5588.439228 kJ/mol
# Density = 2.384535 g / cm^3
# Si number density = 23.899746 Si / 1000 Ang^3
#
#
#
# Elastic Constant Matrix: (Units=GPa)
#
#
# Indices 1 2 3 4 5 6 
#
# 1 123.3484 56.9182 49.1640 3.2957 -20.6347 36.8337
# 2 56.9182 78.5925 11.1718 9.6532 -9.8419 24.4184
# 3 49.1640 11.1718 88.2168 16.3032 -14.7313 -7.4388
# 4 3.2957 9.6532 16.3032 42.6013 -6.6784 4.9288
# 5 -20.6347 -9.8419 -14.7313 -6.6784 42.4506 -9.1136
# 6 36.8337 24.4184 -7.4388 4.9288 -9.1136 47.6302
#
#
#
# Elastic Compliance Matrix: (Units=1/GPa)
#
#
# Indices 1 2 3 4 5 6 
#
# 1 0.023484 -0.011036 -0.014150 0.008165 0.001972 -0.015181
# 2 -0.011036 0.021078 0.004405 -0.005495 -0.000033 -0.001022
# 3 -0.014150 0.004405 0.022116 -0.009443 0.003283 0.013744
# 4 0.008165 -0.005495 -0.009443 0.028940 0.002357 -0.007515
# 5 0.001972 -0.000033 0.003283 0.002357 0.026855 0.003899
# 6 -0.015181 -0.001022 0.013744 -0.007515 0.003899 0.036929
#
#
# Mechanical properties :
#
#
# Convention : Reuss Voigt Hill
#
# Bulk Modulus (GPa) = 39.81416 58.29619 49.05518
# Shear Modulus (GPa) = 23.88498 38.06332 30.97415
#
# Velocity S-wave (km/s) = 3.16473 3.99510 3.60391
# Velocity P-wave (km/s) = 5.48170 6.76210 6.15528
#
# Compressibility (1/GPa) = 0.02511669
#
# Stress axis : x y z
#
# Youngs Moduli (GPa) = 42.58147 47.44243 45.21574
#
# Poissons Ratio (x) = 0.52356 0.63981
# Poissons Ratio (y) = 0.46991 -0.19917
# Poissons Ratio (z) = 0.60254 -0.20898
#
# Static dielectric constant tensor:
#      x y z
#    x 1.947710 -0.020520 0.054100 
#    y -0.020520 1.931580 -0.028010 
#    z 0.054100 -0.028010 1.902050 
# 
# From -- ./inp_files/466396.got.cif
#   From: 2010.05.17/outbox.cif.g08.bks.cpg/sg2_234_cif.got.tgz:466396.got - 2010.06.03 11:33:40.
