data_PCOD9102450
_publ_section_title
;
Structure prediction by ZEFSAII (Michael W. Deem and Ramdas Pophale) SiO2 
 PCOD9102450
Probable space group: P -1
;
_chemical_formula_sum "Si O2"
_cell_formula_units_Z 16
_cell_length_a 8.596572
_cell_length_b 9.285204
_cell_length_c 23.247722
_cell_angle_alpha 50.277799
_cell_angle_beta 58.318310
_cell_angle_gamma 101.051043
_cell_volume 719.518705
_symmetry_space_group_name_H-M "P -1"
_symmetry_group_IT_number 2
_symmetry_cell_setting 'triclinic'
loop_
_space_group_symop_operation_xyz
x,y,z
-x,-y,-z
loop_
_atom_site_type_symbol
_atom_site_label
_atom_site_fract_x
_atom_site_fract_y
_atom_site_fract_z
Si Si1 0.031017 0.155894 0.722937
Si Si2 0.337441 0.715475 0.002229
Si Si3 0.514216 0.362619 0.309606
Si Si4 0.110688 0.321498 0.351341
Si Si5 0.913022 0.723690 0.936523
Si Si6 0.035362 0.818105 0.016151
Si Si7 0.240643 0.630525 0.631273
Si Si8 0.216373 0.275364 0.217463
O O1 0.269456 0.516188 0.600145
O O2 0.073145 0.012887 0.792601
O O3 0.996227 0.045717 0.694116
O O4 0.689514 0.949798 0.860431
O O5 0.146507 0.499368 0.037084
O O6 0.204876 0.471223 0.140076
O O7 0.280320 0.885602 0.981895
O O8 0.393410 0.477287 0.295109
O O9 0.704497 0.461609 0.191281
O O10 0.735467 0.490237 0.287829
O O11 0.199775 0.989171 0.475081
O O12 0.134480 0.221733 0.313426
O O13 0.053206 0.483238 0.298230
O O14 0.083067 0.845193 0.932393
O O15 0.569440 0.507394 0.077413
O O16 0.000000 0.000000 0.000000
O O17 0.500000 0.000000 0.500000
#
# Coordination Sequence:
#
# PCOD9102450 Si02
#       8
#     2   2   2   2   2   2   2   2
#     4   9  19  36  59  84 115 147 196 240 291 352
#     4   9  20  34  56  83 116 154 187 237 295 346
#     4  10  22  37  54  85 115 152 196 235 283 349
#     4  10  20  38  63  77 114 158 193 239 295 332
#     4   9  18  35  54  82 118 149 187 237 291 345
#     4  12  22  32  53  88 121 147 193 238 287 348
#     4  10  21  38  59  81 114 155 193 243 293 343
#     4   9  17  36  61  83 107 156 196 233 291 348
#
# _framework density 22.237086999999999
#
# number of rings (size 3 to 8) (size 9 to 14) (size 15 to 20)
#    0.000    2.250    1.250    3.375    1.750    0.000 
#    0.000    5.625    0.000   12.750    0.000    0.000 
#    0.000    0.000    0.000    0.000    0.000    0.000 
#
# Total GULP energy -89168.828192 kJ/mol
# GULP energy per Si atom -5573.051762 kJ/mol
# Density = 2.218647 g / cm^3
# Si number density = 22.237087 Si / 1000 Ang^3
#
#
#
# Elastic Constant Matrix: (Units=GPa)
#
#
# Indices 1 2 3 4 5 6 
#
# 1 157.6330 21.1167 9.3421 -7.0187 12.9476 -14.4990
# 2 21.1167 71.0704 35.6130 -19.3182 26.3843 -1.4551
# 3 9.3421 35.6130 56.8166 0.7250 -7.9899 6.4879
# 4 -7.0187 -19.3182 0.7250 33.4293 -0.6996 2.3065
# 5 12.9476 26.3843 -7.9899 -0.6996 20.6049 3.5892
# 6 -14.4990 -1.4551 6.4879 2.3065 3.5892 33.7898
#
#
#
# Elastic Compliance Matrix: (Units=1/GPa)
#
#
# Indices 1 2 3 4 5 6 
#
# 1 0.006515 -0.007128 0.004189 -0.002792 0.006354 0.001200
# 2 -0.007128 -0.052644 0.050461 -0.029446 0.094469 -0.023039
# 3 0.004189 0.050461 -0.028146 0.027874 -0.079996 0.015969
# 4 -0.002792 -0.029446 0.027874 0.013816 0.053249 -0.014417
# 5 0.006354 0.094469 -0.079996 0.053249 -0.110917 0.030302
# 6 0.001200 -0.023039 0.015969 -0.014417 0.030302 0.023817
#
#
# Mechanical properties :
#
#
# Convention : Reuss Voigt Hill
#
# Bulk Modulus (GPa) = 48.15068 46.40704 47.27886
# Shear Modulus (GPa) = -21.21517 32.19468 5.48975
#
# Velocity S-wave (km/s) = -3.09211 3.80911 1.57293
# Velocity P-wave (km/s) = 2.99201 6.34510 4.96047
#
# Compressibility (1/GPa) = 0.02076814
#
# Stress axis : x y z
#
# Youngs Moduli (GPa) = 153.50186 -18.99561 -35.52891
#
# Poissons Ratio (x) = -0.13540 0.14883
# Poissons Ratio (y) = 1.09416 1.79282
# Poissons Ratio (z) = -0.64301 0.95853
#
# Static dielectric constant tensor:
#      x y z
#    x 1.902090 -0.003890 -0.005040 
#    y -0.003890 1.803770 -0.040310 
#    z -0.005040 -0.040310 1.850750 
# 
# From -- ./inp_files/175368.got.cif
#   From: 2010.05.17/outbox.cif.g08.bks.cpg/sg2_88_cif.got.tgz:175368.got - 2010.06.03 11:33:40.
