data_PCOD9102346
_publ_section_title
;
Structure prediction by ZEFSAII (Michael W. Deem and Ramdas Pophale) SiO2 
 PCOD9102346
Probable space group: P -1
;
_chemical_formula_sum "Si O2"
_cell_formula_units_Z 16
_cell_length_a 8.825047
_cell_length_b 14.218394
_cell_length_c 8.190566
_cell_angle_alpha 74.055431
_cell_angle_beta 122.699211
_cell_angle_gamma 78.035110
_cell_volume 746.915946
_symmetry_space_group_name_H-M "P -1"
_symmetry_group_IT_number 2
_symmetry_cell_setting 'triclinic'
loop_
_space_group_symop_operation_xyz
x,y,z
-x,-y,-z
loop_
_atom_site_type_symbol
_atom_site_label
_atom_site_fract_x
_atom_site_fract_y
_atom_site_fract_z
Si Si1 0.789876 0.582685 0.756086
Si Si2 0.935620 0.892909 0.368250
Si Si3 0.772882 0.811479 0.998600
Si Si4 0.594825 0.415483 0.308392
Si Si5 0.093359 0.228570 0.262351
Si Si6 0.638077 0.345061 0.992026
Si Si7 0.675372 0.129100 0.229623
Si Si8 0.953621 0.424540 0.638564
O O1 0.584355 0.606193 0.715876
O O2 0.794128 0.697001 0.675037
O O3 0.817304 0.511948 0.647005
O O4 0.000000 0.500000 0.000000
O O5 0.861108 0.854985 0.179739
O O6 0.891533 0.841767 0.533955
O O7 0.171476 0.866436 0.542837
O O8 0.806581 0.022225 0.252856
O O9 0.851464 0.679368 0.130106
O O10 0.841011 0.828065 0.848714
O O11 0.531416 0.868498 0.832994
O O12 0.625193 0.381533 0.154744
O O13 0.817995 0.365979 0.529087
O O14 0.517219 0.544649 0.229078
O O15 0.858890 0.311591 0.069677
O O16 0.610081 0.236375 0.028272
O O17 0.000000 0.500000 0.500000
#
# Coordination Sequence:
#
# PCOD9102346 Si02
#       8
#     2   2   2   2   2   2   2   2
#     4  12  22  39  58  90 130 167 209 260 317 379
#     4  10  24  46  66  96 128 168 223 270 326 393
#     4  12  23  42  67  94 129 171 214 271 331 382
#     4  11  22  36  63  91 130 173 208 259 319 391
#     4  11  23  41  65  95 133 168 216 273 319 390
#     4  10  20  38  62  92 127 167 207 259 329 375
#     4  10  22  43  69  92 131 170 214 276 328 387
#     4  12  24  37  60  94 129 168 219 260 316 396
#
# _framework density 21.421420000000001
#
# number of rings (size 3 to 8) (size 9 to 14) (size 15 to 20)
#    0.000    1.000    2.500    5.250    1.750    0.500 
#    0.000    9.375    0.000    0.000    0.000    0.000 
#    0.000    0.000    0.000    0.000    0.000    0.000 
#
# Total GULP energy -89261.681969 kJ/mol
# GULP energy per Si atom -5578.855123 kJ/mol
# Density = 2.137266 g / cm^3
# Si number density = 21.421420 Si / 1000 Ang^3
#
#
#
# Elastic Constant Matrix: (Units=GPa)
#
#
# Indices 1 2 3 4 5 6 
#
# 1 111.5419 12.7689 46.0741 26.0233 27.5585 -12.9347
# 2 12.7689 96.1069 29.9041 6.9452 2.3728 3.4008
# 3 46.0741 29.9041 -37.2514 -30.0120 0.7012 57.7262
# 4 26.0233 6.9452 -30.0120 18.0998 -10.6695 27.2058
# 5 27.5585 2.3728 0.7012 -10.6695 32.3399 2.4564
# 6 -12.9347 3.4008 57.7262 27.2058 2.4564 -6.4233
#
#
#
# Elastic Compliance Matrix: (Units=1/GPa)
#
#
# Indices 1 2 3 4 5 6 
#
# 1 0.009973 -0.001757 0.003629 -0.003423 -0.009093 -0.006378
# 2 -0.001757 0.011486 -0.002825 0.002330 0.001878 -0.005183
# 3 0.003629 -0.002825 0.010060 -0.014966 -0.009158 0.014713
# 4 -0.003423 0.002330 -0.014966 0.030489 0.012554 0.007566
# 5 -0.009093 0.001878 -0.009158 0.012554 0.042388 0.006387
# 6 -0.006378 -0.005183 0.014713 0.007566 0.006387 0.021125
#
#
# Mechanical properties :
#
#
# Convention : Reuss Voigt Hill
#
# Bulk Modulus (GPa) = 33.76969 38.65460 36.21215
# Shear Modulus (GPa) = 36.41711 14.24662 25.33187
#
# Velocity S-wave (km/s) = 4.12762 2.58168 3.44255
# Velocity P-wave (km/s) = 6.20604 5.19334 5.72214
#
# Compressibility (1/GPa) = 0.02961235
#
# Stress axis : x y z
#
# Youngs Moduli (GPa) = 100.26946 87.06139 99.40846
#
# Poissons Ratio (x) = 0.15293 -0.36070
# Poissons Ratio (y) = 0.17613 0.28085
# Poissons Ratio (z) = -0.36383 0.24596
#
# Static dielectric constant tensor:
#      x y z
#    x 1.779090 0.021990 0.038690 
#    y 0.021990 1.789170 0.056160 
#    z 0.038690 0.056160 2.087380 
# 
# From -- ./inp_files/207195.got.cif
#   From: 2010.05.17/outbox.cif.g08.bks.cpg/sg2_104_cif.got.tgz:207195.got - 2010.06.03 11:33:40.
