data_PCOD9102328
_publ_section_title
;
Structure prediction by ZEFSAII (Michael W. Deem and Ramdas Pophale) SiO2 
 PCOD9102328
Probable space group: P -1
;
_chemical_formula_sum "Si O2"
_cell_formula_units_Z 16
_cell_length_a 11.983747
_cell_length_b 8.954446
_cell_length_c 22.714675
_cell_angle_alpha 144.638899
_cell_angle_beta 36.706999
_cell_angle_gamma 116.507240
_cell_volume 674.635438
_symmetry_space_group_name_H-M "P -1"
_symmetry_group_IT_number 2
_symmetry_cell_setting 'triclinic'
loop_
_space_group_symop_operation_xyz
x,y,z
-x,-y,-z
loop_
_atom_site_type_symbol
_atom_site_label
_atom_site_fract_x
_atom_site_fract_y
_atom_site_fract_z
Si Si1 0.578525 0.342169 0.576018
Si Si2 0.744998 0.726141 0.387268
Si Si3 0.102053 0.179018 0.985836
Si Si4 0.972502 0.701841 0.632568
Si Si5 0.767014 0.328224 0.074694
Si Si6 0.248833 0.209583 0.140020
Si Si7 0.501824 0.104021 0.724220
Si Si8 0.496632 0.413463 0.039536
O O1 0.426822 0.359564 0.591604
O O2 0.419274 0.617409 0.780093
O O3 0.797703 0.326772 0.461372
O O4 0.664348 0.033372 0.480514
O O5 0.001949 0.457510 0.166540
O O6 0.693958 0.815935 0.506703
O O7 0.956904 0.312567 0.029146
O O8 0.360983 0.028930 0.804212
O O9 0.000000 0.000000 0.000000
O O10 0.924731 0.554956 0.660634
O O11 0.000000 0.500000 0.500000
O O12 0.752166 0.078350 0.838229
O O13 0.666832 0.614851 0.162571
O O14 0.835302 0.005617 0.911078
O O15 0.301621 0.357537 0.113351
O O16 0.500000 0.000000 0.000000
O O17 0.569085 0.293662 0.796286
O O18 0.500000 0.500000 0.000000
#
# Coordination Sequence:
#
# PCOD9102328 Si02
#       8
#     2   2   2   2   2   2   2   2
#     4   9  18  36  61  94 120 151 208 264 305 361
#     4   9  21  37  63  92 125 161 207 260 312 381
#     4  11  25  40  60  97 132 163 205 262 329 379
#     4  11  22  37  67  95 123 165 218 268 313 387
#     4  10  20  39  67  89 123 163 210 259 304 386
#     4  10  20  38  62  92 119 164 214 256 313 381
#     4  11  22  41  69  88 121 174 214 258 319 389
#     4  11  25  43  63  90 132 169 212 267 334 379
#
# _framework density 23.716512000000002
#
# number of rings (size 3 to 8) (size 9 to 14) (size 15 to 20)
#    0.000    1.750    2.500    3.375    5.250    0.500 
#    0.000    1.875    0.000    0.000    0.000    0.000 
#    0.000    0.000    0.000    0.000    0.000    0.000 
#
# Total GULP energy -89300.039064 kJ/mol
# GULP energy per Si atom -5581.252442 kJ/mol
# Density = 2.366253 g / cm^3
# Si number density = 23.716512 Si / 1000 Ang^3
#
#
#
# Elastic Constant Matrix: (Units=GPa)
#
#
# Indices 1 2 3 4 5 6 
#
# 1 102.5622 24.8144 36.3882 -10.0376 19.9934 -7.0141
# 2 24.8144 107.4442 33.6086 -31.5948 3.9640 -4.2106
# 3 36.3882 33.6086 110.9333 -26.9870 35.0688 1.5383
# 4 -10.0376 -31.5948 -26.9870 38.8847 2.9789 -0.9007
# 5 19.9934 3.9640 35.0688 2.9789 40.0591 -7.0343
# 6 -7.0141 -4.2106 1.5383 -0.9007 -7.0343 28.9096
#
#
#
# Elastic Compliance Matrix: (Units=1/GPa)
#
#
# Indices 1 2 3 4 5 6 
#
# 1 0.011789 -0.001706 -0.002132 0.000493 -0.003556 0.001875
# 2 -0.001706 0.012841 -0.001221 0.009167 0.000298 0.001880
# 3 -0.002132 -0.001221 0.018558 0.012510 -0.016942 -0.005415
# 4 0.000493 0.009167 0.012510 0.043131 -0.015604 -0.001664
# 5 -0.003556 0.000298 -0.016942 -0.015604 0.044532 0.010432
# 6 0.001875 0.001880 -0.005415 -0.001664 0.010432 0.038094
#
#
# Mechanical properties :
#
#
# Convention : Reuss Voigt Hill
#
# Bulk Modulus (GPa) = 30.23912 56.72912 43.48412
# Shear Modulus (GPa) = 26.30364 36.64592 31.47478
#
# Velocity S-wave (km/s) = 3.33391 3.93512 3.64693
# Velocity P-wave (km/s) = 5.25336 6.67971 6.00901
#
# Compressibility (1/GPa) = 0.03306974
#
# Stress axis : x y z
#
# Youngs Moduli (GPa) = 84.82396 77.87336 53.88529
#
# Poissons Ratio (x) = 0.13286 0.11489
# Poissons Ratio (y) = 0.14472 0.06580
# Poissons Ratio (z) = 0.18085 0.09509
#
# Static dielectric constant tensor:
#      x y z
#    x 1.841570 -0.036980 0.000720 
#    y -0.036980 1.945950 0.076590 
#    z 0.000720 0.076590 2.015520 
# 
# From -- ./inp_files/273694.got.cif
#   From: 2010.05.17/outbox.cif.g08.bks.cpg/sg2_137_cif.got.tgz:273694.got - 2010.06.03 11:33:40.
