data_PCOD9102982
_publ_section_title
;
Structure prediction by ZEFSAII (Michael W. Deem and Ramdas Pophale) SiO2 
 PCOD9102982
Probable space group: P -1
;
_chemical_formula_sum "Si O2"
_cell_formula_units_Z 12
_cell_length_a 5.127003
_cell_length_b 9.947420
_cell_length_c 13.067645
_cell_angle_alpha 74.421853
_cell_angle_beta 92.740929
_cell_angle_gamma 76.504837
_cell_volume 619.890112
_symmetry_space_group_name_H-M "P -1"
_symmetry_group_IT_number 2
_symmetry_cell_setting 'triclinic'
loop_
_space_group_symop_operation_xyz
x,y,z
-x,-y,-z
loop_
_atom_site_type_symbol
_atom_site_label
_atom_site_fract_x
_atom_site_fract_y
_atom_site_fract_z
Si Si1 0.703091 0.107797 0.590093
Si Si2 0.068408 0.465403 0.746716
Si Si3 0.697236 0.087284 0.357607
Si Si4 0.844306 0.407495 0.947763
Si Si5 0.316623 0.660889 0.839039
Si Si6 0.412888 0.587015 0.376691
O O1 0.657290 0.147807 0.460590
O O2 0.706085 0.247333 0.627155
O O3 0.467563 0.033318 0.631196
O O4 0.986432 0.989712 0.630213
O O5 0.094378 0.609784 0.776639
O O6 0.333716 0.420367 0.691535
O O7 0.024505 0.360201 0.860177
O O8 0.809283 0.478803 0.668589
O O9 0.609576 0.211697 0.247029
O O10 0.566007 0.518087 0.883022
O O11 0.777773 0.300695 0.053545
O O12 0.000000 0.500000 0.000000
O O13 0.500000 0.500000 0.500000
#
# Coordination Sequence:
#
# PCOD9102982 Si02
#       6
#     2   2   2   2   2   2
#     4  10  23  39  56  89 117 160 201 232 296 351
#     4  11  22  37  60  90 124 152 190 257 294 350
#     4  10  22  39  62  82 123 155 195 251 283 361
#     4   9  20  36  61  97 117 148 201 256 301 348
#     4  10  20  38  64  95 117 154 201 247 315 334
#     4  12  24  39  60  87 123 163 200 240 295 360
#
# _framework density 19.358267000000001
#
# number of rings (size 3 to 8) (size 9 to 14) (size 15 to 20)
#    0.000    1.667    1.667    2.500    4.667    2.667 
#    0.000    0.000    0.000    6.000    0.000    0.000 
#    0.000    0.000    0.000    0.000    0.000    0.000 
#
# Total GULP energy -66957.945712 kJ/mol
# GULP energy per Si atom -5579.828809 kJ/mol
# Density = 1.931421 g / cm^3
# Si number density = 19.358267 Si / 1000 Ang^3
#
#
#
# Elastic Constant Matrix: (Units=GPa)
#
#
# Indices 1 2 3 4 5 6 
#
# 1 85.8867 8.3740 30.6325 9.4857 9.9459 9.2569
# 2 8.3740 33.1619 37.1822 4.5782 -1.8070 -2.4716
# 3 30.6325 37.1822 134.5177 -1.7208 -9.8535 1.6324
# 4 9.4857 4.5782 -1.7208 24.0810 6.3551 0.5401
# 5 9.9459 -1.8070 -9.8535 6.3551 37.3529 12.9537
# 6 9.2569 -2.4716 1.6324 0.5401 12.9537 16.0126
#
#
#
# Elastic Compliance Matrix: (Units=1/GPa)
#
#
# Indices 1 2 3 4 5 6 
#
# 1 0.014314 0.000505 -0.003506 -0.005426 -0.001576 -0.006382
# 2 0.000505 0.047479 -0.013802 -0.009412 -0.004052 0.012039
# 3 -0.003506 -0.013802 0.012512 0.003755 0.004795 -0.005385
# 4 -0.005426 -0.009412 0.003755 0.047793 -0.008400 0.006485
# 5 -0.001576 -0.004052 0.004795 -0.008400 0.041228 -0.033273
# 6 -0.006382 0.012039 -0.005385 0.006485 -0.033273 0.095246
#
#
# Mechanical properties :
#
#
# Convention : Reuss Voigt Hill
#
# Bulk Modulus (GPa) = 24.57157 45.10485 34.83821
# Shear Modulus (GPa) = 16.35348 27.31446 21.83397
#
# Velocity S-wave (km/s) = 2.90966 3.76040 3.36205
# Velocity P-wave (km/s) = 4.89988 6.49652 5.75385
#
# Compressibility (1/GPa) = 0.04069744
#
# Stress axis : x y z
#
# Youngs Moduli (GPa) = 69.86027 21.06204 79.92270
#
# Poissons Ratio (x) = -0.01063 0.28025
# Poissons Ratio (y) = -0.03525 1.10308
# Poissons Ratio (z) = 0.24496 0.29070
#
# Static dielectric constant tensor:
#      x y z
#    x 1.727450 -0.007310 -0.031620 
#    y -0.007310 1.647290 0.011500 
#    z -0.031620 0.011500 1.715980 
# 
# From -- ./inp_files/24737.got.cif
#   From: 2010.05.17/outbox.cif.g08.bks.cpg/sg2_13_cif.got.tgz:24737.got - 2010.06.03 11:33:40.
