data_PCOD9102088
_publ_section_title
;
Structure prediction by ZEFSAII (Michael W. Deem and Ramdas Pophale) SiO2 
 PCOD9102088
Probable space group: P -1
;
_chemical_formula_sum "Si O2"
_cell_formula_units_Z 11
_cell_length_a 7.903653
_cell_length_b 8.598577
_cell_length_c 10.885631
_cell_angle_alpha 138.924628
_cell_angle_beta 99.749251
_cell_angle_gamma 74.345187
_cell_volume 467.368716
_symmetry_space_group_name_H-M "P -1"
_symmetry_group_IT_number 2
_symmetry_cell_setting 'triclinic'
loop_
_space_group_symop_operation_xyz
x,y,z
-x,-y,-z
loop_
_atom_site_type_symbol
_atom_site_label
_atom_site_fract_x
_atom_site_fract_y
_atom_site_fract_z
Si Si1 0.000000 0.000000 0.500000
Si Si2 0.412623 0.295614 0.245326
Si Si3 0.506111 0.778690 0.046569
Si Si4 0.885353 0.337190 0.462045
Si Si5 0.203044 0.653536 0.099215
Si Si6 0.911504 0.878816 0.025112
O O1 0.977670 0.224657 0.531550
O O2 0.133885 0.898085 0.754899
O O3 0.312118 0.513882 0.445237
O O4 0.500282 0.059959 0.192581
O O5 0.522831 0.331550 0.158466
O O6 0.246479 0.214266 0.110389
O O7 0.352223 0.762358 0.112261
O O8 0.690367 0.619634 0.023050
O O9 0.871916 0.187234 0.696877
O O10 0.000000 0.500000 0.500000
O O11 0.047459 0.672623 0.992850
O O12 0.000000 0.000000 0.000000
#
# Coordination Sequence:
#
# PCOD9102088 Si02
#       6
#     1   2   2   2   2   2
#     4  10  20  38  62 100 116 166 222 254 304 392
#     4  11  21  40  64  90 129 167 212 257 328 375
#     4  10  21  37  62  91 126 174 197 263 334 374
#     4  11  21  38  65  93 128 165 211 269 312 370
#     4  10  20  38  65  89 129 163 214 263 315 377
#     4  11  21  38  66  98 119 169 222 261 305 392
#
# _framework density 23.536019
#
# number of rings (size 3 to 8) (size 9 to 14) (size 15 to 20)
#    0.000    1.455    5.455    1.091    0.000    0.727 
#    0.000    3.636    0.000    5.455    0.000    0.000 
#    0.000    0.000    0.000    0.000    0.000    0.000 
#
# Total GULP energy -61247.253587 kJ/mol
# GULP energy per Si atom -5567.932144 kJ/mol
# Density = 2.348245 g / cm^3
# Si number density = 23.536019 Si / 1000 Ang^3
#
#
#
# Elastic Constant Matrix: (Units=GPa)
#
#
# Indices 1 2 3 4 5 6 
#
# 1 96.8397 45.8977 31.0850 -10.4938 -19.4789 -3.3423
# 2 45.8977 214.6711 55.7175 -4.4320 -20.9807 -18.7242
# 3 31.0850 55.7175 146.7757 11.0288 -44.3845 -2.0392
# 4 -10.4938 -4.4320 11.0288 50.3520 5.3118 -20.9997
# 5 -19.4789 -20.9807 -44.3845 5.3118 37.3438 -3.5227
# 6 -3.3423 -18.7242 -2.0392 -20.9997 -3.5227 30.9933
#
#
#
# Elastic Compliance Matrix: (Units=1/GPa)
#
#
# Indices 1 2 3 4 5 6 
#
# 1 0.012832 -0.001705 -0.000980 0.003633 0.004360 0.003246
# 2 -0.001705 0.006088 -0.002016 0.002802 0.000235 0.005287
# 3 -0.000980 -0.002016 0.012235 -0.005657 0.013436 -0.002824
# 4 0.003633 0.002802 -0.005657 0.032264 -0.005681 0.022928
# 5 0.004360 0.000235 0.013436 -0.005681 0.046236 0.002902
# 6 0.003246 0.005287 -0.002824 0.022928 0.002902 0.051488
#
#
# Mechanical properties :
#
#
# Convention : Reuss Voigt Hill
#
# Bulk Modulus (GPa) = 45.97020 80.40966 63.18993
# Shear Modulus (GPa) = 28.12234 45.44357 36.78296
#
# Velocity S-wave (km/s) = 3.46043 4.39887 3.95756
# Velocity P-wave (km/s) = 5.96157 7.74846 6.91300
#
# Compressibility (1/GPa) = 0.02175322
#
# Stress axis : x y z
#
# Youngs Moduli (GPa) = 77.93268 164.25674 81.73485
#
# Poissons Ratio (x) = 0.28004 0.08007
# Poissons Ratio (y) = 0.13287 0.16478
# Poissons Ratio (z) = 0.07634 0.33114
#
# Static dielectric constant tensor:
#      x y z
#    x 1.951990 -0.032680 -0.051610 
#    y -0.032680 1.910440 -0.026340 
#    z -0.051610 -0.026340 1.966930 
# 
# From -- ./inp_files/147810.got.cif
#   From: 2010.05.17/outbox.cif.g08.bks.cpg/sg2_74_cif.got.tgz:147810.got - 2010.06.03 11:33:40.
