data_PCOD9102322
_publ_section_title
;
Structure prediction by ZEFSAII (Michael W. Deem and Ramdas Pophale) SiO2 
 PCOD9102322
Probable space group: P -1
;
_chemical_formula_sum "Si O2"
_cell_formula_units_Z 16
_cell_length_a 11.100524
_cell_length_b 11.511190
_cell_length_c 13.602638
_cell_angle_alpha 113.237302
_cell_angle_beta 35.020357
_cell_angle_gamma 129.186328
_cell_volume 743.030466
_symmetry_space_group_name_H-M "P -1"
_symmetry_group_IT_number 2
_symmetry_cell_setting 'triclinic'
loop_
_space_group_symop_operation_xyz
x,y,z
-x,-y,-z
loop_
_atom_site_type_symbol
_atom_site_label
_atom_site_fract_x
_atom_site_fract_y
_atom_site_fract_z
Si Si1 0.072521 0.670157 0.779521
Si Si2 0.756875 0.323588 0.791277
Si Si3 0.960152 0.075458 0.388190
Si Si4 0.713098 0.679474 0.882418
Si Si5 0.192270 0.890613 0.182030
Si Si6 0.614780 0.854932 0.375450
Si Si7 0.015831 0.800176 0.050035
Si Si8 0.474018 0.907429 0.282502
O O1 0.369240 0.758265 0.578945
O O2 0.034600 0.687348 0.925833
O O3 0.933524 0.498646 0.769400
O O4 0.928536 0.735223 0.841168
O O5 0.859091 0.233594 0.743950
O O6 0.697244 0.271161 0.700166
O O7 0.462517 0.258133 0.994059
O O8 0.707188 0.036074 0.599565
O O9 0.135215 0.259175 0.302576
O O10 0.848606 0.989992 0.329079
O O11 0.092948 0.995568 0.312238
O O12 0.500000 0.500000 0.000000
O O13 0.070809 0.801893 0.129567
O O14 0.500000 0.000000 0.000000
O O15 0.526926 0.910227 0.362547
O O16 0.736781 0.770054 0.219640
O O17 0.248888 0.973159 0.913277
#
# Coordination Sequence:
#
# PCOD9102322 Si02
#       8
#     2   2   2   2   2   2   2   2
#     4  11  23  43  64  97 135 160 207 267 323 379
#     4  11  24  42  63  92 131 171 209 265 313 371
#     4  11  21  38  66  94 127 164 216 264 307 376
#     4  10  20  38  62  91 129 164 199 263 319 367
#     4  11  22  43  64  90 125 167 223 263 298 378
#     4  11  22  39  66  98 130 161 212 264 314 391
#     4  11  23  40  68  92 122 174 212 256 323 371
#     4  12  21  38  66  97 125 167 212 259 325 370
#
# _framework density 21.533436999999999
#
# number of rings (size 3 to 8) (size 9 to 14) (size 15 to 20)
#    0.000    1.000    5.000    3.000    0.000    1.500 
#    4.500    2.500    0.000    0.000    0.000    0.000 
#    0.000    0.000    0.000    0.000    0.000    0.000 
#
# Total GULP energy -89107.096163 kJ/mol
# GULP energy per Si atom -5569.193510 kJ/mol
# Density = 2.148443 g / cm^3
# Si number density = 21.533437 Si / 1000 Ang^3
#
#
#
# Elastic Constant Matrix: (Units=GPa)
#
#
# Indices 1 2 3 4 5 6 
#
# 1 89.0779 23.2396 17.5191 9.6540 -15.6345 -5.2969
# 2 23.2396 85.9329 9.9173 3.6256 -2.4038 19.3388
# 3 17.5191 9.9173 118.7284 9.3793 -24.6765 2.4424
# 4 9.6540 3.6256 9.3793 21.2733 1.0401 1.4648
# 5 -15.6345 -2.4038 -24.6765 1.0401 34.0434 7.0814
# 6 -5.2969 19.3388 2.4424 1.4648 7.0814 27.1440
#
#
#
# Elastic Compliance Matrix: (Units=1/GPa)
#
#
# Indices 1 2 3 4 5 6 
#
# 1 0.014367 -0.004587 -0.000265 -0.006226 0.005218 0.005070
# 2 -0.004587 0.015737 -0.000076 0.000220 0.001546 -0.012515
# 3 -0.000265 -0.000076 0.010633 -0.004764 0.008323 -0.002868
# 4 -0.006226 0.000220 -0.004764 0.052388 -0.007522 -0.001807
# 5 0.005218 0.001546 0.008323 -0.007522 0.040425 -0.010972
# 6 0.005070 -0.012515 -0.002868 -0.001807 -0.010972 0.049965
#
#
# Mechanical properties :
#
#
# Convention : Reuss Voigt Hill
#
# Bulk Modulus (GPa) = 32.38305 43.89903 38.14104
# Shear Modulus (GPa) = 24.55022 32.69633 28.62328
#
# Velocity S-wave (km/s) = 3.38020 3.90089 3.64984
# Velocity P-wave (km/s) = 5.50504 6.38122 5.95925
#
# Compressibility (1/GPa) = 0.03088035
#
# Stress axis : x y z
#
# Youngs Moduli (GPa) = 69.60403 63.54521 94.04504
#
# Poissons Ratio (x) = 0.29150 0.02490
# Poissons Ratio (y) = 0.31929 0.00717
# Poissons Ratio (z) = 0.01843 0.00484
#
# Static dielectric constant tensor:
#      x y z
#    x 1.781540 -0.005300 0.011750 
#    y -0.005300 1.890310 0.043310 
#    z 0.011750 0.043310 1.846210 
# 
# From -- ./inp_files/438678.got.cif
#   From: 2010.05.17/outbox.cif.g08.bks.cpg/sg2_220_cif.got.tgz:438678.got - 2010.06.03 11:33:40.
