data_PCOD9102682
_publ_section_title
;
Structure prediction by ZEFSAII (Michael W. Deem and Ramdas Pophale) SiO2 
 PCOD9102682
Probable space group: P -1
;
_chemical_formula_sum "Si O2"
_cell_formula_units_Z 12
_cell_length_a 17.310722
_cell_length_b 7.220999
_cell_length_c 17.190891
_cell_angle_alpha 49.812172
_cell_angle_beta 24.363793
_cell_angle_gamma 65.492380
_cell_volume 566.023909
_symmetry_space_group_name_H-M "P -1"
_symmetry_group_IT_number 2
_symmetry_cell_setting 'triclinic'
loop_
_space_group_symop_operation_xyz
x,y,z
-x,-y,-z
loop_
_atom_site_type_symbol
_atom_site_label
_atom_site_fract_x
_atom_site_fract_y
_atom_site_fract_z
Si Si1 0.889538 0.786489 0.063059
Si Si2 0.261486 0.873750 0.794664
Si Si3 0.633053 0.754302 0.171066
Si Si4 0.714796 0.628920 0.538172
Si Si5 0.387607 0.765880 0.867187
Si Si6 0.962229 0.388057 0.651737
O O1 0.039801 0.692122 0.993479
O O2 0.727039 0.628209 0.181565
O O3 0.077596 0.095946 0.769170
O O4 0.763160 0.867255 0.219742
O O5 0.500000 0.000000 0.500000
O O6 0.261891 0.705269 0.916233
O O7 0.459544 0.559356 0.317967
O O8 0.532948 0.904806 0.273745
O O9 0.841660 0.037331 0.860136
O O10 0.813140 0.481458 0.539172
O O11 0.590051 0.729126 0.681191
O O12 0.213517 0.578541 0.145795
O O13 0.000000 0.500000 0.500000
#
# Coordination Sequence:
#
# PCOD9102682 Si02
#       6
#     2   2   2   2   2   2
#     4   9  19  33  53  80 116 146 179 228 264 318
#     4  10  16  32  58  77 113 152 176 221 275 312
#     4   8  20  38  54  85 110 142 187 224 272 326
#     4  11  18  38  61  76 115 146 179 231 275 322
#     4   9  20  37  55  84 109 146 184 222 274 322
#     4   9  21  41  57  81 113 139 184 235 273 327
#
# _framework density 21.200519
#
# number of rings (size 3 to 8) (size 9 to 14) (size 15 to 20)
#    1.000    1.667    3.333    0.000    0.000    1.333 
#    6.000    9.167    0.000    0.000    0.000    0.000 
#    0.000    0.000    0.000    0.000    0.000    0.000 
#
# Total GULP energy -66895.375810 kJ/mol
# GULP energy per Si atom -5574.614651 kJ/mol
# Density = 2.115227 g / cm^3
# Si number density = 21.200519 Si / 1000 Ang^3
#
#
#
# Elastic Constant Matrix: (Units=GPa)
#
#
# Indices 1 2 3 4 5 6 
#
# 1 132.7805 22.9821 68.5804 9.2039 6.0652 23.2382
# 2 22.9821 56.8358 39.7868 26.3450 -11.2996 5.9576
# 3 68.5804 39.7868 115.6303 33.9406 -0.0881 8.7798
# 4 9.2039 26.3450 33.9406 42.5986 7.7655 -7.4749
# 5 6.0652 -11.2996 -0.0881 7.7655 44.3272 -2.5738
# 6 23.2382 5.9576 8.7798 -7.4749 -2.5738 19.4099
#
#
#
# Elastic Compliance Matrix: (Units=1/GPa)
#
#
# Indices 1 2 3 4 5 6 
#
# 1 0.013729 -0.000188 -0.007529 0.001436 -0.002937 -0.012810
# 2 -0.000188 0.035817 -0.003803 -0.024287 0.012430 -0.016754
# 3 -0.007529 -0.003803 0.017724 -0.010792 0.001886 -0.001742
# 4 0.001436 -0.024287 -0.010792 0.054602 -0.014247 0.029755
# 5 -0.002937 0.012430 0.001886 -0.014247 0.028463 -0.002865
# 6 -0.012810 -0.016754 -0.001742 0.029755 -0.002865 0.083866
#
#
# Mechanical properties :
#
#
# Convention : Reuss Voigt Hill
#
# Bulk Modulus (GPa) = 22.60843 63.10501 42.85672
# Shear Modulus (GPa) = 18.38342 32.86029 25.62185
#
# Velocity S-wave (km/s) = 2.94789 3.94124 3.48019
# Velocity P-wave (km/s) = 4.71953 7.10926 6.03389
#
# Compressibility (1/GPa) = 0.04423130
#
# Stress axis : x y z
#
# Youngs Moduli (GPa) = 72.83868 27.91938 56.42103
#
# Poissons Ratio (x) = 0.00524 0.42481
# Poissons Ratio (y) = 0.01366 0.21455
# Poissons Ratio (z) = 0.54842 0.10617
#
# Static dielectric constant tensor:
#      x y z
#    x 1.793810 0.008870 -0.026060 
#    y 0.008870 1.829900 -0.002510 
#    z -0.026060 -0.002510 1.784690 
# 
# From -- ./inp_files/140060.got.cif
#   From: 2010.05.17/outbox.cif.g08.bks.cpg/sg2_71_cif.got.tgz:140060.got - 2010.06.03 11:33:40.
