data_PCOD9102351
_publ_section_title
;
Structure prediction by ZEFSAII (Michael W. Deem and Ramdas Pophale) SiO2 
 PCOD9102351
Probable space group: P -1
;
_chemical_formula_sum "Si O2"
_cell_formula_units_Z 16
_cell_length_a 8.766503
_cell_length_b 9.141317
_cell_length_c 11.525554
_cell_angle_alpha 125.424435
_cell_angle_beta 78.186773
_cell_angle_gamma 93.058885
_cell_volume 734.232407
_symmetry_space_group_name_H-M "P -1"
_symmetry_group_IT_number 2
_symmetry_cell_setting 'triclinic'
loop_
_space_group_symop_operation_xyz
x,y,z
-x,-y,-z
loop_
_atom_site_type_symbol
_atom_site_label
_atom_site_fract_x
_atom_site_fract_y
_atom_site_fract_z
Si Si1 0.532989 0.707648 0.581651
Si Si2 0.357333 0.996628 0.609531
Si Si3 0.718151 0.451252 0.111221
Si Si4 0.059475 0.504939 0.362520
Si Si5 0.831146 0.755831 0.392152
Si Si6 0.700131 0.719195 0.056384
Si Si7 0.975528 0.205293 0.057288
Si Si8 0.405547 0.346886 0.204037
O O1 0.500000 0.500000 0.500000
O O2 0.690187 0.736076 0.497555
O O3 0.556960 0.767443 0.738410
O O4 0.384953 0.812314 0.590332
O O5 0.204420 0.057685 0.585596
O O6 0.375268 0.148440 0.774139
O O7 0.500000 0.000000 0.500000
O O8 0.812638 0.604171 0.226875
O O9 0.695181 0.515372 0.011759
O O10 0.552953 0.457153 0.203731
O O11 0.816061 0.264450 0.040482
O O12 0.989651 0.340466 0.226398
O O13 0.245218 0.468010 0.307941
O O14 0.000000 0.500000 0.500000
O O15 0.991161 0.691336 0.400535
O O16 0.880161 0.756584 0.030003
O O17 0.623158 0.751598 0.957897
O O18 0.000000 0.000000 0.000000
#
# Coordination Sequence:
#
# PCOD9102351 Si02
#       8
#     2   2   2   2   2   2   2   2
#     4  11  20  34  60  92 121 157 206 253 300 365
#     4   9  21  38  59  88 117 157 205 246 298 367
#     4  10  20  39  62  88 120 167 208 249 302 375
#     4  10  20  38  62  92 129 163 207 254 317 368
#     4   9  18  37  61  85 116 167 206 244 297 370
#     4  10  22  41  61  88 125 162 202 256 315 364
#     4  10  23  40  61  92 124 163 211 255 305 373
#     4  11  22  35  63  96 123 158 205 260 313 355
#
# _framework density 21.791464999999999
#
# number of rings (size 3 to 8) (size 9 to 14) (size 15 to 20)
#    0.000    2.000    2.500    0.750    1.750    1.500 
#    2.250    0.000    0.000    0.750    0.000    0.000 
#    0.000    0.000    0.000    0.000    0.000    0.000 
#
# Total GULP energy -89287.981548 kJ/mol
# GULP energy per Si atom -5580.498847 kJ/mol
# Density = 2.174187 g / cm^3
# Si number density = 21.791465 Si / 1000 Ang^3
#
#
#
# Elastic Constant Matrix: (Units=GPa)
#
#
# Indices 1 2 3 4 5 6 
#
# 1 69.1396 50.7115 18.5018 0.4220 -5.8423 -19.4646
# 2 50.7115 164.0406 37.3438 -3.1401 -5.5979 -47.4885
# 3 18.5018 37.3438 116.0276 -22.8191 -4.8744 -12.1899
# 4 0.4220 -3.1401 -22.8191 34.5972 -4.9570 -2.9141
# 5 -5.8423 -5.5979 -4.8744 -4.9570 20.5190 -2.8441
# 6 -19.4646 -47.4885 -12.1899 -2.9141 -2.8441 33.6927
#
#
#
# Elastic Compliance Matrix: (Units=1/GPa)
#
#
# Indices 1 2 3 4 5 6 
#
# 1 0.019750 -0.004022 -0.001053 -0.000089 0.005055 0.005779
# 2 -0.004022 0.012104 -0.001021 0.002388 0.004565 0.014959
# 3 -0.001053 -0.001021 0.011257 0.008256 0.004523 0.003121
# 4 -0.000089 0.002388 0.008256 0.037337 0.013081 0.010634
# 5 0.005055 0.004565 0.004523 0.013081 0.058014 0.017019
# 6 0.005779 0.014959 0.003121 0.010634 0.017019 0.057588
#
#
# Mechanical properties :
#
#
# Convention : Reuss Voigt Hill
#
# Bulk Modulus (GPa) = 32.34371 62.48025 47.41198
# Shear Modulus (GPa) = 22.87837 33.93847 28.40842
#
# Velocity S-wave (km/s) = 3.24370 3.95070 3.61452
# Velocity P-wave (km/s) = 5.37618 7.03881 6.26291
#
# Compressibility (1/GPa) = 0.03091792
#
# Stress axis : x y z
#
# Youngs Moduli (GPa) = 50.63314 82.61852 88.83584
#
# Poissons Ratio (x) = 0.33230 0.09353
# Poissons Ratio (y) = 0.20365 0.09073
# Poissons Ratio (z) = 0.05331 0.08438
#
# Static dielectric constant tensor:
#      x y z
#    x 1.817170 -0.049640 0.032170 
#    y -0.049640 1.833430 0.005350 
#    z 0.032170 0.005350 1.823240 
# 
# From -- ./inp_files/261595.got.cif
#   From: 2010.05.17/outbox.cif.g08.bks.cpg/sg2_131_cif.got.tgz:261595.got - 2010.06.03 11:33:40.
