data_PCOD9102563
_publ_section_title
;
Structure prediction by ZEFSAII (Michael W. Deem and Ramdas Pophale) SiO2 
 PCOD9102563
Probable space group: P -1
;
_chemical_formula_sum "Si O2"
_cell_formula_units_Z 16
_cell_length_a 10.851130
_cell_length_b 14.340503
_cell_length_c 9.415441
_cell_angle_alpha 61.526714
_cell_angle_beta 72.003463
_cell_angle_gamma 29.707117
_cell_volume 619.384155
_symmetry_space_group_name_H-M "P -1"
_symmetry_group_IT_number 2
_symmetry_cell_setting 'triclinic'
loop_
_space_group_symop_operation_xyz
x,y,z
-x,-y,-z
loop_
_atom_site_type_symbol
_atom_site_label
_atom_site_fract_x
_atom_site_fract_y
_atom_site_fract_z
Si Si1 0.622687 0.825458 0.414988
Si Si2 0.925828 0.691005 0.975603
Si Si3 0.624862 0.208713 0.496117
Si Si4 0.057231 0.072557 0.864925
Si Si5 0.085862 0.286767 0.366481
Si Si6 0.353415 0.503767 0.122377
Si Si7 0.885436 0.215657 0.506191
Si Si8 0.426536 0.947393 0.961156
O O1 0.575415 0.741979 0.429248
O O2 0.854253 0.674110 0.555958
O O3 0.632853 0.913602 0.231559
O O4 0.358334 0.029189 0.451215
O O5 0.934381 0.665723 0.823838
O O6 0.719949 0.745580 0.052244
O O7 0.752249 0.911398 0.939337
O O8 0.198471 0.530286 0.058728
O O9 0.542608 0.305813 0.299034
O O10 0.654787 0.296814 0.508090
O O11 0.911331 0.956065 0.567568
O O12 0.337336 0.909312 0.934636
O O13 0.860546 0.294723 0.843687
O O14 0.011316 0.104022 0.693090
O O15 0.000000 0.000000 0.000000
O O16 0.862296 0.358760 0.411815
O O17 0.500000 0.500000 0.000000
#
# Coordination Sequence:
#
# PCOD9102563 Si02
#       8
#     2   2   2   2   2   2   2   2
#     4   9  17  32  58  86 115 154 198 256 304 355
#     4   9  19  33  60  86 118 163 200 246 315 362
#     4  10  22  36  62  89 126 162 206 254 310 378
#     4  11  23  38  65  91 120 164 214 258 306 371
#     4   9  16  31  58  86 114 152 205 253 294 355
#     4  11  23  42  59  88 132 168 198 257 321 368
#     4  10  20  38  63  91 116 163 218 253 301 368
#     4   9  18  36  59  89 120 153 209 263 303 363
#
# _framework density 25.832108999999999
#
# number of rings (size 3 to 8) (size 9 to 14) (size 15 to 20)
#    0.000    2.250    1.250    1.500    1.750    9.500 
#    0.000    3.125    2.750    0.000    0.000    0.000 
#    0.000    0.000    0.000    0.000    0.000    0.000 
#
# Total GULP energy -89319.025851 kJ/mol
# GULP energy per Si atom -5582.439116 kJ/mol
# Density = 2.577331 g / cm^3
# Si number density = 25.832109 Si / 1000 Ang^3
#
#
#
# Elastic Constant Matrix: (Units=GPa)
#
#
# Indices 1 2 3 4 5 6 
#
# 1 189.6895 34.7365 29.7214 4.3071 32.6496 -34.7332
# 2 34.7365 105.1809 20.8862 5.1789 11.1723 -12.0854
# 3 29.7214 20.8862 57.5488 12.1171 21.0163 12.0979
# 4 4.3071 5.1789 12.1171 20.3243 -9.3642 3.5812
# 5 32.6496 11.1723 21.0163 -9.3642 58.0256 -8.0329
# 6 -34.7332 -12.0854 12.0979 3.5812 -8.0329 20.8413
#
#
#
# Elastic Compliance Matrix: (Units=1/GPa)
#
#
# Indices 1 2 3 4 5 6 
#
# 1 0.012652 0.002200 -0.015396 0.001538 0.002723 0.032084
# 2 0.002200 0.012679 -0.010832 0.000884 0.002917 0.018279
# 3 -0.015396 -0.010832 0.059481 -0.028516 -0.025268 -0.071305
# 4 0.001538 0.000884 -0.028516 0.073608 0.023386 0.015995
# 5 0.002723 0.002917 -0.025268 0.023386 0.032116 0.029258
# 6 0.032084 0.018279 -0.071305 0.015995 0.029258 0.161969
#
#
# Mechanical properties :
#
#
# Convention : Reuss Voigt Hill
#
# Bulk Modulus (GPa) = 27.20598 58.12304 42.66451
# Shear Modulus (GPa) = 12.11206 37.64326 24.87766
#
# Velocity S-wave (km/s) = 2.16770 3.82151 3.10667
# Velocity P-wave (km/s) = 4.10121 6.48236 5.42407
#
# Compressibility (1/GPa) = 0.03675663
#
# Stress axis : x y z
#
# Youngs Moduli (GPa) = 79.03783 78.87338 16.81222
#
# Poissons Ratio (x) = -0.17354 0.25884
# Poissons Ratio (y) = -0.17390 0.18210
# Poissons Ratio (z) = 1.21685 0.85433
#
# Static dielectric constant tensor:
#      x y z
#    x 2.084830 0.059310 0.011740 
#    y 0.059310 2.049180 -0.127810 
#    z 0.011740 -0.127810 1.894670 
# 
# From -- ./inp_files/279302.got.cif
#   From: 2010.05.17/outbox.cif.g08.bks.cpg/sg2_140_cif.got.tgz:279302.got - 2010.06.03 11:33:40.
