data_PCOD9102244
_publ_section_title
;
Structure prediction by ZEFSAII (Michael W. Deem and Ramdas Pophale) SiO2 
 PCOD9102244
Probable space group: P -1
;
_chemical_formula_sum "Si O2"
_cell_formula_units_Z 16
_cell_length_a 28.027329
_cell_length_b 13.195800
_cell_length_c 6.383983
_cell_angle_alpha 59.256912
_cell_angle_beta 48.403019
_cell_angle_gamma 25.049715
_cell_volume 716.587114
_symmetry_space_group_name_H-M "P -1"
_symmetry_group_IT_number 2
_symmetry_cell_setting 'triclinic'
loop_
_space_group_symop_operation_xyz
x,y,z
-x,-y,-z
loop_
_atom_site_type_symbol
_atom_site_label
_atom_site_fract_x
_atom_site_fract_y
_atom_site_fract_z
Si Si1 0.597062 0.123684 0.835181
Si Si2 0.691284 0.425242 0.020714
Si Si3 0.117702 0.984745 0.431972
Si Si4 0.746582 0.741132 0.491745
Si Si5 0.975946 0.666097 0.996979
Si Si6 0.636313 0.841983 0.322345
Si Si7 0.263320 0.870036 0.510552
Si Si8 0.179590 0.583701 0.059222
O O1 0.450500 0.332851 0.944379
O O2 0.625438 0.208228 0.748743
O O3 0.699015 0.935610 0.541133
O O4 0.635284 0.967024 0.067331
O O5 0.687315 0.307200 0.279549
O O6 0.742600 0.436245 0.031356
O O7 0.805713 0.230806 0.713831
O O8 0.983148 0.145855 0.752805
O O9 0.217925 0.875642 0.428271
O O10 0.073929 0.163793 0.218537
O O11 0.629991 0.877833 0.548028
O O12 0.788369 0.580843 0.713923
O O13 0.869833 0.551575 0.170488
O O14 0.874001 0.846784 0.294851
O O15 0.000000 0.500000 0.000000
O O16 0.500000 0.000000 0.500000
O O17 0.754415 0.561007 0.199637
#
# Coordination Sequence:
#
# PCOD9102244 Si02
#       8
#     2   2   2   2   2   2   2   2
#     4  11  24  40  61  90 124 161 199 247 299 360
#     4  11  24  41  61  84 126 167 201 245 291 353
#     4  10  24  40  61  92 119 159 205 246 294 355
#     4  10  21  39  63  92 121 154 196 253 305 350
#     4  10  20  38  62  89 120 154 190 246 304 351
#     4  11  23  38  64  94 117 155 203 250 303 356
#     4  11  24  40  61  92 123 159 203 241 299 362
#     4  10  22  43  63  90 120 156 205 251 300 351
#
# _framework density 22.328060000000001
#
# number of rings (size 3 to 8) (size 9 to 14) (size 15 to 20)
#    0.000    1.500    1.250    3.000    1.750    6.500 
#    0.000    0.000    0.000    0.000    0.000    0.000 
#    0.000    0.000    0.000    0.000    0.000    0.000 
#
# Total GULP energy -89356.118686 kJ/mol
# GULP energy per Si atom -5584.757418 kJ/mol
# Density = 2.227724 g / cm^3
# Si number density = 22.328060 Si / 1000 Ang^3
#
#
#
# Elastic Constant Matrix: (Units=GPa)
#
#
# Indices 1 2 3 4 5 6 
#
# 1 99.6708 7.0709 2.7950 -6.0147 -0.6309 1.3259
# 2 7.0709 61.5500 7.4460 0.4159 -0.2948 3.4574
# 3 2.7950 7.4460 34.3626 8.5278 -3.7191 5.9195
# 4 -6.0147 0.4159 8.5278 12.9636 -0.5948 3.5842
# 5 -0.6309 -0.2948 -3.7191 -0.5948 34.6373 -1.5716
# 6 1.3259 3.4574 5.9195 3.5842 -1.5716 33.4030
#
#
#
# Elastic Compliance Matrix: (Units=1/GPa)
#
#
# Indices 1 2 3 4 5 6 
#
# 1 0.010564 -0.000961 -0.002158 0.006530 0.000036 -0.000636
# 2 -0.000961 0.016881 -0.003868 0.001886 -0.000313 -0.001241
# 3 -0.002158 -0.003868 0.037050 -0.024176 0.003340 -0.003329
# 4 0.006530 0.001886 -0.024176 0.097819 -0.001086 -0.006717
# 5 0.000036 -0.000313 0.003340 -0.001086 0.029251 0.000932
# 6 -0.000636 -0.001241 -0.003329 -0.006717 0.000932 0.031446
#
#
# Mechanical properties :
#
#
# Convention : Reuss Voigt Hill
#
# Bulk Modulus (GPa) = 19.79359 25.57859 22.68609
# Shear Modulus (GPa) = 19.69869 28.08553 23.89211
#
# Velocity S-wave (km/s) = 2.97347 3.55048 3.27471
# Velocity P-wave (km/s) = 4.54674 5.31870 4.94780
#
# Compressibility (1/GPa) = 0.05052140
#
# Stress axis : x y z
#
# Youngs Moduli (GPa) = 94.65721 59.23925 26.99083
#
# Poissons Ratio (x) = 0.05692 0.05825
# Poissons Ratio (y) = 0.09095 0.10440
# Poissons Ratio (z) = 0.20428 0.22913
#
# Static dielectric constant tensor:
#      x y z
#    x 1.827150 -0.020440 -0.040980 
#    y -0.020440 1.859310 0.046120 
#    z -0.040980 0.046120 1.838820 
# 
# From -- ./inp_files/66306.got.cif
#   From: 2010.05.17/outbox.cif.g08.bks.cpg/sg2_34_cif.got.tgz:66306.got - 2010.06.03 11:33:40.
