data_PCOD9102282
_publ_section_title
;
Structure prediction by ZEFSAII (Michael W. Deem and Ramdas Pophale) SiO2 
 PCOD9102282
Probable space group: P -1
;
_chemical_formula_sum "Si O2"
_cell_formula_units_Z 15
_cell_length_a 11.468623
_cell_length_b 10.488825
_cell_length_c 15.054467
_cell_angle_alpha 122.748013
_cell_angle_beta 40.222402
_cell_angle_gamma 147.257594
_cell_volume 605.321980
_symmetry_space_group_name_H-M "P -1"
_symmetry_group_IT_number 2
_symmetry_cell_setting 'triclinic'
loop_
_space_group_symop_operation_xyz
x,y,z
-x,-y,-z
loop_
_atom_site_type_symbol
_atom_site_label
_atom_site_fract_x
_atom_site_fract_y
_atom_site_fract_z
Si Si1 0.694172 0.539600 0.973621
Si Si2 0.500000 0.500000 0.500000
Si Si3 0.094103 0.608372 0.638930
Si Si4 0.774165 0.756545 0.182952
Si Si5 0.864038 0.693764 0.539728
Si Si6 0.208468 0.959903 0.595385
Si Si7 0.783103 0.480905 0.197296
Si Si8 0.596859 0.233164 0.047742
O O1 0.507406 0.298716 0.052909
O O2 0.923435 0.586137 0.805549
O O3 0.500000 0.500000 0.000000
O O4 0.831767 0.745725 0.044477
O O5 0.715233 0.655451 0.522863
O O6 0.690962 0.484842 0.345678
O O7 0.982003 0.365157 0.593942
O O8 0.082701 0.712885 0.600235
O O9 0.442133 0.821902 0.534937
O O10 0.421403 0.524566 0.314254
O O11 0.882785 0.694804 0.162313
O O12 0.862901 0.974323 0.256935
O O13 0.078826 0.932990 0.567605
O O14 0.048377 0.540552 0.077555
O O15 0.536939 0.244056 0.187673
O O16 0.500000 0.000000 0.000000
#
# Coordination Sequence:
#
# PCOD9102282 Si02
#       8
#     2   1   2   2   2   2   2   2
#     4  11  23  41  65  96 134 167 209 278 329 368
#     4  10  20  38  62  90 124 156 204 266 316 374
#     4  10  22  39  62  94 129 165 216 267 315 386
#     4   9  21  39  61  91 127 165 211 263 318 383
#     4  10  20  40  63  87 125 168 210 263 325 380
#     4  10  21  40  65  90 126 177 212 254 328 393
#     4   9  20  40  62  88 125 161 205 268 312 365
#     4  10  22  43  67  87 121 175 215 247 318 394
#
# _framework density 24.780197999999999
#
# number of rings (size 3 to 8) (size 9 to 14) (size 15 to 20)
#    0.000    2.133    0.000    2.000    0.000    6.933 
#    0.000   28.000    0.000    0.000    0.000    0.000 
#    0.000    0.000    0.000    0.000    0.000    0.000 
#
# Total GULP energy -83602.655297 kJ/mol
# GULP energy per Si atom -5573.510353 kJ/mol
# Density = 2.472380 g / cm^3
# Si number density = 24.780198 Si / 1000 Ang^3
#
#
#
# Elastic Constant Matrix: (Units=GPa)
#
#
# Indices 1 2 3 4 5 6 
#
# 1 135.1845 30.3233 21.8202 14.2310 6.3988 14.7140
# 2 30.3233 51.4527 22.7133 24.8777 9.3308 2.9687
# 3 21.8202 22.7133 175.0439 40.9054 0.9933 17.8293
# 4 14.2310 24.8777 40.9054 41.1839 6.0780 -1.4595
# 5 6.3988 9.3308 0.9933 6.0780 40.8070 8.1878
# 6 14.7140 2.9687 17.8293 -1.4595 8.1878 40.2205
#
#
#
# Elastic Compliance Matrix: (Units=1/GPa)
#
#
# Indices 1 2 3 4 5 6 
#
# 1 0.008850 -0.005038 -0.000157 -0.000012 0.000345 -0.002867
# 2 -0.005038 0.031133 0.000707 -0.017253 -0.003645 -0.000652
# 3 -0.000157 0.000707 0.008146 -0.008890 0.001853 -0.004306
# 4 -0.000012 -0.017253 -0.008890 0.044396 -0.003982 0.007640
# 5 0.000345 -0.003645 0.001853 -0.003982 0.027105 -0.006341
# 6 -0.002867 -0.000652 -0.004306 0.007640 -0.006341 0.029437
#
#
# Mechanical properties :
#
#
# Convention : Reuss Voigt Hill
#
# Bulk Modulus (GPa) = 25.54027 56.82163 41.18095
# Shear Modulus (GPa) = 29.22407 43.56389 36.39398
#
# Velocity S-wave (km/s) = 3.43787 4.19741 3.83648
# Velocity P-wave (km/s) = 5.10761 6.81697 6.02324
#
# Compressibility (1/GPa) = 0.03915385
#
# Stress axis : x y z
#
# Youngs Moduli (GPa) = 113.00020 32.12066 122.75683
#
# Poissons Ratio (x) = 0.16182 0.01923
# Poissons Ratio (y) = 0.56927 -0.08681
# Poissons Ratio (z) = 0.01770 -0.02271
#
# Static dielectric constant tensor:
#      x y z
#    x 1.985550 -0.022360 0.039430 
#    y -0.022360 2.051590 -0.023050 
#    z 0.039430 -0.023050 1.976060 
# 
# From -- ./inp_files/519111.got.cif
#   From: 2010.05.17/outbox.cif.g08.bks.cpg/sg2_260_cif.got.tgz:519111.got - 2010.06.03 11:33:40.
