data_PCOD9102856
_publ_section_title
;
Structure prediction by ZEFSAII (Michael W. Deem and Ramdas Pophale) SiO2 
 PCOD9102856
Probable space group: P -1
;
_chemical_formula_sum "Si O2"
_cell_formula_units_Z 14
_cell_length_a 8.035100
_cell_length_b 11.123357
_cell_length_c 7.933478
_cell_angle_alpha 94.505181
_cell_angle_beta 53.108861
_cell_angle_gamma 92.983962
_cell_volume 565.337521
_symmetry_space_group_name_H-M "P -1"
_symmetry_group_IT_number 2
_symmetry_cell_setting 'triclinic'
loop_
_space_group_symop_operation_xyz
x,y,z
-x,-y,-z
loop_
_atom_site_type_symbol
_atom_site_label
_atom_site_fract_x
_atom_site_fract_y
_atom_site_fract_z
Si Si1 0.732772 0.387756 0.124995
Si Si2 0.072733 0.258259 0.066387
Si Si3 0.479945 0.870522 0.786157
Si Si4 0.150207 0.174011 0.629570
Si Si5 0.834688 0.968025 0.833839
Si Si6 0.071946 0.612146 0.356158
Si Si7 0.518954 0.594454 0.152584
O O1 0.606548 0.264772 0.145413
O O2 0.591763 0.505359 0.248502
O O3 0.873013 0.416175 0.876652
O O4 0.883937 0.351437 0.180958
O O5 0.104171 0.215201 0.850823
O O6 0.292556 0.316107 0.989334
O O7 0.032378 0.142164 0.190168
O O8 0.611517 0.864790 0.534880
O O9 0.657677 0.915069 0.813251
O O10 0.292721 0.963699 0.932293
O O11 0.098987 0.284140 0.546018
O O12 0.985393 0.069191 0.678094
O O13 0.293673 0.654150 0.305439
O O14 0.000000 0.500000 0.500000
O O15 0.500000 0.500000 0.000000
#
# Coordination Sequence:
#
# PCOD9102856 Si02
#       7
#     2   2   2   2   2   2   2
#     4  10  21  42  63  95 130 169 216 267 327 382
#     4  11  23  41  66  95 137 172 212 275 329 382
#     4  11  23  42  71  93 134 176 217 265 324 384
#     4  11  24  43  63 102 136 165 223 271 322 389
#     4  11  23  43  68  95 137 173 219 264 322 393
#     4  10  20  38  64  90 128 166 215 270 314 385
#     4  10  21  39  66  91 124 173 218 260 326 382
#
# _framework density 24.763967999999998
#
# number of rings (size 3 to 8) (size 9 to 14) (size 15 to 20)
#    0.000    1.429    2.857    3.857    2.000    1.714 
#    0.000    9.286    0.000    0.000    0.000    0.000 
#    0.000    0.000    0.000    0.000    0.000    0.000 
#
# Total GULP energy -78306.156958 kJ/mol
# GULP energy per Si atom -5593.296926 kJ/mol
# Density = 2.470760 g / cm^3
# Si number density = 24.763968 Si / 1000 Ang^3
#
#
#
# Elastic Constant Matrix: (Units=GPa)
#
#
# Indices 1 2 3 4 5 6 
#
# 1 71.7275 20.2696 8.1708 -18.9863 -12.2122 3.2760
# 2 20.2696 78.1873 6.4713 -33.5149 -1.1316 6.0066
# 3 8.1708 6.4713 55.2416 -10.1535 -5.3626 6.8985
# 4 -18.9863 -33.5149 -10.1535 44.9835 2.6745 -7.8191
# 5 -12.2122 -1.1316 -5.3626 2.6745 29.3557 -6.6040
# 6 3.2760 6.0066 6.8985 -7.8191 -6.6040 55.9037
#
#
#
# Elastic Compliance Matrix: (Units=1/GPa)
#
#
# Indices 1 2 3 4 5 6 
#
# 1 0.017092 -0.002093 -0.000785 0.005230 0.006597 0.000831
# 2 -0.002093 0.019064 0.000452 0.013457 -0.001337 -0.000257
# 3 -0.000785 0.000452 0.019328 0.003951 0.002516 -0.001538
# 4 0.005230 0.013457 0.003951 0.035806 0.000798 0.002862
# 5 0.006597 -0.001337 0.002516 0.000798 0.038057 0.004054
# 6 0.000831 -0.000257 -0.001538 0.002862 0.004054 0.018936
#
#
# Mechanical properties :
#
#
# Convention : Reuss Voigt Hill
#
# Bulk Modulus (GPa) = 19.75022 30.55333 25.15178
# Shear Modulus (GPa) = 29.40998 37.39822 33.40410
#
# Velocity S-wave (km/s) = 3.44991 3.89033 3.67672
# Velocity P-wave (km/s) = 4.88486 5.70475 5.31065
#
# Compressibility (1/GPa) = 0.05063234
#
# Stress axis : x y z
#
# Youngs Moduli (GPa) = 58.50688 52.45612 51.73858
#
# Poissons Ratio (x) = 0.10977 0.04062
# Poissons Ratio (y) = 0.12243 -0.02339
# Poissons Ratio (z) = 0.04593 -0.02371
#
# Static dielectric constant tensor:
#      x y z
#    x 2.021400 -0.023050 0.021690 
#    y -0.023050 1.967020 0.042690 
#    z 0.021690 0.042690 1.985670 
# 
# From -- ./inp_files/177255.got.cif
#   From: 2010.05.17/outbox.cif.g08.bks.cpg/sg2_89_cif.got.tgz:177255.got - 2010.06.03 11:33:40.
