data_PCOD9102624
_publ_section_title
;
Structure prediction by ZEFSAII (Michael W. Deem and Ramdas Pophale) SiO2 
 PCOD9102624
Probable space group: P -1
;
_chemical_formula_sum "Si O2"
_cell_formula_units_Z 16
_cell_length_a 8.780362
_cell_length_b 11.513437
_cell_length_c 7.238038
_cell_angle_alpha 99.268483
_cell_angle_beta 72.146642
_cell_angle_gamma 97.237081
_cell_volume 685.091267
_symmetry_space_group_name_H-M "P -1"
_symmetry_group_IT_number 2
_symmetry_cell_setting 'triclinic'
loop_
_space_group_symop_operation_xyz
x,y,z
-x,-y,-z
loop_
_atom_site_type_symbol
_atom_site_label
_atom_site_fract_x
_atom_site_fract_y
_atom_site_fract_z
Si Si1 0.490758 0.091529 0.694487
Si Si2 0.638031 0.463492 0.804629
Si Si3 0.218213 0.781827 0.214851
Si Si4 0.067538 0.402234 0.086641
Si Si5 0.776822 0.244038 0.224710
Si Si6 0.160254 0.004480 0.816495
Si Si7 0.863056 0.760595 0.323461
Si Si8 0.469796 0.326884 0.527034
O O1 0.659723 0.110566 0.738777
O O2 0.331816 0.048510 0.858652
O O3 0.463350 0.218930 0.650881
O O4 0.500000 0.000000 0.500000
O O5 0.700119 0.338073 0.804745
O O6 0.792843 0.551508 0.814796
O O7 0.549646 0.441560 0.634500
O O8 0.500000 0.500000 0.000000
O O9 0.037405 0.761649 0.351138
O O10 0.201780 0.791421 0.003884
O O11 0.913490 0.346657 0.239677
O O12 0.130670 0.307169 0.894818
O O13 0.000000 0.500000 0.000000
O O14 0.601971 0.288553 0.325635
O O15 0.811979 0.127496 0.293406
O O16 0.150378 0.101478 0.684295
O O17 0.000000 0.000000 0.000000
O O18 0.716015 0.689057 0.467026
#
# Coordination Sequence:
#
# PCOD9102624 Si02
#       8
#     2   2   2   2   2   2   2   2
#     4  10  21  40  63  84 127 164 198 252 315 362
#     4  11  21  38  66  90 118 170 212 246 315 376
#     4  10  22  39  65  91 119 164 212 248 309 376
#     4  11  20  38  64  87 122 163 210 256 305 361
#     4  11  22  39  64  93 126 161 208 259 308 359
#     4  11  20  38  63  93 124 164 200 253 310 370
#     4  10  20  38  63  93 122 166 204 255 310 366
#     4  10  22  38  62  91 128 158 203 259 316 364
#
# _framework density 23.354554
#
# number of rings (size 3 to 8) (size 9 to 14) (size 15 to 20)
#    0.000    1.500    7.500    0.000    0.000    1.000 
#    0.000    6.250    5.500    0.000    0.000    0.000 
#    0.000    0.000    0.000    0.000    0.000    0.000 
#
# Total GULP energy -89299.712171 kJ/mol
# GULP energy per Si atom -5581.232011 kJ/mol
# Density = 2.330140 g / cm^3
# Si number density = 23.354554 Si / 1000 Ang^3
#
#
#
# Elastic Constant Matrix: (Units=GPa)
#
#
# Indices 1 2 3 4 5 6 
#
# 1 200.7811 64.7017 60.2026 5.0449 -25.3605 53.6389
# 2 64.7017 83.8227 16.2648 0.8678 0.8893 23.6916
# 3 60.2026 16.2648 56.4709 3.2203 -11.9561 19.4963
# 4 5.0449 0.8678 3.2203 27.4243 5.8134 -6.3833
# 5 -25.3605 0.8893 -11.9561 5.8134 45.9202 -6.9293
# 6 53.6389 23.6916 19.4963 -6.3833 -6.9293 62.2084
#
#
#
# Elastic Compliance Matrix: (Units=1/GPa)
#
#
# Indices 1 2 3 4 5 6 
#
# 1 0.010787 -0.005578 -0.007276 -0.002872 0.003815 -0.004766
# 2 -0.005578 0.016677 0.001134 0.000593 -0.003520 -0.002228
# 3 -0.007276 0.001134 0.026817 -0.003064 0.002945 -0.002549
# 4 -0.002872 0.000593 -0.003064 0.040250 -0.006492 0.006617
# 5 0.003815 -0.003520 0.002945 -0.006492 0.025434 -0.000705
# 6 -0.004766 -0.002228 -0.002549 0.006617 -0.000705 0.022432
#
#
# Mechanical properties :
#
#
# Convention : Reuss Voigt Hill
#
# Bulk Modulus (GPa) = 32.42623 69.26809 50.84716
# Shear Modulus (GPa) = 28.38993 40.43762 34.41378
#
# Velocity S-wave (km/s) = 3.49034 4.16560 3.84283
# Velocity P-wave (km/s) = 5.49161 7.27049 6.44274
#
# Compressibility (1/GPa) = 0.03083924
#
# Stress axis : x y z
#
# Youngs Moduli (GPa) = 92.70201 59.96399 37.28969
#
# Poissons Ratio (x) = 0.33450 0.27134
# Poissons Ratio (y) = 0.51712 -0.04228
# Poissons Ratio (z) = 0.67454 -0.06799
#
# Static dielectric constant tensor:
#      x y z
#    x 2.081010 -0.087340 0.001460 
#    y -0.087340 2.023010 -0.022390 
#    z 0.001460 -0.022390 1.889300 
# 
# From -- ./inp_files/189211.got.cif
#   From: 2010.05.17/outbox.cif.g08.bks.cpg/sg2_95_cif.got.tgz:189211.got - 2010.06.03 11:33:40.
