data_PCOD9102259
_publ_section_title
;
Structure prediction by ZEFSAII (Michael W. Deem and Ramdas Pophale) SiO2 
 PCOD9102259
Probable space group: P -1
;
_chemical_formula_sum "Si O2"
_cell_formula_units_Z 16
_cell_length_a 8.657778
_cell_length_b 14.766954
_cell_length_c 13.836957
_cell_angle_alpha 120.647502
_cell_angle_beta 108.280628
_cell_angle_gamma 123.462098
_cell_volume 710.719819
_symmetry_space_group_name_H-M "P -1"
_symmetry_group_IT_number 2
_symmetry_cell_setting 'triclinic'
loop_
_space_group_symop_operation_xyz
x,y,z
-x,-y,-z
loop_
_atom_site_type_symbol
_atom_site_label
_atom_site_fract_x
_atom_site_fract_y
_atom_site_fract_z
Si Si1 0.733611 0.285397 0.738815
Si Si2 0.612449 0.948168 0.979691
Si Si3 0.856206 0.475518 0.226528
Si Si4 0.942259 0.160871 0.746482
Si Si5 0.316408 0.697316 0.602098
Si Si6 0.756378 0.772380 0.783133
Si Si7 0.398741 0.408597 0.140958
Si Si8 0.346875 0.250604 0.726181
O O1 0.885455 0.256234 0.782060
O O2 0.609409 0.300735 0.802187
O O3 0.001065 0.482509 0.823595
O O4 0.398301 0.073538 0.494613
O O5 0.396576 0.745903 0.890380
O O6 0.553583 0.897231 0.825971
O O7 0.500000 0.000000 0.000000
O O8 0.995911 0.154602 0.192403
O O9 0.666738 0.478923 0.187088
O O10 0.175747 0.667958 0.462775
O O11 0.238600 0.268885 0.802541
O O12 0.055716 0.200701 0.900633
O O13 0.486499 0.679776 0.616636
O O14 0.000000 0.500000 0.500000
O O15 0.624831 0.635822 0.775579
O O16 0.000000 0.000000 0.000000
O O17 0.523900 0.596517 0.247223
O O18 0.000000 0.000000 0.500000
#
# Coordination Sequence:
#
# PCOD9102259 Si02
#       8
#     2   2   2   2   2   2   2   2
#     4  10  23  42  65  94 129 164 216 264 328 392
#     4  10  22  39  59  92 134 159 215 272 307 374
#     4  11  22  39  66  90 122 175 212 253 326 391
#     4  10  23  43  67  91 128 169 210 271 327 388
#     4   9  18  39  62  83 122 168 206 252 314 384
#     4  10  20  38  62  89 125 164 210 252 312 377
#     4  12  22  40  70  92 123 171 220 260 326 385
#     4  10  23  44  64  94 132 163 214 273 322 386
#
# _framework density 22.512388999999999
#
# number of rings (size 3 to 8) (size 9 to 14) (size 15 to 20)
#    0.000    1.750    5.000    0.375    5.250    0.500 
#    0.000    6.250    0.000    0.000    0.000    0.000 
#    0.000    0.000    0.000    0.000    0.000    0.000 
#
# Total GULP energy -89173.466329 kJ/mol
# GULP energy per Si atom -5573.341646 kJ/mol
# Density = 2.246115 g / cm^3
# Si number density = 22.512389 Si / 1000 Ang^3
#
#
#
# Elastic Constant Matrix: (Units=GPa)
#
#
# Indices 1 2 3 4 5 6 
#
# 1 182.9260 38.3320 37.6313 -5.0568 37.7164 -12.5127
# 2 38.3320 74.9384 30.3886 -9.0382 2.1893 -3.9688
# 3 37.6313 30.3886 78.0593 -22.1720 10.4692 -8.2886
# 4 -5.0568 -9.0382 -22.1720 32.6211 -12.2127 8.7444
# 5 37.7164 2.1893 10.4692 -12.2127 39.3018 2.3478
# 6 -12.5127 -3.9688 -8.2886 8.7444 2.3478 35.0967
#
#
#
# Elastic Compliance Matrix: (Units=1/GPa)
#
#
# Indices 1 2 3 4 5 6 
#
# 1 0.009022 -0.003674 -0.002977 -0.006549 -0.009958 0.004396
# 2 -0.003674 0.017374 -0.004925 0.003192 0.004959 -0.001635
# 3 -0.002977 -0.004925 0.019322 0.011994 0.001721 -0.000158
# 4 -0.006549 0.003192 0.011994 0.049162 0.018945 -0.012657
# 5 -0.009958 0.004959 0.001721 0.018945 0.040752 -0.010029
# 6 0.004396 -0.001635 -0.000158 -0.012657 -0.010029 0.033662
#
#
# Mechanical properties :
#
#
# Convention : Reuss Voigt Hill
#
# Bulk Modulus (GPa) = 44.31241 60.95859 52.63550
# Shear Modulus (GPa) = 25.00413 36.70870 30.85642
#
# Velocity S-wave (km/s) = 3.33631 4.04245 3.70623
# Velocity P-wave (km/s) = 5.87942 6.99465 6.46114
#
# Compressibility (1/GPa) = 0.02256704
#
# Stress axis : x y z
#
# Youngs Moduli (GPa) = 110.84372 57.55731 51.75376
#
# Poissons Ratio (x) = 0.21145 0.15407
# Poissons Ratio (y) = 0.40720 0.25488
# Poissons Ratio (z) = 0.32998 0.28346
#
# Static dielectric constant tensor:
#      x y z
#    x 1.922450 0.017350 0.020770 
#    y 0.017350 1.859850 0.001820 
#    z 0.020770 0.001820 1.896190 
# 
# From -- ./inp_files/500593.got.cif
#   From: 2010.05.17/outbox.cif.g08.bks.cpg/sg2_251_cif.got.tgz:500593.got - 2010.06.03 11:33:40.
