data_PCOD9102398
_publ_section_title
;
Structure prediction by ZEFSAII (Michael W. Deem and Ramdas Pophale) SiO2 
 PCOD9102398
Probable space group: P -1
;
_chemical_formula_sum "Si O2"
_cell_formula_units_Z 12
_cell_length_a 7.158204
_cell_length_b 14.895829
_cell_length_c 6.828621
_cell_angle_alpha 52.743008
_cell_angle_beta 82.605145
_cell_angle_gamma 106.329327
_cell_volume 511.795992
_symmetry_space_group_name_H-M "P -1"
_symmetry_group_IT_number 2
_symmetry_cell_setting 'triclinic'
loop_
_space_group_symop_operation_xyz
x,y,z
-x,-y,-z
loop_
_atom_site_type_symbol
_atom_site_label
_atom_site_fract_x
_atom_site_fract_y
_atom_site_fract_z
Si Si1 0.991469 0.102530 0.605805
Si Si2 0.694282 0.977107 0.152127
Si Si3 0.530157 0.488585 0.282509
Si Si4 0.662272 0.284380 0.381121
Si Si5 0.713562 0.129813 0.267950
Si Si6 0.137601 0.379623 0.242317
O O1 0.895277 0.122001 0.389591
O O2 0.183600 0.068408 0.645441
O O3 0.083650 0.240345 0.507439
O O4 0.806619 0.999393 0.899032
O O5 0.460587 0.859802 0.327202
O O6 0.738593 0.112801 0.057886
O O7 0.500000 0.500000 0.500000
O O8 0.543713 0.361456 0.377109
O O9 0.321792 0.482146 0.214034
O O10 0.744979 0.597554 0.015030
O O11 0.678300 0.245868 0.202859
O O12 0.907584 0.372134 0.284414
O O13 0.500000 0.000000 0.500000
#
# Coordination Sequence:
#
# PCOD9102398 Si02
#       6
#     2   2   2   2   2   2
#     4  10  20  38  62  95 131 163 208 253 311 373
#     4  10  20  38  63  94 131 165 202 256 307 381
#     4  11  24  45  65  89 123 163 214 262 316 362
#     4  10  21  42  64  93 126 161 207 257 308 373
#     4   9  20  35  58  90 125 163 200 245 308 371
#     4  10  23  42  66  90 125 163 208 265 305 372
#
# _framework density 23.446845
#
# number of rings (size 3 to 8) (size 9 to 14) (size 15 to 20)
#    0.000    2.000    1.667    1.000    0.000    9.333 
#    3.000    8.333    0.000    0.000    0.000    0.000 
#    0.000    0.000    0.000    0.000    0.000    0.000 
#
# Total GULP energy -66826.449365 kJ/mol
# GULP energy per Si atom -5568.870780 kJ/mol
# Density = 2.339348 g / cm^3
# Si number density = 23.446845 Si / 1000 Ang^3
#
#
#
# Elastic Constant Matrix: (Units=GPa)
#
#
# Indices 1 2 3 4 5 6 
#
# 1 122.3562 55.7094 33.0330 2.9725 -17.6897 24.5461
# 2 55.7094 103.2117 35.8199 9.1190 9.4491 -4.6017
# 3 33.0330 35.8199 95.1860 8.3049 -20.6064 15.9121
# 4 2.9725 9.1190 8.3049 34.9347 4.2095 -4.3890
# 5 -17.6897 9.4491 -20.6064 4.2095 22.8599 -14.2779
# 6 24.5461 -4.6017 15.9121 -4.3890 -14.2779 42.8812
#
#
#
# Elastic Compliance Matrix: (Units=1/GPa)
#
#
# Indices 1 2 3 4 5 6 
#
# 1 0.016425 -0.011880 0.003805 -0.002113 0.017366 -0.006523
# 2 -0.011880 0.022173 -0.010595 0.001382 -0.025107 0.004893
# 3 0.003805 -0.010595 0.019314 -0.005407 0.023783 -0.003116
# 4 -0.002113 0.001382 -0.005407 0.031426 -0.011056 0.002899
# 5 0.017366 -0.025107 0.023783 -0.011056 0.097122 0.009747
# 6 -0.006523 0.004893 -0.003116 0.002899 0.009747 0.032278
#
#
# Mechanical properties :
#
#
# Convention : Reuss Voigt Hill
#
# Bulk Modulus (GPa) = 48.61208 63.31983 55.96596
# Shear Modulus (GPa) = 19.01601 33.21459 26.11530
#
# Velocity S-wave (km/s) = 2.85094 3.76785 3.34100
# Velocity P-wave (km/s) = 5.62273 6.78183 6.22930
#
# Compressibility (1/GPa) = 0.02057102
#
# Stress axis : x y z
#
# Youngs Moduli (GPa) = 60.88124 45.09985 51.77655
#
# Poissons Ratio (x) = 0.53580 -0.19700
# Poissons Ratio (y) = 0.72328 0.54858
# Poissons Ratio (z) = -0.23164 0.47784
#
# Static dielectric constant tensor:
#      x y z
#    x 1.999820 -0.057780 -0.000730 
#    y -0.057780 1.941760 0.019350 
#    z -0.000730 0.019350 1.983150 
# 
# From -- ./inp_files/29402.got.cif
#   From: 2010.05.17/outbox.cif.g08.bks.cpg/sg2_15_cif.got.tgz:29402.got - 2010.06.03 11:33:40.
