data_PCOD9102014
_publ_section_title
;
Structure prediction by ZEFSAII (Michael W. Deem and Ramdas Pophale) SiO2 
 PCOD9102014
Probable space group: P -1
;
_chemical_formula_sum "Si O2"
_cell_formula_units_Z 14
_cell_length_a 8.041268
_cell_length_b 10.174738
_cell_length_c 17.632752
_cell_angle_alpha 59.540762
_cell_angle_beta 108.198225
_cell_angle_gamma 61.050272
_cell_volume 732.691281
_symmetry_space_group_name_H-M "P -1"
_symmetry_group_IT_number 2
_symmetry_cell_setting 'triclinic'
loop_
_space_group_symop_operation_xyz
x,y,z
-x,-y,-z
loop_
_atom_site_type_symbol
_atom_site_label
_atom_site_fract_x
_atom_site_fract_y
_atom_site_fract_z
Si Si1 0.806003 0.342995 0.346630
Si Si2 0.151425 0.260893 0.283204
Si Si3 0.482480 0.735006 0.873609
Si Si4 0.326625 0.918011 0.631673
Si Si5 0.332688 0.172753 0.998766
Si Si6 0.027611 0.821086 0.847430
Si Si7 0.222300 0.917772 0.115160
O O1 0.004093 0.269754 0.328093
O O2 0.699915 0.242877 0.346078
O O3 0.529052 0.635152 0.229320
O O4 0.014583 0.197515 0.491115
O O5 0.448200 0.143828 0.369188
O O6 0.763674 0.218971 0.161401
O O7 0.927404 0.545203 0.146178
O O8 0.436343 0.847044 0.754196
O O9 0.487593 0.847792 0.911564
O O10 0.772686 0.440482 0.006019
O O11 0.827217 0.868220 0.747524
O O12 0.500000 0.000000 0.000000
O O13 0.236010 0.087989 0.052318
O O14 0.881652 0.024589 0.830221
O O15 0.000000 0.000000 0.000000
#
# Coordination Sequence:
#
# PCOD9102014 Si02
#       7
#     2   2   2   2   2   2   2
#     4  11  24  42  63  90 128 162 209 253 301 369
#     4  11  21  41  66  91 121 164 207 253 306 366
#     4  10  20  38  61  91 123 162 202 257 303 364
#     4  11  23  41  65  88 122 172 209 244 303 375
#     4  11  21  35  61  92 124 153 202 258 312 356
#     4  10  21  36  65  90 121 157 206 255 314 355
#     4  12  23  38  61  95 126 157 201 264 315 359
#
# _framework density 19.107638999999999
#
# number of rings (size 3 to 8) (size 9 to 14) (size 15 to 20)
#    0.000    1.143    2.857    4.714    2.000    2.286 
#    0.000    3.571    0.000    0.000    0.000    0.000 
#    0.000    0.000    0.000    0.000    0.000    0.000 
#
# Total GULP energy -78189.998991 kJ/mol
# GULP energy per Si atom -5584.999928 kJ/mol
# Density = 1.906415 g / cm^3
# Si number density = 19.107639 Si / 1000 Ang^3
#
#
#
# Elastic Constant Matrix: (Units=GPa)
#
#
# Indices 1 2 3 4 5 6 
#
# 1 98.4845 26.4560 32.2544 0.7290 13.7380 4.3957
# 2 26.4560 90.2693 32.9828 1.8897 12.1856 -5.8511
# 3 32.2544 32.9828 70.6083 8.0503 7.7867 3.3403
# 4 0.7290 1.8897 8.0503 9.8883 -0.2672 1.0809
# 5 13.7380 12.1856 7.7867 -0.2672 23.7451 2.3737
# 6 4.3957 -5.8511 3.3403 1.0809 2.3737 38.8207
#
#
#
# Elastic Compliance Matrix: (Units=1/GPa)
#
#
# Indices 1 2 3 4 5 6 
#
# 1 0.012888 -0.001414 -0.005019 0.003385 -0.004944 -0.001033
# 2 -0.001414 0.014490 -0.005913 0.001675 -0.004971 0.003110
# 3 -0.005019 -0.005913 0.021186 -0.015595 -0.001020 -0.001649
# 4 0.003385 0.001675 -0.015595 0.113597 0.003793 -0.002184
# 5 -0.004944 -0.004971 -0.001020 0.003793 0.048218 -0.003156
# 6 -0.001033 0.003110 -0.001649 -0.002184 -0.003156 0.026741
#
#
# Mechanical properties :
#
#
# Convention : Reuss Voigt Hill
#
# Bulk Modulus (GPa) = 41.88761 49.19429 45.54095
# Shear Modulus (GPa) = 18.53436 25.66876 22.10156
#
# Velocity S-wave (km/s) = 3.11786 3.66919 3.40470
# Velocity P-wave (km/s) = 5.91024 6.61456 6.27229
#
# Compressibility (1/GPa) = 0.02387341
#
# Stress axis : x y z
#
# Youngs Moduli (GPa) = 77.59119 69.01135 47.20127
#
# Poissons Ratio (x) = 0.09757 0.23690
# Poissons Ratio (y) = 0.10970 0.27909
# Poissons Ratio (z) = 0.38942 0.40805
#
# Static dielectric constant tensor:
#      x y z
#    x 1.704390 -0.024070 -0.003310 
#    y -0.024070 1.701010 0.040600 
#    z -0.003310 0.040600 1.668580 
# 
# From -- ./inp_files/586166.got.cif
#   From: 2010.05.17/outbox.cif.g08.bks.cpg/sg2_294_cif.got.tgz:586166.got - 2010.06.03 11:33:40.
