data_PCOD9102721
_publ_section_title
;
Structure prediction by ZEFSAII (Michael W. Deem and Ramdas Pophale) SiO2 
 PCOD9102721
Probable space group: P -1
;
_chemical_formula_sum "Si O2"
_cell_formula_units_Z 16
_cell_length_a 20.260377
_cell_length_b 7.712636
_cell_length_c 12.002251
_cell_angle_alpha 97.425278
_cell_angle_beta 28.618739
_cell_angle_gamma 80.093601
_cell_volume 711.914380
_symmetry_space_group_name_H-M "P -1"
_symmetry_group_IT_number 2
_symmetry_cell_setting 'triclinic'
loop_
_space_group_symop_operation_xyz
x,y,z
-x,-y,-z
loop_
_atom_site_type_symbol
_atom_site_label
_atom_site_fract_x
_atom_site_fract_y
_atom_site_fract_z
Si Si1 0.795714 0.079664 0.963468
Si Si2 0.665650 0.437388 0.021212
Si Si3 0.992616 0.913663 0.171845
Si Si4 0.556586 0.755727 0.414236
Si Si5 0.950322 0.415804 0.464214
Si Si6 0.092820 0.426165 0.704627
Si Si7 0.261668 0.229116 0.648199
Si Si8 0.709699 0.197040 0.450629
O O1 0.944637 0.077751 0.799798
O O2 0.745559 0.196957 0.929205
O O3 0.618118 0.219079 0.306371
O O4 0.874665 0.827655 0.832388
O O5 0.656946 0.580451 0.152177
O O6 0.471294 0.568790 0.275610
O O7 0.793561 0.416909 0.738998
O O8 0.960561 0.733343 0.210512
O O9 0.816875 0.131260 0.401596
O O10 0.149187 0.848742 0.852818
O O11 0.656671 0.701073 0.377975
O O12 0.500000 0.000000 0.500000
O O13 0.893196 0.545636 0.443531
O O14 0.000000 0.500000 0.500000
O O15 0.248678 0.325738 0.553194
O O16 0.932190 0.658229 0.009574
O O17 0.337032 0.975285 0.509682
#
# Coordination Sequence:
#
# PCOD9102721 Si02
#       8
#     2   2   2   2   2   2   2   2
#     4  12  25  42  66  96 129 178 227 272 330 393
#     4  12  25  42  65 103 137 171 225 271 336 396
#     4  10  20  40  65  96 133 167 221 270 335 383
#     4  12  21  38  70 101 132 165 225 282 320 378
#     4  12  26  46  67  94 136 181 219 270 343 408
#     4  10  22  39  66  96 131 178 218 272 332 395
#     4  10  20  38  64 100 130 167 226 277 324 378
#     4  10  21  38  65  98 132 172 211 279 328 390
#
# _framework density 22.474610999999999
#
# number of rings (size 3 to 8) (size 9 to 14) (size 15 to 20)
#    0.000    1.000    2.500    5.250    1.750    1.000 
#    0.000    3.125    2.750    0.000    0.000    0.000 
#    0.000    0.000    0.000    0.000    0.000    0.000 
#
# Total GULP energy -89434.882324 kJ/mol
# GULP energy per Si atom -5589.680145 kJ/mol
# Density = 2.242346 g / cm^3
# Si number density = 22.474611 Si / 1000 Ang^3
#
#
#
# Elastic Constant Matrix: (Units=GPa)
#
#
# Indices 1 2 3 4 5 6 
#
# 1 103.4921 35.3864 34.1476 -0.9192 -20.7480 -36.9436
# 2 35.3864 78.6547 18.2972 -1.9579 -6.3945 -38.5234
# 3 34.1476 18.2972 66.6157 -5.2800 -12.1433 -22.3076
# 4 -0.9192 -1.9579 -5.2800 30.2232 -8.0916 1.4145
# 5 -20.7480 -6.3945 -12.1433 -8.0916 36.3329 4.3178
# 6 -36.9436 -38.5234 -22.3076 1.4145 4.3178 44.7804
#
#
#
# Elastic Compliance Matrix: (Units=1/GPa)
#
#
# Indices 1 2 3 4 5 6 
#
# 1 0.016082 -0.000902 -0.003206 0.001276 0.007028 0.010176
# 2 -0.000902 0.022188 0.001033 0.001196 0.001785 0.018648
# 3 -0.003206 0.001033 0.020258 0.004546 0.005221 0.007688
# 4 0.001276 0.001196 0.004546 0.036670 0.010365 0.002188
# 5 0.007028 0.001785 0.005221 0.010365 0.035165 0.006216
# 6 0.010176 0.018648 0.007688 0.002188 0.006216 0.049930
#
#
# Mechanical properties :
#
#
# Convention : Reuss Voigt Hill
#
# Bulk Modulus (GPa) = 19.09221 47.15832 33.12527
# Shear Modulus (GPa) = 24.52159 32.99605 28.75882
#
# Velocity S-wave (km/s) = 3.30673 3.83580 3.58105
# Velocity P-wave (km/s) = 4.80549 6.37544 5.64531
#
# Compressibility (1/GPa) = 0.05237738
#
# Stress axis : x y z
#
# Youngs Moduli (GPa) = 62.18228 45.07022 49.36406
#
# Poissons Ratio (x) = 0.04066 0.15825
# Poissons Ratio (y) = 0.05609 -0.05099
# Poissons Ratio (z) = 0.19934 -0.04656
#
# Static dielectric constant tensor:
#      x y z
#    x 1.949930 0.009660 -0.001970 
#    y 0.009660 1.897340 0.030210 
#    z -0.001970 0.030210 1.801370 
# 
# From -- ./inp_files/469396.got.cif
#   From: 2010.05.17/outbox.cif.g08.bks.cpg/sg2_235_cif.got.tgz:469396.got - 2010.06.03 11:33:40.
