data_PCOD9102074
_publ_section_title
;
Structure prediction by ZEFSAII (Michael W. Deem and Ramdas Pophale) SiO2 
 PCOD9102074
Probable space group: P -1
;
_chemical_formula_sum "Si O2"
_cell_formula_units_Z 16
_cell_length_a 5.174533
_cell_length_b 12.067814
_cell_length_c 20.213983
_cell_angle_alpha 32.115725
_cell_angle_beta 106.330569
_cell_angle_gamma 104.517407
_cell_volume 643.793313
_symmetry_space_group_name_H-M "P -1"
_symmetry_group_IT_number 2
_symmetry_cell_setting 'triclinic'
loop_
_space_group_symop_operation_xyz
x,y,z
-x,-y,-z
loop_
_atom_site_type_symbol
_atom_site_label
_atom_site_fract_x
_atom_site_fract_y
_atom_site_fract_z
Si Si1 0.295447 0.358347 0.994292
Si Si2 0.969281 0.017922 0.894949
Si Si3 0.542003 0.248563 0.820913
Si Si4 0.372683 0.509985 0.558149
Si Si5 0.238451 0.799230 0.810925
Si Si6 0.925184 0.148123 0.687059
Si Si7 0.049660 0.820005 0.646679
Si Si8 0.534601 0.543676 0.792823
O O1 0.460886 0.227345 0.125931
O O2 0.091297 0.223946 0.002157
O O3 0.156635 0.555822 0.917285
O O4 0.520149 0.453551 0.911710
O O5 0.804082 0.114770 0.893964
O O6 0.816532 0.111503 0.771590
O O7 0.275684 0.099639 0.871207
O O8 0.532796 0.434910 0.671620
O O9 0.541138 0.355846 0.837085
O O10 0.500000 0.500000 0.500000
O O11 0.268735 0.746606 0.433510
O O12 0.139719 0.334108 0.623165
O O13 0.205718 0.893904 0.687456
O O14 0.071500 0.943819 0.774510
O O15 0.248427 0.656927 0.709645
O O16 0.774558 0.706149 0.709631
O O17 0.000000 0.000000 0.500000
#
# Coordination Sequence:
#
# PCOD9102074 Si02
#       8
#     2   2   2   2   2   2   2   2
#     4  10  24  46  71 103 142 184 245 300 342 429
#     4  11  23  42  67 102 143 178 240 293 349 424
#     4  11  24  42  69 102 139 190 229 290 369 412
#     4  10  20  38  61  95 138 174 225 287 344 420
#     4  10  24  44  73 101 137 191 231 292 365 408
#     4  10  22  37  63  99 132 176 228 285 347 419
#     4  11  26  48  70 106 143 183 240 294 349 433
#     4  11  26  47  72 101 143 188 240 293 352 425
#
# _framework density 24.852696000000002
#
# number of rings (size 3 to 8) (size 9 to 14) (size 15 to 20)
#    0.000    1.500    1.250    2.625    1.750   10.000 
#    0.000    0.000    0.000    0.000    0.000    0.000 
#    0.000    0.000    0.000    0.000    0.000    0.000 
#
# Total GULP energy -89510.828631 kJ/mol
# GULP energy per Si atom -5594.426789 kJ/mol
# Density = 2.479613 g / cm^3
# Si number density = 24.852696 Si / 1000 Ang^3
#
#
#
# Elastic Constant Matrix: (Units=GPa)
#
#
# Indices 1 2 3 4 5 6 
#
# 1 93.0494 19.0643 40.8858 -4.4963 3.0683 -2.6108
# 2 19.0643 103.9856 33.7220 -3.6268 10.7998 -20.0129
# 3 40.8858 33.7220 109.5879 24.5418 14.7592 1.7280
# 4 -4.4963 -3.6268 24.5418 46.7681 -1.7335 6.9093
# 5 3.0683 10.7998 14.7592 -1.7335 54.3189 -11.0409
# 6 -2.6108 -20.0129 1.7280 6.9093 -11.0409 41.7130
#
#
#
# Elastic Compliance Matrix: (Units=1/GPa)
#
#
# Indices 1 2 3 4 5 6 
#
# 1 0.013738 -0.000383 -0.006191 0.004510 0.001230 0.000511
# 2 -0.000383 0.012220 -0.004212 0.002289 -0.000048 0.005621
# 3 -0.006191 -0.004212 0.015217 -0.008663 -0.003752 -0.002597
# 4 0.004510 0.002289 -0.008663 0.026937 0.002061 -0.002177
# 5 0.001230 -0.000048 -0.003752 0.002061 0.020512 0.005297
# 6 0.000511 0.005621 -0.002597 -0.002177 0.005297 0.028573
#
#
# Mechanical properties :
#
#
# Convention : Reuss Voigt Hill
#
# Bulk Modulus (GPa) = 51.01523 54.88524 52.95024
# Shear Modulus (GPa) = 34.41107 42.75672 38.58390
#
# Velocity S-wave (km/s) = 3.72506 4.15228 3.94446
# Velocity P-wave (km/s) = 6.25084 6.71719 6.48821
#
# Compressibility (1/GPa) = 0.01960199
#
# Stress axis : x y z
#
# Youngs Moduli (GPa) = 72.79327 81.83607 65.71479
#
# Poissons Ratio (x) = 0.03133 0.40685
# Poissons Ratio (y) = 0.02787 0.27680
# Poissons Ratio (z) = 0.45068 0.34470
#
# Static dielectric constant tensor:
#      x y z
#    x 1.990920 0.040370 0.002380 
#    y 0.040370 1.978850 -0.010910 
#    z 0.002380 -0.010910 2.098560 
# 
# From -- ./inp_files/583217.got.cif
#   From: 2010.05.17/outbox.cif.g08.bks.cpg/sg2_292_cif.got.tgz:583217.got - 2010.06.03 11:33:40.
