data_PCOD9102307
_publ_section_title
;
Structure prediction by ZEFSAII (Michael W. Deem and Ramdas Pophale) SiO2 
 PCOD9102307
Probable space group: P -1
;
_chemical_formula_sum "Si O2"
_cell_formula_units_Z 16
_cell_length_a 7.830885
_cell_length_b 13.203101
_cell_length_c 16.311978
_cell_angle_alpha 34.306749
_cell_angle_beta 97.385812
_cell_angle_gamma 120.319093
_cell_volume 660.801915
_symmetry_space_group_name_H-M "P -1"
_symmetry_group_IT_number 2
_symmetry_cell_setting 'triclinic'
loop_
_space_group_symop_operation_xyz
x,y,z
-x,-y,-z
loop_
_atom_site_type_symbol
_atom_site_label
_atom_site_fract_x
_atom_site_fract_y
_atom_site_fract_z
Si Si1 0.694150 0.541118 0.165165
Si Si2 0.097345 0.700668 0.680679
Si Si3 0.875840 0.055614 0.850330
Si Si4 0.165713 0.108134 0.353556
Si Si5 0.648620 0.193762 0.056012
Si Si6 0.583415 0.491528 0.383041
Si Si7 0.203603 0.908236 0.724490
Si Si8 0.631886 0.922068 0.097070
O O1 0.815115 0.435681 0.238050
O O2 0.448222 0.361067 0.216566
O O3 0.614585 0.505971 0.277543
O O4 0.855701 0.838281 0.960624
O O5 0.240291 0.876288 0.653360
O O6 0.141638 0.875529 0.493935
O O7 0.806767 0.469744 0.838539
O O8 0.152323 0.332185 0.674508
O O9 0.641231 0.982377 0.845585
O O10 0.821440 0.020997 0.968869
O O11 0.043350 0.156000 0.251612
O O12 0.000000 0.000000 0.500000
O O13 0.769902 0.248286 0.114416
O O14 0.704895 0.059316 0.096005
O O15 0.497266 0.632757 0.298832
O O16 0.401733 0.192629 0.584508
O O17 0.500000 0.000000 0.000000
#
# Coordination Sequence:
#
# PCOD9102307 Si02
#       8
#     2   2   2   2   2   2   2   2
#     4  11  20  39  66  94 119 151 211 261 293 353
#     4  11  22  39  66  90 120 162 210 246 300 366
#     4  10  21  38  64  91 116 162 204 258 297 357
#     4  10  20  38  62  91 119 157 199 249 304 357
#     4  11  23  42  62  87 125 164 206 250 304 361
#     4  11  21  38  60  91 126 154 204 253 308 353
#     4  11  25  40  59  91 130 162 195 255 310 363
#     4   9  20  37  62  88 112 157 208 247 295 358
#
# _framework density 24.213004999999999
#
# number of rings (size 3 to 8) (size 9 to 14) (size 15 to 20)
#    0.000    1.500    2.500    5.250    3.500    1.000 
#    0.000    3.750    0.000    0.000    0.000    0.000 
#    0.000    0.000    0.000    0.000    0.000    0.000 
#
# Total GULP energy -89331.774567 kJ/mol
# GULP energy per Si atom -5583.235910 kJ/mol
# Density = 2.415790 g / cm^3
# Si number density = 24.213005 Si / 1000 Ang^3
#
#
#
# Elastic Constant Matrix: (Units=GPa)
#
#
# Indices 1 2 3 4 5 6 
#
# 1 141.8050 27.5523 25.9818 -20.4006 25.0661 21.1848
# 2 27.5523 67.1317 27.8260 -11.0699 7.6163 21.4105
# 3 25.9818 27.8260 65.2896 -38.9321 9.1112 3.3516
# 4 -20.4006 -11.0699 -38.9321 40.2519 1.3568 3.4225
# 5 25.0661 7.6163 9.1112 1.3568 33.1839 -16.6069
# 6 21.1848 21.4105 3.3516 3.4225 -16.6069 43.1561
#
#
#
# Elastic Compliance Matrix: (Units=1/GPa)
#
#
# Indices 1 2 3 4 5 6 
#
# 1 0.016042 0.003143 0.010482 0.022014 -0.028014 -0.022774
# 2 0.003143 0.025330 -0.004629 0.006472 -0.017735 -0.021088
# 3 0.010482 -0.004629 0.058095 0.063889 -0.039183 -0.027505
# 4 0.022014 0.006472 0.063889 0.106325 -0.066534 -0.053014
# 5 -0.028014 -0.017735 -0.039183 -0.066534 0.104400 0.071044
# 6 -0.022774 -0.021088 -0.027505 -0.053014 0.071044 0.078492
#
#
# Mechanical properties :
#
#
# Convention : Reuss Voigt Hill
#
# Bulk Modulus (GPa) = 8.51367 48.54960 28.53163
# Shear Modulus (GPa) = 12.19972 36.17613 24.18793
#
# Velocity S-wave (km/s) = 2.24710 3.86952 3.16407
# Velocity P-wave (km/s) = 3.20256 6.32921 5.01574
#
# Compressibility (1/GPa) = 0.11745822
#
# Stress axis : x y z
#
# Youngs Moduli (GPa) = 62.33630 39.47890 17.21322
#
# Poissons Ratio (x) = -0.12409 -0.18043
# Poissons Ratio (y) = -0.19593 0.07968
# Poissons Ratio (z) = -0.65340 0.18276
#
# Static dielectric constant tensor:
#      x y z
#    x 1.996540 0.009820 0.001650 
#    y 0.009820 1.960500 -0.004240 
#    z 0.001650 -0.004240 2.019670 
# 
# From -- ./inp_files/590237.got.cif
#   From: 2010.05.17/outbox.cif.g08.bks.cpg/sg2_296_cif.got.tgz:590237.got - 2010.06.03 11:33:40.
