data_PCOD9102676
_publ_section_title
;
Structure prediction by ZEFSAII (Michael W. Deem and Ramdas Pophale) SiO2 
 PCOD9102676
Probable space group: P -1
;
_chemical_formula_sum "Si O2"
_cell_formula_units_Z 12
_cell_length_a 13.517778
_cell_length_b 8.362377
_cell_length_c 21.996401
_cell_angle_alpha 145.403524
_cell_angle_beta 20.601015
_cell_angle_gamma 145.106582
_cell_volume 481.150114
_symmetry_space_group_name_H-M "P -1"
_symmetry_group_IT_number 2
_symmetry_cell_setting 'triclinic'
loop_
_space_group_symop_operation_xyz
x,y,z
-x,-y,-z
loop_
_atom_site_type_symbol
_atom_site_label
_atom_site_fract_x
_atom_site_fract_y
_atom_site_fract_z
Si Si1 0.057759 0.809088 0.714533
Si Si2 0.739144 0.966952 0.053635
Si Si3 0.260638 0.234922 0.580694
Si Si4 0.397118 0.224273 0.794835
Si Si5 0.596630 0.556981 0.310564
Si Si6 0.271810 0.151902 0.207598
O O1 0.278094 0.600387 0.524045
O O2 0.926168 0.787965 0.715994
O O3 0.245548 0.145938 0.722228
O O4 0.812302 0.768366 0.894872
O O5 0.606535 0.229196 0.186712
O O6 0.571664 0.802019 0.157448
O O7 0.057758 0.123686 0.945430
O O8 0.500000 0.500000 0.500000
O O9 0.213083 0.373782 0.715659
O O10 0.433526 0.988742 0.399838
O O11 0.938420 0.064580 0.692615
O O12 0.546735 0.536183 0.778140
O O13 0.500000 0.000000 0.000000
#
# Coordination Sequence:
#
# PCOD9102676 Si02
#       6
#     2   2   2   2   2   2
#     4  10  22  40  63  92 132 173 219 269 324 386
#     4  11  22  39  69  96 129 177 225 257 325 399
#     4  11  21  42  70  95 131 176 218 269 325 394
#     4  11  23  40  66 101 132 171 220 270 327 386
#     4  10  20  38  63  95 125 172 223 265 314 391
#     4  11  26  44  64  99 134 169 219 278 333 381
#
# _framework density 24.940241
#
# number of rings (size 3 to 8) (size 9 to 14) (size 15 to 20)
#    0.000    1.333    3.333    3.000    2.333    0.667 
#    3.000    0.833    0.000    0.000    0.000    0.000 
#    0.000    0.000    0.000    0.000    0.000    0.000 
#
# Total GULP energy -66975.354548 kJ/mol
# GULP energy per Si atom -5581.279546 kJ/mol
# Density = 2.488348 g / cm^3
# Si number density = 24.940241 Si / 1000 Ang^3
#
#
#
# Elastic Constant Matrix: (Units=GPa)
#
#
# Indices 1 2 3 4 5 6 
#
# 1 29.1245 -24.6115 -7.9154 -15.6386 11.3578 -2.5087
# 2 -24.6115 129.6095 35.5252 -27.3344 -4.1951 -3.7160
# 3 -7.9154 35.5252 140.7901 8.8346 -7.2973 -11.2806
# 4 -15.6386 -27.3344 8.8346 40.7475 -5.8735 6.2642
# 5 11.3578 -4.1951 -7.2973 -5.8735 29.8075 -8.2542
# 6 -2.5087 -3.7160 -11.2806 6.2642 -8.2542 29.0493
#
#
#
# Elastic Compliance Matrix: (Units=1/GPa)
#
#
# Indices 1 2 3 4 5 6 
#
# 1 0.104806 0.034468 -0.009158 0.063073 -0.028135 -0.011691
# 2 0.034468 0.021619 -0.006090 0.028755 -0.007270 -0.004889
# 3 -0.009158 -0.006090 0.009416 -0.009834 0.004520 0.005492
# 4 0.063073 0.028755 -0.009834 0.070464 -0.012208 -0.013357
# 5 -0.028135 -0.007270 0.004520 -0.012208 0.045839 0.014053
# 6 -0.011691 -0.004889 0.005492 -0.013357 0.014053 0.041795
#
#
# Mechanical properties :
#
#
# Convention : Reuss Voigt Hill
#
# Bulk Modulus (GPa) = 5.73788 33.94674 19.84231
# Shear Modulus (GPa) = 15.94428 39.68922 27.81675
#
# Velocity S-wave (km/s) = 2.53118 3.99353 3.34329
# Velocity P-wave (km/s) = 3.29365 5.90806 4.78295
#
# Compressibility (1/GPa) = 0.17428034
#
# Stress axis : x y z
#
# Youngs Moduli (GPa) = 9.54146 46.25615 106.20184
#
# Poissons Ratio (x) = -1.59435 0.97257
# Poissons Ratio (y) = -0.32887 0.64678
# Poissons Ratio (z) = 0.08738 0.28170
#
# Static dielectric constant tensor:
#      x y z
#    x 2.116950 -0.068850 0.036460 
#    y -0.068850 2.113530 -0.080750 
#    z 0.036460 -0.080750 1.922710 
# 
# From -- ./inp_files/147474.got.cif
#   From: 2010.05.17/outbox.cif.g08.bks.cpg/sg2_74_cif.got.tgz:147474.got - 2010.06.03 11:33:40.
