data_PCOD9102835
_publ_section_title
;
Structure prediction by ZEFSAII (Michael W. Deem and Ramdas Pophale) SiO2 
 PCOD9102835
Probable space group: P -1
;
_chemical_formula_sum "Si O2"
_cell_formula_units_Z 13
_cell_length_a 10.665619
_cell_length_b 9.066918
_cell_length_c 13.661646
_cell_angle_alpha 109.481936
_cell_angle_beta 58.380517
_cell_angle_gamma 59.332157
_cell_volume 553.265894
_symmetry_space_group_name_H-M "P -1"
_symmetry_group_IT_number 2
_symmetry_cell_setting 'triclinic'
loop_
_space_group_symop_operation_xyz
x,y,z
-x,-y,-z
loop_
_atom_site_type_symbol
_atom_site_label
_atom_site_fract_x
_atom_site_fract_y
_atom_site_fract_z
Si Si1 0.274480 0.661751 0.344209
Si Si2 0.037033 0.632765 0.905291
Si Si3 0.468318 0.648517 0.458054
Si Si4 0.948953 0.346450 0.871470
Si Si5 0.500000 0.500000 0.000000
Si Si6 0.378242 0.903206 0.117001
Si Si7 0.453948 0.175957 0.187337
O O1 0.411378 0.612629 0.372119
O O2 0.473328 0.498175 0.131476
O O3 0.230286 0.516883 0.351861
O O4 0.000000 0.000000 0.500000
O O5 0.237293 0.529268 0.721310
O O6 0.026411 0.457472 0.847260
O O7 0.137881 0.575037 0.961693
O O8 0.709786 0.980502 0.112357
O O9 0.500000 0.500000 0.500000
O O10 0.214591 0.999049 0.661919
O O11 0.681499 0.546470 0.954102
O O12 0.218023 0.889440 0.198533
O O13 0.349424 0.093194 0.227362
O O14 0.399734 0.941744 0.005879
#
# Coordination Sequence:
#
# PCOD9102835 Si02
#       7
#     2   2   2   2   1   2   2
#     4  11  24  41  62  88 122 164 207 255 307 367
#     4  10  22  40  63  87 121 167 206 255 311 368
#     4  12  25  38  60  95 129 162 204 258 314 372
#     4  10  21  41  63  86 121 164 211 253 305 372
#     4  10  20  38  64  90 116 152 204 254 306 360
#     4   9  18  35  62  86 113 154 197 251 302 356
#     4   9  19  37  58  85 118 154 199 246 304 363
#
# _framework density 23.496839999999999
#
# number of rings (size 3 to 8) (size 9 to 14) (size 15 to 20)
#    0.000    1.846    0.000    4.154    0.000    7.385 
#    0.000    2.308    0.000    0.000    0.000    0.000 
#    0.000    0.000    0.000    0.000    0.000    0.000 
#
# Total GULP energy -72436.471945 kJ/mol
# GULP energy per Si atom -5572.036303 kJ/mol
# Density = 2.344336 g / cm^3
# Si number density = 23.496840 Si / 1000 Ang^3
#
#
#
# Elastic Constant Matrix: (Units=GPa)
#
#
# Indices 1 2 3 4 5 6 
#
# 1 98.8346 55.7363 36.6135 -8.0593 12.0497 3.8566
# 2 55.7363 152.9255 45.9485 -0.9264 9.0301 21.0306
# 3 36.6135 45.9485 86.9386 -3.9648 7.1624 13.0038
# 4 -8.0593 -0.9264 -3.9648 55.1572 8.6583 11.6375
# 5 12.0497 9.0301 7.1624 8.6583 28.9284 -3.7695
# 6 3.8566 21.0306 13.0038 11.6375 -3.7695 58.6891
#
#
#
# Elastic Compliance Matrix: (Units=1/GPa)
#
#
# Indices 1 2 3 4 5 6 
#
# 1 0.014401 -0.003965 -0.003562 0.002387 -0.004528 0.000500
# 2 -0.003965 0.009205 -0.002748 0.000042 -0.000879 -0.002494
# 3 -0.003562 -0.002748 0.015073 0.001387 -0.002136 -0.002533
# 4 0.002387 0.000042 0.001387 0.020973 -0.008302 -0.005171
# 5 -0.004528 -0.000879 -0.002136 -0.008302 0.040436 0.005329
# 6 0.000500 -0.002494 -0.002533 -0.005171 0.005329 0.019829
#
#
# Mechanical properties :
#
#
# Convention : Reuss Voigt Hill
#
# Bulk Modulus (GPa) = 55.16111 68.36614 61.76363
# Shear Modulus (GPa) = 34.12745 41.91497 38.02121
#
# Velocity S-wave (km/s) = 3.81521 4.22815 4.02698
# Velocity P-wave (km/s) = 6.55246 7.27980 6.92568
#
# Compressibility (1/GPa) = 0.01812871
#
# Stress axis : x y z
#
# Youngs Moduli (GPa) = 69.44072 108.63603 66.34508
#
# Poissons Ratio (x) = 0.43077 0.23631
# Poissons Ratio (y) = 0.27535 0.18230
# Poissons Ratio (z) = 0.24734 0.29850
#
# Static dielectric constant tensor:
#      x y z
#    x -0.906190 -0.205800 1.714070 
#    y -0.205800 1.949640 0.290280 
#    z 1.714070 0.290280 1.026760 
# 
# From -- ./inp_files/236975.got.cif
#   From: 2010.05.17/outbox.cif.g08.bks.cpg/sg2_119_cif.got.tgz:236975.got - 2010.06.03 11:33:40.
