data_PCOD9102082
_publ_section_title
;
Structure prediction by ZEFSAII (Michael W. Deem and Ramdas Pophale) SiO2 
 PCOD9102082
Probable space group: P -1
;
_chemical_formula_sum "Si O2"
_cell_formula_units_Z 14
_cell_length_a 7.475728
_cell_length_b 10.179524
_cell_length_c 9.175183
_cell_angle_alpha 90.218353
_cell_angle_beta 78.471492
_cell_angle_gamma 65.778945
_cell_volume 621.030864
_symmetry_space_group_name_H-M "P -1"
_symmetry_group_IT_number 2
_symmetry_cell_setting 'triclinic'
loop_
_space_group_symop_operation_xyz
x,y,z
-x,-y,-z
loop_
_atom_site_type_symbol
_atom_site_label
_atom_site_fract_x
_atom_site_fract_y
_atom_site_fract_z
Si Si1 0.969648 0.835793 0.095170
Si Si2 0.644977 0.328015 0.473965
Si Si3 0.285560 0.164362 0.132955
Si Si4 0.061293 0.349917 0.412943
Si Si5 0.300819 0.831111 0.845855
Si Si6 0.349733 0.924933 0.350780
Si Si7 0.225173 0.135490 0.606663
O O1 0.953906 0.774817 0.255147
O O2 0.874508 0.007377 0.151917
O O3 0.807838 0.825104 0.009940
O O4 0.183833 0.775251 0.981779
O O5 0.500000 0.500000 0.500000
O O6 0.872073 0.311150 0.450387
O O7 0.637667 0.258748 0.315108
O O8 0.613782 0.238645 0.617194
O O9 0.509230 0.154535 0.110497
O O10 0.145274 0.313011 0.237874
O O11 0.273530 0.025929 0.220000
O O12 0.000000 0.500000 0.500000
O O13 0.241493 0.241254 0.482373
O O14 0.566513 0.927702 0.341859
O O15 0.208784 0.012264 0.509221
#
# Coordination Sequence:
#
# PCOD9102082 Si02
#       7
#     2   2   2   2   2   2   2
#     4  11  22  39  64  99 136 166 208 263 323 382
#     4  12  23  41  67  93 128 169 221 269 315 382
#     4  11  22  41  68  95 134 168 210 266 321 377
#     4  11  24  42  66  92 126 172 219 265 323 375
#     4  11  22  38  63  98 130 167 211 262 318 379
#     4  10  20  38  61  97 124 162 219 263 314 365
#     4  10  20  39  63  94 131 162 210 272 310 378
#
# _framework density 22.543164000000001
#
# number of rings (size 3 to 8) (size 9 to 14) (size 15 to 20)
#    0.000    1.143    4.286    3.857    0.000    4.571 
#    0.000    0.714    0.000    2.571    0.000    0.000 
#    0.000    0.000    0.000    0.000    0.000    0.000 
#
# Total GULP energy -78091.610026 kJ/mol
# GULP energy per Si atom -5577.972145 kJ/mol
# Density = 2.249185 g / cm^3
# Si number density = 22.543164 Si / 1000 Ang^3
#
#
#
# Elastic Constant Matrix: (Units=GPa)
#
#
# Indices 1 2 3 4 5 6 
#
# 1 129.0773 5.1746 36.9606 -5.3739 -7.1179 0.3408
# 2 5.1746 74.6520 21.7425 27.6270 7.0043 2.3215
# 3 36.9606 21.7425 140.6932 13.5759 -1.7167 6.0976
# 4 -5.3739 27.6270 13.5759 27.0572 -2.8945 -2.2007
# 5 -7.1179 7.0043 -1.7167 -2.8945 29.7812 0.5880
# 6 0.3408 2.3215 6.0976 -2.2007 0.5880 23.9273
#
#
#
# Elastic Compliance Matrix: (Units=1/GPa)
#
#
# Indices 1 2 3 4 5 6 
#
# 1 0.009003 -0.002422 -0.002585 0.005993 0.003130 0.001240
# 2 -0.002422 0.024512 -0.000504 -0.026565 -0.008867 -0.004441
# 3 -0.002585 -0.000504 0.008396 -0.004453 -0.000400 -0.002454
# 4 0.005993 -0.026565 -0.004453 0.069797 0.014016 0.009702
# 5 0.003130 -0.008867 -0.000400 0.014016 0.037726 0.001280
# 6 0.001240 -0.004441 -0.002454 0.009702 0.001280 0.043693
#
#
# Mechanical properties :
#
#
# Convention : Reuss Voigt Hill
#
# Bulk Modulus (GPa) = 32.37335 52.46422 42.41878
# Shear Modulus (GPa) = 23.31613 34.85613 29.08613
#
# Velocity S-wave (km/s) = 3.21952 3.93643 3.59589
# Velocity P-wave (km/s) = 5.31152 6.63204 6.00817
#
# Compressibility (1/GPa) = 0.03088961
#
# Stress axis : x y z
#
# Youngs Moduli (GPa) = 111.06910 40.79716 119.10687
#
# Poissons Ratio (x) = 0.09879 0.30787
# Poissons Ratio (y) = 0.26896 0.06005
# Poissons Ratio (z) = 0.28710 0.02057
#
# Static dielectric constant tensor:
#      x y z
#    x 1.900640 0.060250 -0.062770 
#    y 0.060250 1.958240 -0.032510 
#    z -0.062770 -0.032510 1.949000 
# 
# From -- ./inp_files/171316.got.cif
#   From: 2010.05.17/outbox.cif.g08.bks.cpg/sg2_86_cif.got.tgz:171316.got - 2010.06.03 11:33:40.
