data_PCOD9102321
_publ_section_title
;
Structure prediction by ZEFSAII (Michael W. Deem and Ramdas Pophale) SiO2 
 PCOD9102321
Probable space group: P -1
;
_chemical_formula_sum "Si O2"
_cell_formula_units_Z 16
_cell_length_a 10.853789
_cell_length_b 21.928466
_cell_length_c 8.487457
_cell_angle_alpha 62.924276
_cell_angle_beta 98.044100
_cell_angle_gamma 149.698084
_cell_volume 749.885136
_symmetry_space_group_name_H-M "P -1"
_symmetry_group_IT_number 2
_symmetry_cell_setting 'triclinic'
loop_
_space_group_symop_operation_xyz
x,y,z
-x,-y,-z
loop_
_atom_site_type_symbol
_atom_site_label
_atom_site_fract_x
_atom_site_fract_y
_atom_site_fract_z
Si Si1 0.396694 0.559682 0.434439
Si Si2 0.515465 0.916432 0.063230
Si Si3 0.954407 0.637120 0.094818
Si Si4 0.912713 0.723088 0.392502
Si Si5 0.980379 0.230079 0.310083
Si Si6 0.658509 0.836298 0.065261
Si Si7 0.494829 0.904904 0.448173
Si Si8 0.276551 0.683796 0.887169
O O1 0.675896 0.650483 0.341925
O O2 0.143972 0.386695 0.509248
O O3 0.480021 0.678110 0.263675
O O4 0.291384 0.509587 0.655359
O O5 0.222621 0.797910 0.063213
O O6 0.549751 0.852898 0.104711
O O7 0.509944 0.918037 0.248366
O O8 0.779840 0.090600 0.825116
O O9 0.111511 0.656244 0.001670
O O10 0.860121 0.646648 0.940350
O O11 0.844484 0.706143 0.582074
O O12 0.737315 0.158240 0.437627
O O13 0.806953 0.082672 0.368845
O O14 0.552173 0.792608 0.913523
O O15 0.000000 0.000000 0.000000
O O16 0.403811 0.785636 0.637263
O O17 0.000000 0.500000 0.000000
#
# Coordination Sequence:
#
# PCOD9102321 Si02
#       8
#     2   2   2   2   2   2   2   2
#     4  11  25  40  64  93 126 170 215 264 316 383
#     4  11  22  41  68  94 125 167 220 258 318 396
#     4  10  23  39  63  95 125 163 212 267 319 377
#     4  11  23  41  64  92 127 167 215 262 317 386
#     4  10  20  38  62  91 128 163 201 265 325 371
#     4  11  24  45  67  90 133 176 211 262 329 387
#     4  10  21  36  63  95 124 162 208 265 316 375
#     4  10  24  40  64  96 128 163 215 269 317 377
#
# _framework density 21.336601000000002
#
# number of rings (size 3 to 8) (size 9 to 14) (size 15 to 20)
#    0.000    1.500    1.250    4.500    7.000    3.000 
#    0.000    1.875    0.000    0.000    0.000    0.000 
#    0.000    0.000    0.000    0.000    0.000    0.000 
#
# Total GULP energy -89183.519072 kJ/mol
# GULP energy per Si atom -5573.969942 kJ/mol
# Density = 2.128804 g / cm^3
# Si number density = 21.336601 Si / 1000 Ang^3
#
#
#
# Elastic Constant Matrix: (Units=GPa)
#
#
# Indices 1 2 3 4 5 6 
#
# 1 46.6003 21.9932 31.0420 -7.5359 21.7518 -6.7855
# 2 21.9932 120.5023 57.6781 9.6499 15.0731 -13.5813
# 3 31.0420 57.6781 168.0785 6.1190 27.3170 -12.8201
# 4 -7.5359 9.6499 6.1190 34.6874 -9.7450 -1.9971
# 5 21.7518 15.0731 27.3170 -9.7450 31.5495 -7.1226
# 6 -6.7855 -13.5813 -12.8201 -1.9971 -7.1226 37.1483
#
#
#
# Elastic Compliance Matrix: (Units=1/GPa)
#
#
# Indices 1 2 3 4 5 6 
#
# 1 0.033717 -0.002906 -0.002246 0.003336 -0.018675 0.000920
# 2 -0.002906 0.010785 -0.002644 -0.003461 -0.001470 0.002032
# 3 -0.002246 -0.002644 0.008208 -0.002589 -0.005015 0.000355
# 4 0.003336 -0.003461 -0.002589 0.034779 0.012971 0.002807
# 5 -0.018675 -0.001470 -0.005015 0.012971 0.054873 0.005539
# 6 0.000920 0.002032 0.000355 0.002807 0.005539 0.029165
#
#
# Mechanical properties :
#
#
# Convention : Reuss Voigt Hill
#
# Bulk Modulus (GPa) = 26.94190 61.84528 44.39359
# Shear Modulus (GPa) = 25.06358 35.64157 30.35258
#
# Velocity S-wave (km/s) = 3.43107 4.09154 3.77577
# Velocity P-wave (km/s) = 5.32455 7.16724 6.31349
#
# Compressibility (1/GPa) = 0.03711691
#
# Stress axis : x y z
#
# Youngs Moduli (GPa) = 29.65830 92.72392 121.83015
#
# Poissons Ratio (x) = 0.26949 0.27363
# Poissons Ratio (y) = 0.08620 0.32216
# Poissons Ratio (z) = 0.06661 0.24519
#
# Static dielectric constant tensor:
#      x y z
#    x 1.804710 0.026620 0.009740 
#    y 0.026620 1.858880 0.008600 
#    z 0.009740 0.008600 1.751630 
# 
# From -- ./inp_files/284744.got.cif
#   From: 2010.05.17/outbox.cif.g08.bks.cpg/sg2_143_cif.got.tgz:284744.got - 2010.06.03 11:33:40.
