data_PCOD9102391
_publ_section_title
;
Structure prediction by ZEFSAII (Michael W. Deem and Ramdas Pophale) SiO2 
 PCOD9102391
Probable space group: P -1
;
_chemical_formula_sum "Si O2"
_cell_formula_units_Z 11
_cell_length_a 20.357406
_cell_length_b 20.642462
_cell_length_c 7.634972
_cell_angle_alpha 35.036995
_cell_angle_beta 34.455544
_cell_angle_gamma 13.550332
_cell_volume 421.722387
_symmetry_space_group_name_H-M "P -1"
_symmetry_group_IT_number 2
_symmetry_cell_setting 'triclinic'
loop_
_space_group_symop_operation_xyz
x,y,z
-x,-y,-z
loop_
_atom_site_type_symbol
_atom_site_label
_atom_site_fract_x
_atom_site_fract_y
_atom_site_fract_z
Si Si1 0.676471 0.469044 0.641364
Si Si2 0.521423 0.724549 0.941464
Si Si3 0.807446 0.589170 0.921055
Si Si4 0.917982 0.188698 0.353676
Si Si5 0.570956 0.887311 0.280345
Si Si6 0.000000 0.000000 0.000000
O O1 0.824773 0.264859 0.597034
O O2 0.341149 0.744448 0.788765
O O3 0.721606 0.559576 0.299480
O O4 0.889964 0.218269 0.861146
O O5 0.752751 0.583691 0.865246
O O6 0.509568 0.809623 0.606837
O O7 0.656693 0.480891 0.181362
O O8 0.216049 0.992738 0.116141
O O9 0.111943 0.358655 0.824761
O O10 0.625042 0.864509 0.712442
O O11 0.000000 0.000000 0.500000
O O12 0.500000 0.000000 0.000000
#
# Coordination Sequence:
#
# PCOD9102391 Si02
#       6
#     2   2   2   2   2   1
#     4  10  21  40  64  98 132 180 231 285 334 421
#     4  11  23  43  71 102 135 192 242 280 346 431
#     4  11  22  43  71  93 137 183 237 283 351 417
#     4  11  23  43  69 103 142 181 239 295 344 403
#     4  12  25  43  66 105 142 179 228 299 359 418
#     4  10  20  38  62  94 136 166 234 276 340 402
#
# _framework density 26.083508999999999
#
# number of rings (size 3 to 8) (size 9 to 14) (size 15 to 20)
#    0.000    1.091    0.000    8.727    0.000    0.000 
#   13.091    0.000    0.000    0.000    0.000    0.000 
#    0.000    0.000    0.000    0.000    0.000    0.000 
#
# Total GULP energy -61352.687881 kJ/mol
# GULP energy per Si atom -5577.517080 kJ/mol
# Density = 2.602414 g / cm^3
# Si number density = 26.083509 Si / 1000 Ang^3
#
#
#
# Elastic Constant Matrix: (Units=GPa)
#
#
# Indices 1 2 3 4 5 6 
#
# 1 57.5640 22.2950 20.0417 14.1811 8.0095 7.9292
# 2 22.2950 229.7381 52.4721 13.4423 -3.7490 -19.5108
# 3 20.0417 52.4721 135.7985 25.7057 -1.8310 -5.5836
# 4 14.1811 13.4423 25.7057 55.4103 4.0431 -14.5729
# 5 8.0095 -3.7490 -1.8310 4.0431 27.5817 4.0808
# 6 7.9292 -19.5108 -5.5836 -14.5729 4.0808 41.8427
#
#
#
# Elastic Compliance Matrix: (Units=1/GPa)
#
#
# Indices 1 2 3 4 5 6 
#
# 1 0.021785 -0.002054 -0.001682 -0.005740 -0.004864 -0.006835
# 2 -0.002054 0.005142 -0.001702 0.000744 0.000666 0.002754
# 3 -0.001682 -0.001702 0.008942 -0.003590 0.001477 -0.000676
# 4 -0.005740 0.000744 -0.003590 0.023761 -0.003368 0.009559
# 5 -0.004864 0.000666 0.001477 -0.003368 0.038874 -0.003535
# 6 -0.006835 0.002754 -0.000676 0.009559 -0.003535 0.030062
#
#
# Mechanical properties :
#
#
# Convention : Reuss Voigt Hill
#
# Bulk Modulus (GPa) = 40.01117 68.07982 54.04549
# Shear Modulus (GPa) = 33.83561 46.85307 40.34434
#
# Velocity S-wave (km/s) = 3.60558 4.24284 3.93712
# Velocity P-wave (km/s) = 5.71896 7.08235 6.43685
#
# Compressibility (1/GPa) = 0.02499302
#
# Stress axis : x y z
#
# Youngs Moduli (GPa) = 45.90232 194.47066 111.83750
#
# Poissons Ratio (x) = 0.39947 0.18807
# Poissons Ratio (y) = 0.09429 0.19038
# Poissons Ratio (z) = 0.07719 0.33105
#
# Static dielectric constant tensor:
#      x y z
#    x 2.073030 0.277500 -0.146440 
#    y 0.277500 1.914530 0.104990 
#    z -0.146440 0.104990 1.998760 
# 
# From -- ./inp_files/355403.got.cif
#   From: 2010.05.17/outbox.cif.g08.bks.cpg/sg2_178_cif.got.tgz:355403.got - 2010.06.03 11:33:40.
