data_PCOD9102897
_publ_section_title
;
Structure prediction by ZEFSAII (Michael W. Deem and Ramdas Pophale) SiO2 
 PCOD9102897
Probable space group: P -1
;
_chemical_formula_sum "Si O2"
_cell_formula_units_Z 15
_cell_length_a 12.729184
_cell_length_b 7.899383
_cell_length_c 15.001120
_cell_angle_alpha 105.806067
_cell_angle_beta 41.882673
_cell_angle_gamma 72.625631
_cell_volume 605.665253
_symmetry_space_group_name_H-M "P -1"
_symmetry_group_IT_number 2
_symmetry_cell_setting 'triclinic'
loop_
_space_group_symop_operation_xyz
x,y,z
-x,-y,-z
loop_
_atom_site_type_symbol
_atom_site_label
_atom_site_fract_x
_atom_site_fract_y
_atom_site_fract_z
Si Si1 0.671280 0.637946 0.808958
Si Si2 0.247997 0.393234 0.800975
Si Si3 0.260917 0.398499 0.045890
Si Si4 0.560228 0.817785 0.716636
Si Si5 0.151921 0.861356 0.978534
Si Si6 0.264498 0.275940 0.588871
Si Si7 0.832612 0.134417 0.831790
Si Si8 0.000000 0.000000 0.500000
O O1 0.719880 0.690871 0.878704
O O2 0.701427 0.701312 0.704157
O O3 0.382483 0.825284 0.025281
O O4 0.857308 0.309959 0.643399
O O5 0.264678 0.564270 0.864042
O O6 0.239259 0.437786 0.706579
O O7 0.481922 0.057407 0.612737
O O8 0.000000 0.500000 0.000000
O O9 0.334415 0.537375 0.018470
O O10 0.970096 0.647535 0.239748
O O11 0.417417 0.130197 0.848148
O O12 0.359977 0.834050 0.840725
O O13 0.738754 0.640713 0.494553
O O14 0.034934 0.982335 0.170375
O O15 0.000000 0.000000 0.000000
O O16 0.987788 0.990195 0.621279
#
# Coordination Sequence:
#
# PCOD9102897 Si02
#       8
#     2   2   2   2   2   2   2   1
#     4  10  24  42  65  95 131 173 217 274 331 383
#     4  11  24  46  68  94 129 168 217 269 325 391
#     4  11  22  41  66  93 131 172 218 271 323 387
#     4  11  25  42  62  95 133 172 214 266 331 392
#     4  11  23  41  67  94 131 172 210 267 328 386
#     4  11  24  40  67  97 125 170 219 265 326 392
#     4  10  23  42  67  96 128 174 222 272 328 385
#     4  10  20  38  64  92 124 162 220 268 314 384
#
# _framework density 24.766155999999999
#
# number of rings (size 3 to 8) (size 9 to 14) (size 15 to 20)
#    0.000    1.333    0.000    6.000    0.000   13.867 
#    0.000    2.667    0.000    0.000    0.000    0.000 
#    0.000    0.000    0.000    0.000    0.000    0.000 
#
# Total GULP energy -83599.314020 kJ/mol
# GULP energy per Si atom -5573.287601 kJ/mol
# Density = 2.470979 g / cm^3
# Si number density = 24.766156 Si / 1000 Ang^3
#
#
#
# Elastic Constant Matrix: (Units=GPa)
#
#
# Indices 1 2 3 4 5 6 
#
# 1 109.3779 16.8511 52.6638 -14.4949 39.9552 -18.9312
# 2 16.8511 72.5615 30.5172 -3.7681 17.1476 -3.1348
# 3 52.6638 30.5172 90.0425 -8.4458 47.4612 -12.2227
# 4 -14.4949 -3.7681 -8.4458 41.3027 -14.1647 22.4474
# 5 39.9552 17.1476 47.4612 -14.1647 60.5172 -9.6644
# 6 -18.9312 -3.1348 -12.2227 22.4474 -9.6644 55.4686
#
#
#
# Elastic Compliance Matrix: (Units=1/GPa)
#
#
# Indices 1 2 3 4 5 6 
#
# 1 0.013874 0.000272 -0.005531 0.000999 -0.004285 0.002381
# 2 0.000272 0.016101 -0.005385 0.000574 -0.000463 -0.000497
# 3 -0.005531 -0.005385 0.023246 -0.003373 -0.013533 0.001937
# 4 0.000999 0.000574 -0.003373 0.033356 0.007628 -0.012539
# 5 -0.004285 -0.000463 -0.013533 0.007628 0.031555 -0.002060
# 6 0.002381 -0.000497 0.001937 -0.012539 -0.002060 0.023955
#
#
# Mechanical properties :
#
#
# Convention : Reuss Voigt Hill
#
# Bulk Modulus (GPa) = 31.31733 52.44956 41.88345
# Shear Modulus (GPa) = 28.73246 42.92102 35.82674
#
# Velocity S-wave (km/s) = 3.40979 4.16751 3.80755
# Velocity P-wave (km/s) = 5.30800 6.66194 6.02314
#
# Compressibility (1/GPa) = 0.03193120
#
# Stress axis : x y z
#
# Youngs Moduli (GPa) = 72.07955 62.10780 43.01812
#
# Poissons Ratio (x) = -0.01687 0.23793
# Poissons Ratio (y) = -0.01958 0.23167
# Poissons Ratio (z) = 0.39867 0.33448
#
# Static dielectric constant tensor:
#      x y z
#    x 2.019760 -0.087280 0.003540 
#    y -0.087280 2.083770 -0.015390 
#    z 0.003540 -0.015390 1.933880 
# 
# From -- ./inp_files/514584.got.cif
#   From: 2010.05.17/outbox.cif.g08.bks.cpg/sg2_258_cif.got.tgz:514584.got - 2010.06.03 11:33:40.
