data_PCOD9102076
_publ_section_title
;
Structure prediction by ZEFSAII (Michael W. Deem and Ramdas Pophale) SiO2 
 PCOD9102076
Probable space group: P -1
;
_chemical_formula_sum "Si O2"
_cell_formula_units_Z 14
_cell_length_a 9.895592
_cell_length_b 8.155992
_cell_length_c 12.313872
_cell_angle_alpha 53.283050
_cell_angle_beta 52.949344
_cell_angle_gamma 69.503565
_cell_volume 635.733970
_symmetry_space_group_name_H-M "P -1"
_symmetry_group_IT_number 2
_symmetry_cell_setting 'triclinic'
loop_
_space_group_symop_operation_xyz
x,y,z
-x,-y,-z
loop_
_atom_site_type_symbol
_atom_site_label
_atom_site_fract_x
_atom_site_fract_y
_atom_site_fract_z
Si Si1 0.248207 0.211856 0.670715
Si Si2 0.204310 0.513315 0.389107
Si Si3 0.968294 0.553614 0.146248
Si Si4 0.304104 0.541786 0.092121
Si Si5 0.927210 0.166812 0.212569
Si Si6 0.266407 0.992677 0.178318
Si Si7 0.406350 0.996576 0.874928
O O1 0.292329 0.373725 0.491714
O O2 0.098427 0.324707 0.765449
O O3 0.190912 0.005470 0.716855
O O4 0.375451 0.147134 0.730315
O O5 0.252167 0.452974 0.268442
O O6 0.266183 0.746825 0.277801
O O7 0.000000 0.500000 0.500000
O O8 0.858208 0.352842 0.245682
O O9 0.159464 0.475049 0.104589
O O10 0.982954 0.712242 0.978188
O O11 0.500000 0.500000 0.000000
O O12 0.296789 0.789853 0.992814
O O13 0.072129 0.052277 0.254161
O O14 0.397721 0.059604 0.180845
O O15 0.343614 0.071801 0.994117
#
# Coordination Sequence:
#
# PCOD9102076 Si02
#       7
#     2   2   2   2   2   2   2
#     4  12  21  42  66  95 135 173 215 278 331 390
#     4  11  22  39  68  97 131 178 221 263 341 396
#     4  11  22  36  66 100 126 174 225 273 322 389
#     4  11  22  41  64  96 134 173 218 278 327 387
#     4  11  21  36  64  98 127 167 230 271 318 397
#     4  10  20  38  61  96 126 171 225 267 317 404
#     4  10  21  37  65  90 129 178 215 268 334 379
#
# _framework density 22.021788000000001
#
# number of rings (size 3 to 8) (size 9 to 14) (size 15 to 20)
#    0.000    1.143    5.714    2.143    0.000    0.571 
#    0.000    5.000    0.000    0.000    0.000    0.000 
#    0.000    0.000    0.000    0.000    0.000    0.000 
#
# Total GULP energy -78137.029221 kJ/mol
# GULP energy per Si atom -5581.216373 kJ/mol
# Density = 2.197167 g / cm^3
# Si number density = 22.021788 Si / 1000 Ang^3
#
#
#
# Elastic Constant Matrix: (Units=GPa)
#
#
# Indices 1 2 3 4 5 6 
#
# 1 116.2058 18.4753 36.9224 -6.9463 27.3303 -3.5064
# 2 18.4753 50.3939 14.0963 -11.8927 4.0558 11.7342
# 3 36.9224 14.0963 97.8883 -11.6507 31.6421 -7.7912
# 4 -6.9463 -11.8927 -11.6507 31.7829 -13.8149 -6.3606
# 5 27.3303 4.0558 31.6421 -13.8149 36.0855 -13.1451
# 6 -3.5064 11.7342 -7.7912 -6.3606 -13.1451 36.2006
#
#
#
# Elastic Compliance Matrix: (Units=1/GPa)
#
#
# Indices 1 2 3 4 5 6 
#
# 1 0.011508 -0.003463 -0.001469 -0.003753 -0.009237 -0.002093
# 2 -0.003463 0.025006 -0.002804 0.007339 0.002599 -0.006811
# 3 -0.001469 -0.002804 0.015005 -0.001531 -0.012628 -0.000859
# 4 -0.003753 0.007339 -0.001531 0.047647 0.027119 0.015147
# 5 -0.009237 0.002599 -0.012628 0.027119 0.064519 0.023738
# 6 -0.002093 -0.006811 -0.000859 0.015147 0.023738 0.040725
#
#
# Mechanical properties :
#
#
# Convention : Reuss Voigt Hill
#
# Bulk Modulus (GPa) = 27.74100 44.83067 36.28583
# Shear Modulus (GPa) = 21.56121 33.81339 27.68730
#
# Velocity S-wave (km/s) = 3.13243 3.92274 3.54965
# Velocity P-wave (km/s) = 5.07023 6.39678 5.77174
#
# Compressibility (1/GPa) = 0.03604773
#
# Stress axis : x y z
#
# Youngs Moduli (GPa) = 86.89696 39.98998 66.64353
#
# Poissons Ratio (x) = 0.13848 0.09792
# Poissons Ratio (y) = 0.30092 0.18684
# Poissons Ratio (z) = 0.12768 0.11211
#
# Static dielectric constant tensor:
#      x y z
#    x 1.741750 0.067760 -0.011770 
#    y 0.067760 1.879750 0.005960 
#    z -0.011770 0.005960 1.755300 
# 
# From -- ./inp_files/221818.got.cif
#   From: 2010.05.17/outbox.cif.g08.bks.cpg/sg2_111_cif.got.tgz:221818.got - 2010.06.03 11:33:40.
