data_PCOD9102867
_publ_section_title
;
Structure prediction by ZEFSAII (Michael W. Deem and Ramdas Pophale) SiO2 
 PCOD9102867
Probable space group: P -1
;
_chemical_formula_sum "Si O2"
_cell_formula_units_Z 14
_cell_length_a 8.371842
_cell_length_b 10.480254
_cell_length_c 20.852617
_cell_angle_alpha 37.128829
_cell_angle_beta 37.120316
_cell_angle_gamma 43.343847
_cell_volume 645.091576
_symmetry_space_group_name_H-M "P -1"
_symmetry_group_IT_number 2
_symmetry_cell_setting 'triclinic'
loop_
_space_group_symop_operation_xyz
x,y,z
-x,-y,-z
loop_
_atom_site_type_symbol
_atom_site_label
_atom_site_fract_x
_atom_site_fract_y
_atom_site_fract_z
Si Si1 0.998840 0.614749 0.862307
Si Si2 0.541316 0.206128 0.111467
Si Si3 0.364580 0.767491 0.359398
Si Si4 0.620261 0.745443 0.054787
Si Si5 0.303009 0.525552 0.156448
Si Si6 0.205907 0.966038 0.595051
Si Si7 0.779179 0.330244 0.410763
O O1 0.194913 0.374354 0.898190
O O2 0.770448 0.668914 0.859023
O O3 0.183366 0.779595 0.726523
O O4 0.827358 0.691820 0.950207
O O5 0.549961 0.326808 0.128403
O O6 0.529661 0.955670 0.220715
O O7 0.718678 0.279887 0.968543
O O8 0.544910 0.531049 0.377216
O O9 0.306922 0.741905 0.463686
O O10 0.072240 0.841785 0.387696
O O11 0.390742 0.625033 0.153789
O O12 0.500000 0.000000 0.000000
O O13 0.045535 0.427129 0.291156
O O14 0.183422 0.868412 0.570629
O O15 0.500000 0.000000 0.500000
#
# Coordination Sequence:
#
# PCOD9102867 Si02
#       7
#     2   2   2   2   2   2   2
#     4   9  20  41  59  87 121 154 207 244 293 367
#     4   9  19  40  64  89 121 158 204 252 300 359
#     4  10  23  42  63  91 126 158 209 252 300 370
#     4  10  22  40  59  89 126 158 192 249 308 357
#     4  10  20  38  64  91 118 160 200 249 301 362
#     4  11  24  41  66  87 120 168 199 251 308 354
#     4  11  23  42  63  94 123 159 209 253 300 368
#
# _framework density 21.702344
#
# number of rings (size 3 to 8) (size 9 to 14) (size 15 to 20)
#    0.000    2.000    2.857    0.429    2.000    4.571 
#   15.429    0.000    0.000    0.000    0.000    0.000 
#    0.000    0.000    0.000    0.000    0.000    0.000 
#
# Total GULP energy -78083.495962 kJ/mol
# GULP energy per Si atom -5577.392569 kJ/mol
# Density = 2.165295 g / cm^3
# Si number density = 21.702344 Si / 1000 Ang^3
#
#
#
# Elastic Constant Matrix: (Units=GPa)
#
#
# Indices 1 2 3 4 5 6 
#
# 1 57.4497 10.5675 6.8504 -8.9674 -18.5807 -1.5772
# 2 10.5675 70.2663 -11.8238 -29.0413 1.7493 -16.6714
# 3 6.8504 -11.8238 91.5704 0.2554 -14.6407 -12.3780
# 4 -8.9674 -29.0413 0.2554 35.1340 -8.1326 8.9724
# 5 -18.5807 1.7493 -14.6407 -8.1326 37.1209 -2.6412
# 6 -1.5772 -16.6714 -12.3780 8.9724 -2.6412 17.5989
#
#
#
# Elastic Compliance Matrix: (Units=1/GPa)
#
#
# Indices 1 2 3 4 5 6 
#
# 1 0.023245 -0.000067 0.000388 0.009139 0.013772 -0.000300
# 2 -0.000067 0.029624 0.008450 0.019864 0.008039 0.025079
# 3 0.000388 0.008450 0.015745 0.004228 0.008227 0.018193
# 4 0.009139 0.019864 0.004228 0.051264 0.016462 -0.001056
# 5 0.013772 0.008039 0.008227 0.016462 0.041189 0.012425
# 6 -0.000300 0.025079 0.018193 -0.001056 0.012425 0.095750
#
#
# Mechanical properties :
#
#
# Convention : Reuss Voigt Hill
#
# Bulk Modulus (GPa) = 11.60683 25.60830 18.60757
# Shear Modulus (GPa) = 18.65710 32.21694 25.43702
#
# Velocity S-wave (km/s) = 2.93521 3.85709 3.42729
# Velocity P-wave (km/s) = 4.10452 5.62686 4.92487
#
# Compressibility (1/GPa) = 0.08615613
#
# Stress axis : x y z
#
# Youngs Moduli (GPa) = 43.01950 33.75686 63.51056
#
# Poissons Ratio (x) = 0.00228 -0.02466
# Poissons Ratio (y) = 0.00290 -0.53667
# Poissons Ratio (z) = -0.01670 -0.28525
#
# Static dielectric constant tensor:
#      x y z
#    x 1.912450 0.002930 0.002450 
#    y 0.002930 1.792850 -0.005840 
#    z 0.002450 -0.005840 1.839080 
# 
# From -- ./inp_files/606977.got.cif
#   From: 2010.05.17/outbox.cif.g08.bks.cpg/sg2_304_cif.got.tgz:606977.got - 2010.06.03 11:33:40.
