data_PCOD9102498
_publ_section_title
;
Structure prediction by ZEFSAII (Michael W. Deem and Ramdas Pophale) SiO2 
 PCOD9102498
Probable space group: P -1
;
_chemical_formula_sum "Si O2"
_cell_formula_units_Z 16
_cell_length_a 14.255347
_cell_length_b 9.130326
_cell_length_c 11.745225
_cell_angle_alpha 86.154992
_cell_angle_beta 84.101826
_cell_angle_gamma 27.783990
_cell_volume 707.881359
_symmetry_space_group_name_H-M "P -1"
_symmetry_group_IT_number 2
_symmetry_cell_setting 'triclinic'
loop_
_space_group_symop_operation_xyz
x,y,z
-x,-y,-z
loop_
_atom_site_type_symbol
_atom_site_label
_atom_site_fract_x
_atom_site_fract_y
_atom_site_fract_z
Si Si1 0.320907 0.175245 0.437020
Si Si2 0.994675 0.343007 0.966416
Si Si3 0.857013 0.280728 0.591456
Si Si4 0.340507 0.736143 0.807896
Si Si5 0.295594 0.581401 0.166056
Si Si6 0.581747 0.245087 0.437620
Si Si7 0.394172 0.128223 0.172581
Si Si8 0.251165 0.554459 0.918623
O O1 0.145099 0.541041 0.438265
O O2 0.386603 0.073338 0.302702
O O3 0.500000 0.000000 0.500000
O O4 0.292056 0.051359 0.495037
O O5 0.821738 0.574996 0.878374
O O6 0.926645 0.320436 0.073238
O O7 0.202077 0.007116 0.902973
O O8 0.000000 0.500000 0.000000
O O9 0.873602 0.214086 0.726590
O O10 0.627171 0.545482 0.583597
O O11 0.000000 0.000000 0.500000
O O12 0.572836 0.455211 0.825108
O O13 0.304667 0.853394 0.682597
O O14 0.287852 0.637527 0.825022
O O15 0.442054 0.235373 0.176857
O O16 0.226239 0.663087 0.040416
O O17 0.500000 0.500000 0.500000
O O18 0.550410 0.820098 0.095760
#
# Coordination Sequence:
#
# PCOD9102498 Si02
#       8
#     2   2   2   2   2   2   2   2
#     4   9  19  38  62  87 115 156 201 244 301 363
#     4  11  23  39  59  88 122 156 197 248 303 365
#     4   9  19  37  61  88 119 155 199 248 300 359
#     4  11  22  38  57  85 122 157 199 250 299 360
#     4   9  19  36  60  87 119 157 198 246 304 363
#     4  10  21  37  58  83 117 159 199 245 298 355
#     4  10  20  38  63  88 116 156 200 246 303 366
#     4  11  21  37  62  88 116 158 200 247 306 363
#
# _framework density 22.602657000000001
#
# number of rings (size 3 to 8) (size 9 to 14) (size 15 to 20)
#    0.000    2.000    0.000    5.250    0.000    3.000 
#    0.000    8.750    0.000    0.000    0.000    0.000 
#    0.000    0.000    0.000    0.000    0.000    0.000 
#
# Total GULP energy -89365.203418 kJ/mol
# GULP energy per Si atom -5585.325214 kJ/mol
# Density = 2.255121 g / cm^3
# Si number density = 22.602657 Si / 1000 Ang^3
#
#
#
# Elastic Constant Matrix: (Units=GPa)
#
#
# Indices 1 2 3 4 5 6 
#
# 1 122.1479 34.1098 42.1719 -12.3671 -24.2618 28.1205
# 2 34.1098 82.5747 40.5786 13.2817 -14.5762 24.9357
# 3 42.1719 40.5786 115.1258 0.8897 -24.2296 21.7880
# 4 -12.3671 13.2817 0.8897 37.1603 9.6027 3.6111
# 5 -24.2618 -14.5762 -24.2296 9.6027 44.5575 -8.1762
# 6 28.1205 24.9357 21.7880 3.6111 -8.1762 42.1997
#
#
#
# Elastic Compliance Matrix: (Units=1/GPa)
#
#
# Indices 1 2 3 4 5 6 
#
# 1 0.011770 -0.002688 -0.001886 0.004777 0.002520 -0.005202
# 2 -0.002688 0.018679 -0.003727 -0.007714 0.003173 -0.006047
# 3 -0.001886 -0.003727 0.011882 -0.000422 0.003962 -0.001872
# 4 0.004777 -0.007714 -0.000422 0.033584 -0.007906 -0.002813
# 5 0.002520 0.003173 0.003962 -0.007906 0.028833 0.000663
# 6 -0.005202 -0.006047 -0.001872 -0.002813 0.000663 0.032072
#
#
# Mechanical properties :
#
#
# Convention : Reuss Voigt Hill
#
# Bulk Modulus (GPa) = 38.86743 61.50767 50.18755
# Shear Modulus (GPa) = 30.86415 38.31603 34.59009
#
# Velocity S-wave (km/s) = 3.69929 4.12175 3.91622
# Velocity P-wave (km/s) = 5.95648 7.06565 6.53464
#
# Compressibility (1/GPa) = 0.02572848
#
# Stress axis : x y z
#
# Youngs Moduli (GPa) = 84.95878 53.53557 84.15823
#
# Poissons Ratio (x) = 0.14390 0.15875
# Poissons Ratio (y) = 0.22836 0.31370
# Poissons Ratio (z) = 0.16026 0.19955
#
# Static dielectric constant tensor:
#      x y z
#    x 1.897590 -0.008340 -0.007100 
#    y -0.008340 1.856880 -0.064640 
#    z -0.007100 -0.064640 1.886210 
# 
# From -- ./inp_files/216555.got.cif
#   From: 2010.05.17/outbox.cif.g08.bks.cpg/sg2_109_cif.got.tgz:216555.got - 2010.06.03 11:33:40.
