data_PCOD9102970
_publ_section_title
;
Structure prediction by ZEFSAII (Michael W. Deem and Ramdas Pophale) SiO2 
 PCOD9102970
Probable space group: P -1
;
_chemical_formula_sum "Si O2"
_cell_formula_units_Z 13
_cell_length_a 7.909074
_cell_length_b 8.782042
_cell_length_c 14.244866
_cell_angle_alpha 71.209977
_cell_angle_beta 84.485077
_cell_angle_gamma 33.876515
_cell_volume 493.833331
_symmetry_space_group_name_H-M "P -1"
_symmetry_group_IT_number 2
_symmetry_cell_setting 'triclinic'
loop_
_space_group_symop_operation_xyz
x,y,z
-x,-y,-z
loop_
_atom_site_type_symbol
_atom_site_label
_atom_site_fract_x
_atom_site_fract_y
_atom_site_fract_z
Si Si1 0.298311 0.616300 0.265972
Si Si2 0.000000 0.000000 0.500000
Si Si3 0.476932 0.982642 0.317083
Si Si4 0.330420 0.300212 0.979608
Si Si5 0.609478 0.213040 0.167036
Si Si6 0.248742 0.483751 0.742702
Si Si7 0.290310 0.458476 0.484313
O O1 0.634462 0.433188 0.313290
O O2 0.256417 0.508890 0.364311
O O3 0.972944 0.980046 0.210769
O O4 0.350607 0.524081 0.174679
O O5 0.665922 0.208774 0.528104
O O6 0.947335 0.224595 0.514283
O O7 0.583240 0.064983 0.252383
O O8 0.511856 0.828377 0.260167
O O9 0.696709 0.730053 0.435584
O O10 0.107704 0.284196 0.305852
O O11 0.518902 0.249627 0.058106
O O12 0.288409 0.436896 0.860962
O O13 0.000000 0.500000 0.000000
O O14 0.500000 0.000000 0.000000
#
# Coordination Sequence:
#
# PCOD9102970 Si02
#       7
#     2   1   2   2   2   2   2
#     4  12  27  42  65 102 148 174 216 284 348 399
#     4  10  20  38  64  94 130 178 228 278 316 378
#     4  12  24  42  73  99 131 187 240 266 320 412
#     4  12  23  46  74  98 128 174 230 292 329 398
#     4  12  26  44  66 101 138 181 222 281 346 404
#     4  12  24  44  72 103 129 179 235 280 336 398
#     4  11  22  40  64  98 141 180 222 275 328 392
#
# _framework density 26.324670000000001
#
# number of rings (size 3 to 8) (size 9 to 14) (size 15 to 20)
#    0.000    0.308    3.077    7.385    0.000    2.462 
#    0.000    0.000    0.000    0.000    0.000    0.000 
#    0.000    0.000    0.000    0.000    0.000    0.000 
#
# Total GULP energy -72624.698116 kJ/mol
# GULP energy per Si atom -5586.515240 kJ/mol
# Density = 2.626475 g / cm^3
# Si number density = 26.324670 Si / 1000 Ang^3
#
#
#
# Elastic Constant Matrix: (Units=GPa)
#
#
# Indices 1 2 3 4 5 6 
#
# 1 63.9880 12.4054 21.2811 0.0569 -1.6366 -9.0497
# 2 12.4054 164.0966 14.9172 18.4312 1.3168 -5.9699
# 3 21.2811 14.9172 118.2632 17.0620 -0.8449 -20.5425
# 4 0.0569 18.4312 17.0620 37.2928 -1.5038 2.8971
# 5 -1.6366 1.3168 -0.8449 -1.5038 44.3167 -9.1622
# 6 -9.0497 -5.9699 -20.5425 2.8971 -9.1622 37.0277
#
#
#
# Elastic Compliance Matrix: (Units=1/GPa)
#
#
# Indices 1 2 3 4 5 6 
#
# 1 0.017158 -0.001145 -0.002701 0.001616 0.001227 0.002688
# 2 -0.001145 0.006593 0.000038 -0.003360 -0.000138 0.001033
# 3 -0.002701 0.000038 0.010766 -0.005361 0.001169 0.006027
# 4 0.001616 -0.003360 -0.005361 0.031358 -0.000033 -0.005583
# 5 0.001227 -0.000138 0.001169 -0.000033 0.024058 0.006881
# 6 0.002688 0.001033 0.006027 -0.005583 0.006881 0.033314
#
#
# Mechanical properties :
#
#
# Convention : Reuss Voigt Hill
#
# Bulk Modulus (GPa) = 37.17407 49.28390 43.22898
# Shear Modulus (GPa) = 35.75765 43.57703 39.66734
#
# Velocity S-wave (km/s) = 3.68955 4.07304 3.88603
# Velocity P-wave (km/s) = 5.68352 6.39388 6.04914
#
# Compressibility (1/GPa) = 0.02690047
#
# Stress axis : x y z
#
# Youngs Moduli (GPa) = 58.28118 151.67197 92.88769
#
# Poissons Ratio (x) = 0.17370 0.25086
# Poissons Ratio (y) = 0.06674 -0.00349
# Poissons Ratio (z) = 0.15740 -0.00570
#
# Static dielectric constant tensor:
#      x y z
#    x 2.131950 0.054670 0.016770 
#    y 0.054670 1.919250 0.066260 
#    z 0.016770 0.066260 1.924040 
# 
# From -- ./inp_files/492772.got.cif
#   From: 2010.05.17/outbox.cif.g08.bks.cpg/sg2_247_cif.got.tgz:492772.got - 2010.06.03 11:33:40.
