data_PCOD9102674
_publ_section_title
;
Structure prediction by ZEFSAII (Michael W. Deem and Ramdas Pophale) SiO2 
 PCOD9102674
Probable space group: P -1
;
_chemical_formula_sum "Si O2"
_cell_formula_units_Z 16
_cell_length_a 9.509485
_cell_length_b 17.303879
_cell_length_c 11.121167
_cell_angle_alpha 61.728115
_cell_angle_beta 56.195198
_cell_angle_gamma 31.297728
_cell_volume 789.930743
_symmetry_space_group_name_H-M "P -1"
_symmetry_group_IT_number 2
_symmetry_cell_setting 'triclinic'
loop_
_space_group_symop_operation_xyz
x,y,z
-x,-y,-z
loop_
_atom_site_type_symbol
_atom_site_label
_atom_site_fract_x
_atom_site_fract_y
_atom_site_fract_z
Si Si1 0.872657 0.395465 0.383205
Si Si2 0.693865 0.352251 0.940328
Si Si3 0.310919 0.410937 0.891580
Si Si4 0.434884 0.820497 0.250202
Si Si5 0.672802 0.305209 0.457068
Si Si6 0.952746 0.639356 0.304047
Si Si7 0.326444 0.307462 0.357689
Si Si8 0.104205 0.840816 0.795058
O O1 0.745345 0.487916 0.252432
O O2 0.855096 0.298797 0.451687
O O3 0.655469 0.524136 0.493750
O O4 0.179852 0.308011 0.327450
O O5 0.486668 0.376005 0.945138
O O6 0.891486 0.332779 0.780161
O O7 0.500000 0.500000 0.000000
O O8 0.880777 0.221424 0.045127
O O9 0.495105 0.260829 0.844974
O O10 0.000000 0.500000 0.000000
O O11 0.316882 0.796160 0.417441
O O12 0.732802 0.730261 0.230271
O O13 0.204175 0.991949 0.212592
O O14 0.774713 0.261403 0.303895
O O15 0.768791 0.691946 0.469772
O O16 0.179892 0.465346 0.303570
O O17 0.664160 0.178197 0.283554
#
# Coordination Sequence:
#
# PCOD9102674 Si02
#       8
#     2   2   2   2   2   2   2   2
#     4  10  21  36  66  99 121 163 222 272 311 369
#     4  12  25  39  67  98 127 167 220 271 317 378
#     4  11  23  43  66  92 131 172 214 264 323 389
#     4  11  24  43  66  92 132 175 212 262 335 383
#     4  10  20  38  63  95 125 166 215 268 314 378
#     4  11  22  39  63  98 128 164 218 265 313 382
#     4  11  20  38  66  95 125 166 217 265 313 377
#     4  12  24  42  66  94 133 175 212 263 331 391
#
# _framework density 20.254940000000001
#
# number of rings (size 3 to 8) (size 9 to 14) (size 15 to 20)
#    0.000    1.000    5.000    3.375    5.250    1.000 
#    0.000    1.875    0.000    0.000    0.000    0.000 
#    0.000    0.000    0.000    0.000    0.000    0.000 
#
# Total GULP energy -89469.822561 kJ/mol
# GULP energy per Si atom -5591.863910 kJ/mol
# Density = 2.020884 g / cm^3
# Si number density = 20.254940 Si / 1000 Ang^3
#
#
#
# Elastic Constant Matrix: (Units=GPa)
#
#
# Indices 1 2 3 4 5 6 
#
# 1 104.9334 30.3213 26.5940 -10.2568 3.3359 -6.7749
# 2 30.3213 64.4853 25.9210 -8.3798 7.9601 -12.9676
# 3 26.5940 25.9210 88.6912 -4.7325 -4.0392 -0.9312
# 4 -10.2568 -8.3798 -4.7325 18.5429 -4.4578 1.6384
# 5 3.3359 7.9601 -4.0392 -4.4578 36.9928 1.0153
# 6 -6.7749 -12.9676 -0.9312 1.6384 1.0153 13.6557
#
#
#
# Elastic Compliance Matrix: (Units=1/GPa)
#
#
# Indices 1 2 3 4 5 6 
#
# 1 0.011666 -0.003767 -0.002166 0.004050 -0.000033 0.001580
# 2 -0.003767 0.025407 -0.006093 0.004518 -0.005845 0.021735
# 3 -0.002166 -0.006093 0.013839 0.000929 0.003302 -0.006274
# 4 0.004050 0.004518 0.000929 0.060011 0.006031 -0.001285
# 5 -0.000033 -0.005845 0.003302 0.006031 0.029607 -0.008267
# 6 0.001580 0.021735 -0.006274 -0.001285 -0.008267 0.094994
#
#
# Mechanical properties :
#
#
# Convention : Reuss Voigt Hill
#
# Bulk Modulus (GPa) = 37.22843 47.08692 42.15768
# Shear Modulus (GPa) = 18.61985 25.52319 22.07152
#
# Velocity S-wave (km/s) = 3.03524 3.55364 3.30462
# Velocity P-wave (km/s) = 5.54107 6.33525 5.95142
#
# Compressibility (1/GPa) = 0.02686119
#
# Stress axis : x y z
#
# Youngs Moduli (GPa) = 85.71783 39.35912 72.25783
#
# Poissons Ratio (x) = 0.14825 0.15651
# Poissons Ratio (y) = 0.32287 0.44027
# Poissons Ratio (z) = 0.18567 0.23981
#
# Static dielectric constant tensor:
#      x y z
#    x 1.740240 -0.016840 -0.002590 
#    y -0.016840 1.678390 0.003720 
#    z -0.002590 0.003720 1.761870 
# 
# From -- ./inp_files/402006.got.cif
#   From: 2010.05.17/outbox.cif.g08.bks.cpg/sg2_202_cif.got.tgz:402006.got - 2010.06.03 11:33:40.
