data_PCOD9102926
_publ_section_title
;
Structure prediction by ZEFSAII (Michael W. Deem and Ramdas Pophale) SiO2 
 PCOD9102926
Probable space group: P -1
;
_chemical_formula_sum "Si O2"
_cell_formula_units_Z 15
_cell_length_a 14.181385
_cell_length_b 6.668579
_cell_length_c 8.880418
_cell_angle_alpha 128.493029
_cell_angle_beta 69.077968
_cell_angle_gamma 92.935253
_cell_volume 596.931050
_symmetry_space_group_name_H-M "P -1"
_symmetry_group_IT_number 2
_symmetry_cell_setting 'triclinic'
loop_
_space_group_symop_operation_xyz
x,y,z
-x,-y,-z
loop_
_atom_site_type_symbol
_atom_site_label
_atom_site_fract_x
_atom_site_fract_y
_atom_site_fract_z
Si Si1 0.500000 0.000000 0.000000
Si Si2 0.517092 0.164257 0.418567
Si Si3 0.824462 0.139683 0.620995
Si Si4 0.981677 0.254879 0.802986
Si Si5 0.854248 0.972582 0.933748
Si Si6 0.300244 0.476511 0.709064
Si Si7 0.253122 0.980684 0.685033
Si Si8 0.270834 0.221065 0.303841
O O1 0.505654 0.950713 0.783928
O O2 0.619672 0.831128 0.865755
O O3 0.425759 0.430083 0.619849
O O4 0.638336 0.153843 0.360266
O O5 0.500000 0.000000 0.500000
O O6 0.886397 0.310078 0.763512
O O7 0.773065 0.205463 0.518834
O O8 0.738296 0.044936 0.723822
O O9 0.915847 0.879420 0.410592
O O10 0.954951 0.041457 0.836097
O O11 0.000000 0.500000 0.000000
O O12 0.765654 0.240560 0.077043
O O13 0.838524 0.942430 0.105022
O O14 0.821085 0.747703 0.750030
O O15 0.263508 0.423034 0.537918
O O16 0.271596 0.247573 0.721584
#
# Coordination Sequence:
#
# PCOD9102926 Si02
#       8
#     1   2   2   2   2   2   2   2
#     4  10  16  32  58  88 122 164 204 246 302 366
#     4   9  18  33  59  85 126 170 200 250 308 358
#     4   9  20  37  59  82 118 160 191 252 321 352
#     4  10  20  38  63  85 112 157 204 251 313 374
#     4  11  21  36  63  90 114 160 205 245 309 365
#     4   9  20  37  58  83 125 166 193 247 304 352
#     4  10  19  37  58  88 123 153 201 255 297 364
#     4   9  18  35  56  83 121 152 197 245 289 363
#
# _framework density 25.128530000000001
#
# number of rings (size 3 to 8) (size 9 to 14) (size 15 to 20)
#    0.000    2.400    1.333    2.400    0.000    1.067 
#    0.000    6.000    0.000   13.600    0.000    0.000 
#    0.000    0.000    0.000    0.000    0.000    0.000 
#
# Total GULP energy -83577.040247 kJ/mol
# GULP energy per Si atom -5571.802683 kJ/mol
# Density = 2.507134 g / cm^3
# Si number density = 25.128530 Si / 1000 Ang^3
#
#
#
# Elastic Constant Matrix: (Units=GPa)
#
#
# Indices 1 2 3 4 5 6 
#
# 1 124.5798 17.4298 19.7464 -0.5369 30.1527 -0.3797
# 2 17.4298 84.5207 24.7616 -13.4349 11.6514 -5.3689
# 3 19.7464 24.7616 115.8570 -14.2074 21.8948 4.4304
# 4 -0.5369 -13.4349 -14.2074 45.0721 -2.0863 3.9427
# 5 30.1527 11.6514 21.8948 -2.0863 53.0067 -1.7040
# 6 -0.3797 -5.3689 4.4304 3.9427 -1.7040 38.1920
#
#
#
# Elastic Compliance Matrix: (Units=1/GPa)
#
#
# Indices 1 2 3 4 5 6 
#
# 1 0.009471 -0.001240 -0.000484 -0.000622 -0.004945 -0.000180
# 2 -0.001240 0.013484 -0.002128 0.003125 -0.001200 0.001754
# 3 -0.000484 -0.002128 0.010207 0.002586 -0.003433 -0.001908
# 4 -0.000622 0.003125 0.002586 0.024109 -0.000528 -0.002379
# 5 -0.004945 -0.001200 -0.003433 -0.000528 0.023381 0.001278
# 6 -0.000180 0.001754 -0.001908 -0.002379 0.001278 0.026952
#
#
# Mechanical properties :
#
#
# Convention : Reuss Voigt Hill
#
# Bulk Modulus (GPa) = 39.27873 49.87034 44.57454
# Shear Modulus (GPa) = 40.38967 44.78882 42.58924
#
# Velocity S-wave (km/s) = 4.01349 4.22642 4.12133
# Velocity P-wave (km/s) = 6.09447 6.61105 6.35801
#
# Compressibility (1/GPa) = 0.02545907
#
# Stress axis : x y z
#
# Youngs Moduli (GPa) = 105.58665 74.16189 97.96914
#
# Poissons Ratio (x) = 0.09196 0.04742
# Poissons Ratio (y) = 0.13092 0.20843
# Poissons Ratio (z) = 0.05111 0.15778
#
# Static dielectric constant tensor:
#      x y z
#    x 2.025190 0.026610 0.008340 
#    y 0.026610 2.119640 -0.053910 
#    z 0.008340 -0.053910 1.947580 
# 
# From -- ./inp_files/293401.got.cif
#   From: 2010.05.17/outbox.cif.g08.bks.cpg/sg2_147_cif.got.tgz:293401.got - 2010.06.03 11:33:40.
