data_PCOD9102264
_publ_section_title
;
Structure prediction by ZEFSAII (Michael W. Deem and Ramdas Pophale) SiO2 
 PCOD9102264
Probable space group: P -1
;
_chemical_formula_sum "Si O2"
_cell_formula_units_Z 16
_cell_length_a 10.925910
_cell_length_b 5.496355
_cell_length_c 18.168292
_cell_angle_alpha 70.287194
_cell_angle_beta 135.151841
_cell_angle_gamma 113.585104
_cell_volume 702.738298
_symmetry_space_group_name_H-M "P -1"
_symmetry_group_IT_number 2
_symmetry_cell_setting 'triclinic'
loop_
_space_group_symop_operation_xyz
x,y,z
-x,-y,-z
loop_
_atom_site_type_symbol
_atom_site_label
_atom_site_fract_x
_atom_site_fract_y
_atom_site_fract_z
Si Si1 0.642303 0.264727 0.700991
Si Si2 0.053612 0.154675 0.774298
Si Si3 0.688556 0.210163 0.566227
Si Si4 0.624248 0.377827 0.969251
Si Si5 0.424063 0.646256 0.644244
Si Si6 0.020760 0.177819 0.918857
Si Si7 0.337493 0.191562 0.763006
Si Si8 0.686271 0.314597 0.163416
O O1 0.669969 0.364776 0.617782
O O2 0.560634 0.473975 0.689693
O O3 0.834456 0.253201 0.815466
O O4 0.522590 0.952714 0.677570
O O5 0.066143 0.047800 0.873428
O O6 0.189125 0.123402 0.771379
O O7 0.123926 0.473880 0.783462
O O8 0.853228 0.080535 0.667176
O O9 0.707806 0.351204 0.481281
O O10 0.500000 0.000000 0.500000
O O11 0.539521 0.221394 0.877184
O O12 0.472049 0.543276 0.899368
O O13 0.814859 0.573984 0.019838
O O14 0.636539 0.228824 0.066035
O O15 0.327795 0.447688 0.687417
O O16 0.000000 0.000000 0.000000
O O17 0.304189 0.895659 0.747235
#
# Coordination Sequence:
#
# PCOD9102264 Si02
#       8
#     2   2   2   2   2   2   2   2
#     4  10  23  45  64  96 131 168 213 267 318 380
#     4   9  21  41  60  90 124 161 210 262 323 376
#     4   9  20  45  69  91 124 167 211 262 323 385
#     4   9  19  37  57  84 122 170 211 252 314 374
#     4  11  24  41  69  94 127 170 216 266 322 375
#     4  10  20  38  62  89 127 168 213 264 313 381
#     4  11  22  36  62  90 125 164 210 268 313 381
#     4   9  19  37  58  83 124 165 209 257 311 378
#
# _framework density 22.768077999999999
#
# number of rings (size 3 to 8) (size 9 to 14) (size 15 to 20)
#    0.000    2.250    0.000    2.250    5.250    0.500 
#   27.000    1.875    0.000    0.000    0.000    0.000 
#    0.000    0.000    0.000    0.000    0.000    0.000 
#
# Total GULP energy -89111.813555 kJ/mol
# GULP energy per Si atom -5569.488347 kJ/mol
# Density = 2.271626 g / cm^3
# Si number density = 22.768078 Si / 1000 Ang^3
#
#
#
# Elastic Constant Matrix: (Units=GPa)
#
#
# Indices 1 2 3 4 5 6 
#
# 1 78.4352 16.4344 30.7921 0.1657 -6.8634 8.5962
# 2 16.4344 81.3485 32.0119 -12.7637 -4.7947 20.9332
# 3 30.7921 32.0119 119.3892 -7.2739 -2.7245 25.6101
# 4 0.1657 -12.7637 -7.2739 28.7092 13.5700 -4.7876
# 5 -6.8634 -4.7947 -2.7245 13.5700 26.2392 -2.8321
# 6 8.5962 20.9332 25.6101 -4.7876 -2.8321 25.2962
#
#
#
# Elastic Compliance Matrix: (Units=1/GPa)
#
#
# Indices 1 2 3 4 5 6 
#
# 1 0.015036 -0.002013 -0.003446 -0.004490 0.005509 -0.000188
# 2 -0.002013 0.016926 -0.001316 0.006325 -0.002031 -0.011020
# 3 -0.003446 -0.001316 0.011713 0.001680 -0.001818 -0.009484
# 4 -0.004490 0.006325 0.001680 0.050516 -0.025834 0.001259
# 5 0.005509 -0.002031 -0.001818 -0.025834 0.052639 0.002653
# 6 -0.000188 -0.011020 -0.009484 0.001259 0.002653 0.058852
#
#
# Mechanical properties :
#
#
# Convention : Reuss Voigt Hill
#
# Bulk Modulus (GPa) = 33.19516 48.62773 40.91144
# Shear Modulus (GPa) = 21.80806 29.37791 25.59298
#
# Velocity S-wave (km/s) = 3.09825 3.59599 3.35636
# Velocity P-wave (km/s) = 5.23548 6.21657 5.74700
#
# Compressibility (1/GPa) = 0.03012488
#
# Stress axis : x y z
#
# Youngs Moduli (GPa) = 66.50665 59.08071 85.37695
#
# Poissons Ratio (x) = 0.11893 0.29418
# Poissons Ratio (y) = 0.13388 0.11237
# Poissons Ratio (z) = 0.22916 0.07776
#
# Static dielectric constant tensor:
#      x y z
#    x 1.948840 -0.069080 -0.102170 
#    y -0.069080 1.992780 -0.009210 
#    z -0.102170 -0.009210 1.913730 
# 
# From -- ./inp_files/80530.got.cif
#   From: 2010.05.17/outbox.cif.g08.bks.cpg/sg2_41_cif.got.tgz:80530.got - 2010.06.03 11:33:40.
