data_PCOD9102511
_publ_section_title
;
Structure prediction by ZEFSAII (Michael W. Deem and Ramdas Pophale) SiO2 
 PCOD9102511
Probable space group: P -1
;
_chemical_formula_sum "Si O2"
_cell_formula_units_Z 12
_cell_length_a 12.237978
_cell_length_b 7.497802
_cell_length_c 14.463240
_cell_angle_alpha 78.053233
_cell_angle_beta 31.682244
_cell_angle_gamma 57.889649
_cell_volume 492.494547
_symmetry_space_group_name_H-M "P -1"
_symmetry_group_IT_number 2
_symmetry_cell_setting 'triclinic'
loop_
_space_group_symop_operation_xyz
x,y,z
-x,-y,-z
loop_
_atom_site_type_symbol
_atom_site_label
_atom_site_fract_x
_atom_site_fract_y
_atom_site_fract_z
Si Si1 0.235166 0.453797 0.086190
Si Si2 0.635047 0.505794 0.765019
Si Si3 0.175705 0.244403 0.303128
Si Si4 0.641837 0.780256 0.155366
Si Si5 0.043030 0.048999 0.065849
Si Si6 0.330860 0.974183 0.552114
O O1 0.222789 0.257849 0.159413
O O2 0.960248 0.733990 0.287352
O O3 0.537619 0.375523 0.895388
O O4 0.223922 0.454197 0.982110
O O5 0.788169 0.566332 0.710062
O O6 0.862395 0.348466 0.535174
O O7 0.337427 0.777064 0.919259
O O8 0.391393 0.008688 0.241654
O O9 0.495592 0.835243 0.353273
O O10 0.887184 0.781250 0.996148
O O11 0.776742 0.143849 0.308554
O O12 0.000000 0.000000 0.000000
O O13 0.500000 0.000000 0.500000
#
# Coordination Sequence:
#
# PCOD9102511 Si02
#       6
#     2   2   2   2   2   2
#     4  11  23  39  63  93 123 157 204 250 299 359
#     4   9  20  36  61  91 120 161 203 240 307 356
#     4  10  20  38  63  88 127 159 197 247 301 365
#     4  11  24  40  62  95 121 159 203 248 304 357
#     4  10  20  39  62  85 122 161 202 248 298 356
#     4  11  23  41  63  84 124 163 198 251 301 352
#
# _framework density 24.365753000000002
#
# number of rings (size 3 to 8) (size 9 to 14) (size 15 to 20)
#    0.000    1.667    1.667    4.000    0.000    5.333 
#    0.000    0.833    0.000    0.000    0.000    0.000 
#    0.000    0.000    0.000    0.000    0.000    0.000 
#
# Total GULP energy -67041.130339 kJ/mol
# GULP energy per Si atom -5586.760862 kJ/mol
# Density = 2.431030 g / cm^3
# Si number density = 24.365753 Si / 1000 Ang^3
#
#
#
# Elastic Constant Matrix: (Units=GPa)
#
#
# Indices 1 2 3 4 5 6 
#
# 1 92.2678 -3.5177 41.1178 -8.2596 17.8427 -1.5404
# 2 -3.5177 31.5863 21.8113 -9.1223 1.5319 -3.4873
# 3 41.1178 21.8113 161.4036 -42.8915 10.7253 -11.1327
# 4 -8.2596 -9.1223 -42.8915 37.3742 -0.1325 2.2435
# 5 17.8427 1.5319 10.7253 -0.1325 47.3590 -5.6776
# 6 -1.5404 -3.4873 -11.1327 2.2435 -5.6776 30.8502
#
#
#
# Elastic Compliance Matrix: (Units=1/GPa)
#
#
# Indices 1 2 3 4 5 6 
#
# 1 0.013549 0.004185 -0.003902 -0.000415 -0.004484 -0.001054
# 2 0.004185 0.036918 -0.004614 0.004509 -0.001459 0.002121
# 3 -0.003902 -0.004614 0.010705 0.010156 -0.000499 0.002316
# 4 -0.000415 0.004509 0.010156 0.039358 -0.002070 0.000911
# 5 -0.004484 -0.001459 -0.000499 -0.002070 0.023426 0.003893
# 6 -0.001054 0.002121 0.002316 0.000911 0.003893 0.034088
#
#
# Mechanical properties :
#
#
# Convention : Reuss Voigt Hill
#
# Bulk Modulus (GPa) = 19.04407 44.89784 31.97096
# Shear Modulus (GPa) = 27.14304 38.17309 32.65807
#
# Velocity S-wave (km/s) = 3.34126 3.96241 3.66502
# Velocity P-wave (km/s) = 4.76637 6.27701 5.57311
#
# Compressibility (1/GPa) = 0.05250977
#
# Stress axis : x y z
#
# Youngs Moduli (GPa) = 73.80735 27.08691 93.41469
#
# Poissons Ratio (x) = -0.11335 0.36452
# Poissons Ratio (y) = -0.30886 0.43098
# Poissons Ratio (z) = 0.28801 0.12497
#
# Static dielectric constant tensor:
#      x y z
#    x 2.078580 -0.021130 0.117520 
#    y -0.021130 2.054800 -0.029620 
#    z 0.117520 -0.029620 2.028480 
# 
# From -- ./inp_files/161958.got.cif
#   From: 2010.05.17/outbox.cif.g08.bks.cpg/sg2_81_cif.got.tgz:161958.got - 2010.06.03 11:33:40.
