data_PCOD9102948
_publ_section_title
;
Structure prediction by ZEFSAII (Michael W. Deem and Ramdas Pophale) SiO2 
 PCOD9102948
Probable space group: P -1
;
_chemical_formula_sum "Si O2"
_cell_formula_units_Z 16
_cell_length_a 5.621058
_cell_length_b 5.418573
_cell_length_c 20.990315
_cell_angle_alpha 84.079022
_cell_angle_beta 97.929256
_cell_angle_gamma 74.637652
_cell_volume 604.020238
_symmetry_space_group_name_H-M "P -1"
_symmetry_group_IT_number 2
_symmetry_cell_setting 'triclinic'
loop_
_space_group_symop_operation_xyz
x,y,z
-x,-y,-z
loop_
_atom_site_type_symbol
_atom_site_label
_atom_site_fract_x
_atom_site_fract_y
_atom_site_fract_z
Si Si1 0.795274 0.842078 0.008466
Si Si2 0.437528 0.783724 0.459012
Si Si3 0.887623 0.775065 0.779651
Si Si4 0.370515 0.404405 0.108525
Si Si5 0.568504 0.655516 0.199369
Si Si6 0.698623 0.638332 0.338076
Si Si7 0.164443 0.033621 0.862919
Si Si8 0.996039 0.955231 0.649806
O O1 0.794001 0.653202 0.953648
O O2 0.872936 0.763591 0.086697
O O3 0.500000 0.000000 0.000000
O O4 0.000000 0.000000 0.000000
O O5 0.500000 0.500000 0.500000
O O6 0.585354 0.737441 0.399123
O O7 0.155555 0.906060 0.420617
O O8 0.500000 0.000000 0.500000
O O9 0.714673 0.652741 0.820653
O O10 0.167853 0.578257 0.789127
O O11 0.830858 0.878683 0.703353
O O12 0.921335 0.999102 0.821727
O O13 0.423847 0.666119 0.125991
O O14 0.649235 0.237268 0.100372
O O15 0.505897 0.649418 0.271702
O O16 0.671280 0.900539 0.188377
O O17 0.870195 0.832551 0.325108
O O18 0.835612 0.330575 0.356351
#
# Coordination Sequence:
#
# PCOD9102948 Si02
#       8
#     2   2   2   2   2   2   2   2
#     4  10  20  38  64  93 135 190 242 301 380 455
#     4  12  28  47  73 108 145 188 239 290 362 455
#     4  10  21  39  62  92 129 170 234 294 353 435
#     4  10  22  37  62  91 133 181 227 300 363 431
#     4  10  23  39  61  97 129 172 234 300 363 426
#     4  11  25  46  72 103 147 185 241 306 362 441
#     4  10  20  39  62  88 130 174 233 288 365 429
#     4  11  25  44  73 105 140 193 240 297 373 438
#
# _framework density 26.489177999999999
#
# number of rings (size 3 to 8) (size 9 to 14) (size 15 to 20)
#    0.000    1.500    2.500    1.500    1.750    7.500 
#    0.000    0.625    0.000    0.000    0.000    0.000 
#    0.000    0.000    0.000    0.000    0.000    0.000 
#
# Total GULP energy -89172.499158 kJ/mol
# GULP energy per Si atom -5573.281197 kJ/mol
# Density = 2.642889 g / cm^3
# Si number density = 26.489178 Si / 1000 Ang^3
#
#
#
# Elastic Constant Matrix: (Units=GPa)
#
#
# Indices 1 2 3 4 5 6 
#
# 1 50.8126 17.1828 33.3200 4.7166 6.0721 -2.1705
# 2 17.1828 125.0028 37.9683 19.7883 18.8360 -18.5403
# 3 33.3200 37.9683 179.7040 19.0779 21.6786 1.7991
# 4 4.7166 19.7883 19.0779 46.2144 8.5474 -11.6310
# 5 6.0721 18.8360 21.6786 8.5474 57.3520 7.8346
# 6 -2.1705 -18.5403 1.7991 -11.6310 7.8346 50.9968
#
#
#
# Elastic Compliance Matrix: (Units=1/GPa)
#
#
# Indices 1 2 3 4 5 6 
#
# 1 0.022876 -0.001871 -0.003823 0.000276 -0.000481 0.000565
# 2 -0.001871 0.009901 -0.001219 -0.002158 -0.002748 0.003493
# 3 -0.003823 -0.001219 0.006916 -0.001963 -0.001368 -0.001088
# 4 0.000276 -0.002158 -0.001963 0.025316 -0.003109 0.005548
# 5 -0.000481 -0.002748 -0.001368 -0.003109 0.020020 -0.004756
# 6 0.000565 0.003493 -0.001088 0.005548 -0.004756 0.022938
#
#
# Mechanical properties :
#
#
# Convention : Reuss Voigt Hill
#
# Bulk Modulus (GPa) = 38.66092 59.16242 48.91167
# Shear Modulus (GPa) = 38.33938 48.71586 43.52762
#
# Velocity S-wave (km/s) = 3.80855 4.29311 4.05807
# Velocity P-wave (km/s) = 5.82810 6.85255 6.36098
#
# Compressibility (1/GPa) = 0.02586591
#
# Stress axis : x y z
#
# Youngs Moduli (GPa) = 43.71439 100.99821 144.60193
#
# Poissons Ratio (x) = 0.18893 0.55285
# Poissons Ratio (y) = 0.08177 0.17633
# Poissons Ratio (z) = 0.16713 0.12316
#
# Static dielectric constant tensor:
#      x y z
#    x 2.240470 -0.084250 0.023910 
#    y -0.084250 2.206780 -0.032990 
#    z 0.023910 -0.032990 2.052230 
# 
# From -- ./inp_files/13419.got.cif
#   From: 2010.05.17/outbox.cif.g08.bks.cpg/sg2_7_cif.got.tgz:13419.got - 2010.06.03 11:33:40.
