data_PCOD9102211
_publ_section_title
;
Structure prediction by ZEFSAII (Michael W. Deem and Ramdas Pophale) SiO2 
 PCOD9102211
Probable space group: P -1
;
_chemical_formula_sum "Si O2"
_cell_formula_units_Z 12
_cell_length_a 8.948106
_cell_length_b 16.840928
_cell_length_c 15.405940
_cell_angle_alpha 156.486939
_cell_angle_beta 34.971127
_cell_angle_gamma 133.700926
_cell_volume 511.950920
_symmetry_space_group_name_H-M "P -1"
_symmetry_group_IT_number 2
_symmetry_cell_setting 'triclinic'
loop_
_space_group_symop_operation_xyz
x,y,z
-x,-y,-z
loop_
_atom_site_type_symbol
_atom_site_label
_atom_site_fract_x
_atom_site_fract_y
_atom_site_fract_z
Si Si1 0.052126 0.529611 0.383313
Si Si2 0.745580 0.926729 0.015629
Si Si3 0.684106 0.245511 0.221294
Si Si4 0.613378 0.253750 0.898505
Si Si5 0.797302 0.405958 0.803182
Si Si6 0.199336 0.641139 0.899309
O O1 0.357919 0.447726 0.189513
O O2 0.038480 0.654824 0.424937
O O3 0.859485 0.687269 0.696874
O O4 0.933363 0.335315 0.225479
O O5 0.516058 0.933499 0.203328
O O6 0.652509 0.056910 0.104333
O O7 0.000000 0.000000 0.000000
O O8 0.422873 0.430396 0.554850
O O9 0.744621 0.210795 0.055482
O O10 0.754766 0.295655 0.961655
O O11 0.794888 0.239000 0.711353
O O12 0.915542 0.584843 0.967548
O O13 0.500000 0.500000 0.000000
#
# Coordination Sequence:
#
# PCOD9102211 Si02
#       6
#     2   2   2   2   2   2
#     4  10  20  41  63  87 122 159 197 245 295 351
#     4  12  22  35  65  93 120 155 203 245 291 354
#     4  10  21  38  60  93 120 156 197 247 300 346
#     4  11  20  37  63  91 121 157 200 243 296 351
#     4   9  21  39  64  83 118 165 197 239 304 359
#     4  10  20  38  62  88 123 154 199 250 294 351
#
# _framework density 23.439747000000001
#
# number of rings (size 3 to 8) (size 9 to 14) (size 15 to 20)
#    0.000    1.667    3.333    2.000    0.000    0.667 
#    0.000    1.667    7.333    0.000    0.000    0.000 
#    0.000    0.000    0.000    0.000    0.000    0.000 
#
# Total GULP energy -67005.525186 kJ/mol
# GULP energy per Si atom -5583.793766 kJ/mol
# Density = 2.338640 g / cm^3
# Si number density = 23.439747 Si / 1000 Ang^3
#
#
#
# Elastic Constant Matrix: (Units=GPa)
#
#
# Indices 1 2 3 4 5 6 
#
# 1 146.6686 57.9295 -3.8827 -5.1547 3.9502 0.5046
# 2 57.9295 198.0887 2.0368 0.0277 8.1940 -37.4687
# 3 -3.8827 2.0368 13.8925 3.7336 1.2011 -7.1321
# 4 -5.1547 0.0277 3.7336 23.9404 -8.4362 -4.5824
# 5 3.9502 8.1940 1.2011 -8.4362 22.4879 -5.6204
# 6 0.5046 -37.4687 -7.1321 -4.5824 -5.6204 58.0539
#
#
#
# Elastic Compliance Matrix: (Units=1/GPa)
#
#
# Indices 1 2 3 4 5 6 
#
# 1 0.007944 -0.002607 0.001601 0.000978 -0.000547 -0.001531
# 2 -0.002607 0.006656 0.000636 -0.000203 -0.001007 0.004283
# 3 0.001601 0.000636 0.080982 -0.013370 -0.007719 0.008543
# 4 0.000978 -0.000203 -0.013370 0.052456 0.021402 0.004430
# 5 -0.000547 -0.001007 -0.007719 0.021402 0.054721 0.005394
# 6 -0.001531 0.004283 0.008543 0.004430 0.005394 0.021924
#
#
# Mechanical properties :
#
#
# Convention : Reuss Voigt Hill
#
# Bulk Modulus (GPa) = 10.54372 52.31300 31.42836
# Shear Modulus (GPa) = 19.45247 41.06750 30.25999
#
# Velocity S-wave (km/s) = 2.88391 4.19029 3.59690
# Velocity P-wave (km/s) = 3.94933 6.76593 5.53963
#
# Compressibility (1/GPa) = 0.09484317
#
# Stress axis : x y z
#
# Youngs Moduli (GPa) = 125.87413 150.24353 12.34845
#
# Poissons Ratio (x) = 0.39165 -0.01977
# Poissons Ratio (y) = 0.32813 -0.00785
# Poissons Ratio (z) = -0.20155 -0.09557
#
# Static dielectric constant tensor:
#      x y z
#    x 1.945730 -0.010600 -0.036000 
#    y -0.010600 1.972420 -0.004440 
#    z -0.036000 -0.004440 1.829510 
# 
# From -- ./inp_files/32952.got.cif
#   From: 2010.05.17/outbox.cif.g08.bks.cpg/sg2_17_cif.got.tgz:32952.got - 2010.06.03 11:33:40.
