data_PCOD9102011
_publ_section_title
;
Structure prediction by ZEFSAII (Michael W. Deem and Ramdas Pophale) SiO2 
 PCOD9102011
Probable space group: P -1
;
_chemical_formula_sum "Si O2"
_cell_formula_units_Z 16
_cell_length_a 14.176812
_cell_length_b 8.214181
_cell_length_c 7.598360
_cell_angle_alpha 124.589183
_cell_angle_beta 87.036497
_cell_angle_gamma 108.500847
_cell_volume 681.376562
_symmetry_space_group_name_H-M "P -1"
_symmetry_group_IT_number 2
_symmetry_cell_setting 'triclinic'
loop_
_space_group_symop_operation_xyz
x,y,z
-x,-y,-z
loop_
_atom_site_type_symbol
_atom_site_label
_atom_site_fract_x
_atom_site_fract_y
_atom_site_fract_z
Si Si1 0.052299 0.215224 0.524044
Si Si2 0.261233 0.003782 0.100427
Si Si3 0.154341 0.716506 0.441975
Si Si4 0.658568 0.972826 0.503425
Si Si5 0.114382 0.594932 0.983364
Si Si6 0.514509 0.146306 0.798344
Si Si7 0.601846 0.252865 0.215668
Si Si8 0.232635 0.374918 0.384607
O O1 0.133824 0.196085 0.369046
O O2 0.956773 0.277816 0.509275
O O3 0.123814 0.403178 0.755415
O O4 0.000000 0.000000 0.500000
O O5 0.303898 0.077457 0.341222
O O6 0.264271 0.224932 0.154419
O O7 0.154042 0.809439 0.999961
O O8 0.330759 0.886578 0.936920
O O9 0.167473 0.656219 0.201419
O O10 0.180425 0.541574 0.437566
O O11 0.244362 0.939760 0.579628
O O12 0.569151 0.818407 0.297641
O O13 0.609397 0.149970 0.672584
O O14 0.000000 0.500000 0.000000
O O15 0.470837 0.902832 0.729368
O O16 0.546165 0.276445 0.055585
O O17 0.671298 0.474395 0.424486
#
# Coordination Sequence:
#
# PCOD9102011 Si02
#       8
#     2   2   2   2   2   2   2   2
#     4  11  22  40  63  91 122 162 202 246 300 364
#     4  10  21  38  60  85 125 162 198 249 299 355
#     4  10  21  37  60  90 124 159 202 249 300 359
#     4   9  17  36  63  88 117 161 203 249 305 357
#     4   9  18  37  57  82 116 155 197 241 291 350
#     4   9  18  35  65  86 118 164 199 254 313 346
#     4  10  20  38  61  91 121 159 204 252 305 357
#     4  12  22  39  61  92 126 161 202 248 301 357
#
# _framework density 23.481877000000001
#
# number of rings (size 3 to 8) (size 9 to 14) (size 15 to 20)
#    0.000    2.000    2.500    2.625    0.000    0.000 
#    2.250    9.375    0.000    0.000    0.000    0.000 
#    0.000    0.000    0.000    0.000    0.000    0.000 
#
# Total GULP energy -89113.139936 kJ/mol
# GULP energy per Si atom -5569.571246 kJ/mol
# Density = 2.342843 g / cm^3
# Si number density = 23.481877 Si / 1000 Ang^3
#
#
#
# Elastic Constant Matrix: (Units=GPa)
#
#
# Indices 1 2 3 4 5 6 
#
# 1 83.6215 10.9499 21.5433 14.9375 19.0315 15.3022
# 2 10.9499 37.6012 19.6025 20.1389 3.3790 6.3680
# 3 21.5433 19.6025 83.4471 25.9615 4.8149 -5.9158
# 4 14.9375 20.1389 25.9615 33.8412 -0.6345 1.0070
# 5 19.0315 3.3790 4.8149 -0.6345 27.5552 1.1431
# 6 15.3022 6.3680 -5.9158 1.0070 1.1431 33.7676
#
#
#
# Elastic Compliance Matrix: (Units=1/GPa)
#
#
# Indices 1 2 3 4 5 6 
#
# 1 0.017957 0.002717 -0.002922 -0.007273 -0.012038 -0.008537
# 2 0.002717 0.042382 -0.003589 -0.023526 -0.006618 -0.008927
# 3 -0.002922 -0.003589 0.017080 -0.009854 -0.000974 0.005320
# 4 -0.007273 -0.023526 -0.009854 0.054401 0.010716 0.004021
# 5 -0.012038 -0.006618 -0.000974 0.010716 0.045640 0.004668
# 6 -0.008537 -0.008927 0.005320 0.004021 0.004668 0.035821
#
#
# Mechanical properties :
#
#
# Convention : Reuss Voigt Hill
#
# Bulk Modulus (GPa) = 14.32033 34.31791 24.31912
# Shear Modulus (GPa) = 20.47958 29.20438 24.84198
#
# Velocity S-wave (km/s) = 2.95641 3.53044 3.25610
# Velocity P-wave (km/s) = 4.21492 5.59151 4.95129
#
# Compressibility (1/GPa) = 0.06983078
#
# Stress axis : x y z
#
# Youngs Moduli (GPa) = 55.68872 23.59518 58.54720
#
# Poissons Ratio (x) = -0.06411 0.17108
# Poissons Ratio (y) = -0.15132 0.21014
# Poissons Ratio (z) = 0.16272 0.08469
#
# Static dielectric constant tensor:
#      x y z
#    x 1.948520 0.018440 0.026840 
#    y 0.018440 1.999000 -0.073460 
#    z 0.026840 -0.073460 1.979440 
# 
# From -- ./inp_files/197007.got.cif
#   From: 2010.05.17/outbox.cif.g08.bks.cpg/sg2_99_cif.got.tgz:197007.got - 2010.06.03 11:33:40.
