data_PCOD9102075
_publ_section_title
;
Structure prediction by ZEFSAII (Michael W. Deem and Ramdas Pophale) SiO2 
 PCOD9102075
Probable space group: P -1
;
_chemical_formula_sum "Si O2"
_cell_formula_units_Z 14
_cell_length_a 5.349673
_cell_length_b 11.908092
_cell_length_c 14.423239
_cell_angle_alpha 121.435399
_cell_angle_beta 127.394853
_cell_angle_gamma 82.211145
_cell_volume 600.170502
_symmetry_space_group_name_H-M "P -1"
_symmetry_group_IT_number 2
_symmetry_cell_setting 'triclinic'
loop_
_space_group_symop_operation_xyz
x,y,z
-x,-y,-z
loop_
_atom_site_type_symbol
_atom_site_label
_atom_site_fract_x
_atom_site_fract_y
_atom_site_fract_z
Si Si1 0.054800 0.659039 0.066593
Si Si2 0.699835 0.844500 0.989837
Si Si3 0.608379 0.228072 0.624361
Si Si4 0.838100 0.130764 0.452251
Si Si5 0.582535 0.565270 0.447342
Si Si6 0.282015 0.711899 0.673641
Si Si7 0.575365 0.109353 0.860857
O O1 0.161742 0.741859 0.221689
O O2 0.337238 0.734447 0.089941
O O3 0.741251 0.698402 0.972255
O O4 0.000000 0.500000 0.000000
O O5 0.529764 0.898712 0.059707
O O6 0.076765 0.925576 0.091929
O O7 0.498913 0.816315 0.838426
O O8 0.708801 0.132852 0.528502
O O9 0.647994 0.372275 0.640952
O O10 0.231253 0.178050 0.552173
O O11 0.684875 0.234235 0.401197
O O12 0.694352 0.988435 0.306011
O O13 0.500000 0.500000 0.500000
O O14 0.664333 0.436822 0.359614
O O15 0.898949 0.689684 0.591478
#
# Coordination Sequence:
#
# PCOD9102075 Si02
#       7
#     2   2   2   2   2   2   2
#     4  10  25  46  65  96 129 167 213 258 319 379
#     4  10  24  42  64  94 123 172 205 259 318 369
#     4  11  24  40  70  94 127 169 208 268 312 371
#     4  11  24  43  65  97 126 166 217 259 319 369
#     4  10  20  38  61  96 126 165 211 258 320 364
#     4  10  22  38  63  93 132 163 210 266 310 382
#     4  10  25  44  62  97 126 170 213 256 317 376
#
# _framework density 23.326705
#
# number of rings (size 3 to 8) (size 9 to 14) (size 15 to 20)
#    0.857    0.857    1.429    1.714    4.000    2.857 
#    0.000    0.000    0.000    0.000    0.000    0.000 
#    0.000    0.000    0.000    0.000    0.000    0.000 
#
# Total GULP energy -78155.501871 kJ/mol
# GULP energy per Si atom -5582.535848 kJ/mol
# Density = 2.327361 g / cm^3
# Si number density = 23.326705 Si / 1000 Ang^3
#
#
#
# Elastic Constant Matrix: (Units=GPa)
#
#
# Indices 1 2 3 4 5 6 
#
# 1 124.0692 -6.6908 44.0395 -6.3713 -18.5680 11.2539
# 2 -6.6908 71.4676 9.3243 -4.2488 15.4556 -4.2199
# 3 44.0395 9.3243 126.4699 -13.9713 -10.2066 7.0629
# 4 -6.3713 -4.2488 -13.9713 38.5550 11.2212 -3.9305
# 5 -18.5680 15.4556 -10.2066 11.2212 20.3828 2.6578
# 6 11.2539 -4.2199 7.0629 -3.9305 2.6578 19.7971
#
#
#
# Elastic Compliance Matrix: (Units=1/GPa)
#
#
# Indices 1 2 3 4 5 6 
#
# 1 0.011726 -0.002648 -0.002667 -0.004665 0.015127 -0.009236
# 2 -0.002648 0.021219 -0.002392 0.010142 -0.026915 0.012509
# 3 -0.002667 -0.002392 0.009621 0.001415 0.003769 -0.002652
# 4 -0.004665 0.010142 0.001415 0.038570 -0.034632 0.016616
# 5 0.015127 -0.026915 0.003769 -0.034632 0.109053 -0.037197
# 6 -0.009236 0.012509 -0.002652 0.016616 -0.037197 0.067668
#
#
# Mechanical properties :
#
#
# Convention : Reuss Voigt Hill
#
# Bulk Modulus (GPa) = 36.83214 46.15033 41.49124
# Shear Modulus (GPa) = 17.71035 34.10256 25.90646
#
# Velocity S-wave (km/s) = 2.75840 3.82770 3.33617
# Velocity P-wave (km/s) = 5.09598 6.27394 5.71539
#
# Compressibility (1/GPa) = 0.02715020
#
# Stress axis : x y z
#
# Youngs Moduli (GPa) = 85.28178 47.12825 103.94421
#
# Poissons Ratio (x) = 0.12481 0.27718
# Poissons Ratio (y) = 0.22585 0.24868
# Poissons Ratio (z) = 0.22742 0.11275
#
# Static dielectric constant tensor:
#      x y z
#    x 1.917640 -0.009990 -0.012350 
#    y -0.009990 2.035730 -0.006070 
#    z -0.012350 -0.006070 1.825840 
# 
# From -- ./inp_files/65441.got.cif
#   From: 2010.05.17/outbox.cif.g08.bks.cpg/sg2_33_cif.got.tgz:65441.got - 2010.06.03 11:33:40.
