data_PCOD9102156
_publ_section_title
;
Structure prediction by ZEFSAII (Michael W. Deem and Ramdas Pophale) SiO2 
 PCOD9102156
Probable space group: P -1
;
_chemical_formula_sum "Si O2"
_cell_formula_units_Z 16
_cell_length_a 10.014412
_cell_length_b 19.391919
_cell_length_c 9.727863
_cell_angle_alpha 35.366077
_cell_angle_beta 107.686728
_cell_angle_gamma 132.630434
_cell_volume 653.328041
_symmetry_space_group_name_H-M "P -1"
_symmetry_group_IT_number 2
_symmetry_cell_setting 'triclinic'
loop_
_space_group_symop_operation_xyz
x,y,z
-x,-y,-z
loop_
_atom_site_type_symbol
_atom_site_label
_atom_site_fract_x
_atom_site_fract_y
_atom_site_fract_z
Si Si1 0.339572 0.521363 0.881867
Si Si2 0.147872 0.100217 0.020074
Si Si3 0.387661 0.565579 0.506460
Si Si4 0.755364 0.098045 0.610957
Si Si5 0.027463 0.338964 0.554399
Si Si6 0.300268 0.792859 0.105341
Si Si7 0.911064 0.363713 0.986142
Si Si8 0.161551 0.143339 0.443889
O O1 0.393007 0.529917 0.724191
O O2 0.571982 0.706118 0.729299
O O3 0.171370 0.519378 0.846357
O O4 0.193191 0.306600 0.224335
O O5 0.249114 0.042100 0.207862
O O6 0.379828 0.307639 0.700126
O O7 0.958957 0.005316 0.227956
O O8 0.000000 0.000000 0.000000
O O9 0.335338 0.673472 0.324385
O O10 0.192157 0.388578 0.634491
O O11 0.950960 0.224095 0.580581
O O12 0.784777 0.207453 0.317047
O O13 0.537786 0.992418 0.800324
O O14 0.812286 0.233159 0.750554
O O15 0.144388 0.535010 0.211470
O O16 0.134663 0.713733 0.055842
O O17 0.000000 0.000000 0.500000
#
# Coordination Sequence:
#
# PCOD9102156 Si02
#       8
#     2   2   2   2   2   2   2   2
#     4  11  21  44  70  89 131 167 207 268 326 364
#     4  11  23  43  63  86 128 164 212 270 317 368
#     4  10  20  39  65  89 123 173 201 258 325 373
#     4  11  24  37  58  93 128 164 206 267 318 366
#     4  11  21  38  61  95 124 162 217 250 310 396
#     4  10  20  38  62  86 128 165 209 248 314 382
#     4  11  20  40  62  88 127 170 202 256 325 379
#     4  11  26  45  67  96 122 167 223 265 318 380
#
# _framework density 24.489993999999999
#
# number of rings (size 3 to 8) (size 9 to 14) (size 15 to 20)
#    0.000    1.250    5.000    1.875    0.000    2.000 
#    2.250    1.250    0.000    0.000    0.000    0.000 
#    0.000    0.000    0.000    0.000    0.000    0.000 
#
# Total GULP energy -89300.282945 kJ/mol
# GULP energy per Si atom -5581.267684 kJ/mol
# Density = 2.443425 g / cm^3
# Si number density = 24.489994 Si / 1000 Ang^3
#
#
#
# Elastic Constant Matrix: (Units=GPa)
#
#
# Indices 1 2 3 4 5 6 
#
# 1 50.1352 5.2889 23.3821 -3.5669 -4.7347 10.3832
# 2 5.2889 107.5220 22.3645 -2.6448 -6.3591 19.9716
# 3 23.3821 22.3645 144.7166 13.2674 -10.6966 2.1090
# 4 -3.5669 -2.6448 13.2674 37.9323 6.7097 -14.3869
# 5 -4.7347 -6.3591 -10.6966 6.7097 22.6510 -2.5333
# 6 10.3832 19.9716 2.1090 -14.3869 -2.5333 28.9553
#
#
#
# Elastic Compliance Matrix: (Units=1/GPa)
#
#
# Indices 1 2 3 4 5 6 
#
# 1 0.023632 0.001451 -0.003681 -0.000329 0.002685 -0.009135
# 2 0.001451 0.011336 -0.001432 -0.002536 0.002524 -0.009274
# 3 -0.003681 -0.001432 0.008396 -0.004085 0.004006 0.000017
# 4 -0.000329 -0.002536 -0.004085 0.037036 -0.011493 0.019561
# 5 0.002685 0.002524 0.004006 -0.011493 0.050232 -0.004311
# 6 -0.009135 -0.009274 0.000017 0.019561 -0.004311 0.053550
#
#
# Mechanical properties :
#
#
# Convention : Reuss Voigt Hill
#
# Bulk Modulus (GPa) = 27.74671 44.93831 36.34251
# Shear Modulus (GPa) = 24.56766 34.66359 29.61562
#
# Velocity S-wave (km/s) = 3.17072 3.76629 3.48126
# Velocity P-wave (km/s) = 4.97585 6.10759 5.57054
#
# Compressibility (1/GPa) = 0.03604031
#
# Stress axis : x y z
#
# Youngs Moduli (GPa) = 42.31600 88.21076 119.09891
#
# Poissons Ratio (x) = -0.12796 0.43837
# Poissons Ratio (y) = -0.06139 0.17056
# Poissons Ratio (z) = 0.15575 0.12633
#
# Static dielectric constant tensor:
#      x y z
#    x 2.022460 0.000140 0.075240 
#    y 0.000140 2.091310 -0.012010 
#    z 0.075240 -0.012010 1.993950 
# 
# From -- ./inp_files/225721.got.cif
#   From: 2010.05.17/outbox.cif.g08.bks.cpg/sg2_113_cif.got.tgz:225721.got - 2010.06.03 11:33:40.
