data_PCOD9102954
_publ_section_title
;
Structure prediction by ZEFSAII (Michael W. Deem and Ramdas Pophale) SiO2 
 PCOD9102954
Probable space group: P -1
;
_chemical_formula_sum "Si O2"
_cell_formula_units_Z 16
_cell_length_a 18.480022
_cell_length_b 11.095403
_cell_length_c 9.295672
_cell_angle_alpha 127.418289
_cell_angle_beta 127.915937
_cell_angle_gamma 31.406135
_cell_volume 767.373376
_symmetry_space_group_name_H-M "P -1"
_symmetry_group_IT_number 2
_symmetry_cell_setting 'triclinic'
loop_
_space_group_symop_operation_xyz
x,y,z
-x,-y,-z
loop_
_atom_site_type_symbol
_atom_site_label
_atom_site_fract_x
_atom_site_fract_y
_atom_site_fract_z
Si Si1 0.637736 0.381701 0.668612
Si Si2 0.608326 0.471029 0.029793
Si Si3 0.613139 0.816225 0.213224
Si Si4 0.087192 0.633368 0.316517
Si Si5 0.312917 0.333300 0.134863
Si Si6 0.108976 0.467278 0.523848
Si Si7 0.874584 0.107752 0.289250
Si Si8 0.955647 0.960097 0.776931
O O1 0.500000 0.500000 0.500000
O O2 0.671486 0.505858 0.740519
O O3 0.794255 0.104366 0.667723
O O4 0.596821 0.444821 0.830426
O O5 0.596500 0.669494 0.156392
O O6 0.755894 0.242149 0.121648
O O7 0.500000 0.500000 0.000000
O O8 0.725526 0.769401 0.410018
O O9 0.456569 0.084589 0.200695
O O10 0.681813 0.723206 0.067933
O O11 0.177042 0.467641 0.166876
O O12 0.088762 0.510503 0.359256
O O13 0.156450 0.703087 0.516373
O O14 0.923723 0.894385 0.276330
O O15 0.000000 0.500000 0.500000
O O16 0.069128 0.682740 0.696279
O O17 0.016882 0.967795 0.272924
O O18 0.000000 0.000000 0.000000
#
# Coordination Sequence:
#
# PCOD9102954 Si02
#       8
#     2   2   2   2   2   2   2   2
#     4  11  24  36  63 102 126 164 222 276 317 379
#     4  11  23  41  63  91 132 167 212 270 329 386
#     4  10  22  45  63  88 131 173 210 260 332 396
#     4  10  21  39  67  91 121 163 217 268 317 382
#     4  10  22  41  67  88 124 176 210 260 329 391
#     4  11  25  42  63  96 133 167 212 271 330 392
#     4  10  20  38  64  94 119 165 218 272 318 378
#     4  11  19  41  71  89 123 177 221 262 327 392
#
# _framework density 20.850345999999998
#
# number of rings (size 3 to 8) (size 9 to 14) (size 15 to 20)
#    0.000    1.500    5.000    0.750    3.500    0.500 
#    6.750    0.625    0.000    0.000    0.000    0.000 
#    0.000    0.000    0.000    0.000    0.000    0.000 
#
# Total GULP energy -89174.432962 kJ/mol
# GULP energy per Si atom -5573.402060 kJ/mol
# Density = 2.080289 g / cm^3
# Si number density = 20.850346 Si / 1000 Ang^3
#
#
#
# Elastic Constant Matrix: (Units=GPa)
#
#
# Indices 1 2 3 4 5 6 
#
# 1 121.8241 27.4597 14.8021 -11.3541 -25.6544 -2.6764
# 2 27.4597 101.2312 19.0196 -26.9368 -6.6321 4.8945
# 3 14.8021 19.0196 54.3117 -21.0304 -12.2452 1.0336
# 4 -11.3541 -26.9368 -21.0304 39.9415 -3.8053 -8.8805
# 5 -25.6544 -6.6321 -12.2452 -3.8053 20.3082 -7.8233
# 6 -2.6764 4.8945 1.0336 -8.8805 -7.8233 25.9862
#
#
#
# Elastic Compliance Matrix: (Units=1/GPa)
#
#
# Indices 1 2 3 4 5 6 
#
# 1 0.017624 -0.000113 0.011480 0.019331 0.040549 0.020194
# 2 -0.000113 0.013002 0.001861 0.011476 0.008948 0.004081
# 3 0.011480 0.001861 0.043125 0.039874 0.060511 0.030960
# 4 0.019331 0.011476 0.039874 0.078952 0.086786 0.051352
# 5 0.040549 0.008948 0.060511 0.086786 0.189580 0.086816
# 6 0.020194 0.004081 0.030960 0.051352 0.086816 0.082247
#
#
# Mechanical properties :
#
#
# Convention : Reuss Voigt Hill
#
# Bulk Modulus (GPa) = 9.97945 44.43668 27.20806
# Shear Modulus (GPa) = 11.58811 31.65290 21.62051
#
# Velocity S-wave (km/s) = 2.36005 3.90051 3.22364
# Velocity P-wave (km/s) = 3.49615 6.45320 5.18974
#
# Compressibility (1/GPa) = 0.10020594
#
# Stress axis : x y z
#
# Youngs Moduli (GPa) = 56.74174 76.91094 23.18828
#
# Poissons Ratio (x) = 0.00872 -0.26620
# Poissons Ratio (y) = 0.00643 -0.04315
# Poissons Ratio (z) = -0.65138 -0.14314
#
# Static dielectric constant tensor:
#      x y z
#    x 1.793270 0.022300 -0.016400 
#    y 0.022300 1.825420 -0.037980 
#    z -0.016400 -0.037980 1.820240 
# 
# From -- ./inp_files/332385.got.cif
#   From: 2010.05.17/outbox.cif.g08.bks.cpg/sg2_167_cif.got.tgz:332385.got - 2010.06.03 11:33:40.
