data_PCOD9102216
_publ_section_title
;
Structure prediction by ZEFSAII (Michael W. Deem and Ramdas Pophale) SiO2 
 PCOD9102216
Probable space group: P -1
;
_chemical_formula_sum "Si O2"
_cell_formula_units_Z 14
_cell_length_a 6.403478
_cell_length_b 15.130983
_cell_length_c 14.393314
_cell_angle_alpha 28.626429
_cell_angle_beta 94.219955
_cell_angle_gamma 105.875242
_cell_volume 599.231174
_symmetry_space_group_name_H-M "P -1"
_symmetry_group_IT_number 2
_symmetry_cell_setting 'triclinic'
loop_
_space_group_symop_operation_xyz
x,y,z
-x,-y,-z
loop_
_atom_site_type_symbol
_atom_site_label
_atom_site_fract_x
_atom_site_fract_y
_atom_site_fract_z
Si Si1 0.391327 0.404930 0.414126
Si Si2 0.699160 0.237634 0.659805
Si Si3 0.885415 0.090688 0.628432
Si Si4 0.853048 0.343999 0.752767
Si Si5 0.785764 0.056489 0.447244
Si Si6 0.632365 0.366766 0.167815
Si Si7 0.848800 0.653783 0.074377
O O1 0.463329 0.258870 0.615142
O O2 0.331611 0.563300 0.325137
O O3 0.608385 0.532215 0.236780
O O4 0.150525 0.264093 0.484677
O O5 0.752930 0.180950 0.816546
O O6 0.901863 0.469995 0.440774
O O7 0.745416 0.119695 0.684669
O O8 0.783308 0.099257 0.517775
O O9 0.870776 0.867483 0.842040
O O10 0.927501 0.292774 0.901847
O O11 0.764444 0.252320 0.219527
O O12 0.578475 0.841193 0.610049
O O13 0.000000 0.000000 0.500000
O O14 0.810296 0.507616 0.120589
O O15 0.500000 0.500000 0.000000
#
# Coordination Sequence:
#
# PCOD9102216 Si02
#       7
#     2   2   2   2   2   2   2
#     4  10  20  38  62  88 124 169 211 259 319 376
#     4   9  19  37  63  89 126 168 208 264 315 377
#     4  11  23  41  62  94 129 166 213 263 321 386
#     4   9  19  37  61  92 124 166 214 258 318 379
#     4  11  24  43  68  96 129 170 216 272 328 388
#     4  11  23  44  66  93 129 168 215 270 328 386
#     4  11  23  41  63  91 130 168 208 268 320 381
#
# _framework density 23.363271000000001
#
# number of rings (size 3 to 8) (size 9 to 14) (size 15 to 20)
#    0.000    1.714    1.429    3.857    0.000    4.571 
#    2.571    1.429    0.000    0.000    0.000    0.000 
#    0.000    0.000    0.000    0.000    0.000    0.000 
#
# Total GULP energy -78072.787750 kJ/mol
# GULP energy per Si atom -5576.627696 kJ/mol
# Density = 2.331010 g / cm^3
# Si number density = 23.363271 Si / 1000 Ang^3
#
#
#
# Elastic Constant Matrix: (Units=GPa)
#
#
# Indices 1 2 3 4 5 6 
#
# 1 58.4953 -43.3320 -1.5692 -6.5184 27.0549 -90.3419
# 2 -43.3320 12.2561 -6.3335 -10.3952 10.4965 -90.8036
# 3 -1.5692 -6.3335 63.8643 -9.0542 22.9464 -33.9713
# 4 -6.5184 -10.3952 -9.0542 13.2621 1.7449 4.1023
# 5 27.0549 10.4965 22.9464 1.7449 42.4003 -0.2824
# 6 -90.3419 -90.8036 -33.9713 4.1023 -0.2824 -74.8117
#
#
#
# Elastic Compliance Matrix: (Units=1/GPa)
#
#
# Indices 1 2 3 4 5 6 
#
# 1 0.008500 -0.003582 -0.001071 0.002807 -0.004108 -0.005261
# 2 -0.003582 0.011814 -0.002300 0.008533 0.000198 -0.008502
# 3 -0.001071 -0.002300 0.018647 0.012764 -0.009388 -0.003646
# 4 0.002807 0.008533 0.012764 0.098510 -0.014959 -0.014085
# 5 -0.004108 0.000198 -0.009388 -0.014959 0.031907 0.008043
# 6 -0.005261 -0.008502 -0.003646 -0.014085 0.008043 0.004160
#
#
# Mechanical properties :
#
#
# Convention : Reuss Voigt Hill
#
# Bulk Modulus (GPa) = 39.91329 3.57178 21.74253
# Shear Modulus (GPa) = 25.53681 8.56017 17.04849
#
# Velocity S-wave (km/s) = 3.30969 1.91622 2.70425
# Velocity P-wave (km/s) = 5.63261 2.53535 4.36774
#
# Compressibility (1/GPa) = 0.02505431
#
# Stress axis : x y z
#
# Youngs Moduli (GPa) = 117.64365 84.64351 53.62858
#
# Poissons Ratio (x) = 0.30319 0.05744
# Poissons Ratio (y) = 0.42140 0.12337
# Poissons Ratio (z) = 0.12601 0.19472
#
# Static dielectric constant tensor:
#      x y z
#    x 1.971110 -0.026940 0.019050 
#    y -0.026940 1.972920 0.061670 
#    z 0.019050 0.061670 1.953630 
# 
# From -- ./inp_files/43186.got.cif
#   From: 2010.05.17/outbox.cif.g08.bks.cpg/sg2_22_cif.got.tgz:43186.got - 2010.06.03 11:33:40.
