data_PCOD9102221
_publ_section_title
;
Structure prediction by ZEFSAII (Michael W. Deem and Ramdas Pophale) SiO2 
 PCOD9102221
Probable space group: P -1
;
_chemical_formula_sum "Si O2"
_cell_formula_units_Z 16
_cell_length_a 16.950240
_cell_length_b 9.689061
_cell_length_c 5.139487
_cell_angle_alpha 58.667823
_cell_angle_beta 62.630198
_cell_angle_gamma 73.152991
_cell_volume 638.832307
_symmetry_space_group_name_H-M "P -1"
_symmetry_group_IT_number 2
_symmetry_cell_setting 'triclinic'
loop_
_space_group_symop_operation_xyz
x,y,z
-x,-y,-z
loop_
_atom_site_type_symbol
_atom_site_label
_atom_site_fract_x
_atom_site_fract_y
_atom_site_fract_z
Si Si1 0.188701 0.474597 0.694653
Si Si2 0.971661 0.623062 0.651708
Si Si3 0.946174 0.066268 0.764249
Si Si4 0.436483 0.018010 0.823444
Si Si5 0.675172 0.737420 0.968395
Si Si6 0.821088 0.827275 0.376359
Si Si7 0.417992 0.537985 0.786152
Si Si8 0.660555 0.297894 0.754784
O O1 0.192075 0.335168 0.608295
O O2 0.243325 0.632121 0.391006
O O3 0.086291 0.472205 0.956289
O O4 0.250529 0.390892 0.907259
O O5 0.896986 0.761050 0.528695
O O6 0.000000 0.500000 0.500000
O O7 0.052985 0.740362 0.447917
O O8 0.000000 0.000000 0.500000
O O9 0.855646 0.974398 0.014655
O O10 0.000000 0.000000 0.000000
O O11 0.500000 0.000000 0.500000
O O12 0.362382 0.887935 0.029618
O O13 0.500000 0.000000 0.000000
O O14 0.384987 0.190702 0.779736
O O15 0.728861 0.873144 0.615007
O O16 0.618134 0.639221 0.954480
O O17 0.500000 0.500000 0.500000
O O18 0.357742 0.650239 0.568611
O O19 0.409079 0.618518 0.005876
#
# Coordination Sequence:
#
# PCOD9102221 Si02
#       8
#     2   2   2   2   2   2   2   2
#     4  10  21  40  64  90 126 164 212 255 308 380
#     4  10  22  39  62  96 128 162 210 263 311 364
#     4  10  20  38  62  88 126 169 208 251 305 374
#     4  12  27  45  63  94 132 164 207 268 320 366
#     4  10  23  39  64  89 123 167 210 256 311 377
#     4  10  20  40  64  88 126 167 211 254 310 378
#     4  11  21  38  63  91 118 162 211 253 306 377
#     4  11  23  40  62  90 126 161 204 261 314 364
#
# _framework density 25.045697000000001
#
# number of rings (size 3 to 8) (size 9 to 14) (size 15 to 20)
#    0.000    1.500    2.500    2.625    1.750    2.500 
#    0.000    1.250    0.000    0.000    0.000    0.000 
#    0.000    0.000    0.000    0.000    0.000    0.000 
#
# Total GULP energy -89270.348785 kJ/mol
# GULP energy per Si atom -5579.396799 kJ/mol
# Density = 2.498869 g / cm^3
# Si number density = 25.045697 Si / 1000 Ang^3
#
#
#
# Elastic Constant Matrix: (Units=GPa)
#
#
# Indices 1 2 3 4 5 6 
#
# 1 60.1181 6.8287 33.4662 -4.4895 -17.6803 10.9755
# 2 6.8287 101.3748 35.0489 1.3886 -5.6202 23.9089
# 3 33.4662 35.0489 153.4798 -0.1550 -7.6706 7.9635
# 4 -4.4895 1.3886 -0.1550 61.0475 11.4081 -7.6621
# 5 -17.6803 -5.6202 -7.6706 11.4081 44.9199 6.0624
# 6 10.9755 23.9089 7.9635 -7.6621 6.0624 36.5288
#
#
#
# Elastic Compliance Matrix: (Units=1/GPa)
#
#
# Indices 1 2 3 4 5 6 
#
# 1 0.023908 0.003115 -0.004854 -0.001631 0.010775 -0.010295
# 2 0.003115 0.013363 -0.002988 -0.002169 0.004316 -0.010202
# 3 -0.004854 -0.002988 0.008098 0.000194 -0.001206 0.001889
# 4 -0.001631 -0.002169 0.000194 0.018371 -0.006462 0.006793
# 5 0.010775 0.004316 -0.001206 -0.006462 0.030118 -0.012153
# 6 -0.010295 -0.010202 0.001889 0.006793 -0.012153 0.040176
#
#
# Mechanical properties :
#
#
# Convention : Reuss Voigt Hill
#
# Bulk Modulus (GPa) = 27.84238 51.74003 39.79120
# Shear Modulus (GPa) = 32.16269 44.47448 38.31859
#
# Velocity S-wave (km/s) = 3.58741 4.21852 3.91570
# Velocity P-wave (km/s) = 5.31978 6.66565 6.03038
#
# Compressibility (1/GPa) = 0.03591647
#
# Stress axis : x y z
#
# Youngs Moduli (GPa) = 41.82628 74.83526 123.48597
#
# Poissons Ratio (x) = -0.23313 0.59935
# Poissons Ratio (y) = -0.13030 0.36897
# Poissons Ratio (z) = 0.20301 0.22360
#
# Static dielectric constant tensor:
#      x y z
#    x 2.164230 -0.014080 -0.049580 
#    y -0.014080 2.038600 -0.172240 
#    z -0.049580 -0.172240 2.170880 
# 
# From -- ./inp_files/38488.got.cif
#   From: 2010.05.17/outbox.cif.g08.bks.cpg/sg2_20_cif.got.tgz:38488.got - 2010.06.03 11:33:40.
