data_PCOD9102619
_publ_section_title
;
Structure prediction by ZEFSAII (Michael W. Deem and Ramdas Pophale) SiO2 
 PCOD9102619
Probable space group: P -1
;
_chemical_formula_sum "Si O2"
_cell_formula_units_Z 14
_cell_length_a 5.320985
_cell_length_b 16.803597
_cell_length_c 14.722562
_cell_angle_alpha 154.880425
_cell_angle_beta 94.858315
_cell_angle_gamma 86.531375
_cell_volume 556.395023
_symmetry_space_group_name_H-M "P -1"
_symmetry_group_IT_number 2
_symmetry_cell_setting 'triclinic'
loop_
_space_group_symop_operation_xyz
x,y,z
-x,-y,-z
loop_
_atom_site_type_symbol
_atom_site_label
_atom_site_fract_x
_atom_site_fract_y
_atom_site_fract_z
Si Si1 0.895835 0.472292 0.314483
Si Si2 0.509356 0.161475 0.746362
Si Si3 0.560630 0.898809 0.644824
Si Si4 0.225005 0.906360 0.967687
Si Si5 0.997244 0.231208 0.746851
Si Si6 0.036801 0.670379 0.358143
Si Si7 0.573697 0.360482 0.435903
O O1 0.969618 0.484618 0.223263
O O2 0.882750 0.274451 0.162082
O O3 0.635872 0.580400 0.435574
O O4 0.134152 0.593335 0.485234
O O5 0.508449 0.067995 0.748163
O O6 0.267776 0.282617 0.849810
O O7 0.764967 0.272512 0.845840
O O8 0.500000 0.000000 0.500000
O O9 0.414529 0.826246 0.816192
O O10 0.804198 0.802194 0.511482
O O11 0.638133 0.972756 0.823138
O O12 0.697487 0.229506 0.497911
O O13 0.000000 0.000000 0.000000
O O14 0.957801 0.323237 0.743491
O O15 0.000000 0.000000 0.500000
O O16 0.500000 0.500000 0.500000
#
# Coordination Sequence:
#
# PCOD9102619 Si02
#       7
#     2   2   2   2   2   2   2
#     4  11  25  45  69  91 130 178 228 265 328 403
#     4  10  16  32  57  91 126 162 210 264 311 382
#     4  12  23  37  64 102 129 164 220 281 324 375
#     4  11  26  47  69  97 136 176 221 283 339 384
#     4  10  16  32  57  88 126 161 211 262 307 375
#     4  12  22  37  63 100 126 169 221 269 317 398
#     4  10  22  46  69  87 123 182 222 265 326 404
#
# _framework density 25.161977
#
# number of rings (size 3 to 8) (size 9 to 14) (size 15 to 20)
#    0.000    1.143    5.714    3.429    0.000    4.571 
#    0.000   10.714    0.000    1.714    0.000    0.000 
#    0.000    0.000    0.000    0.000    0.000    0.143 
#
# Total GULP energy -78256.419103 kJ/mol
# GULP energy per Si atom -5589.744222 kJ/mol
# Density = 2.510471 g / cm^3
# Si number density = 25.161977 Si / 1000 Ang^3
#
#
#
# Elastic Constant Matrix: (Units=GPa)
#
#
# Indices 1 2 3 4 5 6 
#
# 1 220.1070 69.9649 43.1045 -8.0058 -0.9190 -3.0935
# 2 69.9649 238.7102 61.9121 -24.3779 0.3048 8.3683
# 3 43.1045 61.9121 96.4457 -13.5817 13.2607 -3.0032
# 4 -8.0058 -24.3779 -13.5817 38.0375 -8.9522 -6.5943
# 5 -0.9190 0.3048 13.2607 -8.9522 25.2403 -7.1514
# 6 -3.0935 8.3683 -3.0032 -6.5943 -7.1514 54.4205
#
#
#
# Elastic Compliance Matrix: (Units=1/GPa)
#
#
# Indices 1 2 3 4 5 6 
#
# 1 0.005259 -0.001075 -0.001805 0.000198 0.001385 0.000571
# 2 -0.001075 0.005590 -0.003059 0.002738 0.002344 -0.000450
# 3 -0.001805 -0.003059 0.014280 0.001175 -0.007007 0.000377
# 4 0.000198 0.002738 0.001175 0.032294 0.012279 0.005182
# 5 0.001385 0.002344 -0.007007 0.012279 0.049763 0.007359
# 6 0.000571 -0.000450 0.000377 0.005182 0.007359 0.020093
#
#
# Mechanical properties :
#
#
# Convention : Reuss Voigt Hill
#
# Bulk Modulus (GPa) = 75.46557 100.58065 88.02311
# Shear Modulus (GPa) = 34.82541 48.89177 41.85859
#
# Velocity S-wave (km/s) = 3.72432 4.41282 4.08311
# Velocity P-wave (km/s) = 6.96786 8.12552 7.56885
#
# Compressibility (1/GPa) = 0.01325108
#
# Stress axis : x y z
#
# Youngs Moduli (GPa) = 190.13348 178.89472 70.03017
#
# Poissons Ratio (x) = 0.19227 0.12643
# Poissons Ratio (y) = 0.20435 0.21420
# Poissons Ratio (z) = 0.34327 0.54719
#
# Static dielectric constant tensor:
#      x y z
#    x 2.111180 0.034030 0.049730 
#    y 0.034030 2.027960 -0.020650 
#    z 0.049730 -0.020650 1.773280 
# 
# From -- ./inp_files/366426.got.cif
#   From: 2010.05.17/outbox.cif.g08.bks.cpg/sg2_184_cif.got.tgz:366426.got - 2010.06.03 11:33:40.
