data_PCOD9102638
_publ_section_title
;
Structure prediction by ZEFSAII (Michael W. Deem and Ramdas Pophale) SiO2 
 PCOD9102638
Probable space group: P -1
;
_chemical_formula_sum "Si O2"
_cell_formula_units_Z 14
_cell_length_a 19.673943
_cell_length_b 5.716284
_cell_length_c 7.078632
_cell_angle_alpha 114.975167
_cell_angle_beta 110.024235
_cell_angle_gamma 109.966889
_cell_volume 556.758061
_symmetry_space_group_name_H-M "P -1"
_symmetry_group_IT_number 2
_symmetry_cell_setting 'triclinic'
loop_
_space_group_symop_operation_xyz
x,y,z
-x,-y,-z
loop_
_atom_site_type_symbol
_atom_site_label
_atom_site_fract_x
_atom_site_fract_y
_atom_site_fract_z
Si Si1 0.364986 0.666982 0.319284
Si Si2 0.788137 0.275123 0.879382
Si Si3 0.099819 0.242874 0.115455
Si Si4 0.195009 0.369781 0.644542
Si Si5 0.350324 0.435778 0.637297
Si Si6 0.499489 0.407067 0.683315
Si Si7 0.056122 0.861041 0.594755
O O1 0.369555 0.634141 0.535905
O O2 0.400945 0.496882 0.174809
O O3 0.433223 0.034340 0.479431
O O4 0.269323 0.581993 0.160714
O O5 0.812511 0.380912 0.155496
O O6 0.872228 0.454521 0.882344
O O7 0.722078 0.918650 0.629826
O O8 0.158346 0.344232 0.390914
O O9 0.106668 0.037712 0.894829
O O10 0.000000 0.000000 0.000000
O O11 0.296522 0.492853 0.755719
O O12 0.134072 0.024793 0.567721
O O13 0.445493 0.500116 0.792962
O O14 0.500000 0.500000 0.500000
O O15 0.000000 0.500000 0.500000
O O16 0.000000 0.000000 0.500000
#
# Coordination Sequence:
#
# PCOD9102638 Si02
#       7
#     2   2   2   2   2   2   2
#     4   9  16  36  60  93 128 166 212 266 325 399
#     4  10  23  40  61  94 129 168 225 271 335 405
#     4  11  23  43  66  92 129 175 226 281 345 402
#     4  11  24  43  65  95 132 174 225 282 338 405
#     4  10  20  38  63  93 127 173 212 271 338 394
#     4   8  16  31  64  93 125 169 208 260 331 391
#     4  11  26  46  70 101 132 176 235 287 345 417
#
# _framework density 25.145572999999999
#
# number of rings (size 3 to 8) (size 9 to 14) (size 15 to 20)
#    0.000    2.000    2.857    0.000    2.000    2.857 
#    2.571    0.714    0.000   29.143    0.000    0.000 
#    0.000    0.000    0.000    0.000    0.000    0.000 
#
# Total GULP energy -77972.865771 kJ/mol
# GULP energy per Si atom -5569.490412 kJ/mol
# Density = 2.508834 g / cm^3
# Si number density = 25.145573 Si / 1000 Ang^3
#
#
#
# Elastic Constant Matrix: (Units=GPa)
#
#
# Indices 1 2 3 4 5 6 
#
# 1 116.9077 15.7833 -9.8012 -20.4977 -9.5065 21.2757
# 2 15.7833 154.7671 5.2344 -15.4160 -12.5253 30.5966
# 3 -9.8012 5.2344 90.0444 -25.6828 -7.6234 -5.4858
# 4 -20.4977 -15.4160 -25.6828 32.2838 7.8958 -5.4896
# 5 -9.5065 -12.5253 -7.6234 7.8958 45.0226 -5.2285
# 6 21.2757 30.5966 -5.4858 -5.4896 -5.2285 35.3565
#
#
#
# Elastic Compliance Matrix: (Units=1/GPa)
#
#
# Indices 1 2 3 4 5 6 
#
# 1 0.011462 0.000794 0.003631 0.009384 0.000981 -0.005419
# 2 0.000794 0.008124 0.000172 0.003083 0.001122 -0.006837
# 3 0.003631 0.000172 0.016154 0.015420 0.001164 0.002739
# 4 0.009384 0.003083 0.015420 0.051789 -0.003445 0.001609
# 5 0.000981 0.001122 0.001164 -0.003445 0.023716 0.001591
# 6 -0.005419 -0.006837 0.002739 0.001609 0.001591 0.038370
#
#
# Mechanical properties :
#
#
# Convention : Reuss Voigt Hill
#
# Bulk Modulus (GPa) = 22.25506 42.68357 32.46931
# Shear Modulus (GPa) = 32.17478 45.89942 39.03710
#
# Velocity S-wave (km/s) = 3.58095 4.27704 3.94438
# Velocity P-wave (km/s) = 5.09581 6.43446 5.80386
#
# Compressibility (1/GPa) = 0.04493360
#
# Stress axis : x y z
#
# Youngs Moduli (GPa) = 87.24327 123.09152 61.90278
#
# Poissons Ratio (x) = -0.09769 -0.22476
# Poissons Ratio (y) = -0.06924 -0.01065
# Poissons Ratio (z) = -0.31677 -0.02117
#
# Static dielectric constant tensor:
#      x y z
#    x 2.159340 -0.034660 -0.000350 
#    y -0.034660 2.250370 0.308640 
#    z -0.000350 0.308640 2.592960 
# 
# From -- ./inp_files/114819.got.cif
#   From: 2010.05.17/outbox.cif.g08.bks.cpg/sg2_58_cif.got.tgz:114819.got - 2010.06.03 11:33:40.
