data_PCOD9102635
_publ_section_title
;
Structure prediction by ZEFSAII (Michael W. Deem and Ramdas Pophale) SiO2 
 PCOD9102635
Probable space group: P -1
;
_chemical_formula_sum "Si O2"
_cell_formula_units_Z 16
_cell_length_a 9.188270
_cell_length_b 9.935336
_cell_length_c 8.249114
_cell_angle_alpha 86.216744
_cell_angle_beta 86.363340
_cell_angle_gamma 84.988709
_cell_volume 747.275678
_symmetry_space_group_name_H-M "P -1"
_symmetry_group_IT_number 2
_symmetry_cell_setting 'triclinic'
loop_
_space_group_symop_operation_xyz
x,y,z
-x,-y,-z
loop_
_atom_site_type_symbol
_atom_site_label
_atom_site_fract_x
_atom_site_fract_y
_atom_site_fract_z
Si Si1 0.311813 0.889490 0.069652
Si Si2 0.928266 0.148462 0.690224
Si Si3 0.420207 0.059896 0.758404
Si Si4 0.154220 0.555243 0.443741
Si Si5 0.435123 0.325563 0.905840
Si Si6 0.412991 0.571661 0.651640
Si Si7 0.216676 0.065742 0.499428
Si Si8 0.326602 0.305170 0.271403
O O1 0.144738 0.891846 0.133209
O O2 0.409502 0.957002 0.197890
O O3 0.399156 0.740173 0.064673
O O4 0.339948 0.971131 0.900528
O O5 0.877215 0.304662 0.657663
O O6 0.098040 0.120568 0.639807
O O7 0.848659 0.060660 0.569780
O O8 0.382611 0.219849 0.785063
O O9 0.364039 0.028320 0.589961
O O10 0.248703 0.587618 0.594515
O O11 0.245749 0.443142 0.337470
O O12 0.000000 0.500000 0.500000
O O13 0.427321 0.471847 0.813428
O O14 0.341862 0.312203 0.076192
O O15 0.500000 0.500000 0.500000
O O16 0.504809 0.698643 0.676010
O O17 0.242238 0.184991 0.361738
#
# Coordination Sequence:
#
# PCOD9102635 Si02
#       8
#     2   2   2   2   2   2   2   2
#     4   9  20  38  59  91 126 153 203 261 304 365
#     4  11  24  41  61  91 126 162 214 251 315 368
#     4   9  20  38  61  93 123 162 205 257 319 360
#     4  11  23  42  63  91 128 164 207 258 305 368
#     4  10  20  38  63  93 127 159 205 255 317 367
#     4  10  21  36  63  92 118 166 207 247 308 371
#     4  11  24  40  65  91 122 171 204 257 310 379
#     4  11  22  40  66  92 127 163 205 259 311 369
#
# _framework density 21.411110000000001
#
# number of rings (size 3 to 8) (size 9 to 14) (size 15 to 20)
#    0.750    1.000    1.250    4.125    1.750    2.000 
#    0.000    0.625    2.750    0.000    0.000    0.000 
#    0.000    0.000    0.000    0.000    0.000    0.000 
#
# Total GULP energy -89286.369543 kJ/mol
# GULP energy per Si atom -5580.398096 kJ/mol
# Density = 2.136238 g / cm^3
# Si number density = 21.411110 Si / 1000 Ang^3
#
#
#
# Elastic Constant Matrix: (Units=GPa)
#
#
# Indices 1 2 3 4 5 6 
#
# 1 114.0730 21.8184 33.5989 -2.1670 -26.7224 4.3155
# 2 21.8184 66.2513 -7.5587 -5.4433 -10.5445 1.3198
# 3 33.5989 -7.5587 43.9869 -9.6335 -19.5807 -5.3020
# 4 -2.1670 -5.4433 -9.6335 27.6627 7.6954 -6.4296
# 5 -26.7224 -10.5445 -19.5807 7.6954 40.9436 4.3116
# 6 4.3155 1.3198 -5.3020 -6.4296 4.3116 29.9512
#
#
#
# Elastic Compliance Matrix: (Units=1/GPa)
#
#
# Indices 1 2 3 4 5 6 
#
# 1 0.014754 -0.006178 -0.012917 -0.007071 0.003844 -0.006212
# 2 -0.006178 0.019923 0.012431 0.006933 0.005434 0.002919
# 3 -0.012917 0.012431 0.045015 0.016322 0.012068 0.011049
# 4 -0.007071 0.006933 0.016322 0.047570 -0.005503 0.014607
# 5 0.003844 0.005434 0.012068 -0.005503 0.035661 -0.004972
# 6 -0.006212 0.002919 0.011049 0.014607 -0.004972 0.039961
#
#
# Mechanical properties :
#
#
# Convention : Reuss Voigt Hill
#
# Bulk Modulus (GPa) = 15.06838 35.55870 25.31354
# Shear Modulus (GPa) = 20.97900 31.47502 26.22701
#
# Velocity S-wave (km/s) = 3.13360 3.83826 3.50369
# Velocity P-wave (km/s) = 4.48838 6.02384 5.31188
#
# Compressibility (1/GPa) = 0.06636412
#
# Stress axis : x y z
#
# Youngs Moduli (GPa) = 67.77941 50.19270 22.21468
#
# Poissons Ratio (x) = 0.31009 0.28696
# Poissons Ratio (y) = 0.41875 -0.27616
# Poissons Ratio (z) = 0.87554 -0.62397
#
# Static dielectric constant tensor:
#      x y z
#    x 1.817050 0.000740 -0.022030 
#    y 0.000740 1.800920 0.036800 
#    z -0.022030 0.036800 1.775750 
# 
# From -- ./inp_files/177791.got.cif
#   From: 2010.05.17/outbox.cif.g08.bks.cpg/sg2_89_cif.got.tgz:177791.got - 2010.06.03 11:33:40.
