data_PCOD9102249
_publ_section_title
;
Structure prediction by ZEFSAII (Michael W. Deem and Ramdas Pophale) SiO2 
 PCOD9102249
Probable space group: P -1
;
_chemical_formula_sum "Si O2"
_cell_formula_units_Z 16
_cell_length_a 26.737042
_cell_length_b 14.334724
_cell_length_c 7.089805
_cell_angle_alpha 141.228579
_cell_angle_beta 136.363092
_cell_angle_gamma 20.689643
_cell_volume 600.993685
_symmetry_space_group_name_H-M "P -1"
_symmetry_group_IT_number 2
_symmetry_cell_setting 'triclinic'
loop_
_space_group_symop_operation_xyz
x,y,z
-x,-y,-z
loop_
_atom_site_type_symbol
_atom_site_label
_atom_site_fract_x
_atom_site_fract_y
_atom_site_fract_z
Si Si1 0.758534 0.561401 0.318034
Si Si2 0.363625 0.538670 0.071876
Si Si3 0.254829 0.982840 0.223774
Si Si4 0.473396 0.305526 0.377444
Si Si5 0.973137 0.513672 0.168432
Si Si6 0.330279 0.307953 0.148849
Si Si7 0.067618 0.741520 0.372286
Si Si8 0.685866 0.017097 0.007224
O O1 0.680028 0.558089 0.194649
O O2 0.915553 0.273196 0.380611
O O3 0.712033 0.808039 0.649155
O O4 0.742339 0.576755 0.074125
O O5 0.524264 0.292197 0.062098
O O6 0.263091 0.819575 0.114528
O O7 0.368902 0.565017 0.351925
O O8 0.392891 0.832003 0.425965
O O9 0.287570 0.912134 0.977595
O O10 0.104409 0.341175 0.381639
O O11 0.391792 0.367295 0.421989
O O12 0.544588 0.033494 0.043442
O O13 0.005373 0.282548 0.913720
O O14 0.802242 0.833769 0.204356
O O15 0.000000 0.500000 0.000000
O O16 0.220796 0.462416 0.252973
O O17 0.000000 0.000000 0.500000
#
# Coordination Sequence:
#
# PCOD9102249 Si02
#       8
#     2   2   2   2   2   2   2   2
#     4  10  21  39  66  88 127 167 210 265 315 375
#     4  11  22  35  60  99 127 156 212 270 323 371
#     4  11  21  38  62  89 130 165 205 263 328 371
#     4  10  21  39  63  91 129 161 208 268 318 382
#     4   9  21  41  62  86 127 170 206 252 306 392
#     4  10  22  41  64  95 124 163 219 265 311 383
#     4  11  23  41  67  94 125 168 216 265 316 377
#     4  10  20  38  62  89 121 172 215 251 310 387
#
# _framework density 26.622577
#
# number of rings (size 3 to 8) (size 9 to 14) (size 15 to 20)
#    0.000    1.750    1.250    3.375    1.750    0.500 
#    4.500    2.500    2.750    0.000    0.000    0.000 
#    0.000    0.000    0.000    0.000    0.000    0.000 
#
# Total GULP energy -89455.669006 kJ/mol
# GULP energy per Si atom -5590.979313 kJ/mol
# Density = 2.656198 g / cm^3
# Si number density = 26.622577 Si / 1000 Ang^3
#
#
#
# Elastic Constant Matrix: (Units=GPa)
#
#
# Indices 1 2 3 4 5 6 
#
# 1 114.9792 22.8932 29.6339 3.3729 15.5442 24.0647
# 2 22.8932 138.7501 37.4559 -30.4780 0.4072 45.4169
# 3 29.6339 37.4559 83.9149 -12.8226 8.7959 13.2235
# 4 3.3729 -30.4780 -12.8226 41.6184 5.3111 2.1679
# 5 15.5442 0.4072 8.7959 5.3111 35.6253 0.5627
# 6 24.0647 45.4169 13.2235 2.1679 0.5627 56.9638
#
#
#
# Elastic Compliance Matrix: (Units=1/GPa)
#
#
# Indices 1 2 3 4 5 6 
#
# 1 0.010802 0.000058 -0.003009 -0.001082 -0.003749 -0.003833
# 2 0.000058 0.013536 -0.002848 0.009674 -0.000753 -0.010516
# 3 -0.003009 -0.002848 0.015036 0.003155 -0.002837 -0.000041
# 4 -0.001082 0.009674 0.003155 0.033321 -0.005240 -0.009205
# 5 -0.003749 -0.000753 -0.002837 -0.005240 0.031153 0.002734
# 6 -0.003833 -0.010516 -0.000041 -0.009205 0.002734 0.027892
#
#
# Mechanical properties :
#
#
# Convention : Reuss Voigt Hill
#
# Bulk Modulus (GPa) = 36.00126 57.51222 46.75674
# Shear Modulus (GPa) = 32.76625 43.35226 38.05925
#
# Velocity S-wave (km/s) = 3.51204 4.03972 3.78509
# Velocity P-wave (km/s) = 5.47705 6.58854 6.05834
#
# Compressibility (1/GPa) = 0.02777680
#
# Stress axis : x y z
#
# Youngs Moduli (GPa) = 92.57579 73.87668 66.50489
#
# Poissons Ratio (x) = -0.00428 0.20010
# Poissons Ratio (y) = -0.00536 0.18940
# Poissons Ratio (z) = 0.27855 0.21040
#
# Static dielectric constant tensor:
#      x y z
#    x 2.108570 -0.007760 -0.021850 
#    y -0.007760 2.262630 0.011780 
#    z -0.021850 0.011780 2.178710 
# 
# From -- ./inp_files/345332.got.cif
#   From: 2010.05.17/outbox.cif.g08.bks.cpg/sg2_173_cif.got.tgz:345332.got - 2010.06.03 11:33:40.
