data_PCOD9102395
_publ_section_title
;
Structure prediction by ZEFSAII (Michael W. Deem and Ramdas Pophale) SiO2 
 PCOD9102395
Probable space group: P -1
;
_chemical_formula_sum "Si O2"
_cell_formula_units_Z 11
_cell_length_a 11.811206
_cell_length_b 9.267091
_cell_length_c 12.619340
_cell_angle_alpha 144.826262
_cell_angle_beta 42.661789
_cell_angle_gamma 112.757574
_cell_volume 450.733265
_symmetry_space_group_name_H-M "P -1"
_symmetry_group_IT_number 2
_symmetry_cell_setting 'triclinic'
loop_
_space_group_symop_operation_xyz
x,y,z
-x,-y,-z
loop_
_atom_site_type_symbol
_atom_site_label
_atom_site_fract_x
_atom_site_fract_y
_atom_site_fract_z
Si Si1 0.774609 0.833848 0.218279
Si Si2 0.219357 0.596455 0.760909
Si Si3 0.450128 0.538664 0.374795
Si Si4 0.543498 0.735766 0.156451
Si Si5 0.500000 0.000000 0.000000
Si Si6 0.192934 0.189248 0.150369
O O1 0.693776 0.136781 0.384069
O O2 0.669789 0.974932 0.487113
O O3 0.676312 0.669798 0.132983
O O4 0.012783 0.623328 0.934198
O O5 0.334900 0.433663 0.473893
O O6 0.382517 0.479040 0.672934
O O7 0.153007 0.938540 0.991551
O O8 0.509510 0.276661 0.094388
O O9 0.500000 0.500000 0.000000
O O10 0.672170 0.786954 0.015169
O O11 0.309099 0.071693 0.108165
O O12 0.000000 0.500000 0.500000
#
# Coordination Sequence:
#
# PCOD9102395 Si02
#       6
#     2   2   2   2   1   2
#     4  11  23  43  67  90 133 174 201 261 331 370
#     4  10  21  38  65  93 121 164 210 263 316 368
#     4  10  20  38  62  95 126 157 215 264 311 376
#     4  11  24  41  63  96 131 169 215 255 312 393
#     4  10  22  34  62  96 122 156 204 270 316 360
#     4  11  22  40  65  94 123 161 216 265 309 378
#
# _framework density 24.404678000000001
#
# number of rings (size 3 to 8) (size 9 to 14) (size 15 to 20)
#    0.000    1.455    1.818    3.818    2.545    0.000 
#    0.000    5.455    0.000    9.818    0.000    0.000 
#    0.000    0.000    0.000    0.000    0.000    0.000 
#
# Total GULP energy -61237.104468 kJ/mol
# GULP energy per Si atom -5567.009497 kJ/mol
# Density = 2.434913 g / cm^3
# Si number density = 24.404678 Si / 1000 Ang^3
#
#
#
# Elastic Constant Matrix: (Units=GPa)
#
#
# Indices 1 2 3 4 5 6 
#
# 1 82.7671 24.6563 34.7160 -11.5974 -1.4906 18.4476
# 2 24.6563 82.5661 27.8910 11.8235 2.8536 21.2930
# 3 34.7160 27.8910 108.5236 -20.7648 -27.4340 -2.3625
# 4 -11.5974 11.8235 -20.7648 47.4982 13.5562 -1.4546
# 5 -1.4906 2.8536 -27.4340 13.5562 38.8672 -1.5822
# 6 18.4476 21.2930 -2.3625 -1.4546 -1.5822 47.0139
#
#
#
# Elastic Compliance Matrix: (Units=1/GPa)
#
#
# Indices 1 2 3 4 5 6 
#
# 1 0.016654 -0.001877 -0.005488 0.003225 -0.004467 -0.006011
# 2 -0.001877 0.018124 -0.006563 -0.006965 -0.003938 -0.008150
# 3 -0.005488 -0.006563 0.016325 0.004650 0.010434 0.006441
# 4 0.003225 -0.006965 0.004650 0.027255 -0.005476 0.002782
# 5 -0.004467 -0.003938 0.010434 -0.005476 0.035328 0.005080
# 6 -0.006011 -0.008150 0.006441 0.002782 0.005080 0.027901
#
#
# Mechanical properties :
#
#
# Convention : Reuss Voigt Hill
#
# Bulk Modulus (GPa) = 43.01617 49.82037 46.41827
# Shear Modulus (GPa) = 28.21776 39.11543 33.66660
#
# Velocity S-wave (km/s) = 3.40405 4.00782 3.71821
# Velocity P-wave (km/s) = 5.75452 6.47112 6.12331
#
# Compressibility (1/GPa) = 0.02324707
#
# Stress axis : x y z
#
# Youngs Moduli (GPa) = 60.04385 55.17466 61.25703
#
# Poissons Ratio (x) = 0.10354 0.33620
# Poissons Ratio (y) = 0.11268 0.40204
# Poissons Ratio (z) = 0.32954 0.36212
#
# Static dielectric constant tensor:
#      x y z
#    x 1.784080 -0.040020 -0.458950 
#    y -0.040020 2.246910 -0.142980 
#    z -0.458950 -0.142980 2.375060 
# 
# From -- ./inp_files/231413.got.cif
#   From: 2010.05.17/outbox.cif.g08.bks.cpg/sg2_116_cif.got.tgz:231413.got - 2010.06.03 11:33:40.
