data_PCOD9102199
_publ_section_title
;
Structure prediction by ZEFSAII (Michael W. Deem and Ramdas Pophale) SiO2 
 PCOD9102199
Probable space group: P -1
;
_chemical_formula_sum "Si O2"
_cell_formula_units_Z 13
_cell_length_a 13.318426
_cell_length_b 6.886759
_cell_length_c 13.564754
_cell_angle_alpha 97.644219
_cell_angle_beta 147.912276
_cell_angle_gamma 67.749854
_cell_volume 565.336086
_symmetry_space_group_name_H-M "P -1"
_symmetry_group_IT_number 2
_symmetry_cell_setting 'triclinic'
loop_
_space_group_symop_operation_xyz
x,y,z
-x,-y,-z
loop_
_atom_site_type_symbol
_atom_site_label
_atom_site_fract_x
_atom_site_fract_y
_atom_site_fract_z
Si Si1 0.373720 0.895255 0.005878
Si Si2 0.694419 0.084153 0.503408
Si Si3 0.825107 0.691055 0.744550
Si Si4 0.215579 0.195853 0.063602
Si Si5 0.500000 0.500000 0.500000
Si Si6 0.055904 0.780275 0.639858
Si Si7 0.822979 0.709442 0.278647
O O1 0.280594 0.767576 0.854348
O O2 0.295729 0.132206 0.901208
O O3 0.635155 0.760029 0.207715
O O4 0.256961 0.976993 0.020243
O O5 0.457215 0.164129 0.264759
O O6 0.677783 0.294008 0.563215
O O7 0.765556 0.871643 0.621362
O O8 0.870080 0.995460 0.556822
O O9 0.853353 0.794870 0.878764
O O10 0.624145 0.647273 0.592886
O O11 0.041470 0.444703 0.894755
O O12 0.066616 0.551929 0.672939
O O13 0.987805 0.777296 0.470297
#
# Coordination Sequence:
#
# PCOD9102199 Si02
#       7
#     2   2   2   2   1   2   2
#     4  11  21  40  63  89 123 161 207 256 312 367
#     4  11  22  41  62  90 128 164 202 259 313 363
#     4  10  22  40  62  87 130 163 202 261 308 364
#     4  10  20  39  62  88 124 164 203 257 306 366
#     4  10  20  38  62  88 118 164 208 240 306 378
#     4  11  22  40  65  89 123 164 203 255 314 369
#     4  10  23  40  62  90 124 158 207 261 307 363
#
# _framework density 22.995170999999999
#
# number of rings (size 3 to 8) (size 9 to 14) (size 15 to 20)
#    0.000    1.538    1.538    4.615    0.000    0.000 
#    0.000   28.462    0.000    0.000    0.000    0.000 
#    0.000    0.000    0.000    0.000    0.000    0.000 
#
# Total GULP energy -72387.956330 kJ/mol
# GULP energy per Si atom -5568.304333 kJ/mol
# Density = 2.294283 g / cm^3
# Si number density = 22.995171 Si / 1000 Ang^3
#
#
#
# Elastic Constant Matrix: (Units=GPa)
#
#
# Indices 1 2 3 4 5 6 
#
# 1 67.0944 35.2018 15.6188 -0.4613 2.2785 -18.5111
# 2 35.2018 88.7795 33.6260 3.9711 1.3147 -30.7790
# 3 15.6188 33.6260 86.3585 -3.3154 7.7564 5.4477
# 4 -0.4613 3.9711 -3.3154 30.7355 -1.8324 1.9151
# 5 2.2785 1.3147 7.7564 -1.8324 19.0082 -4.0919
# 6 -18.5111 -30.7790 5.4477 1.9151 -4.0919 33.9190
#
#
#
# Elastic Compliance Matrix: (Units=1/GPa)
#
#
# Indices 1 2 3 4 5 6 
#
# 1 0.019752 -0.004530 -0.002284 0.000220 0.000422 0.007074
# 2 -0.004530 0.026223 -0.011910 -0.005775 0.008321 0.024566
# 3 -0.002284 -0.011910 0.018690 0.003968 -0.009687 -0.016448
# 4 0.000220 -0.005775 0.003968 0.034214 0.000407 -0.007641
# 5 0.000422 0.008321 -0.009687 0.000407 0.059526 0.016495
# 6 0.007074 0.024566 -0.016448 -0.007641 0.016495 0.060697
#
#
# Mechanical properties :
#
#
# Convention : Reuss Voigt Hill
#
# Bulk Modulus (GPa) = 36.74256 45.68063 41.21159
# Shear Modulus (GPa) = 18.82371 27.25159 23.03765
#
# Velocity S-wave (km/s) = 2.86421 3.44626 3.16863
# Velocity P-wave (km/s) = 5.19147 5.97864 5.59890
#
# Compressibility (1/GPa) = 0.02721640
#
# Stress axis : x y z
#
# Youngs Moduli (GPa) = 50.62840 38.13443 53.50386
#
# Poissons Ratio (x) = 0.17276 0.12220
# Poissons Ratio (y) = 0.22936 0.63723
# Poissons Ratio (z) = 0.11563 0.45418
#
# Static dielectric constant tensor:
#      x y z
#    x 1.900740 -0.031210 -0.023740 
#    y -0.031210 1.828160 0.026230 
#    z -0.023740 0.026230 1.908000 
# 
# From -- ./inp_files/115664.got.cif
#   From: 2010.05.17/outbox.cif.g08.bks.cpg/sg2_58_cif.got.tgz:115664.got - 2010.06.03 11:33:40.
