data_PCOD9102438
_publ_section_title
;
Structure prediction by ZEFSAII (Michael W. Deem and Ramdas Pophale) SiO2 
 PCOD9102438
Probable space group: P -1
;
_chemical_formula_sum "Si O2"
_cell_formula_units_Z 14
_cell_length_a 11.480330
_cell_length_b 16.195093
_cell_length_c 15.966449
_cell_angle_alpha 25.883744
_cell_angle_beta 125.279683
_cell_angle_gamma 142.472556
_cell_volume 678.460310
_symmetry_space_group_name_H-M "P -1"
_symmetry_group_IT_number 2
_symmetry_cell_setting 'triclinic'
loop_
_space_group_symop_operation_xyz
x,y,z
-x,-y,-z
loop_
_atom_site_type_symbol
_atom_site_label
_atom_site_fract_x
_atom_site_fract_y
_atom_site_fract_z
Si Si1 0.263228 0.524578 0.846078
Si Si2 0.400042 0.328380 0.527607
Si Si3 0.278425 0.926876 0.564395
Si Si4 0.453379 0.616973 0.121373
Si Si5 0.820432 0.695931 0.155309
Si Si6 0.452884 0.859969 0.351704
Si Si7 0.111601 0.162693 0.265623
O O1 0.181806 0.639504 0.745782
O O2 0.113176 0.289443 0.924236
O O3 0.499161 0.801584 0.645650
O O4 0.273250 0.393054 0.047544
O O5 0.500000 0.500000 0.500000
O O6 0.446006 0.534375 0.287973
O O7 0.502910 0.237636 0.617425
O O8 0.134458 0.029548 0.687993
O O9 0.355928 0.967451 0.654769
O O10 0.123179 0.949688 0.474738
O O11 0.603474 0.611625 0.141454
O O12 0.212306 0.357781 0.213351
O O13 0.552082 0.926353 0.870080
O O14 0.759571 0.443859 0.410851
O O15 0.000000 0.000000 0.000000
#
# Coordination Sequence:
#
# PCOD9102438 Si02
#       7
#     2   2   2   2   2   2   2
#     4  10  21  35  63  96 131 155 207 254 314 369
#     4  11  27  45  62  89 130 166 213 266 318 377
#     4  10  20  38  63 100 127 154 208 267 306 370
#     4  11  23  43  68  92 122 170 215 259 317 363
#     4  10  23  41  64  94 138 168 199 255 317 381
#     4  10  22  43  65  92 128 161 215 263 311 370
#     4  12  22  39  69  92 120 171 213 262 311 365
#
# _framework density 20.634957
#
# number of rings (size 3 to 8) (size 9 to 14) (size 15 to 20)
#    0.000    1.429    5.714    0.857    4.000    2.857 
#    2.571    0.000    0.000    0.000    0.000    0.000 
#    0.000    0.000    0.000    0.000    0.000    0.000 
#
# Total GULP energy -78182.153124 kJ/mol
# GULP energy per Si atom -5584.439509 kJ/mol
# Density = 2.058799 g / cm^3
# Si number density = 20.634957 Si / 1000 Ang^3
#
#
#
# Elastic Constant Matrix: (Units=GPa)
#
#
# Indices 1 2 3 4 5 6 
#
# 1 53.5908 29.7286 38.3294 9.1741 15.2831 -31.2102
# 2 29.7286 121.4485 48.2286 -4.0685 8.5530 -43.7588
# 3 38.3294 48.2286 118.8575 15.0215 34.8315 -16.1465
# 4 9.1741 -4.0685 15.0215 23.6983 -1.1629 -3.8979
# 5 15.2831 8.5530 34.8315 -1.1629 27.9868 -6.9222
# 6 -31.2102 -43.7588 -16.1465 -3.8979 -6.9222 38.7745
#
#
#
# Elastic Compliance Matrix: (Units=1/GPa)
#
#
# Indices 1 2 3 4 5 6 
#
# 1 0.049365 0.008285 -0.011710 -0.003395 -0.004401 0.043082
# 2 0.008285 0.021426 -0.012952 0.014109 0.012847 0.029168
# 3 -0.011710 -0.012952 0.024562 -0.017863 -0.025966 -0.020245
# 4 -0.003395 0.014109 -0.017863 0.061289 0.026434 0.016631
# 5 -0.004401 0.012847 -0.025966 0.026434 0.071471 0.015560
# 6 0.043082 0.029168 -0.020245 0.016631 0.015560 0.089404
#
#
# Mechanical properties :
#
#
# Convention : Reuss Voigt Hill
#
# Bulk Modulus (GPa) = 15.97421 58.49668 37.23544
# Shear Modulus (GPa) = 13.47208 29.93259 21.70234
#
# Velocity S-wave (km/s) = 2.55792 3.81278 3.24655
# Velocity P-wave (km/s) = 4.05981 6.91324 5.66899
#
# Compressibility (1/GPa) = 0.06260092
#
# Stress axis : x y z
#
# Youngs Moduli (GPa) = 20.25714 46.67120 40.71386
#
# Poissons Ratio (x) = -0.38668 0.47676
# Poissons Ratio (y) = -0.16784 0.52731
# Poissons Ratio (z) = 0.23721 0.60447
#
# Static dielectric constant tensor:
#      x y z
#    x 1.748730 0.011740 -0.037720 
#    y 0.011740 1.748540 -0.027290 
#    z -0.037720 -0.027290 1.758680 
# 
# From -- ./inp_files/315915.got.cif
#   From: 2010.05.17/outbox.cif.g08.bks.cpg/sg2_158_cif.got.tgz:315915.got - 2010.06.03 11:33:40.
