data_PCOD9102338
_publ_section_title
;
Structure prediction by ZEFSAII (Michael W. Deem and Ramdas Pophale) SiO2 
 PCOD9102338
Probable space group: P -1
;
_chemical_formula_sum "Si O2"
_cell_formula_units_Z 15
_cell_length_a 9.753560
_cell_length_b 18.618738
_cell_length_c 6.788125
_cell_angle_alpha 119.694178
_cell_angle_beta 45.573276
_cell_angle_gamma 128.516875
_cell_volume 684.889958
_symmetry_space_group_name_H-M "P -1"
_symmetry_group_IT_number 2
_symmetry_cell_setting 'triclinic'
loop_
_space_group_symop_operation_xyz
x,y,z
-x,-y,-z
loop_
_atom_site_type_symbol
_atom_site_label
_atom_site_fract_x
_atom_site_fract_y
_atom_site_fract_z
Si Si1 0.039036 0.619061 0.024892
Si Si2 0.529695 0.370023 0.246615
Si Si3 0.742484 0.166083 0.979116
Si Si4 0.071768 0.963528 0.567554
Si Si5 0.000000 0.500000 0.500000
Si Si6 0.504077 0.087310 0.496964
Si Si7 0.673800 0.527084 0.593911
Si Si8 0.613739 0.833631 0.938588
O O1 0.231755 0.622188 0.976065
O O2 0.110021 0.724520 0.032918
O O3 0.024057 0.558973 0.765020
O O4 0.834666 0.576220 0.314275
O O5 0.528767 0.423280 0.520715
O O6 0.473217 0.419121 0.188406
O O7 0.379574 0.261849 0.242877
O O8 0.685893 0.125683 0.200786
O O9 0.514782 0.146919 0.082371
O O10 0.844663 0.110571 0.681572
O O11 0.852568 0.911866 0.837554
O O12 0.271139 0.046596 0.577657
O O13 0.000000 0.000000 0.500000
O O14 0.184426 0.469974 0.359427
O O15 0.500000 0.000000 0.500000
O O16 0.524391 0.167985 0.734088
#
# Coordination Sequence:
#
# PCOD9102338 Si02
#       8
#     2   2   2   2   1   2   2   2
#     4  10  22  40  64  87 127 166 205 254 316 367
#     4   9  20  39  64  88 124 165 203 254 307 369
#     4  11  24  43  63  95 130 167 210 269 316 379
#     4  12  23  43  68  88 128 170 210 262 324 380
#     4  10  20  38  62  92 124 156 204 248 306 374
#     4  12  24  43  67  93 128 168 212 265 325 374
#     4  10  20  41  63  91 126 166 203 253 316 370
#     4  11  23  42  65  95 127 165 216 264 313 380
#
# _framework density 21.901326000000001
#
# number of rings (size 3 to 8) (size 9 to 14) (size 15 to 20)
#    0.000    1.333    2.667    4.000    0.000    3.200 
#    4.800   10.667    0.000    0.000    0.000    0.000 
#    0.000    0.000    0.000    0.000    0.000    0.000 
#
# Total GULP energy -83536.363324 kJ/mol
# GULP energy per Si atom -5569.090888 kJ/mol
# Density = 2.185148 g / cm^3
# Si number density = 21.901326 Si / 1000 Ang^3
#
#
#
# Elastic Constant Matrix: (Units=GPa)
#
#
# Indices 1 2 3 4 5 6 
#
# 1 137.1016 21.8989 -0.3324 8.5297 4.4231 -13.8278
# 2 21.8989 75.1445 26.2944 12.7327 6.8573 -8.0839
# 3 -0.3324 26.2944 75.0134 -2.4110 11.1224 -4.7192
# 4 8.5297 12.7327 -2.4110 26.5078 -3.5375 -9.1579
# 5 4.4231 6.8573 11.1224 -3.5375 24.9345 7.6176
# 6 -13.8278 -8.0839 -4.7192 -9.1579 7.6176 32.9729
#
#
#
# Elastic Compliance Matrix: (Units=1/GPa)
#
#
# Indices 1 2 3 4 5 6 
#
# 1 0.008114 -0.002125 0.001372 -0.000601 -0.002627 0.003518
# 2 -0.002125 0.017894 -0.005985 -0.008547 -0.003409 0.001053
# 3 0.001372 -0.005985 0.016865 0.004566 -0.006805 0.004362
# 4 -0.000601 -0.008547 0.004566 0.046525 0.003863 0.010335
# 5 -0.002627 -0.003409 -0.006805 0.003863 0.049121 -0.013187
# 6 0.003518 0.001053 0.004362 0.010335 -0.013187 0.038603
#
#
# Mechanical properties :
#
#
# Convention : Reuss Voigt Hill
#
# Bulk Modulus (GPa) = 34.01589 42.55349 38.28469
# Shear Modulus (GPa) = 24.95085 32.84296 28.89690
#
# Velocity S-wave (km/s) = 3.37892 3.87665 3.63631
# Velocity P-wave (km/s) = 5.54869 6.28568 5.92865
#
# Compressibility (1/GPa) = 0.02939803
#
# Stress axis : x y z
#
# Youngs Moduli (GPa) = 123.25126 55.88609 59.29408
#
# Poissons Ratio (x) = 0.11874 -0.08137
# Poissons Ratio (y) = 0.26187 0.35485
# Poissons Ratio (z) = -0.16913 0.33446
#
# Static dielectric constant tensor:
#      x y z
#    x 1.807970 0.003540 -0.038260 
#    y 0.003540 1.808480 0.025870 
#    z -0.038260 0.025870 1.741220 
# 
# From -- ./inp_files/48790.got.cif
#   From: 2010.05.17/outbox.cif.g08.bks.cpg/sg2_25_cif.got.tgz:48790.got - 2010.06.03 11:33:40.
