data_PCOD9102494
_publ_section_title
;
Structure prediction by ZEFSAII (Michael W. Deem and Ramdas Pophale) SiO2 
 PCOD9102494
Probable space group: P -1
;
_chemical_formula_sum "Si O2"
_cell_formula_units_Z 14
_cell_length_a 15.304729
_cell_length_b 16.661790
_cell_length_c 6.980658
_cell_angle_alpha 134.321287
_cell_angle_beta 43.601682
_cell_angle_gamma 155.100762
_cell_volume 511.466058
_symmetry_space_group_name_H-M "P -1"
_symmetry_group_IT_number 2
_symmetry_cell_setting 'triclinic'
loop_
_space_group_symop_operation_xyz
x,y,z
-x,-y,-z
loop_
_atom_site_type_symbol
_atom_site_label
_atom_site_fract_x
_atom_site_fract_y
_atom_site_fract_z
Si Si1 0.908897 0.186084 0.523167
Si Si2 0.407084 0.325412 0.603358
Si Si3 0.864673 0.452048 0.421289
Si Si4 0.856937 0.198143 0.037273
Si Si5 0.508684 0.366487 0.958941
Si Si6 0.046414 0.938948 0.072953
Si Si7 0.479556 0.826294 0.815208
O O1 0.985659 0.263941 0.745911
O O2 0.020559 0.164540 0.198363
O O3 0.947729 0.327279 0.577249
O O4 0.661049 0.969213 0.593550
O O5 0.486116 0.371709 0.775126
O O6 0.512534 0.289799 0.290002
O O7 0.436268 0.476828 0.764076
O O8 0.147987 0.121454 0.657043
O O9 0.692878 0.403428 0.732701
O O10 0.742609 0.326827 0.204286
O O11 0.907021 0.360380 0.288927
O O12 0.597675 0.996633 0.058864
O O13 0.919554 0.145685 0.993250
O O14 0.275489 0.162118 0.062567
#
# Coordination Sequence:
#
# PCOD9102494 Si02
#       7
#     2   2   2   2   2   2   2
#     4  10  22  41  62  90 118 168 197 240 311 351
#     4  10  20  38  63  87 123 157 204 246 293 366
#     4  11  19  42  65  86 125 157 205 249 293 363
#     4  10  25  41  60  94 123 158 201 249 302 357
#     4  10  21  35  64  96 109 166 206 235 309 353
#     4  12  22  41  62  92 126 156 198 252 304 354
#     4   9  22  40  61  90 115 164 201 240 306 346
#
# _framework density 27.372297
#
# number of rings (size 3 to 8) (size 9 to 14) (size 15 to 20)
#    0.857    0.857    4.286    1.286    0.000    1.714 
#    2.571    0.714    0.000    0.000    0.000    0.000 
#    0.000    0.000    0.000    0.000    0.000    0.000 
#
# Total GULP energy -78345.662340 kJ/mol
# GULP energy per Si atom -5596.118739 kJ/mol
# Density = 2.731000 g / cm^3
# Si number density = 27.372297 Si / 1000 Ang^3
#
#
#
# Elastic Constant Matrix: (Units=GPa)
#
#
# Indices 1 2 3 4 5 6 
#
# 1 68.3277 19.3958 29.4778 -0.9726 -15.9237 -4.1912
# 2 19.3958 127.6646 39.5342 28.9954 -8.9563 0.8322
# 3 29.4778 39.5342 110.7855 24.3035 -14.2125 -15.3129
# 4 -0.9726 28.9954 24.3035 43.8728 -3.9446 -8.4020
# 5 -15.9237 -8.9563 -14.2125 -3.9446 46.8726 1.2338
# 6 -4.1912 0.8322 -15.3129 -8.4020 1.2338 28.5984
#
#
#
# Elastic Compliance Matrix: (Units=1/GPa)
#
#
# Indices 1 2 3 4 5 6 
#
# 1 0.018485 -0.002287 -0.004354 0.005106 0.004907 0.001733
# 2 -0.002287 0.010332 -0.002177 -0.006368 0.000098 -0.003677
# 3 -0.004354 -0.002177 0.012858 -0.004717 0.001479 0.004861
# 4 0.005106 -0.006368 -0.004717 0.031309 0.001524 0.007541
# 5 0.004907 0.000098 0.001479 0.001524 0.023572 0.000939
# 6 0.001733 -0.003677 0.004861 0.007541 0.000939 0.040105
#
#
# Mechanical properties :
#
#
# Convention : Reuss Voigt Hill
#
# Bulk Modulus (GPa) = 41.59726 53.73260 47.66493
# Shear Modulus (GPa) = 30.80521 38.42675 34.61598
#
# Velocity S-wave (km/s) = 3.35836 3.75087 3.56003
# Velocity P-wave (km/s) = 5.50163 6.19932 5.86087
#
# Compressibility (1/GPa) = 0.02404005
#
# Stress axis : x y z
#
# Youngs Moduli (GPa) = 54.09714 96.78787 77.77269
#
# Poissons Ratio (x) = 0.22135 0.33859
# Poissons Ratio (y) = 0.12372 0.16931
# Poissons Ratio (z) = 0.23551 0.21071
#
# Static dielectric constant tensor:
#      x y z
#    x 2.191490 -0.005690 0.052350 
#    y -0.005690 2.127280 -0.005120 
#    z 0.052350 -0.005120 2.131520 
# 
# From -- ./inp_files/316065.got.cif
#   From: 2010.05.17/outbox.cif.g08.bks.cpg/sg2_159_cif.got.tgz:316065.got - 2010.06.03 11:33:40.
