data_PCOD9102108
_publ_section_title
;
Structure prediction by ZEFSAII (Michael W. Deem and Ramdas Pophale) SiO2 
 PCOD9102108
Probable space group: P -1
;
_chemical_formula_sum "Si O2"
_cell_formula_units_Z 14
_cell_length_a 8.108011
_cell_length_b 16.493204
_cell_length_c 6.873314
_cell_angle_alpha 80.677959
_cell_angle_beta 37.930306
_cell_angle_gamma 69.341070
_cell_volume 517.752524
_symmetry_space_group_name_H-M "P -1"
_symmetry_group_IT_number 2
_symmetry_cell_setting 'triclinic'
loop_
_space_group_symop_operation_xyz
x,y,z
-x,-y,-z
loop_
_atom_site_type_symbol
_atom_site_label
_atom_site_fract_x
_atom_site_fract_y
_atom_site_fract_z
Si Si1 0.053523 0.687794 0.196641
Si Si2 0.780878 0.461412 0.621332
Si Si3 0.732483 0.811449 0.730242
Si Si4 0.648640 0.092735 0.477408
Si Si5 0.617917 0.611623 0.447756
Si Si6 0.647088 0.254034 0.651521
Si Si7 0.725076 0.017302 0.022687
O O1 0.866671 0.786894 0.397926
O O2 0.876848 0.643804 0.246925
O O3 0.102940 0.640207 0.382785
O O4 0.353789 0.664683 0.817378
O O5 0.719403 0.507909 0.449602
O O6 0.000000 0.500000 0.500000
O O7 0.500000 0.500000 0.000000
O O8 0.518501 0.912780 0.910121
O O9 0.010038 0.787256 0.621113
O O10 0.526414 0.757773 0.994634
O O11 0.578341 0.190852 0.581819
O O12 0.728072 0.078580 0.181958
O O13 0.397408 0.055744 0.762493
O O14 0.945915 0.029632 0.329601
O O15 0.495761 0.646222 0.335323
#
# Coordination Sequence:
#
# PCOD9102108 Si02
#       7
#     2   2   2   2   2   2   2
#     4  10  20  38  62  84 112 151 195 235 276 332
#     4   8  16  32  58  86 106 140 194 240 272 318
#     4  12  25  38  56  87 122 151 184 230 289 342
#     4  10  22  40  61  82 107 146 194 236 277 331
#     4  10  20  38  62  84 112 151 195 235 276 332
#     4  12  25  38  56  87 122 151 184 230 289 342
#     4  10  22  40  61  82 107 146 194 236 277 331
#
# _framework density 27.039947000000002
#
# number of rings (size 3 to 8) (size 9 to 14) (size 15 to 20)
#    0.000    1.714    0.000    4.286    0.000    6.857 
#    0.000    1.429    0.000    0.000    0.000    0.000 
#    0.000    0.000    0.000    0.000    0.000    0.000 
#
# Total GULP energy -78416.000120 kJ/mol
# GULP energy per Si atom -5601.142866 kJ/mol
# Density = 2.697840 g / cm^3
# Si number density = 27.039947 Si / 1000 Ang^3
#
#
#
# Elastic Constant Matrix: (Units=GPa)
#
#
# Indices 1 2 3 4 5 6 
#
# 1 79.2672 13.8537 2.6782 -3.6852 -21.0612 -15.6094
# 2 13.8537 96.6427 14.3075 -1.0047 -9.9786 -22.1619
# 3 2.6782 14.3075 122.2870 -0.9881 -26.1626 6.4070
# 4 -3.6852 -1.0047 -0.9881 37.1820 0.1505 2.6097
# 5 -21.0612 -9.9786 -26.1626 0.1505 43.2168 11.1143
# 6 -15.6094 -22.1619 6.4070 2.6097 11.1143 53.2192
#
#
#
# Elastic Compliance Matrix: (Units=1/GPa)
#
#
# Indices 1 2 3 4 5 6 
#
# 1 0.015220 -0.001076 0.001255 0.001324 0.007341 0.002267
# 2 -0.001076 0.011844 -0.001618 -0.000168 -0.000008 0.004821
# 3 0.001255 -0.001618 0.010015 0.000530 0.007074 -0.003015
# 4 0.001324 -0.000168 0.000530 0.027123 0.001172 -0.001320
# 5 0.007341 -0.000008 0.007074 0.001172 0.032415 -0.005529
# 6 0.002267 0.004821 -0.003015 -0.001320 -0.005529 0.023045
#
#
# Mechanical properties :
#
#
# Convention : Reuss Voigt Hill
#
# Bulk Modulus (GPa) = 29.23895 39.98621 34.61258
# Shear Modulus (GPa) = 37.32989 44.54744 40.93867
#
# Velocity S-wave (km/s) = 3.71960 4.06330 3.89525
# Velocity P-wave (km/s) = 5.41147 6.06909 5.74969
#
# Compressibility (1/GPa) = 0.03420095
#
# Stress axis : x y z
#
# Youngs Moduli (GPa) = 65.70480 84.42959 99.84960
#
# Poissons Ratio (x) = 0.09085 -0.12531
# Poissons Ratio (y) = 0.07070 0.16155
# Poissons Ratio (z) = -0.08246 0.13660
#
# Static dielectric constant tensor:
#      x y z
#    x 2.173480 -0.094110 -0.020910 
#    y -0.094110 2.180150 0.011640 
#    z -0.020910 0.011640 2.007120 
# 
# From -- ./inp_files/41827.got.cif
#   From: 2010.05.17/outbox.cif.g08.bks.cpg/sg2_21_cif.got.tgz:41827.got - 2010.06.03 11:33:40.
