data_PCOD9102411
_publ_section_title
;
Structure prediction by ZEFSAII (Michael W. Deem and Ramdas Pophale) SiO2 
 PCOD9102411
Probable space group: P -1
;
_chemical_formula_sum "Si O2"
_cell_formula_units_Z 15
_cell_length_a 13.799297
_cell_length_b 10.559344
_cell_length_c 8.786972
_cell_angle_alpha 41.370519
_cell_angle_beta 130.552433
_cell_angle_gamma 128.218731
_cell_volume 620.790474
_symmetry_space_group_name_H-M "P -1"
_symmetry_group_IT_number 2
_symmetry_cell_setting 'triclinic'
loop_
_space_group_symop_operation_xyz
x,y,z
-x,-y,-z
loop_
_atom_site_type_symbol
_atom_site_label
_atom_site_fract_x
_atom_site_fract_y
_atom_site_fract_z
Si Si1 0.671302 0.538791 0.072616
Si Si2 0.950103 0.683839 0.130877
Si Si3 0.316500 0.010627 0.376422
Si Si4 0.281713 0.894095 0.929800
Si Si5 0.000000 0.000000 0.500000
Si Si6 0.774401 0.346160 0.619332
Si Si7 0.034515 0.905196 0.328772
Si Si8 0.527023 0.171216 0.082804
O O1 0.806929 0.536896 0.121803
O O2 0.696485 0.473636 0.327814
O O3 0.557249 0.381508 0.009833
O O4 0.662312 0.761542 0.846986
O O5 0.069492 0.585890 0.321631
O O6 0.962213 0.802420 0.197103
O O7 0.968457 0.860444 0.866173
O O8 0.272110 0.869585 0.315114
O O9 0.188070 0.934874 0.422640
O O10 0.440410 0.973248 0.624135
O O11 0.365430 0.831745 0.935343
O O12 0.151198 0.962923 0.693802
O O13 0.247568 0.706539 0.180004
O O14 0.385134 0.080104 0.948274
O O15 0.965382 0.827081 0.484905
#
# Coordination Sequence:
#
# PCOD9102411 Si02
#       8
#     2   2   2   2   1   2   2   2
#     4  10  21  37  67  97 124 170 209 258 324 386
#     4   9  17  34  58  90 129 157 203 263 319 357
#     4   9  19  39  67  92 124 167 207 261 318 376
#     4  11  24  42  65  92 129 173 211 266 314 381
#     4  12  20  36  68  94 118 170 228 252 310 376
#     4  10  20  38  62  96 128 162 216 266 310 372
#     4   9  17  31  60  92 120 162 207 255 308 368
#     4  10  23  46  64  89 135 170 208 256 328 383
#
# _framework density 24.162741
#
# number of rings (size 3 to 8) (size 9 to 14) (size 15 to 20)
#    0.000    2.133    2.667    1.200    0.000    2.133 
#    0.000   10.000    0.000    0.000    0.000    0.000 
#    0.000    0.000    0.000    0.000    0.000    0.000 
#
# Total GULP energy -83603.163873 kJ/mol
# GULP energy per Si atom -5573.544258 kJ/mol
# Density = 2.410775 g / cm^3
# Si number density = 24.162741 Si / 1000 Ang^3
#
#
#
# Elastic Constant Matrix: (Units=GPa)
#
#
# Indices 1 2 3 4 5 6 
#
# 1 107.2514 -0.0954 11.5395 3.8547 -5.7090 16.4721
# 2 -0.0954 49.5555 28.8823 -9.3377 15.0368 12.1380
# 3 11.5395 28.8823 83.3269 -20.4422 20.3852 5.5197
# 4 3.8547 -9.3377 -20.4422 38.3904 3.0428 8.6980
# 5 -5.7090 15.0368 20.3852 3.0428 35.4922 6.9030
# 6 16.4721 12.1380 5.5197 8.6980 6.9030 29.3533
#
#
#
# Elastic Compliance Matrix: (Units=1/GPa)
#
#
# Indices 1 2 3 4 5 6 
#
# 1 0.010999 0.002129 -0.002992 -0.000873 0.004058 -0.007185
# 2 0.002129 0.030738 -0.006582 0.007299 -0.006959 -0.013194
# 3 -0.002992 -0.006582 0.019482 0.009819 -0.009748 0.000120
# 4 -0.000873 0.007299 0.009819 0.036851 -0.009491 -0.013062
# 5 0.004058 -0.006959 -0.009748 -0.009491 0.038950 -0.003914
# 6 -0.007185 -0.013194 0.000120 -0.013062 -0.003914 0.048324
#
#
# Mechanical properties :
#
#
# Convention : Reuss Voigt Hill
#
# Bulk Modulus (GPa) = 21.58474 35.64296 28.61385
# Shear Modulus (GPa) = 23.18267 33.96768 28.57517
#
# Velocity S-wave (km/s) = 3.10084 3.75345 3.44264
# Velocity P-wave (km/s) = 4.66613 5.79377 5.26025
#
# Compressibility (1/GPa) = 0.04632902
#
# Stress axis : x y z
#
# Youngs Moduli (GPa) = 90.91994 32.53252 51.32870
#
# Poissons Ratio (x) = -0.06927 0.15359
# Poissons Ratio (y) = -0.19358 0.33785
# Poissons Ratio (z) = 0.27205 0.21413
#
# Static dielectric constant tensor:
#      x y z
#    x 1.617740 -0.087190 0.421880 
#    y -0.087190 1.884500 0.128490 
#    z 0.421880 0.128490 1.354510 
# 
# From -- ./inp_files/306373.got.cif
#   From: 2010.05.17/outbox.cif.g08.bks.cpg/sg2_154_cif.got.tgz:306373.got - 2010.06.03 11:33:40.
