data_PCOD9102126
_publ_section_title
;
Structure prediction by ZEFSAII (Michael W. Deem and Ramdas Pophale) SiO2 
 PCOD9102126
Probable space group: P -1
;
_chemical_formula_sum "Si O2"
_cell_formula_units_Z 14
_cell_length_a 9.781687
_cell_length_b 9.970839
_cell_length_c 12.277799
_cell_angle_alpha 128.434633
_cell_angle_beta 56.438734
_cell_angle_gamma 120.947734
_cell_volume 754.462163
_symmetry_space_group_name_H-M "P -1"
_symmetry_group_IT_number 2
_symmetry_cell_setting 'triclinic'
loop_
_space_group_symop_operation_xyz
x,y,z
-x,-y,-z
loop_
_atom_site_type_symbol
_atom_site_label
_atom_site_fract_x
_atom_site_fract_y
_atom_site_fract_z
Si Si1 0.551672 0.921377 0.325717
Si Si2 0.935250 0.081297 0.176529
Si Si3 0.828826 0.506280 0.142332
Si Si4 0.369123 0.437511 0.925949
Si Si5 0.964893 0.570001 0.802854
Si Si6 0.030488 0.083237 0.696574
Si Si7 0.195802 0.847971 0.347963
O O1 0.574226 0.725045 0.233265
O O2 0.396151 0.899781 0.300794
O O3 0.500000 0.000000 0.500000
O O4 0.731561 0.030862 0.254562
O O5 0.999271 0.293435 0.243093
O O6 0.999564 0.995670 0.210077
O O7 0.000000 0.000000 0.000000
O O8 0.669546 0.442764 0.097706
O O9 0.850815 0.715825 0.257837
O O10 0.862975 0.416367 0.195142
O O11 0.000000 0.500000 0.000000
O O12 0.500000 0.500000 0.000000
O O13 0.183116 0.379641 0.034801
O O14 0.885345 0.362609 0.706918
O O15 0.862286 0.098390 0.716210
O O16 0.116696 0.955222 0.525377
#
# Coordination Sequence:
#
# PCOD9102126 Si02
#       7
#     2   2   2   2   2   2   2
#     4  12  22  39  62  88 119 164 202 243 300 368
#     4  12  22  38  60  90 124 157 194 254 313 350
#     4   9  17  34  55  82 113 159 200 234 292 363
#     4  11  19  34  59  88 116 155 208 250 284 360
#     4  10  21  35  59  88 119 154 199 250 302 352
#     4  10  20  38  62  85 119 162 206 243 296 370
#     4  10  21  39  63  88 116 162 212 242 291 369
#
# _framework density 18.556266000000001
#
# number of rings (size 3 to 8) (size 9 to 14) (size 15 to 20)
#    0.000    1.429    5.714    0.857    0.000    0.571 
#    0.000    2.143    0.000    8.571    0.000    0.000 
#    0.000    0.000    0.000    0.000    0.000    0.000 
#
# Total GULP energy -77974.174532 kJ/mol
# GULP energy per Si atom -5569.583895 kJ/mol
# Density = 1.851403 g / cm^3
# Si number density = 18.556266 Si / 1000 Ang^3
#
#
#
# Elastic Constant Matrix: (Units=GPa)
#
#
# Indices 1 2 3 4 5 6 
#
# 1 174.6435 39.5053 32.4342 -8.3693 -0.4573 -17.8837
# 2 39.5053 83.8385 30.9066 -1.1079 0.0809 -16.1693
# 3 32.4342 30.9066 99.8330 14.6948 -5.5700 -1.2210
# 4 -8.3693 -1.1079 14.6948 29.7802 -4.1490 0.7473
# 5 -0.4573 0.0809 -5.5700 -4.1490 26.0725 -2.4627
# 6 -17.8837 -16.1693 -1.2210 0.7473 -2.4627 25.5798
#
#
#
# Elastic Compliance Matrix: (Units=1/GPa)
#
#
# Indices 1 2 3 4 5 6 
#
# 1 0.007035 -0.001807 -0.002083 0.002915 0.000492 0.003639
# 2 -0.001807 0.016194 -0.004635 0.002177 0.000096 0.008697
# 3 -0.002083 -0.004635 0.013192 -0.006992 0.001360 -0.003421
# 4 0.002915 0.002177 -0.006992 0.038554 0.004915 0.002427
# 5 0.000492 0.000096 0.001360 0.004915 0.039829 0.004160
# 6 0.003639 0.008697 -0.003421 0.002427 0.004160 0.047301
#
#
# Mechanical properties :
#
#
# Convention : Reuss Voigt Hill
#
# Bulk Modulus (GPa) = 51.62626 62.66746 57.14686
# Shear Modulus (GPa) = 26.93792 33.31776 30.12784
#
# Velocity S-wave (km/s) = 3.81424 4.24193 4.03376
# Velocity P-wave (km/s) = 6.87603 7.60506 7.24971
#
# Compressibility (1/GPa) = 0.01936999
#
# Stress axis : x y z
#
# Youngs Moduli (GPa) = 142.14086 61.75145 75.80543
#
# Poissons Ratio (x) = 0.11160 0.15793
# Poissons Ratio (y) = 0.25688 0.35135
# Poissons Ratio (z) = 0.29613 0.28621
#
# Static dielectric constant tensor:
#      x y z
#    x 1.719190 -0.015480 0.037990 
#    y -0.015480 1.653800 0.039510 
#    z 0.037990 0.039510 1.674270 
# 
# From -- ./inp_files/189886.got.cif
#   From: 2010.05.17/outbox.cif.g08.bks.cpg/sg2_95_cif.got.tgz:189886.got - 2010.06.03 11:33:40.
