data_PCOD9102090
_publ_section_title
;
Structure prediction by ZEFSAII (Michael W. Deem and Ramdas Pophale) SiO2 
 PCOD9102090
Probable space group: P -1
;
_chemical_formula_sum "Si O2"
_cell_formula_units_Z 12
_cell_length_a 14.604349
_cell_length_b 15.177320
_cell_length_c 7.769729
_cell_angle_alpha 44.813972
_cell_angle_beta 64.570368
_cell_angle_gamma 30.968064
_cell_volume 543.326281
_symmetry_space_group_name_H-M "P -1"
_symmetry_group_IT_number 2
_symmetry_cell_setting 'triclinic'
loop_
_space_group_symop_operation_xyz
x,y,z
-x,-y,-z
loop_
_atom_site_type_symbol
_atom_site_label
_atom_site_fract_x
_atom_site_fract_y
_atom_site_fract_z
Si Si1 0.131754 0.110602 0.743893
Si Si2 0.643784 0.374206 0.718828
Si Si3 0.543585 0.807551 0.728675
Si Si4 0.756955 0.457938 0.742876
Si Si5 0.249481 0.745876 0.686432
Si Si6 0.945215 0.259764 0.325283
O O1 0.956235 0.329676 0.721863
O O2 0.030164 0.225800 0.478328
O O3 0.351202 0.944745 0.786552
O O4 0.175184 0.918102 0.013533
O O5 0.500000 0.500000 0.500000
O O6 0.695598 0.460269 0.607772
O O7 0.490287 0.497019 0.825819
O O8 0.579459 0.719761 0.626117
O O9 0.500000 0.000000 0.500000
O O10 0.766152 0.537699 0.006915
O O11 0.804937 0.288659 0.064457
O O12 0.168086 0.754887 0.573270
O O13 0.150327 0.989335 0.437401
#
# Coordination Sequence:
#
# PCOD9102090 Si02
#       6
#     2   2   2   2   2   2
#     4  12  24  41  66  99 133 169 215 270 332 388
#     4  12  23  36  66 107 142 168 202 265 339 402
#     4  11  27  49  67  90 129 178 229 273 313 376
#     4  11  23  40  67 101 133 170 212 265 328 396
#     4  10  20  38  62 100 137 170 206 261 334 399
#     4  10  21  39  66  93 131 168 217 266 324 386
#
# _framework density 22.086175999999998
#
# number of rings (size 3 to 8) (size 9 to 14) (size 15 to 20)
#    0.000    1.000    5.000    3.000    7.000    1.333 
#    0.000    0.833    0.000    0.000    0.000    0.000 
#    0.000    0.000    0.000    0.000    0.000    0.000 
#
# Total GULP energy -66844.731713 kJ/mol
# GULP energy per Si atom -5570.394309 kJ/mol
# Density = 2.203591 g / cm^3
# Si number density = 22.086176 Si / 1000 Ang^3
#
#
#
# Elastic Constant Matrix: (Units=GPa)
#
#
# Indices 1 2 3 4 5 6 
#
# 1 65.3947 24.3314 41.3647 -2.5159 -5.0938 7.5892
# 2 24.3314 101.8526 10.7754 -13.5597 -12.9050 -11.1859
# 3 41.3647 10.7754 99.9534 -11.7572 -7.3820 19.1766
# 4 -2.5159 -13.5597 -11.7572 23.3580 10.7262 6.0460
# 5 -5.0938 -12.9050 -7.3820 10.7262 36.8050 3.0063
# 6 7.5892 -11.1859 19.1766 6.0460 3.0063 30.0108
#
#
#
# Elastic Compliance Matrix: (Units=1/GPa)
#
#
# Indices 1 2 3 4 5 6 
#
# 1 0.023183 -0.005220 -0.009466 -0.005652 0.001187 -0.000739
# 2 -0.005220 0.012366 0.000743 0.004989 0.001961 0.004253
# 3 -0.009466 0.000743 0.017104 0.010660 0.000125 -0.010419
# 4 -0.005652 0.004989 0.010660 0.060279 -0.013291 -0.014335
# 5 0.001187 0.001961 0.000125 -0.013291 0.031935 -0.000171
# 6 -0.000739 0.004253 -0.010419 -0.014335 -0.000171 0.044656
#
#
# Mechanical properties :
#
#
# Convention : Reuss Voigt Hill
#
# Bulk Modulus (GPa) = 40.37778 46.68262 43.53020
# Shear Modulus (GPa) = 22.15664 30.75002 26.45333
#
# Velocity S-wave (km/s) = 3.17075 3.73537 3.46458
# Velocity P-wave (km/s) = 5.63263 6.30765 5.97967
#
# Compressibility (1/GPa) = 0.02476610
#
# Stress axis : x y z
#
# Youngs Moduli (GPa) = 43.13577 80.86520 58.46484
#
# Poissons Ratio (x) = 0.42210 0.55345
# Poissons Ratio (y) = 0.22516 -0.04342
# Poissons Ratio (z) = 0.40834 -0.06006
#
# Static dielectric constant tensor:
#      x y z
#    x 1.861740 0.015300 0.070720 
#    y 0.015300 2.029490 0.019360 
#    z 0.070720 0.019360 1.808310 
# 
# From -- ./inp_files/314607.got.cif
#   From: 2010.05.17/outbox.cif.g08.bks.cpg/sg2_158_cif.got.tgz:314607.got - 2010.06.03 11:33:40.
