data_PCOD9102576
_publ_section_title
;
Structure prediction by ZEFSAII (Michael W. Deem and Ramdas Pophale) SiO2 
 PCOD9102576
Probable space group: P -1
;
_chemical_formula_sum "Si O2"
_cell_formula_units_Z 16
_cell_length_a 18.495998
_cell_length_b 9.851372
_cell_length_c 11.334380
_cell_angle_alpha 137.970234
_cell_angle_beta 152.580336
_cell_angle_gamma 44.677156
_cell_volume 627.721055
_symmetry_space_group_name_H-M "P -1"
_symmetry_group_IT_number 2
_symmetry_cell_setting 'triclinic'
loop_
_space_group_symop_operation_xyz
x,y,z
-x,-y,-z
loop_
_atom_site_type_symbol
_atom_site_label
_atom_site_fract_x
_atom_site_fract_y
_atom_site_fract_z
Si Si1 0.925898 0.711975 0.090698
Si Si2 0.771837 0.884172 0.584491
Si Si3 0.411405 0.812345 0.646539
Si Si4 0.590788 0.619200 0.304751
Si Si5 0.283121 0.902774 0.025064
Si Si6 0.089433 0.763114 0.841699
Si Si7 0.264394 0.797891 0.660041
Si Si8 0.751529 0.539180 0.934531
O O1 0.075191 0.831149 0.390397
O O2 0.785599 0.855155 0.908348
O O3 0.861239 0.655211 0.086899
O O4 0.000000 0.500000 0.000000
O O5 0.725042 0.706885 0.482733
O O6 0.903018 0.805100 0.625022
O O7 0.618728 0.006759 0.375694
O O8 0.842787 0.047143 0.874178
O O9 0.350557 0.888684 0.736126
O O10 0.587067 0.685639 0.818693
O O11 0.295222 0.652391 0.332342
O O12 0.662781 0.447257 0.391586
O O13 0.500000 0.500000 0.000000
O O14 0.451205 0.802711 0.261645
O O15 0.154784 0.775422 0.813174
O O16 0.293746 0.873567 0.881507
O O17 0.164425 0.559898 0.890064
#
# Coordination Sequence:
#
# PCOD9102576 Si02
#       8
#     2   2   2   2   2   2   2   2
#     4  12  24  40  66  97 128 168 221 269 324 386
#     4  10  21  38  64  92 125 166 218 268 323 376
#     4  10  20  38  63  91 127 165 208 268 324 379
#     4  10  23  43  63  92 132 173 216 263 325 392
#     4  11  25  43  62  97 133 173 217 264 330 395
#     4  10  22  38  64  93 128 166 214 269 323 383
#     4  11  23  43  65  92 135 172 211 269 330 389
#     4  10  21  38  61  96 123 161 218 266 318 379
#
# _framework density 25.48903
#
# number of rings (size 3 to 8) (size 9 to 14) (size 15 to 20)
#    0.000    1.500    1.250    3.375    5.250    0.500 
#    0.000   16.250    0.000    0.000    0.000    0.000 
#    0.000    0.000    0.000    0.000    0.000    0.000 
#
# Total GULP energy -89710.373428 kJ/mol
# GULP energy per Si atom -5606.898339 kJ/mol
# Density = 2.543102 g / cm^3
# Si number density = 25.489030 Si / 1000 Ang^3
#
#
#
# Elastic Constant Matrix: (Units=GPa)
#
#
# Indices 1 2 3 4 5 6 
#
# 1 130.5166 17.1304 20.9341 7.0086 15.7391 12.4554
# 2 17.1304 125.7338 17.3947 -16.9632 -3.5574 2.7135
# 3 20.9341 17.3947 55.9257 -1.7166 14.9013 -10.4703
# 4 7.0086 -16.9632 -1.7166 34.2284 0.6356 9.3949
# 5 15.7391 -3.5574 14.9013 0.6356 38.0896 0.4529
# 6 12.4554 2.7135 -10.4703 9.3949 0.4529 39.3898
#
#
#
# Elastic Compliance Matrix: (Units=1/GPa)
#
#
# Indices 1 2 3 4 5 6 
#
# 1 0.008973 -0.001026 -0.002995 -0.001582 -0.002568 -0.003156
# 2 -0.001026 0.009444 -0.003578 0.005372 0.002647 -0.002589
# 3 -0.002995 -0.003578 0.023831 -0.002034 -0.008482 0.008111
# 4 -0.001582 0.005372 -0.002034 0.034445 0.001479 -0.008643
# 5 -0.002568 0.002647 -0.008482 0.001479 0.030884 -0.002333
# 6 -0.003156 -0.002589 0.008111 -0.008643 -0.002333 0.030808
#
#
# Mechanical properties :
#
#
# Convention : Reuss Voigt Hill
#
# Bulk Modulus (GPa) = 36.96978 47.01050 41.99014
# Shear Modulus (GPa) = 30.75072 39.45602 35.10337
#
# Velocity S-wave (km/s) = 3.47714 3.93868 3.71508
# Velocity P-wave (km/s) = 5.53682 6.25841 5.90864
#
# Compressibility (1/GPa) = 0.02704912
#
# Stress axis : x y z
#
# Youngs Moduli (GPa) = 111.44981 105.89034 41.96235
#
# Poissons Ratio (x) = 0.10866 0.12566
# Poissons Ratio (y) = 0.11437 0.15015
# Poissons Ratio (z) = 0.33375 0.37891
#
# Static dielectric constant tensor:
#      x y z
#    x 1.953000 -0.073600 -0.037820 
#    y -0.073600 2.019370 0.045420 
#    z -0.037820 0.045420 2.053200 
# 
# From -- ./inp_files/462508.got.cif
#   From: 2010.05.17/outbox.cif.g08.bks.cpg/sg2_232_cif.got.tgz:462508.got - 2010.06.03 11:33:40.
