data_PCOD9102654
_publ_section_title
;
Structure prediction by ZEFSAII (Michael W. Deem and Ramdas Pophale) SiO2 
 PCOD9102654
Probable space group: P -1
;
_chemical_formula_sum "Si O2"
_cell_formula_units_Z 14
_cell_length_a 13.021980
_cell_length_b 23.638082
_cell_length_c 9.393533
_cell_angle_alpha 33.223009
_cell_angle_beta 130.372643
_cell_angle_gamma 154.191293
_cell_volume 618.819011
_symmetry_space_group_name_H-M "P -1"
_symmetry_group_IT_number 2
_symmetry_cell_setting 'triclinic'
loop_
_space_group_symop_operation_xyz
x,y,z
-x,-y,-z
loop_
_atom_site_type_symbol
_atom_site_label
_atom_site_fract_x
_atom_site_fract_y
_atom_site_fract_z
Si Si1 0.066052 0.126680 0.501137
Si Si2 0.467312 0.486952 0.280254
Si Si3 0.387047 0.251398 0.924018
Si Si4 0.010549 0.731697 0.184472
Si Si5 0.338260 0.121989 0.599799
Si Si6 0.059919 0.446353 0.773603
Si Si7 0.140766 0.565881 0.135470
O O1 0.261322 0.345877 0.263997
O O2 0.255055 0.158420 0.554340
O O3 0.860226 0.006941 0.440490
O O4 0.885862 0.971332 0.796659
O O5 0.373038 0.335163 0.622591
O O6 0.476525 0.601001 0.129792
O O7 0.762853 0.646200 0.168807
O O8 0.565970 0.278816 0.963610
O O9 0.994044 0.682634 0.110206
O O10 0.982030 0.615471 0.510235
O O11 0.276547 0.972250 0.934817
O O12 0.634915 0.337340 0.369474
O O13 0.000000 0.500000 0.500000
O O14 0.888135 0.355958 0.949050
O O15 0.000000 0.500000 0.000000
#
# Coordination Sequence:
#
# PCOD9102654 Si02
#       7
#     2   2   2   2   2   2   2
#     4  11  22  36  61  96 130 155 202 263 314 373
#     4  10  20  38  63  94 123 165 202 254 326 366
#     4  10  21  39  61  90 127 163 206 254 314 378
#     4  10  21  41  66  90 123 162 210 257 311 373
#     4  11  23  37  62  96 124 161 206 260 315 362
#     4  10  22  42  65  86 124 172 211 251 304 375
#     4  10  22  40  63  87 121 167 207 253 303 366
#
# _framework density 22.623737999999999
#
# number of rings (size 3 to 8) (size 9 to 14) (size 15 to 20)
#    0.000    1.714    2.857    1.286    0.000    5.143 
#    0.000    1.429    0.000    6.857    0.000    0.000 
#    0.000    0.000    0.000    0.000    0.000    0.000 
#
# Total GULP energy -78260.000905 kJ/mol
# GULP energy per Si atom -5590.000065 kJ/mol
# Density = 2.257225 g / cm^3
# Si number density = 22.623738 Si / 1000 Ang^3
#
#
#
# Elastic Constant Matrix: (Units=GPa)
#
#
# Indices 1 2 3 4 5 6 
#
# 1 138.7615 35.2778 34.2692 -13.0098 -27.9531 -9.7847
# 2 35.2778 83.2190 22.9188 -0.4582 0.3955 -13.5401
# 3 34.2692 22.9188 65.8103 -2.6191 -4.1572 0.6130
# 4 -13.0098 -0.4582 -2.6191 41.2064 -6.2578 1.5664
# 5 -27.9531 0.3955 -4.1572 -6.2578 17.3423 -0.0743
# 6 -9.7847 -13.5401 0.6130 1.5664 -0.0743 31.6278
#
#
#
# Elastic Compliance Matrix: (Units=1/GPa)
#
#
# Indices 1 2 3 4 5 6 
#
# 1 0.016667 -0.005485 -0.004576 0.009256 0.029243 0.002507
# 2 -0.005485 0.016304 -0.003744 -0.003734 -0.011434 0.005513
# 3 -0.004576 -0.003744 0.018695 -0.000634 -0.003053 -0.003357
# 4 0.009256 -0.003734 -0.000634 0.031074 0.026064 -0.000201
# 5 0.029243 -0.011434 -0.003053 0.026064 0.113746 0.003187
# 6 0.002507 0.005513 -0.003357 -0.000201 0.003187 0.034836
#
#
# Mechanical properties :
#
#
# Convention : Reuss Voigt Hill
#
# Bulk Modulus (GPa) = 41.57138 52.52471 47.04804
# Shear Modulus (GPa) = 18.73004 31.05696 24.89350
#
# Velocity S-wave (km/s) = 2.88044 3.70910 3.32072
# Velocity P-wave (km/s) = 5.42932 6.45060 5.96187
#
# Compressibility (1/GPa) = 0.02405501
#
# Stress axis : x y z
#
# Youngs Moduli (GPa) = 59.99949 61.33613 53.48956
#
# Poissons Ratio (x) = 0.33643 0.24479
# Poissons Ratio (y) = 0.32910 0.20026
# Poissons Ratio (z) = 0.27458 0.22963
#
# Static dielectric constant tensor:
#      x y z
#    x 1.893000 0.011050 0.027780 
#    y 0.011050 1.875940 0.059220 
#    z 0.027780 0.059220 1.857030 
# 
# From -- ./inp_files/282207.got.cif
#   From: 2010.05.17/outbox.cif.g08.bks.cpg/sg2_142_cif.got.tgz:282207.got - 2010.06.03 11:33:40.
