data_PCOD9102825
_publ_section_title
;
Structure prediction by ZEFSAII (Michael W. Deem and Ramdas Pophale) SiO2 
 PCOD9102825
Probable space group: P -1
;
_chemical_formula_sum "Si O2"
_cell_formula_units_Z 14
_cell_length_a 9.572130
_cell_length_b 7.287329
_cell_length_c 12.576898
_cell_angle_alpha 56.998072
_cell_angle_beta 129.262978
_cell_angle_gamma 109.067026
_cell_volume 569.436962
_symmetry_space_group_name_H-M "P -1"
_symmetry_group_IT_number 2
_symmetry_cell_setting 'triclinic'
loop_
_space_group_symop_operation_xyz
x,y,z
-x,-y,-z
loop_
_atom_site_type_symbol
_atom_site_label
_atom_site_fract_x
_atom_site_fract_y
_atom_site_fract_z
Si Si1 0.579299 0.785758 0.041268
Si Si2 0.671599 0.745973 0.678344
Si Si3 0.960247 0.689224 0.340226
Si Si4 0.219048 0.608236 0.987337
Si Si5 0.799992 0.075013 0.924143
Si Si6 0.675767 0.240769 0.609338
Si Si7 0.972410 0.873355 0.638836
O O1 0.755627 0.675597 0.211948
O O2 0.415581 0.625663 0.023670
O O3 0.500000 0.000000 0.000000
O O4 0.666640 0.875854 0.946586
O O5 0.775638 0.597053 0.863823
O O6 0.478938 0.658680 0.573328
O O7 0.774580 0.795653 0.600900
O O8 0.660578 0.983708 0.653330
O O9 0.000000 0.500000 0.500000
O O10 0.126228 0.672641 0.345148
O O11 0.981269 0.926521 0.325701
O O12 0.176448 0.801008 0.992290
O O13 0.092435 0.665710 0.806290
O O14 0.682383 0.236145 0.740955
O O15 0.000000 0.000000 0.000000
O O16 0.000000 0.000000 0.500000
#
# Coordination Sequence:
#
# PCOD9102825 Si02
#       7
#     2   2   2   2   2   2   2
#     4  10  20  38  64  89 125 159 202 260 314 363
#     4  10  23  43  63  89 131 169 207 255 319 382
#     4  11  21  40  62  91 125 161 207 261 316 367
#     4  11  23  42  66  93 125 168 212 262 314 377
#     4  11  20  38  66  90 123 163 208 260 315 361
#     4  10  22  40  64  92 128 164 207 264 315 372
#     4  11  24  41  60  89 127 167 206 258 312 374
#
# _framework density 24.585687
#
# number of rings (size 3 to 8) (size 9 to 14) (size 15 to 20)
#    0.000    1.429    4.286    2.143    2.000    1.714 
#    2.571    0.714    0.000    0.000    0.000    0.000 
#    0.000    0.000    0.000    0.000    0.000    0.000 
#
# Total GULP energy -78059.530191 kJ/mol
# GULP energy per Si atom -5575.680728 kJ/mol
# Density = 2.452973 g / cm^3
# Si number density = 24.585687 Si / 1000 Ang^3
#
#
#
# Elastic Constant Matrix: (Units=GPa)
#
#
# Indices 1 2 3 4 5 6 
#
# 1 137.1461 27.6675 47.1198 5.1585 -2.2214 16.9212
# 2 27.6675 48.6802 19.1218 -6.5822 6.2382 0.3132
# 3 47.1198 19.1218 187.0063 -17.8965 -6.5607 -1.1970
# 4 5.1585 -6.5822 -17.8965 40.3815 8.2340 2.1167
# 5 -2.2214 6.2382 -6.5607 8.2340 45.1943 -0.8753
# 6 16.9212 0.3132 -1.1970 2.1167 -0.8753 30.3779
#
#
#
# Elastic Compliance Matrix: (Units=1/GPa)
#
#
# Indices 1 2 3 4 5 6 
#
# 1 0.009932 -0.005328 -0.002244 -0.003132 0.001366 -0.005308
# 2 -0.005328 0.025231 -0.000888 0.005263 -0.004790 0.002168
# 3 -0.002244 -0.000888 0.006293 0.002770 0.000447 0.001327
# 4 -0.003132 0.005263 0.002770 0.028422 -0.005663 -0.000344
# 5 0.001366 -0.004790 0.000447 -0.005663 0.023959 0.000391
# 6 -0.005308 0.002168 0.001327 -0.000344 0.000391 0.035941
#
#
# Mechanical properties :
#
#
# Convention : Reuss Voigt Hill
#
# Bulk Modulus (GPa) = 40.75539 62.29454 51.52496
# Shear Modulus (GPa) = 32.28404 41.78562 37.03483
#
# Velocity S-wave (km/s) = 3.62764 4.12708 3.88539
# Velocity P-wave (km/s) = 5.84459 6.93564 6.41336
#
# Compressibility (1/GPa) = 0.02453663
#
# Stress axis : x y z
#
# Youngs Moduli (GPa) = 100.68453 39.63430 158.91239
#
# Poissons Ratio (x) = 0.21117 0.35653
# Poissons Ratio (y) = 0.53644 0.14111
# Poissons Ratio (z) = 0.22589 0.03519
#
# Static dielectric constant tensor:
#      x y z
#    x 1.997010 -0.037310 0.027460 
#    y -0.037310 2.023530 -0.028070 
#    z 0.027460 -0.028070 2.183240 
# 
# From -- ./inp_files/381131.got.cif
#   From: 2010.05.17/outbox.cif.g08.bks.cpg/sg2_191_cif.got.tgz:381131.got - 2010.06.03 11:33:40.
