data_PCOD9102483
_publ_section_title
;
Structure prediction by ZEFSAII (Michael W. Deem and Ramdas Pophale) SiO2 
 PCOD9102483
Probable space group: P -1
;
_chemical_formula_sum "Si O2"
_cell_formula_units_Z 16
_cell_length_a 5.798953
_cell_length_b 17.719082
_cell_length_c 9.624039
_cell_angle_alpha 130.572662
_cell_angle_beta 117.605122
_cell_angle_gamma 90.241690
_cell_volume 593.076553
_symmetry_space_group_name_H-M "P -1"
_symmetry_group_IT_number 2
_symmetry_cell_setting 'triclinic'
loop_
_space_group_symop_operation_xyz
x,y,z
-x,-y,-z
loop_
_atom_site_type_symbol
_atom_site_label
_atom_site_fract_x
_atom_site_fract_y
_atom_site_fract_z
Si Si1 0.409441 0.702613 0.252894
Si Si2 0.162653 0.913333 0.312585
Si Si3 0.835280 0.520200 0.112945
Si Si4 0.341986 0.587574 0.686521
Si Si5 0.767455 0.219722 0.055328
Si Si6 0.257844 0.995229 0.743624
Si Si7 0.049852 0.769150 0.434510
Si Si8 0.411453 0.385049 0.522703
O O1 0.213717 0.596547 0.972060
O O2 0.221452 0.759480 0.332929
O O3 0.500104 0.662731 0.376276
O O4 0.726241 0.763602 0.342389
O O5 0.111308 0.927622 0.477379
O O6 0.500000 0.000000 0.500000
O O7 0.146092 0.805317 0.101857
O O8 0.959108 0.953487 0.215239
O O9 0.500000 0.500000 0.000000
O O10 0.000000 0.500000 0.000000
O O11 0.996765 0.651157 0.350585
O O12 0.414140 0.709826 0.905852
O O13 0.479341 0.515034 0.713292
O O14 0.433338 0.606509 0.572248
O O15 0.000000 0.500000 0.500000
O O16 0.072137 0.299776 0.306791
O O17 0.566901 0.099273 0.922185
O O18 0.252998 0.891172 0.702477
#
# Coordination Sequence:
#
# PCOD9102483 Si02
#       8
#     2   2   2   2   2   2   2   2
#     4  10  22  39  63  90 128 167 208 256 312 375
#     4   9  20  38  60  86 120 159 206 259 317 360
#     4   8  16  36  55  80 116 155 198 248 300 352
#     4   9  20  38  60  86 120 159 206 259 317 360
#     4  10  20  38  63  86 128 159 204 264 318 370
#     4  10  21  39  62  90 125 162 208 257 316 376
#     4  10  22  39  63  90 128 167 208 256 312 375
#     4  10  21  39  62  90 125 162 208 257 316 376
#
# _framework density 26.977969000000002
#
# number of rings (size 3 to 8) (size 9 to 14) (size 15 to 20)
#    0.000    2.500    0.000    0.750    7.000    0.000 
#   13.500    2.500    0.000    0.000    0.000    0.000 
#    0.000    0.000    0.000    0.000    0.000    0.000 
#
# Total GULP energy -89103.743952 kJ/mol
# GULP energy per Si atom -5568.983997 kJ/mol
# Density = 2.691657 g / cm^3
# Si number density = 26.977969 Si / 1000 Ang^3
#
#
#
# Elastic Constant Matrix: (Units=GPa)
#
#
# Indices 1 2 3 4 5 6 
#
# 1 202.0102 49.2581 53.3386 15.3909 -9.3452 11.2814
# 2 49.2581 113.9462 68.8145 20.2444 -5.1182 20.4362
# 3 53.3386 68.8145 132.7806 40.6501 -13.6325 6.6323
# 4 15.3909 20.2444 40.6501 63.2119 1.8146 -4.7301
# 5 -9.3452 -5.1182 -13.6325 1.8146 67.5042 16.0439
# 6 11.2814 20.4362 6.6323 -4.7301 16.0439 36.8075
#
#
#
# Elastic Compliance Matrix: (Units=1/GPa)
#
#
# Indices 1 2 3 4 5 6 
#
# 1 0.005766 -0.001384 -0.001440 -0.000132 0.000654 -0.001042
# 2 -0.001384 0.014709 -0.006266 -0.000936 0.001432 -0.007358
# 3 -0.001440 -0.006266 0.013602 -0.006485 0.002338 -0.000383
# 4 -0.000132 -0.000936 -0.006485 0.020858 -0.003355 0.005871
# 5 0.000654 0.001432 0.002338 -0.003355 0.017865 -0.009635
# 6 -0.001042 -0.007358 -0.000383 0.005871 -0.009635 0.036596
#
#
# Mechanical properties :
#
#
# Convention : Reuss Voigt Hill
#
# Bulk Modulus (GPa) = 62.90242 87.95106 75.42674
# Shear Modulus (GPa) = 37.62977 51.99312 44.81145
#
# Velocity S-wave (km/s) = 3.73880 4.39480 4.08001
# Velocity P-wave (km/s) = 6.48113 7.64357 7.08623
#
# Compressibility (1/GPa) = 0.01589764
#
# Stress axis : x y z
#
# Youngs Moduli (GPa) = 173.42360 67.98762 73.52099
#
# Poissons Ratio (x) = 0.09407 0.10586
# Poissons Ratio (y) = 0.23995 0.46068
# Poissons Ratio (z) = 0.24970 0.42601
#
# Static dielectric constant tensor:
#      x y z
#    x 2.150860 -0.008180 0.004650 
#    y -0.008180 2.315260 -0.020140 
#    z 0.004650 -0.020140 2.228180 
# 
# From -- ./inp_files/370140.got.cif
#   From: 2010.05.17/outbox.cif.g08.bks.cpg/sg2_186_cif.got.tgz:370140.got - 2010.06.03 11:33:40.
