data_PCOD9102150
_publ_section_title
;
Structure prediction by ZEFSAII (Michael W. Deem and Ramdas Pophale) SiO2 
 PCOD9102150
Probable space group: P -1
;
_chemical_formula_sum "Si O2"
_cell_formula_units_Z 16
_cell_length_a 9.465818
_cell_length_b 22.935836
_cell_length_c 5.774378
_cell_angle_alpha 52.068120
_cell_angle_beta 54.363396
_cell_angle_gamma 49.382404
_cell_volume 714.876473
_symmetry_space_group_name_H-M "P -1"
_symmetry_group_IT_number 2
_symmetry_cell_setting 'triclinic'
loop_
_space_group_symop_operation_xyz
x,y,z
-x,-y,-z
loop_
_atom_site_type_symbol
_atom_site_label
_atom_site_fract_x
_atom_site_fract_y
_atom_site_fract_z
Si Si1 0.250899 0.835412 0.353876
Si Si2 0.720031 0.017418 0.804307
Si Si3 0.471553 0.316647 0.782149
Si Si4 0.223318 0.715324 0.047884
Si Si5 0.978377 0.548351 0.151003
Si Si6 0.649125 0.938299 0.691365
Si Si7 0.064030 0.152252 0.705827
Si Si8 0.683391 0.413399 0.094293
O O1 0.214615 0.917905 0.319456
O O2 0.461347 0.770229 0.208001
O O3 0.114883 0.857805 0.206571
O O4 0.191736 0.782882 0.716531
O O5 0.750944 0.990809 0.573979
O O6 0.487428 0.067515 0.963854
O O7 0.820299 0.928541 0.051600
O O8 0.574166 0.301043 0.975874
O O9 0.241595 0.375859 0.839123
O O10 0.589634 0.361418 0.440502
O O11 0.037268 0.760363 0.282864
O O12 0.234748 0.634791 0.107904
O O13 0.000000 0.500000 0.500000
O O14 0.000000 0.500000 0.000000
O O15 0.150867 0.575870 0.946124
O O16 0.794782 0.856392 0.621711
O O17 0.500000 0.000000 0.500000
O O18 0.500000 0.500000 0.000000
#
# Coordination Sequence:
#
# PCOD9102150 Si02
#       8
#     2   2   2   2   2   2   2   2
#     4  10  22  40  62  92 125 170 220 277 340 401
#     4  10  20  38  62  86 123 171 221 277 332 397
#     4  10  24  46  66 100 144 177 228 287 347 423
#     4  10  23  41  66  95 135 178 220 279 347 410
#     4  12  27  46  77 112 140 182 241 288 351 432
#     4   9  20  36  55  85 120 163 215 271 332 396
#     4  10  20  38  63  89 124 164 224 276 332 406
#     4  11  23  45  76 100 138 182 225 282 352 415
#
# _framework density 22.381488000000001
#
# number of rings (size 3 to 8) (size 9 to 14) (size 15 to 20)
#    0.000    1.750    1.250    1.875    3.500    7.000 
#   13.500    0.000    0.000    0.000    0.000    0.000 
#    0.000    0.000    0.000    0.000    0.000    0.000 
#
# Total GULP energy -89221.520476 kJ/mol
# GULP energy per Si atom -5576.345030 kJ/mol
# Density = 2.233055 g / cm^3
# Si number density = 22.381488 Si / 1000 Ang^3
#
#
#
# Elastic Constant Matrix: (Units=GPa)
#
#
# Indices 1 2 3 4 5 6 
#
# 1 143.0834 80.6547 31.5206 11.2493 11.1521 -6.2726
# 2 80.6547 156.0678 32.3401 38.3248 6.2044 -4.5770
# 3 31.5206 32.3401 29.6981 9.3301 6.6660 -0.2369
# 4 11.2493 38.3248 9.3301 38.7278 -3.7327 2.0617
# 5 11.1521 6.2044 6.6660 -3.7327 35.8557 5.4358
# 6 -6.2726 -4.5770 -0.2369 2.0617 5.4358 47.7686
#
#
#
# Elastic Compliance Matrix: (Units=1/GPa)
#
#
# Indices 1 2 3 4 5 6 
#
# 1 0.011328 -0.005100 -0.007272 0.003354 -0.001082 0.000941
# 2 -0.005100 0.012566 -0.004962 -0.009895 -0.000852 0.001034
# 3 -0.007272 -0.004962 0.050098 -0.005689 -0.006760 -0.000167
# 4 0.003354 -0.009895 -0.005689 0.036735 0.005976 -0.002801
# 5 -0.001082 -0.000852 -0.006760 0.005976 0.030863 -0.004027
# 6 0.000941 0.001034 -0.000167 -0.002801 -0.004027 0.021735
#
#
# Mechanical properties :
#
#
# Convention : Reuss Voigt Hill
#
# Bulk Modulus (GPa) = 25.43114 68.65333 47.04223
# Shear Modulus (GPa) = 23.68539 36.75934 30.22237
#
# Velocity S-wave (km/s) = 3.25662 4.05705 3.67867
# Velocity P-wave (km/s) = 5.05252 7.25858 6.25360
#
# Compressibility (1/GPa) = 0.03932188
#
# Stress axis : x y z
#
# Youngs Moduli (GPa) = 88.27775 79.58265 19.96102
#
# Poissons Ratio (x) = 0.40590 0.14517
# Poissons Ratio (y) = 0.45024 0.09904
# Poissons Ratio (z) = 0.64200 0.39487
#
# Static dielectric constant tensor:
#      x y z
#    x 1.937580 0.026700 -0.002650 
#    y 0.026700 1.848740 0.042180 
#    z -0.002650 0.042180 1.952080 
# 
# From -- ./inp_files/52350.got.cif
#   From: 2010.05.17/outbox.cif.g08.bks.cpg/sg2_27_cif.got.tgz:52350.got - 2010.06.03 11:33:40.
