data_PCOD9102691
_publ_section_title
;
Structure prediction by ZEFSAII (Michael W. Deem and Ramdas Pophale) SiO2 
 PCOD9102691
Probable space group: P -1
;
_chemical_formula_sum "Si O2"
_cell_formula_units_Z 16
_cell_length_a 14.536829
_cell_length_b 5.158576
_cell_length_c 8.373733
_cell_angle_alpha 87.149663
_cell_angle_beta 82.569564
_cell_angle_gamma 80.868390
_cell_volume 614.502621
_symmetry_space_group_name_H-M "P -1"
_symmetry_group_IT_number 2
_symmetry_cell_setting 'triclinic'
loop_
_space_group_symop_operation_xyz
x,y,z
-x,-y,-z
loop_
_atom_site_type_symbol
_atom_site_label
_atom_site_fract_x
_atom_site_fract_y
_atom_site_fract_z
Si Si1 0.379795 0.376224 0.520567
Si Si2 0.097860 0.037718 0.569306
Si Si3 0.792148 0.411267 0.628810
Si Si4 0.455348 0.852885 0.350446
Si Si5 0.028497 0.580923 0.237705
Si Si6 0.094255 0.736054 0.906144
Si Si7 0.397739 0.906799 0.021335
Si Si8 0.712325 0.521680 0.996100
O O1 0.271155 0.422365 0.496691
O O2 0.411921 0.660591 0.487935
O O3 0.432089 0.239342 0.668715
O O4 0.428951 0.158294 0.389377
O O5 0.176621 0.883372 0.438958
O O6 0.119349 0.901990 0.743544
O O7 0.000000 0.000000 0.500000
O O8 0.063854 0.324231 0.642213
O O9 0.886804 0.513550 0.660922
O O10 0.739956 0.442242 0.809310
O O11 0.404379 0.803817 0.203295
O O12 0.998141 0.362715 0.139624
O O13 0.061877 0.792989 0.098604
O O14 0.192042 0.542104 0.922505
O O15 0.364379 0.669533 0.936133
O O16 0.325147 0.170458 0.004542
O O17 0.500000 0.000000 0.000000
#
# Coordination Sequence:
#
# PCOD9102691 Si02
#       8
#     2   2   2   2   2   2   2   2
#     4  10  20  38  63  96 125 184 211 277 334 415
#     4  10  22  40  63  99 136 179 228 287 346 401
#     4  10  20  41  63 102 136 179 233 280 341 412
#     4  10  20  39  65  91 136 163 228 270 347 403
#     4   9  21  42  66  97 136 188 225 282 347 397
#     4  10  22  43  67  97 137 182 233 283 335 418
#     4  12  24  44  71 101 135 178 228 294 348 411
#     4  11  25  44  71 103 136 185 237 279 349 417
#
# _framework density 26.037316000000001
#
# number of rings (size 3 to 8) (size 9 to 14) (size 15 to 20)
#    0.000    1.750    2.500    0.750    1.750    3.000 
#   20.250    2.500    0.000    0.000    0.000    0.000 
#    0.000    0.000    0.000    0.000    0.000    0.000 
#
# Total GULP energy -89083.230682 kJ/mol
# GULP energy per Si atom -5567.701918 kJ/mol
# Density = 2.597805 g / cm^3
# Si number density = 26.037316 Si / 1000 Ang^3
#
#
#
# Elastic Constant Matrix: (Units=GPa)
#
#
# Indices 1 2 3 4 5 6 
#
# 1 114.7092 61.3930 27.6553 -13.1032 47.3606 -19.9651
# 2 61.3930 77.2790 13.4393 -5.5795 31.4279 -37.3184
# 3 27.6553 13.4393 101.2120 -12.6382 12.1288 -23.5612
# 4 -13.1032 -5.5795 -12.6382 30.0776 -3.8826 5.4932
# 5 47.3606 31.4279 12.1288 -3.8826 40.4892 -6.6291
# 6 -19.9651 -37.3184 -23.5612 5.4932 -6.6291 36.3050
#
#
#
# Elastic Compliance Matrix: (Units=1/GPa)
#
#
# Indices 1 2 3 4 5 6 
#
# 1 0.023355 -0.016634 -0.004209 0.005372 -0.014337 -0.010417
# 2 -0.016634 0.060448 0.011983 -0.004329 -0.022071 0.057389
# 3 -0.004209 0.011983 0.014634 0.002514 -0.005556 0.018105
# 4 0.005372 -0.004329 0.002514 0.036728 -0.001075 -0.005617
# 5 -0.014337 -0.022071 -0.005556 -0.001075 0.056274 -0.023739
# 6 -0.010417 0.057389 0.018105 -0.005617 -0.023739 0.089072
#
#
# Mechanical properties :
#
#
# Convention : Reuss Voigt Hill
#
# Bulk Modulus (GPa) = 12.38922 55.35281 33.87102
# Shear Modulus (GPa) = 15.37816 34.08852 24.73334
#
# Velocity S-wave (km/s) = 2.43290 3.62224 3.08542
# Velocity P-wave (km/s) = 3.55818 6.22891 5.07247
#
# Compressibility (1/GPa) = 0.08071532
#
# Stress axis : x y z
#
# Youngs Moduli (GPa) = 42.81744 16.54314 68.33616
#
# Poissons Ratio (x) = 0.27518 0.28763
# Poissons Ratio (y) = 0.71224 -0.81885
# Poissons Ratio (z) = 0.18022 -0.19823
#
# Static dielectric constant tensor:
#      x y z
#    x 2.195400 0.224200 -0.413320 
#    y 0.224200 2.498960 -0.809890 
#    z -0.413320 -0.809890 3.646920 
# 
# From -- ./inp_files/288847.got.cif
#   From: 2010.05.17/outbox.cif.g08.bks.cpg/sg2_145_cif.got.tgz:288847.got - 2010.06.03 11:33:40.
