data_PCOD9102595
_publ_section_title
;
Structure prediction by ZEFSAII (Michael W. Deem and Ramdas Pophale) SiO2 
 PCOD9102595
Probable space group: P -1
;
_chemical_formula_sum "Si O2"
_cell_formula_units_Z 14
_cell_length_a 9.770141
_cell_length_b 10.488404
_cell_length_c 8.353401
_cell_angle_alpha 44.016625
_cell_angle_beta 114.620708
_cell_angle_gamma 117.739327
_cell_volume 521.760137
_symmetry_space_group_name_H-M "P -1"
_symmetry_group_IT_number 2
_symmetry_cell_setting 'triclinic'
loop_
_space_group_symop_operation_xyz
x,y,z
-x,-y,-z
loop_
_atom_site_type_symbol
_atom_site_label
_atom_site_fract_x
_atom_site_fract_y
_atom_site_fract_z
Si Si1 0.503985 0.789269 0.903507
Si Si2 0.982748 0.666781 0.071168
Si Si3 0.285770 0.926579 0.458982
Si Si4 0.271832 0.446516 0.711971
Si Si5 0.318634 0.614238 0.258084
Si Si6 0.932924 0.910180 0.258316
Si Si7 0.758147 0.766687 0.608303
O O1 0.364085 0.780464 0.717925
O O2 0.629454 0.985014 0.742186
O O3 0.590609 0.622320 0.074912
O O4 0.433161 0.772792 0.062893
O O5 0.866592 0.531301 0.260490
O O6 0.137402 0.610292 0.149112
O O7 0.877018 0.695187 0.845611
O O8 0.038976 0.877740 0.986463
O O9 0.101042 0.871283 0.400235
O O10 0.323744 0.111257 0.429741
O O11 0.331057 0.605916 0.463096
O O12 0.184364 0.256853 0.741400
O O13 0.337564 0.417353 0.368061
O O14 0.854469 0.909307 0.394433
#
# Coordination Sequence:
#
# PCOD9102595 Si02
#       7
#     2   2   2   2   2   2   2
#     4  11  22  41  63  91 128 159 200 254 310 362
#     4  11  20  39  63  92 121 162 210 251 295 363
#     4  10  21  39  67  92 119 158 210 255 302 354
#     4  11  23  41  64  92 127 158 203 253 310 359
#     4  11  24  38  60  90 130 165 198 243 313 368
#     4  10  20  38  68  91 119 157 209 259 298 354
#     4  10  20  38  63  92 120 161 209 252 295 361
#
# _framework density 26.832253000000001
#
# number of rings (size 3 to 8) (size 9 to 14) (size 15 to 20)
#    0.000    1.429    2.857    5.143    0.000    1.714 
#    0.000    7.857    0.000    0.000    0.000    0.000 
#    0.000    0.000    0.000    0.000    0.000    0.000 
#
# Total GULP energy -78460.880685 kJ/mol
# GULP energy per Si atom -5604.348620 kJ/mol
# Density = 2.677118 g / cm^3
# Si number density = 26.832253 Si / 1000 Ang^3
#
#
#
# Elastic Constant Matrix: (Units=GPa)
#
#
# Indices 1 2 3 4 5 6 
#
# 1 175.9331 14.3048 65.2161 -2.3790 -15.9728 -15.4565
# 2 14.3048 89.8340 10.0720 -18.8723 -5.1514 -3.2425
# 3 65.2161 10.0720 128.6667 3.6984 -30.6790 -11.7777
# 4 -2.3790 -18.8723 3.6984 23.3803 -10.2195 7.5949
# 5 -15.9728 -5.1514 -30.6790 -10.2195 59.1728 7.6622
# 6 -15.4565 -3.2425 -11.7777 7.5949 7.6622 21.8092
#
#
#
# Elastic Compliance Matrix: (Units=1/GPa)
#
#
# Indices 1 2 3 4 5 6 
#
# 1 0.007270 -0.000842 -0.003374 -0.000797 -0.000470 0.003648
# 2 -0.000842 0.014616 -0.000703 0.015423 0.004070 -0.005604
# 3 -0.003374 -0.000703 0.010767 -0.001679 0.003997 0.002499
# 4 -0.000797 0.015423 -0.001679 0.072559 0.016714 -0.030319
# 5 -0.000470 0.004070 0.003997 0.016714 0.023599 -0.011681
# 6 0.003648 -0.005604 0.002499 -0.030319 -0.011681 0.063616
#
#
# Mechanical properties :
#
#
# Convention : Reuss Voigt Hill
#
# Bulk Modulus (GPa) = 43.83267 63.73548 53.78408
# Shear Modulus (GPa) = 23.82409 41.19518 32.50963
#
# Velocity S-wave (km/s) = 2.98298 3.92252 3.48456
# Velocity P-wave (km/s) = 5.31371 6.65731 6.02309
#
# Compressibility (1/GPa) = 0.02281403
#
# Stress axis : x y z
#
# Youngs Moduli (GPa) = 137.54575 68.41990 92.87222
#
# Poissons Ratio (x) = 0.05761 0.31339
# Poissons Ratio (y) = 0.11581 0.06531
# Poissons Ratio (z) = 0.46414 0.04812
#
# Static dielectric constant tensor:
#      x y z
#    x 2.051310 -0.010630 -0.016870 
#    y -0.010630 2.133250 0.001810 
#    z -0.016870 0.001810 2.085390 
# 
# From -- ./inp_files/177735.got.cif
#   From: 2010.05.17/outbox.cif.g08.bks.cpg/sg2_89_cif.got.tgz:177735.got - 2010.06.03 11:33:40.
