data_PCOD9102750
_publ_section_title
;
Structure prediction by ZEFSAII (Michael W. Deem and Ramdas Pophale) SiO2 
 PCOD9102750
Probable space group: P -1
;
_chemical_formula_sum "Si O2"
_cell_formula_units_Z 16
_cell_length_a 15.116244
_cell_length_b 13.184669
_cell_length_c 11.311121
_cell_angle_alpha 42.115287
_cell_angle_beta 27.521468
_cell_angle_gamma 46.694046
_cell_volume 695.714361
_symmetry_space_group_name_H-M "P -1"
_symmetry_group_IT_number 2
_symmetry_cell_setting 'triclinic'
loop_
_space_group_symop_operation_xyz
x,y,z
-x,-y,-z
loop_
_atom_site_type_symbol
_atom_site_label
_atom_site_fract_x
_atom_site_fract_y
_atom_site_fract_z
Si Si1 0.700591 0.411960 0.375792
Si Si2 0.203684 0.044573 0.023332
Si Si3 0.957388 0.468873 0.237074
Si Si4 0.819664 0.706133 0.348264
Si Si5 0.935601 0.331457 0.706287
Si Si6 0.123754 0.162358 0.403833
Si Si7 0.430960 0.843600 0.092928
Si Si8 0.425643 0.764043 0.902833
O O1 0.500000 0.500000 0.500000
O O2 0.810204 0.488842 0.286516
O O3 0.660995 0.247730 0.614703
O O4 0.859132 0.431934 0.070830
O O5 0.315264 0.999925 0.051280
O O6 0.996701 0.982202 0.338318
O O7 0.323965 0.936153 0.878536
O O8 0.196548 0.206324 0.832789
O O9 0.843970 0.530305 0.433395
O O10 0.040259 0.293238 0.298554
O O11 0.634005 0.743492 0.617056
O O12 0.001707 0.745514 0.176140
O O13 0.000000 0.500000 0.500000
O O14 0.062409 0.241076 0.533608
O O15 0.716081 0.323275 0.935649
O O16 0.350881 0.132843 0.156430
O O17 0.430179 0.739370 0.062359
#
# Coordination Sequence:
#
# PCOD9102750 Si02
#       8
#     2   2   2   2   2   2   2   2
#     4  11  22  41  66  87 116 155 201 253 304 360
#     4   9  22  39  59  87 125 166 195 240 293 368
#     4  11  24  38  63  95 117 148 205 253 304 350
#     4  12  23  38  61  92 128 155 200 250 294 352
#     4  11  21  34  55  90 126 157 193 243 296 346
#     4  11  19  39  61  87 120 161 199 242 298 357
#     4  10  20  38  64  84 113 161 207 238 294 361
#     4   9  22  37  60  84 127 167 195 230 297 364
#
# _framework density 22.997945000000001
#
# number of rings (size 3 to 8) (size 9 to 14) (size 15 to 20)
#    0.750    0.750    5.000    0.375    0.000    5.500 
#    0.000    0.625    0.000    1.500    0.000    0.000 
#    0.000    0.000    0.000    0.000    0.000    0.000 
#
# Total GULP energy -89293.085838 kJ/mol
# GULP energy per Si atom -5580.817865 kJ/mol
# Density = 2.294560 g / cm^3
# Si number density = 22.997945 Si / 1000 Ang^3
#
#
#
# Elastic Constant Matrix: (Units=GPa)
#
#
# Indices 1 2 3 4 5 6 
#
# 1 114.0724 24.4192 27.2363 4.2344 -22.3471 -28.7378
# 2 24.4192 53.4063 28.2894 3.1031 -8.0090 -16.5662
# 3 27.2363 28.2894 87.9626 10.4077 -9.7889 -19.4793
# 4 4.2344 3.1031 10.4077 23.9600 -13.1329 4.7238
# 5 -22.3471 -8.0090 -9.7889 -13.1329 39.1746 0.0926
# 6 -28.7378 -16.5662 -19.4793 4.7238 0.0926 33.3698
#
#
#
# Elastic Compliance Matrix: (Units=1/GPa)
#
#
# Indices 1 2 3 4 5 6 
#
# 1 0.013188 -0.001496 -0.000530 -0.000082 0.007033 0.010298
# 2 -0.001496 0.025287 -0.005469 -0.000785 0.002668 0.008177
# 3 -0.000530 -0.005469 0.015735 -0.007422 0.000007 0.007064
# 4 -0.000082 -0.000785 -0.007422 0.056977 0.017069 -0.012906
# 5 0.007033 0.002668 0.000007 0.017069 0.035797 0.004869
# 6 0.010298 0.008177 0.007064 -0.012906 0.004869 0.048832
#
#
# Mechanical properties :
#
#
# Convention : Reuss Voigt Hill
#
# Bulk Modulus (GPa) = 25.49610 46.14789 35.82200
# Shear Modulus (GPa) = 22.33354 31.00065 26.66710
#
# Velocity S-wave (km/s) = 3.11965 3.67546 3.40890
# Velocity P-wave (km/s) = 4.90781 6.17427 5.57711
#
# Compressibility (1/GPa) = 0.03922168
#
# Stress axis : x y z
#
# Youngs Moduli (GPa) = 75.82531 39.54561 63.55406
#
# Poissons Ratio (x) = 0.05915 0.03366
# Poissons Ratio (y) = 0.11341 0.34757
# Poissons Ratio (z) = 0.04016 0.21627
#
# Static dielectric constant tensor:
#      x y z
#    x 1.898550 -0.025390 0.060540 
#    y -0.025390 1.863050 -0.017670 
#    z 0.060540 -0.017670 1.870860 
# 
# From -- ./inp_files/454478.got.cif
#   From: 2010.05.17/outbox.cif.g08.bks.cpg/sg2_228_cif.got.tgz:454478.got - 2010.06.03 11:33:40.
