data_PCOD9102668
_publ_section_title
;
Structure prediction by ZEFSAII (Michael W. Deem and Ramdas Pophale) SiO2 
 PCOD9102668
Probable space group: P -1
;
_chemical_formula_sum "Si O2"
_cell_formula_units_Z 16
_cell_length_a 19.397609
_cell_length_b 18.623458
_cell_length_c 4.979754
_cell_angle_alpha 116.011958
_cell_angle_beta 69.729417
_cell_angle_gamma 155.339311
_cell_volume 668.018057
_symmetry_space_group_name_H-M "P -1"
_symmetry_group_IT_number 2
_symmetry_cell_setting 'triclinic'
loop_
_space_group_symop_operation_xyz
x,y,z
-x,-y,-z
loop_
_atom_site_type_symbol
_atom_site_label
_atom_site_fract_x
_atom_site_fract_y
_atom_site_fract_z
Si Si1 0.448663 0.003488 0.824400
Si Si2 0.610237 0.894305 0.119276
Si Si3 0.103024 0.172515 0.778012
Si Si4 0.413470 0.290748 0.864260
Si Si5 0.871024 0.064284 0.656582
Si Si6 0.678047 0.630278 0.685873
Si Si7 0.947927 0.368184 0.212023
Si Si8 0.940658 0.269031 0.549572
O O1 0.251514 0.823272 0.823203
O O2 0.500000 0.000000 0.500000
O O3 0.507342 0.152005 0.924361
O O4 0.500000 0.000000 0.000000
O O5 0.537673 0.744519 0.114143
O O6 0.739122 0.062276 0.433132
O O7 0.732167 0.979568 0.863546
O O8 0.261212 0.335813 0.632911
O O9 0.166547 0.221830 0.072799
O O10 0.000000 0.000000 0.500000
O O11 0.983945 0.131517 0.832438
O O12 0.235091 0.099596 0.651155
O O13 0.539917 0.440957 0.706668
O O14 0.384615 0.339044 0.173908
O O15 0.980446 0.226574 0.579784
O O16 0.010001 0.358441 0.311818
O O17 0.000000 0.500000 0.500000
O O18 0.989383 0.387275 0.882503
#
# Coordination Sequence:
#
# PCOD9102668 Si02
#       8
#     2   2   2   2   2   2   2   2
#     4  11  23  41  66  95 125 164 214 274 320 381
#     4  10  22  41  70  97 129 173 232 258 331 408
#     4  12  25  42  65  99 132 174 220 277 319 379
#     4  10  24  41  71  94 132 185 212 273 331 398
#     4  11  22  40  73  91 128 176 227 260 322 395
#     4  11  26  44  63 102 140 167 225 275 333 377
#     4  11  22  41  66  92 127 163 210 261 325 390
#     4  10  20  38  63  95 119 167 213 261 300 399
#
# _framework density 23.951447999999999
#
# number of rings (size 3 to 8) (size 9 to 14) (size 15 to 20)
#    0.000    1.250    3.750    3.000    7.000    1.000 
#    0.000    3.750    0.000    0.000    0.000    0.000 
#    0.000    0.000    0.000    0.000    0.000    0.000 
#
# Total GULP energy -89470.120156 kJ/mol
# GULP energy per Si atom -5591.882510 kJ/mol
# Density = 2.389693 g / cm^3
# Si number density = 23.951448 Si / 1000 Ang^3
#
#
#
# Elastic Constant Matrix: (Units=GPa)
#
#
# Indices 1 2 3 4 5 6 
#
# 1 179.2294 24.4550 29.3373 -2.1924 5.0769 -26.1386
# 2 24.4550 41.2537 11.7925 -3.6794 -2.0584 -19.3650
# 3 29.3373 11.7925 101.7951 -13.2882 6.7357 -14.3757
# 4 -2.1924 -3.6794 -13.2882 42.7412 -5.5595 -5.6097
# 5 5.0769 -2.0584 6.7357 -5.5595 42.1091 -0.4351
# 6 -26.1386 -19.3650 -14.3757 -5.6097 -0.4351 37.2516
#
#
#
# Elastic Compliance Matrix: (Units=1/GPa)
#
#
# Indices 1 2 3 4 5 6 
#
# 1 0.006521 -0.002140 -0.001146 0.000105 -0.000662 0.003029
# 2 -0.002140 0.034203 -0.000454 0.005290 0.002876 0.016934
# 3 -0.001146 -0.000454 0.011326 0.003783 -0.001156 0.003887
# 4 0.000105 0.005290 0.003783 0.026546 0.003231 0.008319
# 5 -0.000662 0.002876 -0.001156 0.003231 0.024594 0.001358
# 6 0.003029 0.016934 0.003887 0.008319 0.001358 0.040541
#
#
# Mechanical properties :
#
#
# Convention : Reuss Voigt Hill
#
# Bulk Modulus (GPa) = 22.43669 50.38307 36.40988
# Shear Modulus (GPa) = 30.10854 41.53328 35.82091
#
# Velocity S-wave (km/s) = 3.54936 4.16872 3.87145
# Velocity P-wave (km/s) = 5.11714 6.65223 5.93453
#
# Compressibility (1/GPa) = 0.04456985
#
# Stress axis : x y z
#
# Youngs Moduli (GPa) = 153.35576 29.23758 88.29432
#
# Poissons Ratio (x) = 0.06256 0.10119
# Poissons Ratio (y) = 0.32813 0.04008
# Poissons Ratio (z) = 0.17576 0.01327
#
# Static dielectric constant tensor:
#      x y z
#    x 1.937070 -0.076180 -0.099390 
#    y -0.076180 1.929370 -0.005830 
#    z -0.099390 -0.005830 1.757680 
# 
# From -- ./inp_files/111528.got.cif
#   From: 2010.05.17/outbox.cif.g08.bks.cpg/sg2_56_cif.got.tgz:111528.got - 2010.06.03 11:33:40.
