data_PCOD9102696
_publ_section_title
;
Structure prediction by ZEFSAII (Michael W. Deem and Ramdas Pophale) SiO2 
 PCOD9102696
Probable space group: P -1
;
_chemical_formula_sum "Si O2"
_cell_formula_units_Z 16
_cell_length_a 24.141270
_cell_length_b 5.756775
_cell_length_c 5.498882
_cell_angle_alpha 99.723510
_cell_angle_beta 126.709927
_cell_angle_gamma 78.773418
_cell_volume 599.582622
_symmetry_space_group_name_H-M "P -1"
_symmetry_group_IT_number 2
_symmetry_cell_setting 'triclinic'
loop_
_space_group_symop_operation_xyz
x,y,z
-x,-y,-z
loop_
_atom_site_type_symbol
_atom_site_label
_atom_site_fract_x
_atom_site_fract_y
_atom_site_fract_z
Si Si1 0.517497 0.273129 0.828713
Si Si2 0.728244 0.117334 0.567631
Si Si3 0.849840 0.768703 0.647873
Si Si4 0.908630 0.103997 0.543759
Si Si5 0.393440 0.101302 0.648986
Si Si6 0.220107 0.547921 0.907625
Si Si7 0.354500 0.562496 0.964621
Si Si8 0.962911 0.685582 0.246830
O O1 0.443507 0.172603 0.575213
O O2 0.500000 0.500000 0.000000
O O3 0.568425 0.359371 0.770531
O O4 0.560644 0.071270 0.072163
O O5 0.685623 0.209430 0.236327
O O6 0.783101 0.891842 0.630266
O O7 0.672438 0.039152 0.601976
O O8 0.767856 0.340086 0.782754
O O9 0.821047 0.669851 0.305407
O O10 0.900067 0.961155 0.740582
O O11 0.898340 0.596100 0.918710
O O12 0.832526 0.245025 0.321644
O O13 0.972691 0.256052 0.737495
O O14 0.929265 0.915601 0.348864
O O15 0.366901 0.342099 0.769005
O O16 0.298788 0.497553 0.002836
O O17 0.000000 0.500000 0.500000
#
# Coordination Sequence:
#
# PCOD9102696 Si02
#       8
#     2   2   2   2   2   2   2   2
#     4   8  16  32  63  93 131 179 226 270 338 395
#     4  11  23  41  64  97 136 176 227 277 337 407
#     4  12  25  45  72  98 137 180 221 282 347 400
#     4  11  25  46  70 100 134 177 225 278 340 415
#     4   9  17  36  62  95 130 181 220 279 338 387
#     4  12  25  40  68 102 131 179 227 273 342 411
#     4  10  20  38  63  96 134 177 224 284 336 397
#     4  11  26  48  73 102 134 177 229 280 341 411
#
# _framework density 26.685233
#
# number of rings (size 3 to 8) (size 9 to 14) (size 15 to 20)
#    0.000    1.500    3.750    1.125    0.000    7.000 
#    0.000    0.625    0.000   25.500    0.000    0.000 
#    0.000    0.000    0.000    0.000    0.000    0.000 
#
# Total GULP energy -89493.089331 kJ/mol
# GULP energy per Si atom -5593.318083 kJ/mol
# Density = 2.662450 g / cm^3
# Si number density = 26.685233 Si / 1000 Ang^3
#
#
#
# Elastic Constant Matrix: (Units=GPa)
#
#
# Indices 1 2 3 4 5 6 
#
# 1 145.6458 44.7217 32.0853 4.9216 30.3080 3.3665
# 2 44.7217 83.2129 19.7881 0.9558 22.0315 -11.9058
# 3 32.0853 19.7881 78.2909 7.0553 28.1265 -3.7697
# 4 4.9216 0.9558 7.0553 31.0784 2.0964 8.4211
# 5 30.3080 22.0315 28.1265 2.0964 26.8833 6.4244
# 6 3.3665 -11.9058 -3.7697 8.4211 6.4244 53.8628
#
#
#
# Elastic Compliance Matrix: (Units=1/GPa)
#
#
# Indices 1 2 3 4 5 6 
#
# 1 0.009513 -0.002978 -0.000239 -0.000771 -0.007926 -0.000204
# 2 -0.002978 0.018085 0.002761 -0.001402 -0.015792 0.006480
# 3 -0.000239 0.002761 0.022472 -0.005023 -0.026584 0.006154
# 4 -0.000771 -0.001402 -0.005023 0.034910 0.006178 -0.006808
# 5 -0.007926 -0.015792 -0.026584 0.006178 0.090374 -0.016601
# 6 -0.000204 0.006480 0.006154 -0.006808 -0.016601 0.023486
#
#
# Mechanical properties :
#
#
# Convention : Reuss Voigt Hill
#
# Bulk Modulus (GPa) = 20.34193 55.59331 37.96762
# Shear Modulus (GPa) = 23.13334 36.40188 29.76761
#
# Velocity S-wave (km/s) = 2.94751 3.69741 3.34355
# Velocity P-wave (km/s) = 4.38442 6.25348 5.40042
#
# Compressibility (1/GPa) = 0.04915955
#
# Stress axis : x y z
#
# Youngs Moduli (GPa) = 105.11927 55.29292 44.49935
#
# Poissons Ratio (x) = 0.16464 0.01063
# Poissons Ratio (y) = 0.31301 -0.12286
# Poissons Ratio (z) = 0.02512 -0.15266
#
# Static dielectric constant tensor:
#      x y z
#    x 2.104170 0.032110 0.007240 
#    y 0.032110 2.112600 0.032850 
#    z 0.007240 0.032850 2.129740 
# 
# From -- ./inp_files/121628.got.cif
#   From: 2010.05.17/outbox.cif.g08.bks.cpg/sg2_61_cif.got.tgz:121628.got - 2010.06.03 11:33:40.
