data_PCOD9102871
_publ_section_title
;
Structure prediction by ZEFSAII (Michael W. Deem and Ramdas Pophale) SiO2 
 PCOD9102871
Probable space group: P -1
;
_chemical_formula_sum "Si O2"
_cell_formula_units_Z 16
_cell_length_a 14.911340
_cell_length_b 12.503614
_cell_length_c 9.741245
_cell_angle_alpha 140.659517
_cell_angle_beta 42.372598
_cell_angle_gamma 135.926785
_cell_volume 728.514655
_symmetry_space_group_name_H-M "P -1"
_symmetry_group_IT_number 2
_symmetry_cell_setting 'triclinic'
loop_
_space_group_symop_operation_xyz
x,y,z
-x,-y,-z
loop_
_atom_site_type_symbol
_atom_site_label
_atom_site_fract_x
_atom_site_fract_y
_atom_site_fract_z
Si Si1 0.335167 0.085861 0.643811
Si Si2 0.911172 0.069732 0.390809
Si Si3 0.161576 0.015208 0.179308
Si Si4 0.538317 0.886391 0.166696
Si Si5 0.516016 0.520081 0.168464
Si Si6 0.898920 0.303468 0.877924
Si Si7 0.701030 0.757926 0.509001
Si Si8 0.613879 0.367252 0.309702
O O1 0.412852 0.108514 0.724561
O O2 0.356033 0.289651 0.777052
O O3 0.172110 0.959784 0.687261
O O4 0.424916 0.981545 0.358686
O O5 0.919657 0.246431 0.642798
O O6 0.803423 0.906297 0.440347
O O7 0.063883 0.049393 0.205628
O O8 0.075377 0.843542 0.196085
O O9 0.216998 0.187409 0.385867
O O10 0.310216 0.000831 0.954730
O O11 0.481366 0.674633 0.983511
O O12 0.406117 0.565776 0.444667
O O13 0.500000 0.500000 0.000000
O O14 0.737786 0.288786 0.071966
O O15 0.000000 0.500000 0.000000
O O16 0.662957 0.544177 0.331520
O O17 0.541854 0.764635 0.689736
#
# Coordination Sequence:
#
# PCOD9102871 Si02
#       8
#     2   2   2   2   2   2   2   2
#     4  10  22  41  63  93 121 155 213 256 305 366
#     4  11  23  39  58  85 126 161 200 252 309 370
#     4  11  22  38  59  82 124 164 200 247 313 366
#     4  10  22  40  66  90 120 160 205 261 307 361
#     4  10  20  38  64  91 122 157 198 260 310 351
#     4  11  24  38  59  87 125 164 201 251 308 368
#     4  10  21  34  57  86 121 153 198 245 302 367
#     4  11  20  35  60  91 119 154 209 251 302 369
#
# _framework density 21.962496999999999
#
# number of rings (size 3 to 8) (size 9 to 14) (size 15 to 20)
#    0.000    1.500    2.500    3.750    1.750    1.500 
#    2.250    0.000    0.000    0.750    0.000    0.000 
#    0.000    0.000    0.000    0.000    0.000    0.000 
#
# Total GULP energy -89107.125761 kJ/mol
# GULP energy per Si atom -5569.195360 kJ/mol
# Density = 2.191251 g / cm^3
# Si number density = 21.962497 Si / 1000 Ang^3
#
#
#
# Elastic Constant Matrix: (Units=GPa)
#
#
# Indices 1 2 3 4 5 6 
#
# 1 81.7440 22.0661 40.2600 9.2615 -8.2669 29.2196
# 2 22.0661 82.4846 17.1939 23.9059 -1.5817 11.0609
# 3 40.2600 17.1939 75.4655 11.3776 -1.6403 15.1729
# 4 9.2615 23.9059 11.3776 38.0028 7.7629 1.1657
# 5 -8.2669 -1.5817 -1.6403 7.7629 32.4493 -6.4316
# 6 29.2196 11.0609 15.1729 1.1657 -6.4316 38.8355
#
#
#
# Elastic Compliance Matrix: (Units=1/GPa)
#
#
# Indices 1 2 3 4 5 6 
#
# 1 0.021642 -0.001843 -0.008381 -0.001870 0.003086 -0.011917
# 2 -0.001843 0.015920 -0.000681 -0.009734 0.002158 -0.002232
# 3 -0.008381 -0.000681 0.018445 -0.002888 -0.000691 -0.000735
# 4 -0.001870 -0.009734 -0.002888 0.035523 -0.009052 0.002743
# 5 0.003086 0.002158 -0.000691 -0.009052 0.034497 0.003318
# 6 -0.011917 -0.002232 -0.000735 0.002743 0.003318 0.036106
#
#
# Mechanical properties :
#
#
# Convention : Reuss Voigt Hill
#
# Bulk Modulus (GPa) = 29.24126 44.30378 36.77252
# Shear Modulus (GPa) = 25.59605 32.53578 29.06591
#
# Velocity S-wave (km/s) = 3.41756 3.85310 3.64185
# Velocity P-wave (km/s) = 5.37737 6.32546 5.87058
#
# Compressibility (1/GPa) = 0.03419825
#
# Stress axis : x y z
#
# Youngs Moduli (GPa) = 46.20567 62.81261 54.21407
#
# Poissons Ratio (x) = 0.11579 0.45436
# Poissons Ratio (y) = 0.08518 0.03690
# Poissons Ratio (z) = 0.38725 0.04275
#
# Static dielectric constant tensor:
#      x y z
#    x 1.936330 -0.059180 0.080940 
#    y -0.059180 1.798530 -0.047770 
#    z 0.080940 -0.047770 1.893220 
# 
# From -- ./inp_files/283375.got.cif
#   From: 2010.05.17/outbox.cif.g08.bks.cpg/sg2_142_cif.got.tgz:283375.got - 2010.06.03 11:33:40.
