data_PCOD9102349
_publ_section_title
;
Structure prediction by ZEFSAII (Michael W. Deem and Ramdas Pophale) SiO2 
 PCOD9102349
Probable space group: P -1
;
_chemical_formula_sum "Si O2"
_cell_formula_units_Z 14
_cell_length_a 14.294541
_cell_length_b 9.348232
_cell_length_c 8.142501
_cell_angle_alpha 65.241328
_cell_angle_beta 93.317763
_cell_angle_gamma 140.937847
_cell_volume 550.529579
_symmetry_space_group_name_H-M "P -1"
_symmetry_group_IT_number 2
_symmetry_cell_setting 'triclinic'
loop_
_space_group_symop_operation_xyz
x,y,z
-x,-y,-z
loop_
_atom_site_type_symbol
_atom_site_label
_atom_site_fract_x
_atom_site_fract_y
_atom_site_fract_z
Si Si1 0.580775 0.927702 0.816884
Si Si2 0.345678 0.862108 0.714888
Si Si3 0.844759 0.900691 0.985589
Si Si4 0.157625 0.527657 0.195296
Si Si5 0.717298 0.626070 0.745022
Si Si6 0.970303 0.519055 0.306043
Si Si7 0.470727 0.344289 0.358524
O O1 0.476775 0.905503 0.708896
O O2 0.606227 0.818742 0.748692
O O3 0.728027 0.222993 0.780385
O O4 0.455101 0.697262 0.057654
O O5 0.213696 0.669006 0.647177
O O6 0.435323 0.155221 0.573173
O O7 0.236324 0.675618 0.955993
O O8 0.669683 0.639987 0.195721
O O9 0.802757 0.804089 0.837327
O O10 0.000000 0.000000 0.000000
O O11 0.906425 0.166859 0.879727
O O12 0.166605 0.354869 0.316842
O O13 0.985222 0.382895 0.261429
O O14 0.644296 0.664709 0.608215
O O15 0.000000 0.500000 0.500000
#
# Coordination Sequence:
#
# PCOD9102349 Si02
#       7
#     2   2   2   2   2   2   2
#     4  10  20  39  64  91 126 173 217 258 314 393
#     4  11  23  40  66 100 129 169 221 270 323 389
#     4  11  23  41  65  98 133 169 214 271 325 379
#     4  11  23  42  66  95 132 173 219 271 325 389
#     4  10  20  38  62  92 128 170 214 267 323 375
#     4  12  25  45  69  94 128 178 222 264 326 399
#     4  11  22  41  68  96 130 170 217 269 322 386
#
# _framework density 25.430063000000001
#
# number of rings (size 3 to 8) (size 9 to 14) (size 15 to 20)
#    0.000    1.143    0.000   10.286    0.000    1.143 
#    0.000   10.714    0.000    3.429    0.000    1.000 
#    0.000    0.000    0.000    0.000    0.000    0.000 
#
# Total GULP energy -78376.620514 kJ/mol
# GULP energy per Si atom -5598.330037 kJ/mol
# Density = 2.537218 g / cm^3
# Si number density = 25.430063 Si / 1000 Ang^3
#
#
#
# Elastic Constant Matrix: (Units=GPa)
#
#
# Indices 1 2 3 4 5 6 
#
# 1 165.2043 30.3508 35.2989 -8.4375 37.7943 -6.3683
# 2 30.3508 85.1140 14.9989 -9.6642 2.9870 14.2098
# 3 35.2989 14.9989 90.2412 -18.8456 17.0922 1.7619
# 4 -8.4375 -9.6642 -18.8456 39.2595 -7.5782 5.0271
# 5 37.7943 2.9870 17.0922 -7.5782 42.1199 -1.7329
# 6 -6.3683 14.2098 1.7619 5.0271 -1.7329 39.9162
#
#
#
# Elastic Compliance Matrix: (Units=1/GPa)
#
#
# Indices 1 2 3 4 5 6 
#
# 1 0.008625 -0.003070 -0.001908 -0.001464 -0.006910 0.002438
# 2 -0.003070 0.014300 -0.000749 0.003735 0.002473 -0.005910
# 3 -0.001908 -0.000749 0.013692 0.005619 -0.002841 -0.001473
# 4 -0.001464 0.003735 0.005619 0.030240 0.003985 -0.005447
# 5 -0.006910 0.002473 -0.002841 0.003985 0.031596 -0.000988
# 6 0.002438 -0.005910 -0.001473 -0.005447 -0.000988 0.028253
#
#
# Mechanical properties :
#
#
# Convention : Reuss Voigt Hill
#
# Bulk Modulus (GPa) = 39.74056 55.76185 47.75120
# Shear Modulus (GPa) = 34.11851 41.58653 37.85252
#
# Velocity S-wave (km/s) = 3.66684 4.04831 3.86229
# Velocity P-wave (km/s) = 5.79560 6.62019 6.22157
#
# Compressibility (1/GPa) = 0.02516321
#
# Stress axis : x y z
#
# Youngs Moduli (GPa) = 115.94403 69.93178 73.03318
#
# Poissons Ratio (x) = 0.21469 0.13934
# Poissons Ratio (y) = 0.35594 0.05470
# Poissons Ratio (z) = 0.22121 0.05238
#
# Static dielectric constant tensor:
#      x y z
#    x 2.040820 0.014550 -0.031900 
#    y 0.014550 2.026070 -0.029880 
#    z -0.031900 -0.029880 2.039760 
# 
# From -- ./inp_files/297693.got.cif
#   From: 2010.05.17/outbox.cif.g08.bks.cpg/sg2_149_cif.got.tgz:297693.got - 2010.06.03 11:33:40.
