data_PCOD9102387
_publ_section_title
;
Structure prediction by ZEFSAII (Michael W. Deem and Ramdas Pophale) SiO2 
 PCOD9102387
Probable space group: P -1
;
_chemical_formula_sum "Si O2"
_cell_formula_units_Z 15
_cell_length_a 14.536286
_cell_length_b 5.263415
_cell_length_c 21.409506
_cell_angle_alpha 44.468436
_cell_angle_beta 29.873996
_cell_angle_gamma 51.081102
_cell_volume 571.346380
_symmetry_space_group_name_H-M "P -1"
_symmetry_group_IT_number 2
_symmetry_cell_setting 'triclinic'
loop_
_space_group_symop_operation_xyz
x,y,z
-x,-y,-z
loop_
_atom_site_type_symbol
_atom_site_label
_atom_site_fract_x
_atom_site_fract_y
_atom_site_fract_z
Si Si1 0.987162 0.569719 0.067784
Si Si2 0.500000 0.500000 0.500000
Si Si3 0.021850 0.213495 0.651149
Si Si4 0.312909 0.636457 0.340611
Si Si5 0.890227 0.606474 0.293318
Si Si6 0.250419 0.647173 0.996926
Si Si7 0.364276 0.473623 0.193853
Si Si8 0.587941 0.625058 0.287507
O O1 0.782859 0.432231 0.225957
O O2 0.000000 0.500000 0.000000
O O3 0.155117 0.421001 0.037253
O O4 0.000000 0.000000 0.000000
O O5 0.700776 0.699733 0.352628
O O6 0.478130 0.627962 0.416193
O O7 0.803003 0.269528 0.774893
O O8 0.112172 0.508473 0.501333
O O9 0.107382 0.276341 0.657438
O O10 0.080008 0.826702 0.656761
O O11 0.359285 0.507570 0.266426
O O12 0.460223 0.474334 0.333695
O O13 0.319499 0.069841 0.267469
O O14 0.077110 0.743711 0.126169
O O15 0.424624 0.455364 0.961831
O O16 0.342424 0.999037 0.849353
#
# Coordination Sequence:
#
# PCOD9102387 Si02
#       8
#     2   1   2   2   2   2   2   2
#     4  10  20  38  62  94 130 172 221 278 333 403
#     4  12  24  50  72 108 142 192 222 306 352 420
#     4  12  26  46  70 107 144 188 235 295 347 424
#     4  11  22  43  71 108 140 187 235 291 352 423
#     4  12  28  47  72 103 147 185 238 287 361 413
#     4  10  24  45  69 104 139 188 236 287 347 429
#     4  11  24  43  75 103 144 186 237 290 355 410
#     4  10  22  43  73 102 140 183 237 287 355 418
#
# _framework density 26.253775000000001
#
# number of rings (size 3 to 8) (size 9 to 14) (size 15 to 20)
#    0.000    1.067    2.667    3.200    1.867    5.867 
#    0.000    0.000    0.000    0.000    0.000    0.000 
#    0.000    0.000    0.000    0.000    0.000    0.000 
#
# Total GULP energy -83753.702619 kJ/mol
# GULP energy per Si atom -5583.580175 kJ/mol
# Density = 2.619402 g / cm^3
# Si number density = 26.253775 Si / 1000 Ang^3
#
#
#
# Elastic Constant Matrix: (Units=GPa)
#
#
# Indices 1 2 3 4 5 6 
#
# 1 117.6441 27.7152 18.5834 -2.6598 -24.9306 -7.5584
# 2 27.7152 103.1731 32.5278 -11.2364 -15.9861 19.8548
# 3 18.5834 32.5278 117.2189 3.9523 -14.4730 7.2512
# 4 -2.6598 -11.2364 3.9523 21.1520 0.9656 -11.5110
# 5 -24.9306 -15.9861 -14.4730 0.9656 55.2785 21.4313
# 6 -7.5584 19.8548 7.2512 -11.5110 21.4313 37.1802
#
#
#
# Elastic Compliance Matrix: (Units=1/GPa)
#
#
# Indices 1 2 3 4 5 6 
#
# 1 0.009909 -0.002279 -0.000779 0.001251 0.002733 0.002195
# 2 -0.002279 0.014365 -0.002107 0.001247 0.006951 -0.011344
# 3 -0.000779 -0.002107 0.010229 -0.006078 0.003801 -0.005101
# 4 0.001251 0.001247 -0.006078 0.065245 -0.012797 0.028350
# 5 0.002733 0.006951 0.003801 -0.012797 0.032966 -0.026862
# 6 0.002195 -0.011344 -0.005101 0.028350 -0.026862 0.058656
#
#
# Mechanical properties :
#
#
# Convention : Reuss Voigt Hill
#
# Bulk Modulus (GPa) = 41.36919 55.07656 48.22288
# Shear Modulus (GPa) = 23.83720 40.00280 31.92000
#
# Velocity S-wave (km/s) = 3.01650 3.90769 3.49065
# Velocity P-wave (km/s) = 5.28431 6.43305 5.88677
#
# Compressibility (1/GPa) = 0.02417258
#
# Stress axis : x y z
#
# Youngs Moduli (GPa) = 100.92247 69.61478 97.76042
#
# Poissons Ratio (x) = 0.15865 0.07616
# Poissons Ratio (y) = 0.22999 0.20598
# Poissons Ratio (z) = 0.07862 0.14668
#
# Static dielectric constant tensor:
#      x y z
#    x 2.050520 -0.139390 -0.001900 
#    y -0.139390 2.165310 0.045230 
#    z -0.001900 0.045230 2.125840 
# 
# From -- ./inp_files/596612.got.cif
#   From: 2010.05.17/outbox.cif.g08.bks.cpg/sg2_299_cif.got.tgz:596612.got - 2010.06.03 11:33:40.
