data_PCOD9102400
_publ_section_title
;
Structure prediction by ZEFSAII (Michael W. Deem and Ramdas Pophale) SiO2 
 PCOD9102400
Probable space group: P -1
;
_chemical_formula_sum "Si O2"
_cell_formula_units_Z 13
_cell_length_a 8.649043
_cell_length_b 11.073479
_cell_length_c 9.054121
_cell_angle_alpha 103.020774
_cell_angle_beta 65.009237
_cell_angle_gamma 55.435430
_cell_volume 506.292345
_symmetry_space_group_name_H-M "P -1"
_symmetry_group_IT_number 2
_symmetry_cell_setting 'triclinic'
loop_
_space_group_symop_operation_xyz
x,y,z
-x,-y,-z
loop_
_atom_site_type_symbol
_atom_site_label
_atom_site_fract_x
_atom_site_fract_y
_atom_site_fract_z
Si Si1 0.221522 0.628838 0.077279
Si Si2 0.586926 0.775470 0.525012
Si Si3 0.000000 0.500000 0.000000
Si Si4 0.349619 0.764051 0.850912
Si Si5 0.595775 0.850955 0.216321
Si Si6 0.931784 0.375810 0.576955
Si Si7 0.743872 0.953988 0.845343
O O1 0.041586 0.735074 0.324605
O O2 0.500000 0.500000 0.000000
O O3 0.172344 0.516844 0.016096
O O4 0.194854 0.736568 0.980432
O O5 0.406325 0.764935 0.656288
O O6 0.658429 0.737951 0.311631
O O7 0.850921 0.642015 0.474046
O O8 0.453909 0.981218 0.669265
O O9 0.129734 0.322222 0.013740
O O10 0.643096 0.583105 0.741527
O O11 0.229983 0.954107 0.020441
O O12 0.368209 0.926071 0.228792
O O13 0.015991 0.257156 0.363491
O O14 0.500000 0.000000 0.000000
#
# Coordination Sequence:
#
# PCOD9102400 Si02
#       7
#     2   2   1   2   2   2   2
#     4  10  23  42  69 106 136 184 232 290 343 421
#     4  10  20  38  62  95 135 178 224 285 342 410
#     4  12  22  42  72  94 138 188 230 276 362 420
#     4  11  22  41  66 100 140 174 238 290 336 413
#     4  10  21  35  63  94 129 181 226 272 353 408
#     4  10  20  39  67  96 139 185 221 282 358 401
#     4  11  22  37  67 103 134 179 239 282 339 426
#
# _framework density 25.676864999999999
#
# number of rings (size 3 to 8) (size 9 to 14) (size 15 to 20)
#    0.000    1.538    4.615    2.308    0.000    0.615 
#    0.000    3.077    0.000    0.000    0.000    0.000 
#    0.000    0.000    0.000    0.000    0.000    0.000 
#
# Total GULP energy -72392.730358 kJ/mol
# GULP energy per Si atom -5568.671566 kJ/mol
# Density = 2.561842 g / cm^3
# Si number density = 25.676865 Si / 1000 Ang^3
#
#
#
# Elastic Constant Matrix: (Units=GPa)
#
#
# Indices 1 2 3 4 5 6 
#
# 1 96.0951 12.8114 36.7326 -10.0554 -4.9932 19.8935
# 2 12.8114 65.7860 36.1618 -17.0250 -2.2745 0.3250
# 3 36.7326 36.1618 128.8683 -14.1498 -0.0255 25.6035
# 4 -10.0554 -17.0250 -14.1498 61.5708 13.2583 -13.9603
# 5 -4.9932 -2.2745 -0.0255 13.2583 33.0984 -5.7101
# 6 19.8935 0.3250 25.6035 -13.9603 -5.7101 43.8374
#
#
#
# Elastic Compliance Matrix: (Units=1/GPa)
#
#
# Indices 1 2 3 4 5 6 
#
# 1 0.012366 -0.001000 -0.002440 0.000035 0.001086 -0.004027
# 2 -0.001000 0.019904 -0.005792 0.005213 0.000048 0.005355
# 3 -0.002440 -0.005792 0.011171 -0.000384 -0.001588 -0.005703
# 4 0.000035 0.005213 -0.000384 0.020374 -0.006802 0.005772
# 5 0.001086 0.000048 -0.001588 -0.006802 0.033559 0.002639
# 6 -0.004027 0.005355 -0.005703 0.005772 0.002639 0.030112
#
#
# Mechanical properties :
#
#
# Convention : Reuss Voigt Hill
#
# Bulk Modulus (GPa) = 40.03700 51.35122 45.69411
# Shear Modulus (GPa) = 32.40957 41.37090 36.89023
#
# Velocity S-wave (km/s) = 3.55661 4.01835 3.79451
# Velocity P-wave (km/s) = 5.70022 6.44763 6.08541
#
# Compressibility (1/GPa) = 0.02497690
#
# Stress axis : x y z
#
# Youngs Moduli (GPa) = 80.86597 50.24239 89.51555
#
# Poissons Ratio (x) = 0.05026 0.21842
# Poissons Ratio (y) = 0.08089 0.51844
# Poissons Ratio (z) = 0.19732 0.29098
#
# Static dielectric constant tensor:
#      x y z
#    x 1.870210 0.063630 0.183140 
#    y 0.063630 2.053710 -0.505990 
#    z 0.183140 -0.505990 1.138910 
# 
# From -- ./inp_files/164676.got.cif
#   From: 2010.05.17/outbox.cif.g08.bks.cpg/sg2_83_cif.got.tgz:164676.got - 2010.06.03 11:33:40.
