data_PCOD9102325
_publ_section_title
;
Structure prediction by ZEFSAII (Michael W. Deem and Ramdas Pophale) SiO2 
 PCOD9102325
Probable space group: P -1
;
_chemical_formula_sum "Si O2"
_cell_formula_units_Z 16
_cell_length_a 14.931053
_cell_length_b 8.097433
_cell_length_c 7.043874
_cell_angle_alpha 57.002744
_cell_angle_beta 88.963801
_cell_angle_gamma 104.032532
_cell_volume 681.043847
_symmetry_space_group_name_H-M "P -1"
_symmetry_group_IT_number 2
_symmetry_cell_setting 'triclinic'
loop_
_space_group_symop_operation_xyz
x,y,z
-x,-y,-z
loop_
_atom_site_type_symbol
_atom_site_label
_atom_site_fract_x
_atom_site_fract_y
_atom_site_fract_z
Si Si1 0.601254 0.004216 0.421348
Si Si2 0.596917 0.672434 0.335980
Si Si3 0.242146 0.571648 0.857612
Si Si4 0.980770 0.913659 0.274108
Si Si5 0.074185 0.722797 0.871885
Si Si6 0.215676 0.419355 0.543209
Si Si7 0.694065 0.780029 0.867974
Si Si8 0.154036 0.815368 0.232997
O O1 0.596799 0.890674 0.289909
O O2 0.646461 0.878382 0.645342
O O3 0.500000 0.000000 0.500000
O O4 0.662878 0.242119 0.269068
O O5 0.500000 0.500000 0.500000
O O6 0.684291 0.616199 0.466085
O O7 0.619693 0.688185 0.099614
O O8 0.165477 0.693610 0.789069
O O9 0.210932 0.429402 0.764801
O O10 0.261383 0.396301 0.102656
O O11 0.877253 0.756906 0.404484
O O12 0.059756 0.797339 0.370916
O O13 0.981193 0.113500 0.271094
O O14 0.000000 0.000000 0.000000
O O15 0.118102 0.793126 0.033361
O O16 0.000000 0.500000 0.000000
O O17 0.205386 0.640134 0.351559
O O18 0.774054 0.968867 0.842910
#
# Coordination Sequence:
#
# PCOD9102325 Si02
#       8
#     2   2   2   2   2   2   2   2
#     4  12  26  46  72 106 136 177 236 289 344 415
#     4  11  26  47  72 102 141 182 230 288 349 416
#     4  11  22  42  68  98 136 175 228 289 336 409
#     4  10  20  38  62  91 133 177 221 275 342 409
#     4  11  22  39  64  97 135 179 230 279 341 408
#     4  11  22  42  66  95 136 175 228 283 338 414
#     4  11  25  47  72 101 142 185 226 286 355 407
#     4  11  22  41  66  97 134 185 224 276 354 408
#
# _framework density 23.493347
#
# number of rings (size 3 to 8) (size 9 to 14) (size 15 to 20)
#    0.000    1.000    1.250    8.625    1.750    2.500 
#    0.000    1.250    0.000    0.000    0.000    0.000 
#    0.000    0.000    0.000    0.000    0.000    0.000 
#
# Total GULP energy -89369.073305 kJ/mol
# GULP energy per Si atom -5585.567082 kJ/mol
# Density = 2.343987 g / cm^3
# Si number density = 23.493347 Si / 1000 Ang^3
#
#
#
# Elastic Constant Matrix: (Units=GPa)
#
#
# Indices 1 2 3 4 5 6 
#
# 1 134.7753 37.5914 18.0958 -27.5467 -15.5612 -16.6742
# 2 37.5914 95.4869 16.7801 -24.6932 -4.7045 -20.2210
# 3 18.0958 16.7801 56.6310 -27.8776 5.6726 5.4885
# 4 -27.5467 -24.6932 -27.8776 48.6419 2.9784 2.0277
# 5 -15.5612 -4.7045 5.6726 2.9784 54.2550 -12.0872
# 6 -16.6742 -20.2210 5.4885 2.0277 -12.0872 46.4733
#
#
#
# Elastic Compliance Matrix: (Units=1/GPa)
#
#
# Indices 1 2 3 4 5 6 
#
# 1 0.009637 -0.001713 -0.001656 0.003277 0.003423 0.003655
# 2 -0.001713 0.014109 -0.002194 0.004553 0.002076 0.006125
# 3 -0.001656 -0.002194 0.027006 0.014067 -0.005789 -0.006857
# 4 0.003277 0.004553 0.014067 0.032933 -0.002050 -0.000474
# 5 0.003423 0.002076 -0.005789 -0.002050 0.022247 0.008691
# 6 0.003655 0.006125 -0.006857 -0.000474 0.008691 0.028585
#
#
# Mechanical properties :
#
#
# Convention : Reuss Voigt Hill
#
# Bulk Modulus (GPa) = 25.23458 47.98088 36.60773
# Shear Modulus (GPa) = 31.47588 44.16909 37.82249
#
# Velocity S-wave (km/s) = 3.66427 4.34068 4.01674
# Velocity P-wave (km/s) = 5.35415 6.75200 6.09329
#
# Compressibility (1/GPa) = 0.03962816
#
# Stress axis : x y z
#
# Youngs Moduli (GPa) = 103.76569 70.87594 37.02837
#
# Poissons Ratio (x) = 0.12139 0.06131
# Poissons Ratio (y) = 0.17772 0.08123
# Poissons Ratio (z) = 0.17182 0.15548
#
# Static dielectric constant tensor:
#      x y z
#    x 1.936490 -0.067900 0.073610 
#    y -0.067900 1.874450 0.086530 
#    z 0.073610 0.086530 2.016920 
# 
# From -- ./inp_files/294064.got.cif
#   From: 2010.05.17/outbox.cif.g08.bks.cpg/sg2_148_cif.got.tgz:294064.got - 2010.06.03 11:33:40.
