data_PCOD9102559
_publ_section_title
;
Structure prediction by ZEFSAII (Michael W. Deem and Ramdas Pophale) SiO2 
 PCOD9102559
Probable space group: P -1
;
_chemical_formula_sum "Si O2"
_cell_formula_units_Z 16
_cell_length_a 8.522852
_cell_length_b 11.955237
_cell_length_c 13.863523
_cell_angle_alpha 39.595773
_cell_angle_beta 110.092679
_cell_angle_gamma 84.012297
_cell_volume 665.730494
_symmetry_space_group_name_H-M "P -1"
_symmetry_group_IT_number 2
_symmetry_cell_setting 'triclinic'
loop_
_space_group_symop_operation_xyz
x,y,z
-x,-y,-z
loop_
_atom_site_type_symbol
_atom_site_label
_atom_site_fract_x
_atom_site_fract_y
_atom_site_fract_z
Si Si1 0.592698 0.696110 0.418326
Si Si2 0.886063 0.896196 0.004832
Si Si3 0.209065 0.131899 0.514643
Si Si4 0.724871 0.433191 0.798399
Si Si5 0.321749 0.880577 0.878068
Si Si6 0.260751 0.213428 0.780816
Si Si7 0.273964 0.491353 0.878726
Si Si8 0.499174 0.282477 0.262161
O O1 0.680534 0.793568 0.443556
O O2 0.626775 0.508645 0.620011
O O3 0.712769 0.630201 0.383212
O O4 0.348330 0.895002 0.213964
O O5 0.875717 0.747901 0.181386
O O6 0.024080 0.727256 0.059668
O O7 0.000000 0.000000 0.000000
O O8 0.973760 0.344881 0.301037
O O9 0.211624 0.954002 0.701740
O O10 0.346946 0.979013 0.554852
O O11 0.618423 0.639107 0.712319
O O12 0.687360 0.276734 0.949251
O O13 0.199977 0.108943 0.758243
O O14 0.572714 0.735074 0.002104
O O15 0.500000 0.000000 0.000000
O O16 0.364674 0.625573 0.781050
O O17 0.329312 0.408787 0.055511
#
# Coordination Sequence:
#
# PCOD9102559 Si02
#       8
#     2   2   2   2   2   2   2   2
#     4  10  25  41  61  96 127 157 209 259 309 376
#     4  11  23  44  68  88 122 166 207 259 317 363
#     4  10  20  38  63  90 130 170 203 247 315 369
#     4  11  23  39  61  93 126 160 210 257 308 363
#     4   9  19  37  58  91 125 158 208 259 296 365
#     4   9  19  41  62  85 122 159 198 259 310 360
#     4   9  18  35  63  91 123 168 212 245 304 370
#     4   9  20  36  58  95 129 160 207 260 294 369
#
# _framework density 24.033750999999999
#
# number of rings (size 3 to 8) (size 9 to 14) (size 15 to 20)
#    0.000    2.250    1.250    1.125    0.000    8.500 
#    0.000    1.250    0.000    0.000    0.000    0.000 
#    0.000    0.000    0.000    0.000    0.000    0.000 
#
# Total GULP energy -89293.260800 kJ/mol
# GULP energy per Si atom -5580.828800 kJ/mol
# Density = 2.397905 g / cm^3
# Si number density = 24.033751 Si / 1000 Ang^3
#
#
#
# Elastic Constant Matrix: (Units=GPa)
#
#
# Indices 1 2 3 4 5 6 
#
# 1 87.0317 47.1774 57.0622 12.3073 2.2454 -23.7178
# 2 47.1774 96.2475 16.7063 -3.7368 4.8265 -31.1360
# 3 57.0622 16.7063 145.9023 2.5031 19.6042 -13.2456
# 4 12.3073 -3.7368 2.5031 30.5761 -6.8957 -5.0683
# 5 2.2454 4.8265 19.6042 -6.8957 47.5593 7.9710
# 6 -23.7178 -31.1360 -13.2456 -5.0683 7.9710 46.7271
#
#
#
# Elastic Compliance Matrix: (Units=1/GPa)
#
#
# Indices 1 2 3 4 5 6 
#
# 1 0.024314 -0.010376 -0.008205 -0.009733 0.001578 0.001777
# 2 -0.010376 0.018314 0.003093 0.006958 -0.003161 0.009107
# 3 -0.008205 0.003093 0.010398 0.002180 -0.004198 0.001797
# 4 -0.009733 0.006958 0.002180 0.038800 0.003832 0.003869
# 5 0.001578 -0.003161 -0.004198 0.003832 0.024611 -0.006278
# 6 0.001777 0.009107 0.001797 0.003869 -0.006278 0.030371
#
#
# Mechanical properties :
#
#
# Convention : Reuss Voigt Hill
#
# Bulk Modulus (GPa) = 45.34957 63.45257 54.40107
# Shear Modulus (GPa) = 27.00751 38.85486 32.93118
#
# Velocity S-wave (km/s) = 3.35585 4.02516 3.70564
# Velocity P-wave (km/s) = 5.82458 6.93262 6.40262
#
# Compressibility (1/GPa) = 0.02205092
#
# Stress axis : x y z
#
# Youngs Moduli (GPa) = 41.12887 54.60353 96.16920
#
# Poissons Ratio (x) = 0.56656 0.78905
# Poissons Ratio (y) = 0.42675 -0.29747
# Poissons Ratio (z) = 0.33745 -0.16890
#
# Static dielectric constant tensor:
#      x y z
#    x 2.101570 0.118140 -0.105720 
#    y 0.118140 2.099320 -0.026370 
#    z -0.105720 -0.026370 1.956880 
# 
# From -- ./inp_files/273535.got.cif
#   From: 2010.05.17/outbox.cif.g08.bks.cpg/sg2_137_cif.got.tgz:273535.got - 2010.06.03 11:33:40.
