data_PCOD9102637
_publ_section_title
;
Structure prediction by ZEFSAII (Michael W. Deem and Ramdas Pophale) SiO2 
 PCOD9102637
Probable space group: P -1
;
_chemical_formula_sum "Si O2"
_cell_formula_units_Z 16
_cell_length_a 19.222740
_cell_length_b 11.191797
_cell_length_c 7.983250
_cell_angle_alpha 54.538462
_cell_angle_beta 147.746997
_cell_angle_gamma 123.714245
_cell_volume 738.296285
_symmetry_space_group_name_H-M "P -1"
_symmetry_group_IT_number 2
_symmetry_cell_setting 'triclinic'
loop_
_space_group_symop_operation_xyz
x,y,z
-x,-y,-z
loop_
_atom_site_type_symbol
_atom_site_label
_atom_site_fract_x
_atom_site_fract_y
_atom_site_fract_z
Si Si1 0.886127 0.865912 0.333326
Si Si2 0.555144 0.624169 0.143290
Si Si3 0.402247 0.112958 0.246481
Si Si4 0.622110 0.969397 0.386097
Si Si5 0.822796 0.554706 0.663816
Si Si6 0.112475 0.130498 0.065218
Si Si7 0.983916 0.398624 0.709249
Si Si8 0.294842 0.692205 0.643452
O O1 0.867670 0.706480 0.522310
O O2 0.753301 0.933826 0.046349
O O3 0.893736 0.839422 0.171190
O O4 0.000000 0.000000 0.500000
O O5 0.700830 0.589326 0.506370
O O6 0.500000 0.500000 0.000000
O O7 0.568150 0.766444 0.934882
O O8 0.436917 0.641547 0.016829
O O9 0.500000 0.000000 0.500000
O O10 0.420654 0.146497 0.455638
O O11 0.677864 0.128782 0.456076
O O12 0.741637 0.912711 0.574876
O O13 0.500000 0.000000 0.000000
O O14 0.760934 0.411359 0.544121
O O15 0.946808 0.521687 0.051133
O O16 0.069103 0.267087 0.962992
O O17 0.000000 0.000000 0.000000
O O18 0.000000 0.500000 0.500000
O O19 0.829219 0.341919 0.458919
#
# Coordination Sequence:
#
# PCOD9102637 Si02
#       8
#     2   2   2   2   2   2   2   2
#     4  10  22  39  67  97 126 177 227 267 334 397
#     4   9  20  40  67  95 126 168 221 276 328 387
#     4  10  20  38  63  93 127 162 222 272 314 397
#     4  11  25  42  66 100 137 177 218 281 339 397
#     4  10  23  43  72  94 132 179 225 282 336 402
#     4  11  23  43  64  97 140 173 222 277 335 399
#     4  12  26  45  66 100 137 176 221 281 346 408
#     4  11  22  44  66  96 134 172 230 269 331 405
#
# _framework density 21.671519
#
# number of rings (size 3 to 8) (size 9 to 14) (size 15 to 20)
#    0.000    1.500    2.500    1.875    3.500    2.000 
#    4.500    0.625    0.000    0.000    0.000    0.000 
#    0.000    0.000    0.000    0.000    0.000    0.000 
#
# Total GULP energy -89181.364877 kJ/mol
# GULP energy per Si atom -5573.835305 kJ/mol
# Density = 2.162219 g / cm^3
# Si number density = 21.671519 Si / 1000 Ang^3
#
#
#
# Elastic Constant Matrix: (Units=GPa)
#
#
# Indices 1 2 3 4 5 6 
#
# 1 105.8627 18.0319 47.6799 8.8250 37.5742 8.8200
# 2 18.0319 77.7154 27.8142 10.9197 6.7102 -9.3986
# 3 47.6799 27.8142 110.9183 7.9140 19.7890 17.4994
# 4 8.8250 10.9197 7.9140 23.6723 -4.8811 11.1668
# 5 37.5742 6.7102 19.7890 -4.8811 47.4255 -4.9947
# 6 8.8200 -9.3986 17.4994 11.1668 -4.9947 29.0570
#
#
#
# Elastic Compliance Matrix: (Units=1/GPa)
#
#
# Indices 1 2 3 4 5 6 
#
# 1 0.016291 -0.001000 -0.003734 -0.005436 -0.012084 -0.003008
# 2 -0.001000 0.018860 -0.005893 -0.013375 0.000810 0.015232
# 3 -0.003734 -0.005893 0.014104 0.004163 -0.002861 -0.011358
# 4 -0.005436 -0.013375 0.004163 0.064128 0.008067 -0.028441
# 5 -0.012084 0.000810 -0.002861 0.008067 0.033443 0.008301
# 6 -0.003008 0.015232 -0.011358 -0.028441 0.008301 0.059453
#
#
# Mechanical properties :
#
#
# Convention : Reuss Voigt Hill
#
# Bulk Modulus (GPa) = 35.71302 53.50538 44.60920
# Shear Modulus (GPa) = 21.10901 33.42900 27.26900
#
# Velocity S-wave (km/s) = 3.12435 3.93177 3.55108
# Velocity P-wave (km/s) = 5.43419 6.73458 6.11903
#
# Compressibility (1/GPa) = 0.02800099
#
# Stress axis : x y z
#
# Youngs Moduli (GPa) = 61.38377 53.02199 70.90317
#
# Poissons Ratio (x) = 0.05303 0.26474
# Poissons Ratio (y) = 0.06139 0.41783
# Poissons Ratio (z) = 0.22920 0.31246
#
# Static dielectric constant tensor:
#      x y z
#    x 1.867510 -0.016950 0.004120 
#    y -0.016950 1.806260 0.009920 
#    z 0.004120 0.009920 1.802620 
# 
# From -- ./inp_files/345989.got.cif
#   From: 2010.05.17/outbox.cif.g08.bks.cpg/sg2_173_cif.got.tgz:345989.got - 2010.06.03 11:33:40.
