data_PCOD9102704
_publ_section_title
;
Structure prediction by ZEFSAII (Michael W. Deem and Ramdas Pophale) SiO2 
 PCOD9102704
Probable space group: P -1
;
_chemical_formula_sum "Si O2"
_cell_formula_units_Z 16
_cell_length_a 18.576072
_cell_length_b 9.394699
_cell_length_c 8.723763
_cell_angle_alpha 104.790137
_cell_angle_beta 123.120522
_cell_angle_gamma 39.201101
_cell_volume 764.169008
_symmetry_space_group_name_H-M "P -1"
_symmetry_group_IT_number 2
_symmetry_cell_setting 'triclinic'
loop_
_space_group_symop_operation_xyz
x,y,z
-x,-y,-z
loop_
_atom_site_type_symbol
_atom_site_label
_atom_site_fract_x
_atom_site_fract_y
_atom_site_fract_z
Si Si1 0.369491 0.279053 0.121076
Si Si2 0.838529 0.890847 0.945615
Si Si3 0.836349 0.192880 0.873429
Si Si4 0.191815 0.322310 0.713028
Si Si5 0.049371 0.452720 0.288047
Si Si6 0.573012 0.207519 0.158064
Si Si7 0.448292 0.866503 0.220058
Si Si8 0.405638 0.555221 0.541276
O O1 0.247119 0.545433 0.117261
O O2 0.491872 0.219379 0.191796
O O3 0.426810 0.069960 0.235149
O O4 0.302501 0.287076 0.898436
O O5 0.869306 0.770446 0.785938
O O6 0.817615 0.092078 0.952863
O O7 0.702117 0.000538 0.884851
O O8 0.966834 0.675165 0.143623
O O9 0.752469 0.239908 0.643417
O O10 0.000000 0.000000 0.000000
O O11 0.143575 0.410871 0.508470
O O12 0.062160 0.486729 0.722350
O O13 0.269238 0.061393 0.735672
O O14 0.570906 0.374408 0.264170
O O15 0.510322 0.252502 0.931937
O O16 0.544216 0.673974 0.412763
O O17 0.500000 0.500000 0.500000
#
# Coordination Sequence:
#
# PCOD9102704 Si02
#       8
#     2   2   2   2   2   2   2   2
#     4  11  23  44  65  96 140 170 219 287 334 391
#     4  11  21  42  66  95 133 178 226 277 325 398
#     4  12  27  45  64  97 140 176 216 283 338 390
#     4  10  20  38  63  97 129 174 217 267 333 393
#     4  10  21  36  66  96 129 175 225 262 327 406
#     4  11  22  43  70  96 133 170 226 286 330 396
#     4  11  23  42  72  99 129 177 226 274 337 395
#     4  12  24  46  70  99 129 179 229 272 335 405
#
# _framework density 20.937778000000002
#
# number of rings (size 3 to 8) (size 9 to 14) (size 15 to 20)
#    0.000    1.000    5.000    3.375    1.750    1.500 
#    4.500    0.625    0.000    0.000    0.000    0.000 
#    0.000    0.000    0.000    0.000    0.000    0.000 
#
# Total GULP energy -89394.739262 kJ/mol
# GULP energy per Si atom -5587.171204 kJ/mol
# Density = 2.089012 g / cm^3
# Si number density = 20.937778 Si / 1000 Ang^3
#
#
#
# Elastic Constant Matrix: (Units=GPa)
#
#
# Indices 1 2 3 4 5 6 
#
# 1 96.0473 41.6998 25.4093 -11.7395 -5.3717 8.8813
# 2 41.6998 98.8592 26.6676 -1.5150 -12.4536 15.3117
# 3 25.4093 26.6676 78.6691 -11.6927 -14.1232 18.4184
# 4 -11.7395 -1.5150 -11.6927 31.9757 1.1714 -3.8369
# 5 -5.3717 -12.4536 -14.1232 1.1714 29.8943 -5.1379
# 6 8.8813 15.3117 18.4184 -3.8369 -5.1379 40.3524
#
#
#
# Elastic Compliance Matrix: (Units=1/GPa)
#
#
# Indices 1 2 3 4 5 6 
#
# 1 0.013715 -0.005269 -0.002277 0.004021 -0.000915 0.000286
# 2 -0.005269 0.013729 -0.002026 -0.002501 0.003410 -0.002929
# 3 -0.002277 -0.002026 0.017082 0.004460 0.005718 -0.005375
# 4 0.004021 -0.002501 0.004460 0.034404 0.000678 0.001386
# 5 -0.000915 0.003410 0.005718 0.000678 0.037580 0.001147
# 6 0.000286 -0.002929 -0.005375 0.001386 0.001147 0.028561
#
#
# Mechanical properties :
#
#
# Convention : Reuss Voigt Hill
#
# Bulk Modulus (GPa) = 39.39860 51.23655 45.31757
# Shear Modulus (GPa) = 28.95599 32.43105 30.69352
#
# Velocity S-wave (km/s) = 3.72284 3.93991 3.83291
# Velocity P-wave (km/s) = 6.11042 6.72467 6.42489
#
# Compressibility (1/GPa) = 0.02538161
#
# Stress axis : x y z
#
# Youngs Moduli (GPa) = 72.91071 72.83707 58.54245
#
# Poissons Ratio (x) = 0.38377 0.13333
# Poissons Ratio (y) = 0.38416 0.11861
# Poissons Ratio (z) = 0.16605 0.14757
#
# Static dielectric constant tensor:
#      x y z
#    x 1.754170 -0.002070 -0.015050 
#    y -0.002070 1.770020 0.006650 
#    z -0.015050 0.006650 1.782270 
# 
# From -- ./inp_files/256843.got.cif
#   From: 2010.05.17/outbox.cif.g08.bks.cpg/sg2_129_cif.got.tgz:256843.got - 2010.06.03 11:33:40.
