data_PCOD9102916
_publ_section_title
;
Structure prediction by ZEFSAII (Michael W. Deem and Ramdas Pophale) SiO2 
 PCOD9102916
Probable space group: P -1
;
_chemical_formula_sum "Si O2"
_cell_formula_units_Z 16
_cell_length_a 11.795369
_cell_length_b 9.022135
_cell_length_c 18.514121
_cell_angle_alpha 45.924412
_cell_angle_beta 32.118923
_cell_angle_gamma 63.648648
_cell_volume 696.030780
_symmetry_space_group_name_H-M "P -1"
_symmetry_group_IT_number 2
_symmetry_cell_setting 'triclinic'
loop_
_space_group_symop_operation_xyz
x,y,z
-x,-y,-z
loop_
_atom_site_type_symbol
_atom_site_label
_atom_site_fract_x
_atom_site_fract_y
_atom_site_fract_z
Si Si1 0.036112 0.777941 0.528881
Si Si2 0.406661 0.309288 0.275730
Si Si3 0.602451 0.799996 0.360592
Si Si4 0.143494 0.357339 0.002991
Si Si5 0.704797 0.086167 0.418108
Si Si6 0.466316 0.975781 0.818936
Si Si7 0.989489 0.606563 0.218219
Si Si8 0.989124 0.812302 0.009044
O O1 0.024667 0.612992 0.657879
O O2 0.817448 0.643582 0.642801
O O3 0.292738 0.881520 0.320540
O O4 0.000000 0.000000 0.500000
O O5 0.623295 0.504985 0.127629
O O6 0.483177 0.204204 0.199637
O O7 0.315235 0.112517 0.450077
O O8 0.375679 0.745773 0.547789
O O9 0.245836 0.346868 0.656751
O O10 0.556188 0.841611 0.288097
O O11 0.772143 0.050968 0.206235
O O12 0.192077 0.260879 0.932734
O O13 0.000000 0.500000 0.000000
O O14 0.956213 0.182033 0.214944
O O15 0.500000 0.000000 0.500000
O O16 0.227324 0.818888 0.039720
O O17 0.010855 0.625628 0.112807
O O18 0.000000 0.000000 0.000000
#
# Coordination Sequence:
#
# PCOD9102916 Si02
#       8
#     2   2   2   2   2   2   2   2
#     4  10  23  40  59  90 135 178 222 268 313 389
#     4  10  23  38  57  94 129 165 223 264 321 385
#     4   9  18  36  61  97 127 161 214 269 323 391
#     4  12  21  35  66  98 127 164 210 270 329 381
#     4  11  20  38  62  93 132 159 204 274 329 375
#     4   9  19  37  61  91 133 169 217 273 321 382
#     4  10  20  38  64  92 133 171 216 264 330 389
#     4   9  19  36  61  97 130 162 205 262 327 389
#
# _framework density 22.987490000000001
#
# number of rings (size 3 to 8) (size 9 to 14) (size 15 to 20)
#    0.000    2.000    2.500    2.625    0.000    9.500 
#    0.000    6.250    0.000    6.000    0.000    0.000 
#    0.000    0.125    0.000    0.000    0.000    0.125 
#
# Total GULP energy -89119.158876 kJ/mol
# GULP energy per Si atom -5569.947430 kJ/mol
# Density = 2.293517 g / cm^3
# Si number density = 22.987490 Si / 1000 Ang^3
#
#
#
# Elastic Constant Matrix: (Units=GPa)
#
#
# Indices 1 2 3 4 5 6 
#
# 1 131.7124 43.8052 58.1171 -3.1250 -35.1250 -3.2072
# 2 43.8052 68.0627 45.1133 -3.7629 2.9491 0.7280
# 3 58.1171 45.1133 149.8457 -7.6641 -25.3035 1.1436
# 4 -3.1250 -3.7629 -7.6641 33.6567 -0.4711 4.3575
# 5 -35.1250 2.9491 -25.3035 -0.4711 50.9727 -8.7462
# 6 -3.2072 0.7280 1.1436 4.3575 -8.7462 38.9200
#
#
#
# Elastic Compliance Matrix: (Units=1/GPa)
#
#
# Indices 1 2 3 4 5 6 
#
# 1 0.013660 -0.008566 -0.001073 -0.000259 0.009990 0.003591
# 2 -0.008566 0.024642 -0.005851 0.000933 -0.010831 -0.003533
# 3 -0.001073 -0.005851 0.009684 0.001438 0.004521 0.000591
# 4 -0.000259 0.000933 0.001438 0.030571 0.000169 -0.003466
# 5 0.009990 -0.010831 0.004521 0.000169 0.030709 0.007775
# 6 0.003591 -0.003533 0.000591 -0.003466 0.007775 0.028174
#
#
# Mechanical properties :
#
#
# Convention : Reuss Voigt Hill
#
# Bulk Modulus (GPa) = 58.80112 71.52131 65.16122
# Shear Modulus (GPa) = 28.72128 38.21559 33.46844
#
# Velocity S-wave (km/s) = 3.53856 4.08174 3.81982
# Velocity P-wave (km/s) = 6.50618 7.30718 6.91828
#
# Compressibility (1/GPa) = 0.01700648
#
# Stress axis : x y z
#
# Youngs Moduli (GPa) = 73.20636 40.58081 103.26821
#
# Poissons Ratio (x) = 0.34762 0.11078
# Poissons Ratio (y) = 0.62710 0.60420
# Poissons Ratio (z) = 0.07853 0.23743
#
# Static dielectric constant tensor:
#      x y z
#    x 1.914190 0.014750 -0.071200 
#    y 0.014750 2.129460 0.011580 
#    z -0.071200 0.011580 2.010430 
# 
# From -- ./inp_files/568662.got.cif
#   From: 2010.05.17/outbox.cif.g08.bks.cpg/sg2_285_cif.got.tgz:568662.got - 2010.06.03 11:33:40.
