data_PCOD9102708
_publ_section_title
;
Structure prediction by ZEFSAII (Michael W. Deem and Ramdas Pophale) SiO2 
 PCOD9102708
Probable space group: P -1
;
_chemical_formula_sum "Si O2"
_cell_formula_units_Z 16
_cell_length_a 5.287843
_cell_length_b 20.929288
_cell_length_c 8.623410
_cell_angle_alpha 45.974693
_cell_angle_beta 79.756941
_cell_angle_gamma 79.525600
_cell_volume 672.990026
_symmetry_space_group_name_H-M "P -1"
_symmetry_group_IT_number 2
_symmetry_cell_setting 'triclinic'
loop_
_space_group_symop_operation_xyz
x,y,z
-x,-y,-z
loop_
_atom_site_type_symbol
_atom_site_label
_atom_site_fract_x
_atom_site_fract_y
_atom_site_fract_z
Si Si1 0.581429 0.937734 0.740691
Si Si2 0.815959 0.215872 0.442527
Si Si3 0.761491 0.072651 0.925020
Si Si4 0.801127 0.761497 0.900742
Si Si5 0.057777 0.175484 0.934864
Si Si6 0.691977 0.536471 0.643679
Si Si7 0.772866 0.564022 0.219193
Si Si8 0.276181 0.281185 0.481077
O O1 0.438565 0.967352 0.867739
O O2 0.571761 0.836468 0.841513
O O3 0.500000 0.000000 0.500000
O O4 0.869897 0.913782 0.820222
O O5 0.534637 0.267038 0.375535
O O6 0.993329 0.200452 0.299777
O O7 0.010413 0.269454 0.438629
O O8 0.746666 0.121681 0.679815
O O9 0.826518 0.155192 0.888493
O O10 0.000000 0.000000 0.000000
O O11 0.956944 0.746218 0.072124
O O12 0.718541 0.667858 0.013289
O O13 0.274989 0.201487 0.745298
O O14 0.725103 0.553233 0.427287
O O15 0.418091 0.494848 0.754377
O O16 0.713815 0.626874 0.583824
O O17 0.929131 0.468049 0.786445
#
# Coordination Sequence:
#
# PCOD9102708 Si02
#       8
#     2   2   2   2   2   2   2   2
#     4  10  21  41  64  93 123 162 217 265 316 371
#     4  11  24  41  66  93 132 176 210 264 330 377
#     4  11  23  41  63  95 125 170 216 265 323 390
#     4  10  22  44  58  98 124 171 214 268 316 388
#     4   9  22  41  64  87 127 169 211 262 317 375
#     4  10  20  38  63  98 121 170 214 270 308 388
#     4  10  21  36  65  94 127 164 218 263 321 367
#     4  11  21  44  64  96 128 175 215 263 320 388
#
# _framework density 23.7745
#
# number of rings (size 3 to 8) (size 9 to 14) (size 15 to 20)
#    0.750    1.000    2.500    1.500    0.000    4.000 
#    2.250    3.750    0.000    0.000    0.000    0.000 
#    0.000    0.000    0.000    0.000    0.000    0.000 
#
# Total GULP energy -89091.026101 kJ/mol
# GULP energy per Si atom -5568.189131 kJ/mol
# Density = 2.372039 g / cm^3
# Si number density = 23.774500 Si / 1000 Ang^3
#
#
#
# Elastic Constant Matrix: (Units=GPa)
#
#
# Indices 1 2 3 4 5 6 
#
# 1 102.0814 32.2219 27.3053 -7.5779 -7.8014 10.2292
# 2 32.2219 73.8563 26.3956 -10.1287 -15.0850 -5.5814
# 3 27.3053 26.3956 77.7048 1.1315 -6.6137 -4.0994
# 4 -7.5779 -10.1287 1.1315 35.5992 -8.3703 -4.1564
# 5 -7.8014 -15.0850 -6.6137 -8.3703 26.1675 -0.2962
# 6 10.2292 -5.5814 -4.0994 -4.1564 -0.2962 39.4508
#
#
#
# Elastic Compliance Matrix: (Units=1/GPa)
#
#
# Indices 1 2 3 4 5 6 
#
# 1 0.012556 -0.004337 -0.003102 0.001256 0.000815 -0.004053
# 2 -0.004337 0.021163 -0.004471 0.008756 0.012631 0.004671
# 3 -0.003102 -0.004471 0.015568 -0.002315 -0.000290 0.001543
# 4 0.001256 0.008756 -0.002315 0.035249 0.016163 0.004508
# 5 0.000815 0.012631 -0.000290 0.016163 0.050878 0.003630
# 6 -0.004053 0.004671 0.001543 0.004508 0.003630 0.027722
#
#
# Mechanical properties :
#
#
# Convention : Reuss Voigt Hill
#
# Bulk Modulus (GPa) = 39.26419 47.27644 43.27031
# Shear Modulus (GPa) = 25.58237 31.42479 28.50358
#
# Velocity S-wave (km/s) = 3.28387 3.63958 3.46629
# Velocity P-wave (km/s) = 5.56143 6.13112 5.85321
#
# Compressibility (1/GPa) = 0.02546850
#
# Stress axis : x y z
#
# Youngs Moduli (GPa) = 79.64006 47.25117 64.23295
#
# Poissons Ratio (x) = 0.20494 0.19924
# Poissons Ratio (y) = 0.34541 0.28718
# Poissons Ratio (z) = 0.24703 0.21126
#
# Static dielectric constant tensor:
#      x y z
#    x 2.011770 0.041500 -0.012750 
#    y 0.041500 1.918700 0.047020 
#    z -0.012750 0.047020 2.012460 
# 
# From -- ./inp_files/141132.got.cif
#   From: 2010.05.17/outbox.cif.g08.bks.cpg/sg2_71_cif.got.tgz:141132.got - 2010.06.03 11:33:40.
