data_PCOD9102331
_publ_section_title
;
Structure prediction by ZEFSAII (Michael W. Deem and Ramdas Pophale) SiO2 
 PCOD9102331
Probable space group: P -1
;
_chemical_formula_sum "Si O2"
_cell_formula_units_Z 16
_cell_length_a 15.230960
_cell_length_b 7.844953
_cell_length_c 11.513116
_cell_angle_alpha 55.119251
_cell_angle_beta 53.559343
_cell_angle_gamma 44.714599
_cell_volume 750.879481
_symmetry_space_group_name_H-M "P -1"
_symmetry_group_IT_number 2
_symmetry_cell_setting 'triclinic'
loop_
_space_group_symop_operation_xyz
x,y,z
-x,-y,-z
loop_
_atom_site_type_symbol
_atom_site_label
_atom_site_fract_x
_atom_site_fract_y
_atom_site_fract_z
Si Si1 0.156942 0.977045 0.144640
Si Si2 0.340862 0.688289 0.314208
Si Si3 0.124139 0.722811 0.813362
Si Si4 0.595645 0.191371 0.298660
Si Si5 0.279238 0.902153 0.521533
Si Si6 0.620794 0.911921 0.804847
Si Si7 0.219879 0.639289 0.011343
Si Si8 0.335733 0.148594 0.826157
O O1 0.006730 0.213990 0.171935
O O2 0.212409 0.834700 0.278304
O O3 0.162971 0.788564 0.117407
O O4 0.251791 0.057319 0.991056
O O5 0.445023 0.406222 0.303562
O O6 0.317756 0.702776 0.464764
O O7 0.402040 0.855712 0.191687
O O8 0.154826 0.926294 0.670091
O O9 0.252064 0.446730 0.791736
O O10 0.113421 0.717707 0.963151
O O11 0.617713 0.172059 0.426688
O O12 0.644692 0.937885 0.289927
O O13 0.683044 0.287833 0.143594
O O14 0.279224 0.114307 0.365103
O O15 0.693750 0.656091 0.917036
O O16 0.480944 0.004716 0.823470
#
# Coordination Sequence:
#
# PCOD9102331 Si02
#       8
#     2   2   2   2   2   2   2   2
#     4  11  23  40  61  91 118 157 202 245 287 350
#     4  10  21  37  62  86 126 151 192 242 300 350
#     4  11  23  42  63  82 122 164 200 236 290 356
#     4  10  20  38  62  92 121 147 199 249 299 349
#     4   9  23  40  60  88 121 161 191 242 299 354
#     4  10  21  38  61  92 120 148 193 244 312 340
#     4  10  21  39  65  89 114 155 199 252 296 342
#     4  11  23  36  63  94 117 153 197 251 295 348
#
# _framework density 21.308347000000001
#
# number of rings (size 3 to 8) (size 9 to 14) (size 15 to 20)
#    0.750    1.000    0.000    4.875    1.750    4.500 
#    2.250    0.625    0.000    0.000    0.000    0.000 
#    0.000    0.000    0.000    0.000    0.000    0.000 
#
# Total GULP energy -89266.219165 kJ/mol
# GULP energy per Si atom -5579.138698 kJ/mol
# Density = 2.125985 g / cm^3
# Si number density = 21.308347 Si / 1000 Ang^3
#
#
#
# Elastic Constant Matrix: (Units=GPa)
#
#
# Indices 1 2 3 4 5 6 
#
# 1 95.2730 25.0764 29.9683 -0.5418 20.3534 -15.7299
# 2 25.0764 45.2723 17.0265 -0.6592 14.1910 -1.9746
# 3 29.9683 17.0265 73.4096 -4.7000 15.3869 0.6234
# 4 -0.5418 -0.6592 -4.7000 11.7260 3.0447 -0.8640
# 5 20.3534 14.1910 15.3869 3.0447 35.2151 -2.1261
# 6 -15.7299 -1.9746 0.6234 -0.8640 -2.1261 29.7342
#
#
#
# Elastic Compliance Matrix: (Units=1/GPa)
#
#
# Indices 1 2 3 4 5 6 
#
# 1 0.015403 -0.005196 -0.004155 0.000501 -0.004579 0.007578
# 2 -0.005196 0.028311 -0.002734 0.002101 -0.007470 -0.001284
# 3 -0.004155 -0.002734 0.017522 0.007763 -0.004997 -0.002879
# 4 0.000501 0.002101 0.007763 0.091890 -0.012350 0.002029
# 5 -0.004579 -0.007470 -0.004997 -0.012350 0.037274 -0.000507
# 6 0.007578 -0.001284 -0.002879 0.002029 -0.000507 0.037638
#
#
# Mechanical properties :
#
#
# Convention : Reuss Voigt Hill
#
# Bulk Modulus (GPa) = 26.97970 39.78860 33.38415
# Shear Modulus (GPa) = 18.89906 24.79397 21.84651
#
# Velocity S-wave (km/s) = 2.98137 3.41483 3.20544
# Velocity P-wave (km/s) = 4.95384 5.85332 5.42226
#
# Compressibility (1/GPa) = 0.03706491
#
# Stress axis : x y z
#
# Youngs Moduli (GPa) = 64.92262 35.32199 57.07228
#
# Poissons Ratio (x) = 0.18353 0.23716
# Poissons Ratio (y) = 0.33733 0.15604
# Poissons Ratio (z) = 0.26978 0.09657
#
# Static dielectric constant tensor:
#      x y z
#    x 1.783560 0.028530 0.003880 
#    y 0.028530 1.754020 0.026920 
#    z 0.003880 0.026920 1.812960 
# 
# From -- ./inp_files/446927.got.cif
#   From: 2010.05.17/outbox.cif.g08.bks.cpg/sg2_224_cif.got.tgz:446927.got - 2010.06.03 11:33:40.
