data_PCOD9102584
_publ_section_title
;
Structure prediction by ZEFSAII (Michael W. Deem and Ramdas Pophale) SiO2 
 PCOD9102584
Probable space group: P -1
;
_chemical_formula_sum "Si O2"
_cell_formula_units_Z 16
_cell_length_a 6.677358
_cell_length_b 8.680463
_cell_length_c 26.734784
_cell_angle_alpha 137.030124
_cell_angle_beta 124.323584
_cell_angle_gamma 79.158165
_cell_volume 799.946759
_symmetry_space_group_name_H-M "P -1"
_symmetry_group_IT_number 2
_symmetry_cell_setting 'triclinic'
loop_
_space_group_symop_operation_xyz
x,y,z
-x,-y,-z
loop_
_atom_site_type_symbol
_atom_site_label
_atom_site_fract_x
_atom_site_fract_y
_atom_site_fract_z
Si Si1 0.224253 0.095359 0.242880
Si Si2 0.305314 0.713581 0.233074
Si Si3 0.824864 0.611459 0.307044
Si Si4 0.654225 0.104900 0.609285
Si Si5 0.134960 0.826538 0.955879
Si Si6 0.481244 0.549385 0.450991
Si Si7 0.649022 0.543366 0.372854
Si Si8 0.265939 0.917100 0.878401
O O1 0.248952 0.310554 0.337873
O O2 0.433044 0.262054 0.270444
O O3 0.931968 0.985539 0.153876
O O4 0.317131 0.899950 0.234840
O O5 0.572034 0.668950 0.269317
O O6 0.260945 0.833913 0.306786
O O7 0.063064 0.453427 0.129357
O O8 0.843737 0.603193 0.368051
O O9 0.781653 0.347719 0.215026
O O10 0.085871 0.815385 0.368756
O O11 0.503357 0.277083 0.614118
O O12 0.476570 0.817325 0.511311
O O13 0.179960 0.870278 0.913130
O O14 0.426736 0.905784 0.038794
O O15 0.000000 0.000000 0.000000
O O16 0.500000 0.500000 0.500000
O O17 0.713056 0.564930 0.446569
#
# Coordination Sequence:
#
# PCOD9102584 Si02
#       8
#     2   2   2   2   2   2   2   2
#     4  10  22  42  61  91 133 165 201 263 318 362
#     4  11  22  40  62  92 131 161 203 266 323 358
#     4  11  20  38  65  92 121 169 212 255 305 379
#     4  11  19  39  65  89 120 174 215 253 304 377
#     4  11  23  40  71  95 119 161 213 263 305 386
#     4  10  20  38  63  91 130 171 208 258 313 358
#     4   9  21  35  62  88 125 165 211 256 305 360
#     4  11  22  41  68  94 121 163 214 251 320 376
#
# _framework density 20.001332000000001
#
# number of rings (size 3 to 8) (size 9 to 14) (size 15 to 20)
#    0.750    0.750    5.000    1.125    0.000    1.000 
#    2.250    2.500    0.000    0.000    0.000    0.000 
#    0.000    0.000    0.000    0.000    0.000    0.000 
#
# Total GULP energy -89224.015738 kJ/mol
# GULP energy per Si atom -5576.500984 kJ/mol
# Density = 1.995581 g / cm^3
# Si number density = 20.001332 Si / 1000 Ang^3
#
#
#
# Elastic Constant Matrix: (Units=GPa)
#
#
# Indices 1 2 3 4 5 6 
#
# 1 103.0438 32.9608 19.8715 -4.2372 -2.8835 10.1226
# 2 32.9608 74.8478 18.8895 0.4962 -2.7783 1.8788
# 3 19.8715 18.8895 75.6485 7.1543 1.7784 -2.2365
# 4 -4.2372 0.4962 7.1543 32.5503 2.8778 -5.8974
# 5 -2.8835 -2.7783 1.7784 2.8778 28.3559 -4.6141
# 6 10.1226 1.8788 -2.2365 -5.8974 -4.6141 13.0365
#
#
#
# Elastic Compliance Matrix: (Units=1/GPa)
#
#
# Indices 1 2 3 4 5 6 
#
# 1 0.012633 -0.004731 -0.002459 0.000591 -0.000631 -0.009505
# 2 -0.004731 0.016168 -0.002777 -0.000143 0.001509 0.001336
# 3 -0.002459 -0.002777 0.014946 -0.002903 -0.000621 0.003341
# 4 0.000591 -0.000143 -0.002903 0.034085 -0.000928 0.014155
# 5 -0.000631 0.001509 -0.000621 -0.000928 0.037608 0.013057
# 6 -0.009505 0.001336 0.003341 0.014155 0.013057 0.095494
#
#
# Mechanical properties :
#
#
# Convention : Reuss Voigt Hill
#
# Bulk Modulus (GPa) = 41.99401 44.10930 43.05165
# Shear Modulus (GPa) = 20.93756 26.90975 23.92365
#
# Velocity S-wave (km/s) = 3.23895 3.67195 3.46222
# Velocity P-wave (km/s) = 5.91852 6.33077 6.12811
#
# Compressibility (1/GPa) = 0.02381292
#
# Stress axis : x y z
#
# Youngs Moduli (GPa) = 79.16050 61.84999 66.90646
#
# Poissons Ratio (x) = 0.29262 0.16452
# Poissons Ratio (y) = 0.37452 0.18579
# Poissons Ratio (z) = 0.19466 0.17175
#
# Static dielectric constant tensor:
#      x y z
#    x 1.721170 0.019530 -0.007960 
#    y 0.019530 1.701890 -0.029850 
#    z -0.007960 -0.029850 1.715070 
# 
# From -- ./inp_files/553547.got.cif
#   From: 2010.05.17/outbox.cif.g08.bks.cpg/sg2_277_cif.got.tgz:553547.got - 2010.06.03 11:33:40.
