data_PCOD9102067
_publ_section_title
;
Structure prediction by ZEFSAII (Michael W. Deem and Ramdas Pophale) SiO2 
 PCOD9102067
Probable space group: P -1
;
_chemical_formula_sum "Si O2"
_cell_formula_units_Z 12
_cell_length_a 5.635622
_cell_length_b 19.075662
_cell_length_c 8.915727
_cell_angle_alpha 147.924421
_cell_angle_beta 76.267381
_cell_angle_gamma 113.249159
_cell_volume 458.301299
_symmetry_space_group_name_H-M "P -1"
_symmetry_group_IT_number 2
_symmetry_cell_setting 'triclinic'
loop_
_space_group_symop_operation_xyz
x,y,z
-x,-y,-z
loop_
_atom_site_type_symbol
_atom_site_label
_atom_site_fract_x
_atom_site_fract_y
_atom_site_fract_z
Si Si1 0.236576 0.380846 0.014718
Si Si2 0.789531 0.412107 0.248865
Si Si3 0.740125 0.694927 0.779749
Si Si4 0.274475 0.915897 0.701039
Si Si5 0.733747 0.380881 0.757049
Si Si6 0.156119 0.995960 0.176831
O O1 0.251011 0.324927 0.077593
O O2 0.306793 0.547766 0.262696
O O3 0.916039 0.336344 0.976393
O O4 0.455211 0.349199 0.827358
O O5 0.727302 0.546607 0.437377
O O6 0.549842 0.302138 0.177806
O O7 0.000000 0.500000 0.500000
O O8 0.969525 0.833660 0.942585
O O9 0.212624 0.762580 0.507167
O O10 0.578698 0.963648 0.691507
O O11 0.261038 0.015915 0.024901
O O12 0.045133 0.920961 0.633692
O O13 0.000000 0.500000 0.000000
#
# Coordination Sequence:
#
# PCOD9102067 Si02
#       6
#     2   2   2   2   2   2
#     4  10  22  37  62  91 122 164 212 267 327 373
#     4   9  19  34  59  93 127 157 210 266 323 379
#     4  10  20  38  61  95 125 165 214 268 328 371
#     4  10  24  44  66  98 125 175 218 258 331 380
#     4  11  24  42  65  89 130 168 218 270 318 391
#     4  10  23  43  70  93 132 167 216 271 314 402
#
# _framework density 26.183647000000001
#
# number of rings (size 3 to 8) (size 9 to 14) (size 15 to 20)
#    0.000    2.000    0.000    2.000    9.333    2.667 
#    9.000    1.667    0.000    0.000    0.000    0.000 
#    0.000    0.000    0.000    0.000    0.000    0.000 
#
# Total GULP energy -66865.731905 kJ/mol
# GULP energy per Si atom -5572.144325 kJ/mol
# Density = 2.612405 g / cm^3
# Si number density = 26.183647 Si / 1000 Ang^3
#
#
#
# Elastic Constant Matrix: (Units=GPa)
#
#
# Indices 1 2 3 4 5 6 
#
# 1 178.1350 52.3929 38.5297 11.7285 -15.0428 42.7348
# 2 52.3929 124.7088 27.0988 0.6575 -3.5528 27.0277
# 3 38.5297 27.0988 85.0525 14.4028 -28.6809 21.2659
# 4 11.7285 0.6575 14.4028 43.7580 12.5847 3.4271
# 5 -15.0428 -3.5528 -28.6809 12.5847 44.3254 0.9350
# 6 42.7348 27.0277 21.2659 3.4271 0.9350 60.0062
#
#
#
# Elastic Compliance Matrix: (Units=1/GPa)
#
#
# Indices 1 2 3 4 5 6 
#
# 1 0.007786 -0.002161 -0.000274 -0.002512 0.003098 -0.004380
# 2 -0.002161 0.009899 -0.002846 0.002204 -0.002365 -0.002000
# 3 -0.000274 -0.002846 0.022166 -0.011739 0.017481 -0.005981
# 4 -0.002512 0.002204 -0.011739 0.032113 -0.017461 0.003395
# 5 0.003098 -0.002365 0.017481 -0.017461 0.039837 -0.006960
# 6 -0.004380 -0.002000 -0.005981 0.003395 -0.006960 0.022719
#
#
# Mechanical properties :
#
#
# Convention : Reuss Voigt Hill
#
# Bulk Modulus (GPa) = 34.13974 69.32657 51.73316
# Shear Modulus (GPa) = 32.29034 47.60957 39.94996
#
# Velocity S-wave (km/s) = 3.51554 4.26877 3.91034
# Velocity P-wave (km/s) = 5.43558 7.12959 6.33943
#
# Compressibility (1/GPa) = 0.02929138
#
# Stress axis : x y z
#
# Youngs Moduli (GPa) = 128.43287 101.01559 45.11404
#
# Poissons Ratio (x) = 0.21830 0.01234
# Poissons Ratio (y) = 0.27755 0.12837
# Poissons Ratio (z) = 0.03513 0.28745
#
# Static dielectric constant tensor:
#      x y z
#    x 2.445140 0.036560 -0.029800 
#    y 0.036560 2.034060 -0.086060 
#    z -0.029800 -0.086060 2.130010 
# 
# From -- ./inp_files/69061.got.cif
#   From: 2010.05.17/outbox.cif.g08.bks.cpg/sg2_35_cif.got.tgz:69061.got - 2010.06.03 11:33:40.
