data_PCOD9102467
_publ_section_title
;
Structure prediction by ZEFSAII (Michael W. Deem and Ramdas Pophale) SiO2 
 PCOD9102467
Probable space group: P -1
;
_chemical_formula_sum "Si O2"
_cell_formula_units_Z 16
_cell_length_a 17.365966
_cell_length_b 11.169132
_cell_length_c 9.160227
_cell_angle_alpha 77.296968
_cell_angle_beta 129.831059
_cell_angle_gamma 64.260562
_cell_volume 852.903518
_symmetry_space_group_name_H-M "P -1"
_symmetry_group_IT_number 2
_symmetry_cell_setting 'triclinic'
loop_
_space_group_symop_operation_xyz
x,y,z
-x,-y,-z
loop_
_atom_site_type_symbol
_atom_site_label
_atom_site_fract_x
_atom_site_fract_y
_atom_site_fract_z
Si Si1 0.117661 0.717332 0.799867
Si Si2 0.339765 0.076841 0.806638
Si Si3 0.191095 0.011926 0.483453
Si Si4 0.306910 0.092649 0.106566
Si Si5 0.149566 0.424471 0.273959
Si Si6 0.640209 0.710891 0.709066
Si Si7 0.036115 0.913468 0.357608
Si Si8 0.938868 0.820019 0.031516
O O1 0.080806 0.770653 0.570543
O O2 0.968642 0.794622 0.678246
O O3 0.271390 0.495856 0.080212
O O4 0.104537 0.868126 0.809282
O O5 0.330069 0.956557 0.740584
O O6 0.212181 0.281900 0.517998
O O7 0.307435 0.086137 0.934785
O O8 0.500000 0.000000 0.000000
O O9 0.177907 0.877808 0.524265
O O10 0.169026 0.059627 0.273732
O O11 0.329452 0.211309 0.155931
O O12 0.456016 0.878183 0.409075
O O13 0.152275 0.181760 0.966440
O O14 0.279584 0.318487 0.335895
O O15 0.093151 0.607299 0.217989
O O16 0.000000 0.500000 0.000000
O O17 0.985041 0.899754 0.149932
#
# Coordination Sequence:
#
# PCOD9102467 Si02
#       8
#     2   2   2   2   2   2   2   2
#     4   9  19  39  65  85 125 157 215 255 308 355
#     4  12  24  40  62  91 128 168 198 258 323 372
#     4  10  20  38  63  85 123 158 202 258 303 359
#     4  11  26  36  61  92 131 158 210 248 324 374
#     4  12  21  40  62  93 126 163 208 255 315 371
#     4  11  21  42  57  90 128 169 195 262 312 378
#     4   9  21  38  63  95 116 162 214 265 296 359
#     4  12  22  37  66  94 123 158 216 259 301 373
#
# _framework density 18.759449
#
# number of rings (size 3 to 8) (size 9 to 14) (size 15 to 20)
#    0.750    0.500    5.000    1.125    3.500    0.500 
#    0.000    0.625    0.000    1.500    0.000    0.000 
#    0.000    0.000    0.000    0.000    0.000    0.000 
#
# Total GULP energy -89239.361294 kJ/mol
# GULP energy per Si atom -5577.460081 kJ/mol
# Density = 1.871675 g / cm^3
# Si number density = 18.759449 Si / 1000 Ang^3
#
#
#
# Elastic Constant Matrix: (Units=GPa)
#
#
# Indices 1 2 3 4 5 6 
#
# 1 65.8196 16.2315 24.6544 23.2055 -19.7806 -9.1878
# 2 16.2315 82.2093 42.5237 24.8079 -8.4879 0.8387
# 3 24.6544 42.5237 82.5664 13.3045 -14.5880 8.1319
# 4 23.2055 24.8079 13.3045 42.2279 0.9590 -5.6998
# 5 -19.7806 -8.4879 -14.5880 0.9590 33.9128 -0.1063
# 6 -9.1878 0.8387 8.1319 -5.6998 -0.1063 20.3908
#
#
#
# Elastic Compliance Matrix: (Units=1/GPa)
#
#
# Indices 1 2 3 4 5 6 
#
# 1 0.027574 0.003416 -0.006202 -0.014068 0.014702 0.010901
# 2 0.003416 0.019628 -0.008993 -0.010460 0.003337 0.001412
# 3 -0.006202 -0.008993 0.019887 0.001008 0.002627 -0.010060
# 4 -0.014068 -0.010460 0.001008 0.038076 -0.011453 0.004273
# 5 0.014702 0.003337 0.002627 -0.011453 0.040359 0.002449
# 6 0.010901 0.001412 -0.010060 0.004273 0.002449 0.059115
#
#
# Mechanical properties :
#
#
# Convention : Reuss Voigt Hill
#
# Bulk Modulus (GPa) = 22.97224 44.15717 33.56470
# Shear Modulus (GPa) = 20.60094 29.11867 24.85981
#
# Velocity S-wave (km/s) = 3.31745 3.94409 3.64426
# Velocity P-wave (km/s) = 5.19098 6.65814 5.96980
#
# Compressibility (1/GPa) = 0.04353081
#
# Stress axis : x y z
#
# Youngs Moduli (GPa) = 36.26651 50.94808 50.28317
#
# Poissons Ratio (x) = -0.17402 0.31185
# Poissons Ratio (y) = -0.12388 0.45219
# Poissons Ratio (z) = 0.22492 0.45816
#
# Static dielectric constant tensor:
#      x y z
#    x 1.658780 0.014910 -0.006070 
#    y 0.014910 1.670500 -0.001440 
#    z -0.006070 -0.001440 1.644480 
# 
# From -- ./inp_files/331987.got.cif
#   From: 2010.05.17/outbox.cif.g08.bks.cpg/sg2_166_cif.got.tgz:331987.got - 2010.06.03 11:33:40.
