data_PCOD9102481
_publ_section_title
;
Structure prediction by ZEFSAII (Michael W. Deem and Ramdas Pophale) SiO2 
 PCOD9102481
Probable space group: P -1
;
_chemical_formula_sum "Si O2"
_cell_formula_units_Z 14
_cell_length_a 23.838660
_cell_length_b 9.233853
_cell_length_c 15.204113
_cell_angle_alpha 137.354657
_cell_angle_beta 159.173876
_cell_angle_gamma 55.261834
_cell_volume 703.343741
_symmetry_space_group_name_H-M "P -1"
_symmetry_group_IT_number 2
_symmetry_cell_setting 'triclinic'
loop_
_space_group_symop_operation_xyz
x,y,z
-x,-y,-z
loop_
_atom_site_type_symbol
_atom_site_label
_atom_site_fract_x
_atom_site_fract_y
_atom_site_fract_z
Si Si1 0.116420 0.862893 0.790733
Si Si2 0.112508 0.994195 0.577443
Si Si3 0.293612 0.368603 0.598172
Si Si4 0.040271 0.490890 0.159018
Si Si5 0.411904 0.209153 0.245156
Si Si6 0.976178 0.631354 0.654095
Si Si7 0.755774 0.153820 0.719316
O O1 0.120360 0.625110 0.652870
O O2 0.927208 0.846296 0.478322
O O3 0.099958 0.843255 0.861947
O O4 0.276585 0.093878 0.078866
O O5 0.053313 0.733908 0.330965
O O6 0.307943 0.103843 0.954304
O O7 0.000000 0.000000 0.500000
O O8 0.213554 0.473735 0.449316
O O9 0.167124 0.338435 0.483393
O O10 0.251969 0.101511 0.386423
O O11 0.500000 0.500000 0.000000
O O12 0.000000 0.500000 0.000000
O O13 0.860963 0.255037 0.827525
O O14 0.500000 0.500000 0.500000
O O15 0.561460 0.126650 0.430057
O O16 0.118125 0.634563 0.933336
#
# Coordination Sequence:
#
# PCOD9102481 Si02
#       7
#     2   2   2   2   2   2   2
#     4  10  21  37  64  89 124 159 217 263 310 382
#     4  10  20  38  63  86 125 169 211 260 325 378
#     4  11  23  43  64  90 132 172 213 261 327 388
#     4  11  24  41  66  95 130 172 220 270 322 388
#     4  11  21  39  62  96 129 166 210 266 327 383
#     4  10  21  39  63  91 119 168 212 261 316 375
#     4  11  22  39  64  88 128 170 210 252 327 385
#
# _framework density 19.904920000000001
#
# number of rings (size 3 to 8) (size 9 to 14) (size 15 to 20)
#    0.000    1.429    0.000    9.429    4.000    0.571 
#    2.571    1.429    0.000    0.000    0.000    0.000 
#    0.000    0.000    0.000    0.000    0.000    0.000 
#
# Total GULP energy -77959.699285 kJ/mol
# GULP energy per Si atom -5568.549949 kJ/mol
# Density = 1.985962 g / cm^3
# Si number density = 19.904920 Si / 1000 Ang^3
#
#
#
# Elastic Constant Matrix: (Units=GPa)
#
#
# Indices 1 2 3 4 5 6 
#
# 1 111.1290 56.1216 58.0634 -10.4611 -13.5119 23.4730
# 2 56.1216 108.4700 26.6869 -5.2969 -4.6013 -11.0505
# 3 58.0634 26.6869 90.7841 -10.8869 2.9266 -5.2008
# 4 -10.4611 -5.2969 -10.8869 43.2666 -6.6521 0.9327
# 5 -13.5119 -4.6013 2.9266 -6.6521 29.3941 4.6197
# 6 23.4730 -11.0505 -5.2008 0.9327 4.6197 38.8364
#
#
#
# Elastic Compliance Matrix: (Units=1/GPa)
#
#
# Indices 1 2 3 4 5 6 
#
# 1 0.042986 -0.018670 -0.024205 0.006950 0.026775 -0.037887
# 2 -0.018670 0.018374 0.007664 -0.002268 -0.009933 0.018775
# 3 -0.024205 0.007664 0.025877 -0.001391 -0.016315 0.022250
# 4 0.006950 -0.002268 -0.001391 0.025834 0.009898 -0.006831
# 5 0.026775 -0.009933 -0.016315 0.009898 0.052997 -0.027736
# 6 -0.037887 0.018775 0.022250 -0.006831 -0.027736 0.060433
#
#
# Mechanical properties :
#
#
# Convention : Reuss Voigt Hill
#
# Bulk Modulus (GPa) = 59.47289 65.79189 62.63239
# Shear Modulus (GPa) = 16.52727 33.60015 25.06371
#
# Velocity S-wave (km/s) = 2.88464 4.11302 3.55233
# Velocity P-wave (km/s) = 6.40611 7.46196 6.95410
#
# Compressibility (1/GPa) = 0.01681438
#
# Stress axis : x y z
#
# Youngs Moduli (GPa) = 23.26316 54.42435 38.64439
#
# Poissons Ratio (x) = 1.01612 0.93538
# Poissons Ratio (y) = 0.43433 -0.29616
# Poissons Ratio (z) = 0.56308 -0.41709
#
# Static dielectric constant tensor:
#      x y z
#    x 1.758270 0.058410 -0.025760 
#    y 0.058410 1.766050 -0.020500 
#    z -0.025760 -0.020500 1.762170 
# 
# From -- ./inp_files/542466.got.cif
#   From: 2010.05.17/outbox.cif.g08.bks.cpg/sg2_272_cif.got.tgz:542466.got - 2010.06.03 11:33:40.
