data_PCOD9102403
_publ_section_title
;
Structure prediction by ZEFSAII (Michael W. Deem and Ramdas Pophale) SiO2 
 PCOD9102403
Probable space group: P -1
;
_chemical_formula_sum "Si O2"
_cell_formula_units_Z 16
_cell_length_a 12.427918
_cell_length_b 26.852386
_cell_length_c 24.149665
_cell_angle_alpha 10.174837
_cell_angle_beta 38.272466
_cell_angle_gamma 37.942800
_cell_volume 872.472431
_symmetry_space_group_name_H-M "P -1"
_symmetry_group_IT_number 2
_symmetry_cell_setting 'triclinic'
loop_
_space_group_symop_operation_xyz
x,y,z
-x,-y,-z
loop_
_atom_site_type_symbol
_atom_site_label
_atom_site_fract_x
_atom_site_fract_y
_atom_site_fract_z
Si Si1 0.619656 0.731479 0.717982
Si Si2 0.389151 0.247810 0.808772
Si Si3 0.004629 0.618518 0.196904
Si Si4 0.861641 0.916113 0.823046
Si Si5 0.140998 0.418742 0.923616
Si Si6 0.395441 0.148435 0.203358
Si Si7 0.781296 0.961014 0.290959
Si Si8 0.772366 0.432603 0.090876
O O1 0.716627 0.837192 0.510330
O O2 0.500000 0.000000 0.500000
O O3 0.500000 0.500000 0.000000
O O4 0.744646 0.585164 0.875572
O O5 0.500000 0.500000 0.500000
O O6 0.203277 0.363370 0.727788
O O7 0.320708 0.123396 0.029693
O O8 0.500000 0.000000 0.000000
O O9 0.103775 0.301075 0.499267
O O10 0.003628 0.769971 0.970516
O O11 0.100982 0.800310 0.001480
O O12 0.872627 0.245954 0.449133
O O13 0.876489 0.751021 0.940123
O O14 0.321459 0.301871 0.009313
O O15 0.981375 0.365735 0.086437
O O16 0.604686 0.083938 0.195399
O O17 0.318348 0.850354 0.563899
O O18 0.318531 0.352420 0.061575
#
# Coordination Sequence:
#
# PCOD9102403 Si02
#       8
#     2   2   2   2   2   2   2   2
#     4  12  21  34  52  76 109 150 197 243 298 323
#     4  10  20  38  62  96 122 135 171 224 297 368
#     4  10  22  35  62  85 117 141 173 228 296 342
#     4  10  22  38  61  90 113 148 184 228 308 334
#     4  12  23  40  57  80 117 157 208 245 274 335
#     4  12  25  38  55  79 114 167 208 245 278 320
#     4  12  21  38  51  85 114 150 193 237 281 353
#     4  12  22  39  54  79 112 158 212 254 292 319
#
# _framework density 18.338688999999999
#
# number of rings (size 3 to 8) (size 9 to 14) (size 15 to 20)
#    0.750    0.000    2.500    7.500    0.000    0.000 
#    0.000    0.000    0.000    0.000    0.000   17.500 
#    0.000    0.000    0.000    0.000    0.000    0.000 
#
# Total GULP energy -89402.225195 kJ/mol
# GULP energy per Si atom -5587.639075 kJ/mol
# Density = 1.829695 g / cm^3
# Si number density = 18.338689 Si / 1000 Ang^3
#
#
#
# Elastic Constant Matrix: (Units=GPa)
#
#
# Indices 1 2 3 4 5 6 
#
# 1 97.5164 24.3136 59.1492 -17.9847 -4.0611 -32.8067
# 2 24.3136 111.4703 56.2876 -28.4498 -21.2319 -25.5210
# 3 59.1492 56.2876 111.1864 -29.7455 -43.2711 -7.7143
# 4 -17.9847 -28.4498 -29.7455 35.9493 -1.1826 -3.8568
# 5 -4.0611 -21.2319 -43.2711 -1.1826 39.9059 3.5940
# 6 -32.8067 -25.5210 -7.7143 -3.8568 3.5940 26.6287
#
#
#
# Elastic Compliance Matrix: (Units=1/GPa)
#
#
# Indices 1 2 3 4 5 6 
#
# 1 0.983823 0.570784 -0.837932 0.407757 -0.642399 1.662133
# 2 0.570784 0.351472 -0.486648 0.254752 -0.363768 0.985076
# 3 -0.837932 -0.486648 0.741826 -0.322633 0.577480 -1.408509
# 4 0.407757 0.254752 -0.322633 0.235944 -0.230506 0.718332
# 5 -0.642399 -0.363768 0.577480 -0.230506 0.481965 -1.071218
# 6 1.662133 0.985076 -1.408509 0.718332 -1.071218 2.869993
#
#
# Mechanical properties :
#
#
# Convention : Reuss Voigt Hill
#
# Bulk Modulus (GPa) = 1.75584 66.63045 34.19314
# Shear Modulus (GPa) = 0.67912 32.52493 16.60202
#
# Velocity S-wave (km/s) = 0.60920 4.21594 3.01209
# Velocity P-wave (km/s) = 1.20597 7.75313 5.54822
#
# Compressibility (1/GPa) = 0.56952831
#
# Stress axis : x y z
#
# Youngs Moduli (GPa) = 1.01644 2.84517 1.34802
#
# Poissons Ratio (x) = -1.62398 1.12955
# Poissons Ratio (y) = -0.58017 0.65601
# Poissons Ratio (z) = 0.85171 1.38460
#
# Static dielectric constant tensor:
#      x y z
#    x 1.646930 -0.021020 0.011740 
#    y -0.021020 1.621940 -0.002980 
#    z 0.011740 -0.002980 1.610770 
# 
# From -- ./inp_files/611023.got.cif
#   From: 2010.05.17/outbox.cif.g08.bks.cpg/sg2_306_cif.got.tgz:611023.got - 2010.06.03 11:33:40.
