data_PCOD9102462
_publ_section_title
;
Structure prediction by ZEFSAII (Michael W. Deem and Ramdas Pophale) SiO2 
 PCOD9102462
Probable space group: P -1
;
_chemical_formula_sum "Si O2"
_cell_formula_units_Z 16
_cell_length_a 8.159894
_cell_length_b 6.250100
_cell_length_c 21.959635
_cell_angle_alpha 130.746257
_cell_angle_beta 100.293023
_cell_angle_gamma 57.231614
_cell_volume 686.138523
_symmetry_space_group_name_H-M "P -1"
_symmetry_group_IT_number 2
_symmetry_cell_setting 'triclinic'
loop_
_space_group_symop_operation_xyz
x,y,z
-x,-y,-z
loop_
_atom_site_type_symbol
_atom_site_label
_atom_site_fract_x
_atom_site_fract_y
_atom_site_fract_z
Si Si1 0.407231 0.662556 0.403076
Si Si2 0.860213 0.404816 0.549744
Si Si3 0.701729 0.796617 0.016393
Si Si4 0.841927 0.166530 0.840512
Si Si5 0.244101 0.621003 0.823668
Si Si6 0.210218 0.430504 0.567019
Si Si7 0.356678 0.614814 0.258878
Si Si8 0.458354 0.183060 0.863439
O O1 0.340071 0.454490 0.397933
O O2 0.647013 0.473524 0.375851
O O3 0.298142 0.772694 0.351278
O O4 0.330451 0.014498 0.499067
O O5 0.815356 0.460188 0.485310
O O6 0.993757 0.549579 0.601302
O O7 0.000000 0.000000 0.500000
O O8 0.648590 0.681793 0.053552
O O9 0.753510 0.068211 0.087398
O O10 0.858986 0.464255 0.925570
O O11 0.500000 0.000000 0.000000
O O12 0.801073 0.227035 0.777290
O O13 0.635664 0.231977 0.867192
O O14 0.036242 0.801433 0.806499
O O15 0.441493 0.417904 0.756149
O O16 0.288705 0.362898 0.833208
O O17 0.431666 0.223266 0.201401
#
# Coordination Sequence:
#
# PCOD9102462 Si02
#       8
#     2   2   2   2   2   2   2   2
#     4  10  20  38  63  85 117 164 193 247 306 349
#     4   9  18  35  58  93 120 145 196 247 292 361
#     4  11  19  38  63  84 118 152 196 257 299 343
#     4  11  22  39  62  85 118 157 198 247 303 352
#     4  10  23  39  58  88 116 153 205 244 294 361
#     4   9  19  37  64  88 118 151 203 249 294 355
#     4  10  23  42  57  82 128 156 194 244 300 362
#     4  10  21  38  59  83 118 156 196 250 294 360
#
# _framework density 23.318906999999999
#
# number of rings (size 3 to 8) (size 9 to 14) (size 15 to 20)
#    0.000    2.000    3.750    1.125    0.000    4.500 
#    9.000    0.000    0.000    0.000    0.000    0.000 
#    0.000    0.000    0.000    0.000    0.000    0.000 
#
# Total GULP energy -89385.404401 kJ/mol
# GULP energy per Si atom -5586.587775 kJ/mol
# Density = 2.326583 g / cm^3
# Si number density = 23.318907 Si / 1000 Ang^3
#
#
#
# Elastic Constant Matrix: (Units=GPa)
#
#
# Indices 1 2 3 4 5 6 
#
# 1 108.3147 44.6580 23.4963 -24.5904 11.0870 7.5965
# 2 44.6580 141.5286 11.3639 -27.7957 6.5590 -10.2788
# 3 23.4963 11.3639 53.5422 -9.1846 3.6827 11.3774
# 4 -24.5904 -27.7957 -9.1846 37.2607 -2.4393 -2.5785
# 5 11.0870 6.5590 3.6827 -2.4393 8.4516 -10.0625
# 6 7.5965 -10.2788 11.3774 -2.5785 -10.0625 33.2755
#
#
#
# Elastic Compliance Matrix: (Units=1/GPa)
#
#
# Indices 1 2 3 4 5 6 
#
# 1 0.016622 -0.003779 0.000098 0.004742 -0.036028 -0.015523
# 2 -0.003779 0.009571 -0.001612 0.005316 0.008534 0.007363
# 3 0.000098 -0.001612 0.025416 0.001766 -0.031634 -0.018640
# 4 0.004742 0.005316 0.001766 0.034836 0.003281 0.003648
# 5 -0.036028 0.008534 -0.031634 0.003281 0.312211 0.116344
# 6 -0.015523 0.007363 -0.018640 0.003648 0.116344 0.077709
#
#
# Mechanical properties :
#
#
# Convention : Reuss Voigt Hill
#
# Bulk Modulus (GPa) = 24.37775 51.38020 37.87898
# Shear Modulus (GPa) = 9.98748 30.72205 20.35476
#
# Velocity S-wave (km/s) = 2.07179 3.63364 2.95767
# Velocity P-wave (km/s) = 4.02490 6.29968 5.28611
#
# Compressibility (1/GPa) = 0.04102100
#
# Stress axis : x y z
#
# Youngs Moduli (GPa) = 60.15961 104.48113 39.34566
#
# Poissons Ratio (x) = 0.39486 -0.00384
# Poissons Ratio (y) = 0.22736 0.06344
# Poissons Ratio (z) = -0.00587 0.16847
#
# Static dielectric constant tensor:
#      x y z
#    x 1.972320 -0.029980 0.003140 
#    y -0.029980 1.890770 0.022970 
#    z 0.003140 0.022970 1.909170 
# 
# From -- ./inp_files/52705.got.cif
#   From: 2010.05.17/outbox.cif.g08.bks.cpg/sg2_27_cif.got.tgz:52705.got - 2010.06.03 11:33:40.
