data_PCOD9102208
_publ_section_title
;
Structure prediction by ZEFSAII (Michael W. Deem and Ramdas Pophale) SiO2 
 PCOD9102208
Probable space group: P -1
;
_chemical_formula_sum "Si O2"
_cell_formula_units_Z 16
_cell_length_a 6.796712
_cell_length_b 15.701716
_cell_length_c 8.194747
_cell_angle_alpha 128.206766
_cell_angle_beta 88.458736
_cell_angle_gamma 91.714441
_cell_volume 686.855518
_symmetry_space_group_name_H-M "P -1"
_symmetry_group_IT_number 2
_symmetry_cell_setting 'triclinic'
loop_
_space_group_symop_operation_xyz
x,y,z
-x,-y,-z
loop_
_atom_site_type_symbol
_atom_site_label
_atom_site_fract_x
_atom_site_fract_y
_atom_site_fract_z
Si Si1 0.774888 0.995488 0.544792
Si Si2 0.810648 0.619949 0.587380
Si Si3 0.827714 0.945638 0.834690
Si Si4 0.944894 0.541610 0.828138
Si Si5 0.238351 0.630373 0.157747
Si Si6 0.885460 0.226925 0.369963
Si Si7 0.491170 0.809061 0.229024
Si Si8 0.510155 0.799663 0.831107
O O1 0.745889 0.006105 0.752801
O O2 0.685109 0.879596 0.352901
O O3 0.668673 0.101702 0.602569
O O4 0.000000 0.000000 0.500000
O O5 0.812521 0.568481 0.705936
O O6 0.613450 0.686977 0.637969
O O7 0.885595 0.536387 0.348666
O O8 0.989692 0.708137 0.691989
O O9 0.660515 0.895704 0.892947
O O10 0.953193 0.847989 0.641006
O O11 0.000000 0.000000 0.000000
O O12 0.802889 0.490423 0.911612
O O13 0.076080 0.635570 0.022775
O O14 0.183183 0.694989 0.396343
O O15 0.437082 0.691986 0.168251
O O16 0.692328 0.179008 0.232378
O O17 0.487550 0.791955 0.015406
#
# Coordination Sequence:
#
# PCOD9102208 Si02
#       8
#     2   2   2   2   2   2   2   2
#     4  11  24  42  64  90 123 161 202 250 304 358
#     4   9  20  40  62  86 118 159 202 245 299 357
#     4  11  23  38  60  88 118 158 201 244 302 362
#     4   9  19  39  65  89 120 161 203 249 301 360
#     4  10  20  38  62  88 122 158 195 250 303 349
#     4  10  21  38  60  86 119 157 200 248 297 357
#     4  11  24  40  62  93 124 159 204 250 299 362
#     4  11  23  39  61  87 120 159 199 249 302 355
#
# _framework density 23.294564999999999
#
# number of rings (size 3 to 8) (size 9 to 14) (size 15 to 20)
#    0.000    1.750    0.000    3.750    0.000    8.000 
#    0.000   13.750    0.000    0.000    0.000    0.000 
#    0.000    0.000    0.000    0.000    0.000    0.000 
#
# Total GULP energy -89260.550365 kJ/mol
# GULP energy per Si atom -5578.784398 kJ/mol
# Density = 2.324155 g / cm^3
# Si number density = 23.294565 Si / 1000 Ang^3
#
#
#
# Elastic Constant Matrix: (Units=GPa)
#
#
# Indices 1 2 3 4 5 6 
#
# 1 95.9138 27.5453 12.5694 9.1999 0.4692 18.7279
# 2 27.5453 84.6519 8.1070 -11.6188 -3.1786 15.0790
# 3 12.5694 8.1070 58.8393 -7.1623 15.9714 7.9933
# 4 9.1999 -11.6188 -7.1623 30.4857 4.2461 2.2734
# 5 0.4692 -3.1786 15.9714 4.2461 31.9414 5.0879
# 6 18.7279 15.0790 7.9933 2.2734 5.0879 34.8998
#
#
#
# Elastic Compliance Matrix: (Units=1/GPa)
#
#
# Indices 1 2 3 4 5 6 
#
# 1 0.013524 -0.004027 -0.003165 -0.006365 0.002587 -0.004755
# 2 -0.004027 0.015050 -0.000059 0.007110 0.001438 -0.005001
# 3 -0.003165 -0.000059 0.022120 0.007924 -0.011731 -0.002148
# 4 -0.006365 0.007110 0.007924 0.040641 -0.008096 -0.002938
# 5 0.002587 0.001438 -0.011731 -0.008096 0.039070 -0.004491
# 6 -0.004755 -0.005001 -0.002148 -0.002938 -0.004491 0.034704
#
#
# Mechanical properties :
#
#
# Convention : Reuss Voigt Hill
#
# Bulk Modulus (GPa) = 27.63043 37.31647 32.47345
# Shear Modulus (GPa) = 26.08595 32.21094 29.14845
#
# Velocity S-wave (km/s) = 3.35002 3.72259 3.54121
# Velocity P-wave (km/s) = 5.18175 5.87631 5.53993
#
# Compressibility (1/GPa) = 0.03619198
#
# Stress axis : x y z
#
# Youngs Moduli (GPa) = 73.94491 66.44657 45.20713
#
# Poissons Ratio (x) = 0.26758 0.14309
# Poissons Ratio (y) = 0.29777 0.00266
# Poissons Ratio (z) = 0.23405 0.00390
#
# Static dielectric constant tensor:
#      x y z
#    x 1.879520 -0.059420 -0.016750 
#    y -0.059420 2.082640 0.072900 
#    z -0.016750 0.072900 1.909590 
# 
# From -- ./inp_files/47477.got.cif
#   From: 2010.05.17/outbox.cif.g08.bks.cpg/sg2_24_cif.got.tgz:47477.got - 2010.06.03 11:33:40.
