data_PCOD9102726
_publ_section_title
;
Structure prediction by ZEFSAII (Michael W. Deem and Ramdas Pophale) SiO2 
 PCOD9102726
Probable space group: P -1
;
_chemical_formula_sum "Si O2"
_cell_formula_units_Z 16
_cell_length_a 15.199010
_cell_length_b 13.913707
_cell_length_c 12.364910
_cell_angle_alpha 30.803394
_cell_angle_beta 152.971929
_cell_angle_gamma 145.648161
_cell_volume 587.601740
_symmetry_space_group_name_H-M "P -1"
_symmetry_group_IT_number 2
_symmetry_cell_setting 'triclinic'
loop_
_space_group_symop_operation_xyz
x,y,z
-x,-y,-z
loop_
_atom_site_type_symbol
_atom_site_label
_atom_site_fract_x
_atom_site_fract_y
_atom_site_fract_z
Si Si1 0.183839 0.463856 0.919082
Si Si2 0.151247 0.336670 0.585060
Si Si3 0.971726 0.201352 0.313346
Si Si4 0.570222 0.226926 0.949893
Si Si5 0.986496 0.046265 0.066690
Si Si6 0.435360 0.857498 0.435696
Si Si7 0.638961 0.211657 0.811637
Si Si8 0.451674 0.711382 0.822778
O O1 0.350672 0.590393 0.061756
O O2 0.154951 0.235201 0.105200
O O3 0.252618 0.552555 0.790868
O O4 0.972271 0.508584 0.672101
O O5 0.153042 0.312697 0.479617
O O6 0.021410 0.136762 0.690282
O O7 0.363592 0.347078 0.861813
O O8 0.000000 0.000000 0.000000
O O9 0.777683 0.166519 0.211903
O O10 0.877960 0.289615 0.023450
O O11 0.000000 0.000000 0.500000
O O12 0.524263 0.271964 0.730856
O O13 0.418058 0.027514 0.015777
O O14 0.776540 0.099921 0.806326
O O15 0.493473 0.747092 0.707781
O O16 0.571344 0.079148 0.362386
O O17 0.413186 0.745447 0.407221
#
# Coordination Sequence:
#
# PCOD9102726 Si02
#       8
#     2   2   2   2   2   2   2   2
#     4  11  22  45  72  99 143 181 233 296 347 418
#     4  10  23  42  66 105 136 179 236 280 353 418
#     4   9  16  29  60  97 128 177 223 281 335 407
#     4   8  18  32  63 100 124 179 229 271 352 404
#     4  11  25  44  67 102 139 187 235 286 356 422
#     4  10  20  38  64 100 141 184 228 290 345 417
#     4   9  16  34  63 100 128 180 230 270 350 410
#     4  10  21  38  68  97 138 188 228 283 349 414
#
# _framework density 27.229327000000001
#
# number of rings (size 3 to 8) (size 9 to 14) (size 15 to 20)
#    0.750    1.500    1.250    2.250    0.000    2.000 
#    0.000   11.250    0.000    0.750    0.000    0.000 
#    0.000    0.000    0.000    0.125    0.000    0.000 
#
# Total GULP energy -89571.014698 kJ/mol
# GULP energy per Si atom -5598.188419 kJ/mol
# Density = 2.716735 g / cm^3
# Si number density = 27.229327 Si / 1000 Ang^3
#
#
#
# Elastic Constant Matrix: (Units=GPa)
#
#
# Indices 1 2 3 4 5 6 
#
# 1 105.2939 31.6208 48.7579 -6.1254 -18.4099 -16.2322
# 2 31.6208 133.3541 16.2739 -7.9336 -5.6678 -26.7831
# 3 48.7579 16.2739 153.2598 10.1555 -30.3147 -8.9153
# 4 -6.1254 -7.9336 10.1555 32.7866 -0.1630 -0.1833
# 5 -18.4099 -5.6678 -30.3147 -0.1630 48.4023 9.3713
# 6 -16.2322 -26.7831 -8.9153 -0.1833 9.3713 44.4875
#
#
#
# Elastic Compliance Matrix: (Units=1/GPa)
#
#
# Indices 1 2 3 4 5 6 
#
# 1 0.012528 -0.001805 -0.003473 0.003002 0.001925 0.002395
# 2 -0.001805 0.009040 -0.000395 0.001996 -0.000814 0.004884
# 3 -0.003473 -0.000395 0.008689 -0.003418 0.004191 -0.000660
# 4 0.003002 0.001996 -0.003418 0.032609 -0.001036 0.001965
# 5 0.001925 -0.000814 0.004191 -0.001036 0.024724 -0.004160
# 6 0.002395 0.004884 -0.000660 0.001965 -0.004160 0.027045
#
#
# Mechanical properties :
#
#
# Convention : Reuss Voigt Hill
#
# Bulk Modulus (GPa) = 52.87899 65.02368 58.95133
# Shear Modulus (GPa) = 37.79749 44.81897 41.30823
#
# Velocity S-wave (km/s) = 3.72979 4.06147 3.89916
# Velocity P-wave (km/s) = 6.16526 6.77687 6.47828
#
# Compressibility (1/GPa) = 0.01891110
#
# Stress axis : x y z
#
# Youngs Moduli (GPa) = 79.82134 110.61675 115.09206
#
# Poissons Ratio (x) = 0.19970 0.39969
# Poissons Ratio (y) = 0.14410 0.04543
# Poissons Ratio (z) = 0.27720 0.04367
#
# Static dielectric constant tensor:
#      x y z
#    x 2.127620 -0.031290 -0.041440 
#    y -0.031290 2.145860 0.067250 
#    z -0.041440 0.067250 2.169000 
# 
# From -- ./inp_files/466437.got.cif
#   From: 2010.05.17/outbox.cif.g08.bks.cpg/sg2_234_cif.got.tgz:466437.got - 2010.06.03 11:33:40.
