data_PCOD9102817
_publ_section_title
;
Structure prediction by ZEFSAII (Michael W. Deem and Ramdas Pophale) SiO2 
 PCOD9102817
Probable space group: P -1
;
_chemical_formula_sum "Si O2"
_cell_formula_units_Z 16
_cell_length_a 14.033897
_cell_length_b 14.503740
_cell_length_c 12.170411
_cell_angle_alpha 140.728579
_cell_angle_beta 131.196089
_cell_angle_gamma 29.472786
_cell_volume 770.567459
_symmetry_space_group_name_H-M "P -1"
_symmetry_group_IT_number 2
_symmetry_cell_setting 'triclinic'
loop_
_space_group_symop_operation_xyz
x,y,z
-x,-y,-z
loop_
_atom_site_type_symbol
_atom_site_label
_atom_site_fract_x
_atom_site_fract_y
_atom_site_fract_z
Si Si1 0.335176 0.438119 0.273500
Si Si2 0.160879 0.675123 0.902102
Si Si3 0.730617 0.185398 0.051456
Si Si4 0.414998 0.989658 0.260633
Si Si5 0.200469 0.298224 0.591282
Si Si6 0.747151 0.187667 0.323711
Si Si7 0.895954 0.320952 0.896930
Si Si8 0.847100 0.637362 0.773915
O O1 0.568185 0.237832 0.264576
O O2 0.273861 0.645532 0.471801
O O3 0.251692 0.506700 0.150500
O O4 0.243135 0.390775 0.231834
O O5 0.283239 0.668326 0.907068
O O6 0.179892 0.487161 0.718648
O O7 0.198914 0.660543 0.047329
O O8 0.938863 0.923509 0.950369
O O9 0.726128 0.235749 0.221497
O O10 0.582174 0.185515 0.914527
O O11 0.274871 0.148392 0.403562
O O12 0.321211 0.143441 0.224390
O O13 0.627041 0.861429 0.335653
O O14 0.998301 0.427671 0.611618
O O15 0.949807 0.931609 0.261552
O O16 0.023818 0.347771 0.059038
#
# Coordination Sequence:
#
# PCOD9102817 Si02
#       8
#     2   2   2   2   2   2   2   2
#     4  11  25  40  64  87 121 167 209 248 304 355
#     4   9  20  37  64  92 117 158 197 246 313 363
#     4  10  20  38  64  89 121 158 201 248 311 363
#     4  11  22  40  59  94 128 156 203 249 308 371
#     4  10  23  38  61  92 129 156 199 254 304 373
#     4  10  23  43  59  89 122 160 205 260 297 359
#     4  10  21  42  61  93 122 157 207 254 299 364
#     4  11  23  40  64  89 121 169 199 253 308 355
#
# _framework density 20.763918
#
# number of rings (size 3 to 8) (size 9 to 14) (size 15 to 20)
#    0.000    1.750    3.750    1.125    5.250    4.000 
#    0.000    1.250    0.000    0.000    0.000    0.000 
#    0.000    0.000    0.000    0.000    0.000    0.000 
#
# Total GULP energy -89454.804138 kJ/mol
# GULP energy per Si atom -5590.925259 kJ/mol
# Density = 2.071666 g / cm^3
# Si number density = 20.763918 Si / 1000 Ang^3
#
#
#
# Elastic Constant Matrix: (Units=GPa)
#
#
# Indices 1 2 3 4 5 6 
#
# 1 123.8460 32.5270 11.1553 -5.0401 -5.7723 20.2594
# 2 32.5270 72.3830 22.0803 -4.0126 -3.0315 3.0327
# 3 11.1553 22.0803 52.0655 -12.2859 -4.6759 4.2266
# 4 -5.0401 -4.0126 -12.2859 31.4092 -6.0413 -10.4722
# 5 -5.7723 -3.0315 -4.6759 -6.0413 11.5881 3.4463
# 6 20.2594 3.0327 4.2266 -10.4722 3.4463 17.5508
#
#
#
# Elastic Compliance Matrix: (Units=1/GPa)
#
#
# Indices 1 2 3 4 5 6 
#
# 1 0.012341 -0.004924 0.001164 -0.001970 0.009259 -0.016669
# 2 -0.004924 0.017917 -0.007146 -0.000159 -0.002108 0.004628
# 3 0.001164 -0.007146 0.026482 0.011919 0.016380 -0.002591
# 4 -0.001970 -0.000159 0.011919 0.048371 0.021867 0.023999
# 5 0.009259 -0.002108 0.016380 0.021867 0.115472 -0.023895
# 6 -0.016669 0.004628 -0.002591 0.023999 -0.023895 0.095055
#
#
# Mechanical properties :
#
#
# Convention : Reuss Voigt Hill
#
# Bulk Modulus (GPa) = 28.63044 42.20217 35.41631
# Shear Modulus (GPa) = 14.32289 24.27843 19.30066
#
# Velocity S-wave (km/s) = 2.62925 3.42315 3.05213
# Velocity P-wave (km/s) = 4.79956 5.99941 5.43271
#
# Compressibility (1/GPa) = 0.03492786
#
# Stress axis : x y z
#
# Youngs Moduli (GPa) = 81.03057 55.81331 37.76196
#
# Poissons Ratio (x) = 0.27481 -0.04395
# Poissons Ratio (y) = 0.39898 0.26984
# Poissons Ratio (z) = -0.09430 0.39883
#
# Static dielectric constant tensor:
#      x y z
#    x 1.722540 -0.026830 -0.015250 
#    y -0.026830 1.747100 0.004370 
#    z -0.015250 0.004370 1.739210 
# 
# From -- ./inp_files/455090.got.cif
#   From: 2010.05.17/outbox.cif.g08.bks.cpg/sg2_228_cif.got.tgz:455090.got - 2010.06.03 11:33:40.
