data_PCOD9102209
_publ_section_title
;
Structure prediction by ZEFSAII (Michael W. Deem and Ramdas Pophale) SiO2 
 PCOD9102209
Probable space group: P -1
;
_chemical_formula_sum "Si O2"
_cell_formula_units_Z 14
_cell_length_a 10.608719
_cell_length_b 10.171486
_cell_length_c 9.177469
_cell_angle_alpha 125.281474
_cell_angle_beta 62.620766
_cell_angle_gamma 137.392568
_cell_volume 546.188320
_symmetry_space_group_name_H-M "P -1"
_symmetry_group_IT_number 2
_symmetry_cell_setting 'triclinic'
loop_
_space_group_symop_operation_xyz
x,y,z
-x,-y,-z
loop_
_atom_site_type_symbol
_atom_site_label
_atom_site_fract_x
_atom_site_fract_y
_atom_site_fract_z
Si Si1 0.453986 0.719406 0.751951
Si Si2 0.030878 0.205788 0.064846
Si Si3 0.850786 0.891823 0.314325
Si Si4 0.248653 0.308278 0.442947
Si Si5 0.336008 0.990769 0.714110
Si Si6 0.320748 0.800562 0.143427
Si Si7 0.823454 0.393619 0.628543
O O1 0.330497 0.544823 0.580822
O O2 0.592035 0.680663 0.712946
O O3 0.596631 0.962898 0.780555
O O4 0.321243 0.702789 0.931901
O O5 0.180180 0.419456 0.213047
O O6 0.831334 0.138973 0.159991
O O7 0.096606 0.231239 0.881185
O O8 0.000000 0.000000 0.000000
O O9 0.774537 0.788125 0.445116
O O10 0.712241 0.901245 0.302192
O O11 0.043429 0.135150 0.377793
O O12 0.328213 0.818989 0.517542
O O13 0.519728 0.160802 0.815137
O O14 0.152365 0.670274 0.264095
O O15 0.000000 0.500000 0.500000
#
# Coordination Sequence:
#
# PCOD9102209 Si02
#       7
#     2   2   2   2   2   2   2
#     4  10  23  40  61  89 123 166 206 247 304 362
#     4   9  19  35  54  82 119 155 195 241 296 361
#     4  10  20  38  62  88 122 161 204 254 302 359
#     4  10  21  39  61  87 121 163 210 250 297 363
#     4  10  21  37  60  91 122 156 199 251 310 362
#     4  11  22  40  62  89 126 160 201 254 305 368
#     4  10  21  37  59  86 121 158 199 249 304 363
#
# _framework density 25.632186999999998
#
# number of rings (size 3 to 8) (size 9 to 14) (size 15 to 20)
#    0.000    2.000    0.000    3.000    0.000    4.571 
#    0.000   12.143    0.000   14.571    0.000    0.000 
#    0.000    0.000    0.000    0.000    0.000    0.000 
#
# Total GULP energy -78309.730349 kJ/mol
# GULP energy per Si atom -5593.552168 kJ/mol
# Density = 2.557385 g / cm^3
# Si number density = 25.632187 Si / 1000 Ang^3
#
#
#
# Elastic Constant Matrix: (Units=GPa)
#
#
# Indices 1 2 3 4 5 6 
#
# 1 44.8021 0.6953 16.8251 4.4798 2.1467 -5.4775
# 2 0.6953 121.8125 43.2482 11.6869 -15.2943 -13.8798
# 3 16.8251 43.2482 163.0176 6.1234 -31.1618 -14.4349
# 4 4.4798 11.6869 6.1234 49.6705 -4.8603 2.3805
# 5 2.1467 -15.2943 -31.1618 -4.8603 23.8711 -0.6630
# 6 -5.4775 -13.8798 -14.4349 2.3805 -0.6630 36.7666
#
#
#
# Elastic Compliance Matrix: (Units=1/GPa)
#
#
# Indices 1 2 3 4 5 6 
#
# 1 0.024670 0.000876 -0.003809 -0.002781 -0.007125 0.002562
# 2 0.000876 0.009829 -0.001588 -0.001984 0.003837 0.003416
# 3 -0.003809 -0.001588 0.009427 0.000582 0.011826 0.002710
# 4 -0.002781 -0.001984 0.000582 0.021278 0.004009 -0.002240
# 5 -0.007125 0.003837 0.011826 0.004009 0.061408 0.005878
# 6 0.002562 0.003416 0.002710 -0.002240 0.005878 0.030185
#
#
# Mechanical properties :
#
#
# Convention : Reuss Voigt Hill
#
# Bulk Modulus (GPa) = 28.66593 50.12992 39.39792
# Shear Modulus (GPa) = 28.17407 39.98588 34.07998
#
# Velocity S-wave (km/s) = 3.31897 3.95395 3.65029
# Velocity P-wave (km/s) = 5.08874 6.35963 5.75934
#
# Compressibility (1/GPa) = 0.03488462
#
# Stress axis : x y z
#
# Youngs Moduli (GPa) = 40.53494 101.73623 106.07474
#
# Poissons Ratio (x) = -0.08910 0.40406
# Poissons Ratio (y) = -0.03550 0.16840
# Poissons Ratio (z) = 0.15441 0.16152
#
# Static dielectric constant tensor:
#      x y z
#    x 2.020210 -0.027660 0.001020 
#    y -0.027660 2.282150 -0.169210 
#    z 0.001020 -0.169210 2.119960 
# 
# From -- ./inp_files/263400.got.cif
#   From: 2010.05.17/outbox.cif.g08.bks.cpg/sg2_132_cif.got.tgz:263400.got - 2010.06.03 11:33:40.
