data_PCOD9102062
_publ_section_title
;
Structure prediction by ZEFSAII (Michael W. Deem and Ramdas Pophale) SiO2 
 PCOD9102062
Probable space group: P -1
;
_chemical_formula_sum "Si O2"
_cell_formula_units_Z 16
_cell_length_a 20.245277
_cell_length_b 7.865483
_cell_length_c 7.097252
_cell_angle_alpha 104.021415
_cell_angle_beta 136.159652
_cell_angle_gamma 70.070162
_cell_volume 735.912956
_symmetry_space_group_name_H-M "P -1"
_symmetry_group_IT_number 2
_symmetry_cell_setting 'triclinic'
loop_
_space_group_symop_operation_xyz
x,y,z
-x,-y,-z
loop_
_atom_site_type_symbol
_atom_site_label
_atom_site_fract_x
_atom_site_fract_y
_atom_site_fract_z
Si Si1 0.760492 0.772756 0.974229
Si Si2 0.771114 0.365805 0.489449
Si Si3 0.578268 0.787426 0.808364
Si Si4 0.120193 0.448534 0.542195
Si Si5 0.093774 0.568456 0.928636
Si Si6 0.630519 0.157347 0.147487
Si Si7 0.416287 0.333585 0.796066
Si Si8 0.634725 0.038416 0.541974
O O1 0.660864 0.708082 0.803725
O O2 0.818680 0.737105 0.283283
O O3 0.835301 0.634231 0.955431
O O4 0.723796 0.963579 0.846919
O O5 0.817569 0.472526 0.458159
O O6 0.852999 0.310250 0.805044
O O7 0.725565 0.208277 0.272938
O O8 0.672024 0.502283 0.401241
O O9 0.582914 0.670146 0.974447
O O10 0.609276 0.971364 0.981608
O O11 0.464264 0.846171 0.529990
O O12 0.096371 0.584473 0.710808
O O13 0.017631 0.423897 0.245618
O O14 0.650083 0.136819 0.407974
O O15 0.527654 0.307365 0.947470
O O16 0.390612 0.145703 0.634426
#
# Coordination Sequence:
#
# PCOD9102062 Si02
#       8
#     2   2   2   2   2   2   2   2
#     4  10  16  32  56  74  99 135 183 223 245 299
#     4  12  18  34  57  77 109 137 167 218 273 304
#     4   9  17  31  51  76 104 141 178 203 245 313
#     4   9  20  35  56  83  96 129 184 229 255 294
#     4   9  20  35  56  83  96 129 184 229 255 294
#     4   9  21  30  47  81 112 137 165 209 264 314
#     4   9  15  32  52  72 102 142 182 205 237 314
#     4   9  17  31  51  76 104 141 178 203 245 313
#
# _framework density 21.741700999999999
#
# number of rings (size 3 to 8) (size 9 to 14) (size 15 to 20)
#    0.750    1.750    2.500    2.625    0.000    0.000 
#    2.250    0.000    0.000    9.000    0.000    0.000 
#    0.000    0.000    0.000    0.000    0.000    0.000 
#
# Total GULP energy -89125.566379 kJ/mol
# GULP energy per Si atom -5570.347899 kJ/mol
# Density = 2.169222 g / cm^3
# Si number density = 21.741701 Si / 1000 Ang^3
#
#
#
# Elastic Constant Matrix: (Units=GPa)
#
#
# Indices 1 2 3 4 5 6 
#
# 1 69.5443 13.2741 35.3753 -0.6086 7.9065 7.3479
# 2 13.2741 34.8218 33.7612 -2.7581 7.1641 4.7397
# 3 35.3753 33.7612 111.6513 -4.2413 20.2722 11.9395
# 4 -0.6086 -2.7581 -4.2413 29.2973 0.5848 3.5195
# 5 7.9065 7.1641 20.2722 0.5848 34.7108 -3.2738
# 6 7.3479 4.7397 11.9395 3.5195 -3.2738 15.5228
#
#
#
# Elastic Compliance Matrix: (Units=1/GPa)
#
#
# Indices 1 2 3 4 5 6 
#
# 1 0.017553 -0.001525 -0.004256 0.000236 -0.001671 -0.004976
# 2 -0.001525 0.041261 -0.010997 0.002849 -0.002221 -0.004533
# 3 -0.004256 -0.010997 0.015932 0.002389 -0.006944 -0.008889
# 4 0.000236 0.002849 0.002389 0.036248 -0.003764 -0.011832
# 5 -0.001671 -0.002221 -0.006944 -0.003764 0.035191 0.015086
# 6 -0.004976 -0.004533 -0.008889 -0.011832 0.015086 0.080862
#
#
# Mechanical properties :
#
#
# Convention : Reuss Voigt Hill
#
# Bulk Modulus (GPa) = 24.27767 42.31541 33.29654
# Shear Modulus (GPa) = 18.22602 24.81328 21.51965
#
# Velocity S-wave (km/s) = 2.89848 3.38194 3.14950
# Velocity P-wave (km/s) = 4.73204 5.89534 5.34543
#
# Compressibility (1/GPa) = 0.04119011
#
# Stress axis : x y z
#
# Youngs Moduli (GPa) = 56.97014 24.23611 62.76586
#
# Poissons Ratio (x) = 0.03697 0.26711
# Poissons Ratio (y) = 0.08690 0.69023
# Poissons Ratio (z) = 0.24245 0.26652
#
# Static dielectric constant tensor:
#      x y z
#    x 1.841300 -0.028290 -0.043010 
#    y -0.028290 1.830280 -0.003800 
#    z -0.043010 -0.003800 1.843800 
# 
# From -- ./inp_files/170702.got.cif
#   From: 2010.05.17/outbox.cif.g08.bks.cpg/sg2_86_cif.got.tgz:170702.got - 2010.06.03 11:33:40.
