data_PCOD9102357
_publ_section_title
;
Structure prediction by ZEFSAII (Michael W. Deem and Ramdas Pophale) SiO2 
 PCOD9102357
Probable space group: P -1
;
_chemical_formula_sum "Si O2"
_cell_formula_units_Z 16
_cell_length_a 10.382097
_cell_length_b 11.264918
_cell_length_c 22.558771
_cell_angle_alpha 141.480654
_cell_angle_beta 26.242453
_cell_angle_gamma 142.801279
_cell_volume 682.131781
_symmetry_space_group_name_H-M "P -1"
_symmetry_group_IT_number 2
_symmetry_cell_setting 'triclinic'
loop_
_space_group_symop_operation_xyz
x,y,z
-x,-y,-z
loop_
_atom_site_type_symbol
_atom_site_label
_atom_site_fract_x
_atom_site_fract_y
_atom_site_fract_z
Si Si1 0.320070 0.411540 0.888121
Si Si2 0.256783 0.382577 0.638171
Si Si3 0.641885 0.154388 0.449143
Si Si4 0.594970 0.334868 0.933284
Si Si5 0.282513 0.979751 0.997664
Si Si6 0.343225 0.875438 0.355749
Si Si7 0.350047 0.202220 0.400612
Si Si8 0.656363 0.748614 0.803139
O O1 0.615246 0.340360 0.750368
O O2 0.393402 0.532629 0.843111
O O3 0.294593 0.560695 0.007916
O O4 0.030001 0.208245 0.936545
O O5 0.456504 0.306988 0.573063
O O6 0.313342 0.298532 0.517776
O O7 0.389014 0.626386 0.675063
O O8 0.895809 0.304647 0.769933
O O9 0.007201 0.264960 0.351687
O O10 0.500000 0.000000 0.500000
O O11 0.572009 0.011076 0.363745
O O12 0.326285 0.123694 0.978718
O O13 0.500000 0.500000 0.000000
O O14 0.549835 0.877953 0.849268
O O15 0.312259 0.120678 0.098286
O O16 0.989561 0.850096 0.507957
O O17 0.420285 0.003300 0.313157
#
# Coordination Sequence:
#
# PCOD9102357 Si02
#       8
#     2   2   2   2   2   2   2   2
#     4  11  22  40  66  91 120 164 213 253 306 369
#     4  10  21  41  61  89 125 160 209 248 314 369
#     4  11  22  39  64  89 129 167 196 261 319 361
#     4  11  25  40  62  94 130 161 200 260 316 367
#     4  10  22  41  64  89 125 165 208 255 304 369
#     4  10  20  38  62  93 117 159 217 247 305 372
#     4   9  20  38  66  85 120 165 203 261 297 368
#     4  10  21  41  66  89 122 164 211 256 304 364
#
# _framework density 23.455877999999998
#
# number of rings (size 3 to 8) (size 9 to 14) (size 15 to 20)
#    0.000    1.750    1.250    2.625    1.750    2.500 
#   11.250    1.250    0.000    0.000    0.000    0.000 
#    0.000    0.000    0.000    0.000    0.000    0.000 
#
# Total GULP energy -89444.018511 kJ/mol
# GULP energy per Si atom -5590.251157 kJ/mol
# Density = 2.340249 g / cm^3
# Si number density = 23.455878 Si / 1000 Ang^3
#
#
#
# Elastic Constant Matrix: (Units=GPa)
#
#
# Indices 1 2 3 4 5 6 
#
# 1 43.1550 27.1298 21.3908 -2.6921 -11.9912 -18.0228
# 2 27.1298 148.8699 25.0107 -25.9480 -1.7377 -27.7352
# 3 21.3908 25.0107 77.6710 -3.6628 -17.3464 -24.6240
# 4 -2.6921 -25.9480 -3.6628 38.1068 1.9384 -5.0040
# 5 -11.9912 -1.7377 -17.3464 1.9384 24.2497 5.4722
# 6 -18.0228 -27.7352 -24.6240 -5.0040 5.4722 36.9120
#
#
#
# Elastic Compliance Matrix: (Units=1/GPa)
#
#
# Indices 1 2 3 4 5 6 
#
# 1 0.034702 -0.003701 -0.001954 0.000529 0.012971 0.011008
# 2 -0.003701 0.010071 -0.000439 0.007663 -0.003624 0.007044
# 3 -0.001954 -0.000439 0.019221 0.002246 0.010242 0.010325
# 4 0.000529 0.007663 0.002246 0.033514 -0.003086 0.012515
# 5 0.012971 -0.003624 0.010242 -0.003086 0.054527 0.001940
# 6 0.011008 0.007044 0.010325 0.012515 0.001940 0.046056
#
#
# Mechanical properties :
#
#
# Convention : Reuss Voigt Hill
#
# Bulk Modulus (GPa) = 19.30248 46.30652 32.80450
# Shear Modulus (GPa) = 21.97359 32.93134 27.45246
#
# Velocity S-wave (km/s) = 3.06405 3.75102 3.42480
# Velocity P-wave (km/s) = 4.55686 6.20847 5.44564
#
# Compressibility (1/GPa) = 0.05180682
#
# Stress axis : x y z
#
# Youngs Moduli (GPa) = 28.81690 99.29306 52.02755
#
# Poissons Ratio (x) = 0.36751 0.10164
# Poissons Ratio (y) = 0.10666 0.02282
# Poissons Ratio (z) = 0.05629 0.04355
#
# Static dielectric constant tensor:
#      x y z
#    x 1.914680 0.013240 0.001280 
#    y 0.013240 1.937970 0.021170 
#    z 0.001280 0.021170 1.911880 
# 
# From -- ./inp_files/522157.got.cif
#   From: 2010.05.17/outbox.cif.g08.bks.cpg/sg2_262_cif.got.tgz:522157.got - 2010.06.03 11:33:40.
