data_PCOD9102428
_publ_section_title
;
Structure prediction by ZEFSAII (Michael W. Deem and Ramdas Pophale) SiO2 
 PCOD9102428
Probable space group: P -1
;
_chemical_formula_sum "Si O2"
_cell_formula_units_Z 16
_cell_length_a 11.334643
_cell_length_b 7.973959
_cell_length_c 7.758136
_cell_angle_alpha 91.959835
_cell_angle_beta 79.974023
_cell_angle_gamma 98.944359
_cell_volume 682.072863
_symmetry_space_group_name_H-M "P -1"
_symmetry_group_IT_number 2
_symmetry_cell_setting 'triclinic'
loop_
_space_group_symop_operation_xyz
x,y,z
-x,-y,-z
loop_
_atom_site_type_symbol
_atom_site_label
_atom_site_fract_x
_atom_site_fract_y
_atom_site_fract_z
Si Si1 0.544208 0.169160 0.105701
Si Si2 0.798519 0.516420 0.481289
Si Si3 0.031913 0.451833 0.221835
Si Si4 0.903245 0.090086 0.157213
Si Si5 0.319302 0.184694 0.356062
Si Si6 0.079940 0.964550 0.314486
Si Si7 0.792225 0.262882 0.903317
Si Si8 0.318053 0.862157 0.569921
O O1 0.425616 0.248398 0.195482
O O2 0.604634 0.136898 0.274104
O O3 0.652084 0.273547 0.965913
O O4 0.500000 0.000000 0.000000
O O5 0.879027 0.544052 0.635235
O O6 0.717330 0.668565 0.505108
O O7 0.709482 0.334924 0.490635
O O8 0.905314 0.514309 0.312150
O O9 0.118133 0.567260 0.070469
O O10 0.996954 0.261378 0.161435
O O11 0.810955 0.091729 0.338054
O O12 0.984132 0.947679 0.178679
O O13 0.817467 0.111979 0.019484
O O14 0.195051 0.111211 0.288511
O O15 0.359987 0.018850 0.435357
O O16 0.146875 0.799230 0.287719
O O17 0.000000 0.000000 0.500000
#
# Coordination Sequence:
#
# PCOD9102428 Si02
#       8
#     2   2   2   2   2   2   2   2
#     4  11  25  45  64  92 131 180 222 259 319 388
#     4  10  22  39  68 105 126 161 221 276 319 387
#     4  10  20  38  62  97 133 162 206 269 337 380
#     4  10  21  37  61  98 131 162 208 265 335 391
#     4  12  22  42  70  94 129 174 220 266 318 383
#     4  12  21  36  63  96 121 163 216 265 328 382
#     4  11  23  39  63  87 134 173 208 268 326 384
#     4  10  23  42  70  96 130 169 218 271 321 378
#
# _framework density 23.457906999999999
#
# number of rings (size 3 to 8) (size 9 to 14) (size 15 to 20)
#    0.000    1.250    3.750    2.625    1.750    0.500 
#    0.000    0.625    8.250    0.000    0.000    0.000 
#    0.000    0.000    0.000    0.000    0.000    0.000 
#
# Total GULP energy -89151.236474 kJ/mol
# GULP energy per Si atom -5571.952280 kJ/mol
# Density = 2.340452 g / cm^3
# Si number density = 23.457907 Si / 1000 Ang^3
#
#
#
# Elastic Constant Matrix: (Units=GPa)
#
#
# Indices 1 2 3 4 5 6 
#
# 1 121.5571 40.7357 34.9974 6.0302 -27.9187 9.7068
# 2 40.7357 103.1735 20.9134 17.1749 -21.7221 13.3520
# 3 34.9974 20.9134 72.2485 8.2561 0.1120 9.6352
# 4 6.0302 17.1749 8.2561 28.8222 4.8431 -2.3428
# 5 -27.9187 -21.7221 0.1120 4.8431 58.8178 -1.9650
# 6 9.7068 13.3520 9.6352 -2.3428 -1.9650 21.9983
#
#
#
# Elastic Compliance Matrix: (Units=1/GPa)
#
#
# Indices 1 2 3 4 5 6 
#
# 1 0.011565 -0.002396 -0.004691 -0.000524 0.004615 -0.001238
# 2 -0.002396 0.014348 -0.000905 -0.009208 0.004660 -0.007819
# 3 -0.004691 -0.000905 0.017539 -0.003545 -0.002491 -0.005663
# 4 -0.000524 -0.009208 -0.003545 0.043381 -0.006834 0.011383
# 5 0.004615 0.004660 -0.002491 -0.006834 0.021394 -0.002591
# 6 -0.001238 -0.007819 -0.005663 0.011383 -0.002591 0.054212
#
#
# Mechanical properties :
#
#
# Convention : Reuss Voigt Hill
#
# Bulk Modulus (GPa) = 36.40454 54.47467 45.43961
# Shear Modulus (GPa) = 26.65547 35.28315 30.96931
#
# Velocity S-wave (km/s) = 3.37458 3.88249 3.63741
# Velocity P-wave (km/s) = 5.54405 6.58567 6.08718
#
# Compressibility (1/GPa) = 0.02746910
#
# Stress axis : x y z
#
# Youngs Moduli (GPa) = 86.46827 69.69757 57.01424
#
# Poissons Ratio (x) = 0.16701 0.26743
# Poissons Ratio (y) = 0.20720 0.05158
# Poissons Ratio (z) = 0.40559 0.06305
#
# Static dielectric constant tensor:
#      x y z
#    x 1.887600 -0.008050 0.022140 
#    y -0.008050 1.965810 -0.008420 
#    z 0.022140 -0.008420 2.149630 
# 
# From -- ./inp_files/239024.got.cif
#   From: 2010.05.17/outbox.cif.g08.bks.cpg/sg2_120_cif.got.tgz:239024.got - 2010.06.03 11:33:40.
