data_PCOD9102386
_publ_section_title
;
Structure prediction by ZEFSAII (Michael W. Deem and Ramdas Pophale) SiO2 
 PCOD9102386
Probable space group: P -1
;
_chemical_formula_sum "Si O2"
_cell_formula_units_Z 14
_cell_length_a 26.544644
_cell_length_b 8.140303
_cell_length_c 9.083004
_cell_angle_alpha 55.431516
_cell_angle_beta 26.219756
_cell_angle_gamma 43.387758
_cell_volume 572.079666
_symmetry_space_group_name_H-M "P -1"
_symmetry_group_IT_number 2
_symmetry_cell_setting 'triclinic'
loop_
_space_group_symop_operation_xyz
x,y,z
-x,-y,-z
loop_
_atom_site_type_symbol
_atom_site_label
_atom_site_fract_x
_atom_site_fract_y
_atom_site_fract_z
Si Si1 0.639831 0.410727 0.510947
Si Si2 0.025832 0.479786 0.194887
Si Si3 0.404621 0.212087 0.762548
Si Si4 0.133368 0.630021 0.568340
Si Si5 0.527549 0.759966 0.130335
Si Si6 0.341278 0.867594 0.153825
Si Si7 0.875927 0.908673 0.621995
O O1 0.691330 0.525850 0.204857
O O2 0.568056 0.306867 0.661581
O O3 0.729826 0.206168 0.504521
O O4 0.510230 0.652416 0.816114
O O5 0.932704 0.428620 0.362481
O O6 0.954539 0.700172 0.392351
O O7 0.121026 0.230098 0.170694
O O8 0.099151 0.549475 0.850123
O O9 0.502282 0.203860 0.635766
O O10 0.500000 0.000000 0.500000
O O11 0.323131 0.118724 0.105739
O O12 0.071275 0.920680 0.579671
O O13 0.304511 0.461909 0.200734
O O14 0.500000 0.000000 0.000000
O O15 0.279046 0.901293 0.139606
#
# Coordination Sequence:
#
# PCOD9102386 Si02
#       7
#     2   2   2   2   2   2   2
#     4  10  21  38  59  92 134 170 210 256 327 392
#     4  10  25  44  70  99 130 174 225 280 324 391
#     4  10  22  38  60  88 132 170 215 257 317 393
#     4  11  24  46  68  98 137 172 220 275 336 389
#     4  12  23  41  66  97 135 173 213 271 328 396
#     4  10  20  38  62  94 128 168 206 272 317 391
#     4  11  22  44  73  98 129 173 227 273 336 381
#
# _framework density 24.472117000000001
#
# number of rings (size 3 to 8) (size 9 to 14) (size 15 to 20)
#    0.000    1.429    2.857    2.143    0.000    3.429 
#    2.571    1.429    0.000    0.000    0.000    0.000 
#    0.000    0.000    0.000    0.000    0.000    0.000 
#
# Total GULP energy -78197.382300 kJ/mol
# GULP energy per Si atom -5585.527307 kJ/mol
# Density = 2.441642 g / cm^3
# Si number density = 24.472117 Si / 1000 Ang^3
#
#
#
# Elastic Constant Matrix: (Units=GPa)
#
#
# Indices 1 2 3 4 5 6 
#
# 1 100.9251 55.0970 21.0342 -9.2678 20.0204 -1.5369
# 2 55.0970 169.9937 46.8937 -57.8948 14.7758 -5.9135
# 3 21.0342 46.8937 32.0446 -17.7698 12.9259 -4.7542
# 4 -9.2678 -57.8948 -17.7698 41.5153 -7.8700 7.4967
# 5 20.0204 14.7758 12.9259 -7.8700 29.6937 -15.4625
# 6 -1.5369 -5.9135 -4.7542 7.4967 -15.4625 54.1088
#
#
#
# Elastic Compliance Matrix: (Units=1/GPa)
#
#
# Indices 1 2 3 4 5 6 
#
# 1 0.014650 -0.006130 -0.001190 -0.007180 -0.009258 -0.002009
# 2 -0.006130 0.017260 -0.013776 0.018021 0.006201 -0.000223
# 3 -0.001190 -0.013776 0.061640 0.003631 -0.019333 -0.002151
# 4 -0.007180 0.018021 0.003631 0.050910 0.006108 -0.003223
# 5 -0.009258 0.006201 -0.019333 0.006108 0.053758 0.013232
# 6 -0.002009 -0.000223 -0.002151 -0.003223 0.013232 0.022439
#
#
# Mechanical properties :
#
#
# Convention : Reuss Voigt Hill
#
# Bulk Modulus (GPa) = 19.47181 61.00147 40.23664
# Shear Modulus (GPa) = 17.85916 37.05944 27.45930
#
# Velocity S-wave (km/s) = 2.70437 3.89569 3.35336
# Velocity P-wave (km/s) = 4.21016 6.72430 5.60989
#
# Compressibility (1/GPa) = 0.05135629
#
# Stress axis : x y z
#
# Youngs Moduli (GPa) = 68.26098 57.93642 16.22331
#
# Poissons Ratio (x) = 0.35517 0.01931
# Poissons Ratio (y) = 0.41847 0.22349
# Poissons Ratio (z) = 0.08126 0.79812
#
# Static dielectric constant tensor:
#      x y z
#    x 1.999660 -0.003410 -0.019260 
#    y -0.003410 2.009440 -0.017200 
#    z -0.019260 -0.017200 2.025610 
# 
# From -- ./inp_files/315923.got.cif
#   From: 2010.05.17/outbox.cif.g08.bks.cpg/sg2_158_cif.got.tgz:315923.got - 2010.06.03 11:33:40.
