data_PCOD9102459
_publ_section_title
;
Structure prediction by ZEFSAII (Michael W. Deem and Ramdas Pophale) SiO2 
 PCOD9102459
Probable space group: P -1
;
_chemical_formula_sum "Si O2"
_cell_formula_units_Z 14
_cell_length_a 19.362771
_cell_length_b 7.724430
_cell_length_c 7.103411
_cell_angle_alpha 140.355744
_cell_angle_beta 56.613465
_cell_angle_gamma 115.070327
_cell_volume 565.990440
_symmetry_space_group_name_H-M "P -1"
_symmetry_group_IT_number 2
_symmetry_cell_setting 'triclinic'
loop_
_space_group_symop_operation_xyz
x,y,z
-x,-y,-z
loop_
_atom_site_type_symbol
_atom_site_label
_atom_site_fract_x
_atom_site_fract_y
_atom_site_fract_z
Si Si1 0.568796 0.699952 0.977935
Si Si2 0.819075 0.419766 0.419273
Si Si3 0.431205 0.699955 0.684324
Si Si4 0.000001 0.291502 0.155939
Si Si5 0.271791 0.085258 0.940501
Si Si6 0.271793 0.914751 0.244136
Si Si7 0.819072 0.580228 0.123491
O O1 0.605014 0.499998 0.592478
O O2 0.638145 0.780318 0.095152
O O3 0.500000 0.500000 0.000000
O O4 0.541835 0.999998 0.187246
O O5 0.798368 0.688305 0.791711
O O6 0.805161 0.499997 0.292252
O O7 0.913706 0.329941 0.211929
O O8 0.753855 0.180674 0.356301
O O9 0.500000 0.500000 0.500000
O O10 0.361857 0.780323 0.009588
O O11 0.000000 0.500000 0.500000
O O12 0.086298 0.329941 0.953049
O O13 0.000000 0.000000 0.000000
O O14 0.271162 0.000006 0.093265
O O15 0.246150 0.180684 0.617877
O O16 0.201634 0.688316 0.186827
#
# Coordination Sequence:
#
# PCOD9102459 Si02
#       7
#     2   2   2   2   2   2   2
#     4  11  22  39  63  94 128 164 205 258 315 371
#     4  10  20  38  63  85 109 154 209 247 284 352
#     4  11  22  39  63  94 128 164 205 258 315 371
#     4  12  25  40  57  88 128 158 184 242 317 368
#     4   9  18  35  61  87 113 152 204 254 292 341
#     4   9  18  35  61  87 113 152 204 254 292 341
#     4  10  20  38  63  85 109 154 209 247 284 352
#
# _framework density 24.735399999999998
#
# number of rings (size 3 to 8) (size 9 to 14) (size 15 to 20)
#    0.000    1.714    0.000    7.286    0.000    0.000 
#    0.000   11.429    0.000    0.000    0.000    0.000 
#    0.000    0.000    0.000    0.000    0.000    0.000 
#
# Total GULP energy -78272.594085 kJ/mol
# GULP energy per Si atom -5590.899577 kJ/mol
# Density = 2.467910 g / cm^3
# Si number density = 24.735400 Si / 1000 Ang^3
#
#
#
# Elastic Constant Matrix: (Units=GPa)
#
#
# Indices 1 2 3 4 5 6 
#
# 1 84.4306 55.3470 44.6829 9.3855 -27.4175 29.1203
# 2 55.3470 130.1373 39.5963 34.3991 -20.6075 24.7368
# 3 44.6829 39.5963 158.1417 36.9336 -14.4697 14.8019
# 4 9.3855 34.3991 36.9336 41.6671 3.0768 3.1677
# 5 -27.4175 -20.6075 -14.4697 3.0768 58.0314 -1.0511
# 6 29.1203 24.7368 14.8019 3.1677 -1.0511 47.1286
#
#
#
# Elastic Compliance Matrix: (Units=1/GPa)
#
#
# Indices 1 2 3 4 5 6 
#
# 1 0.024194 -0.007073 -0.004540 0.004627 0.007361 -0.009958
# 2 -0.007073 0.014200 0.001651 -0.011581 0.002677 -0.002764
# 3 -0.004540 0.001651 0.009378 -0.008714 0.001235 -0.000394
# 4 0.004627 -0.011581 -0.008714 0.040464 -0.006189 0.003099
# 5 0.007361 0.002677 0.001235 -0.006189 0.022198 -0.005430
# 6 -0.009958 -0.002764 -0.000394 0.003099 -0.005430 0.028616
#
#
# Mechanical properties :
#
#
# Convention : Reuss Voigt Hill
#
# Bulk Modulus (GPa) = 35.90855 72.44025 54.17440
# Shear Modulus (GPa) = 29.71654 44.90430 37.31042
#
# Velocity S-wave (km/s) = 3.46985 4.26536 3.88800
# Velocity P-wave (km/s) = 5.53188 7.32170 6.48880
#
# Compressibility (1/GPa) = 0.02784852
#
# Stress axis : x y z
#
# Youngs Moduli (GPa) = 41.33311 70.42090 106.63500
#
# Poissons Ratio (x) = 0.49807 0.48414
# Poissons Ratio (y) = 0.29234 -0.17609
# Poissons Ratio (z) = 0.18766 -0.11629
#
# Static dielectric constant tensor:
#      x y z
#    x 2.038800 -0.012240 -0.030690 
#    y -0.012240 2.033450 -0.038780 
#    z -0.030690 -0.038780 1.948330 
# 
# From -- ./inp_files/343942.got.cif
#   From: 2010.05.17/outbox.cif.g08.bks.cpg/sg2_172_cif.got.tgz:343942.got - 2010.06.03 11:33:40.
