data_PCOD9102573
_publ_section_title
;
Structure prediction by ZEFSAII (Michael W. Deem and Ramdas Pophale) SiO2 
 PCOD9102573
Probable space group: P -1
;
_chemical_formula_sum "Si O2"
_cell_formula_units_Z 10
_cell_length_a 10.025857
_cell_length_b 7.441255
_cell_length_c 11.065300
_cell_angle_alpha 75.430318
_cell_angle_beta 51.179952
_cell_angle_gamma 112.667264
_cell_volume 431.871795
_symmetry_space_group_name_H-M "P -1"
_symmetry_group_IT_number 2
_symmetry_cell_setting 'triclinic'
loop_
_space_group_symop_operation_xyz
x,y,z
-x,-y,-z
loop_
_atom_site_type_symbol
_atom_site_label
_atom_site_fract_x
_atom_site_fract_y
_atom_site_fract_z
Si Si1 0.595771 0.806738 0.963366
Si Si2 0.342934 0.433889 0.717213
Si Si3 0.797755 0.085537 0.031353
Si Si4 0.424696 0.083075 0.322668
Si Si5 0.900136 0.752410 0.680394
O O1 0.722980 0.049864 0.939479
O O2 0.321052 0.534467 0.206337
O O3 0.575402 0.860426 0.828387
O O4 0.767091 0.755454 0.865570
O O5 0.500000 0.500000 0.500000
O O6 0.269658 0.181286 0.861099
O O7 0.493998 0.683896 0.678516
O O8 0.086686 0.334963 0.845950
O O9 0.624431 0.075756 0.215676
O O10 0.139918 0.818505 0.562364
O O11 0.000000 0.000000 0.500000
#
# Coordination Sequence:
#
# PCOD9102573 Si02
#       5
#     2   2   2   2   2
#     4  10  20  38  63  91 124 156 196 253 306 355
#     4  11  25  43  62  86 124 166 202 246 300 359
#     4  11  24  41  63  92 122 158 204 250 301 359
#     4  11  23  40  65  93 120 157 204 251 301 359
#     4   9  18  33  58  88 122 157 192 238 298 355
#
# _framework density 23.15502
#
# number of rings (size 3 to 8) (size 9 to 14) (size 15 to 20)
#    0.000    1.600    0.000    6.000    0.000    6.400 
#    0.000    0.000    0.000    0.000    0.000    0.000 
#    0.000    0.000    0.000    0.000    0.000    0.000 
#
# Total GULP energy -55901.763508 kJ/mol
# GULP energy per Si atom -5590.176351 kJ/mol
# Density = 2.310232 g / cm^3
# Si number density = 23.155020 Si / 1000 Ang^3
#
#
#
# Elastic Constant Matrix: (Units=GPa)
#
#
# Indices 1 2 3 4 5 6 
#
# 1 67.9024 31.8738 45.9837 2.4907 -36.1518 1.8258
# 2 31.8738 95.1760 41.5408 10.6742 -14.8733 23.2688
# 3 45.9837 41.5408 119.8855 -16.8309 -47.9733 20.2922
# 4 2.4907 10.6742 -16.8309 38.1665 4.4423 -8.5572
# 5 -36.1518 -14.8733 -47.9733 4.4423 57.9488 2.8064
# 6 1.8258 23.2688 20.2922 -8.5572 2.8064 24.5058
#
#
#
# Elastic Compliance Matrix: (Units=1/GPa)
#
#
# Indices 1 2 3 4 5 6 
#
# 1 0.026804 -0.006398 -0.005188 -0.002040 0.010629 0.006444
# 2 -0.006398 0.020046 -0.001905 -0.010892 0.001426 -0.020947
# 3 -0.005188 -0.001905 0.018644 0.004799 0.011968 -0.012937
# 4 -0.002040 -0.010892 0.004799 0.036349 -0.003833 0.019651
# 5 0.010629 0.001426 0.011968 -0.003833 0.035300 -0.017437
# 6 0.006444 -0.020947 -0.012937 0.019651 -0.017437 0.079788
#
#
# Mechanical properties :
#
#
# Convention : Reuss Voigt Hill
#
# Bulk Modulus (GPa) = 25.96537 57.97339 41.96938
# Shear Modulus (GPa) = 19.47421 35.02860 27.25140
#
# Velocity S-wave (km/s) = 2.90321 3.89368 3.43434
# Velocity P-wave (km/s) = 4.74091 6.73095 5.82159
#
# Compressibility (1/GPa) = 0.03851284
#
# Stress axis : x y z
#
# Youngs Moduli (GPa) = 37.30766 49.88423 53.63689
#
# Poissons Ratio (x) = 0.31915 0.27827
# Poissons Ratio (y) = 0.23868 0.10218
# Poissons Ratio (z) = 0.19355 0.09503
#
# Static dielectric constant tensor:
#      x y z
#    x 2.015590 0.041420 -0.008950 
#    y 0.041420 1.832430 0.011320 
#    z -0.008950 0.011320 1.870750 
# 
# From -- ./inp_files/72944.got.cif
#   From: 2010.05.17/outbox.cif.g08.bks.cpg/sg2_37_cif.got.tgz:72944.got - 2010.06.03 11:33:40.
