data_PCOD9102228
_publ_section_title
;
Structure prediction by ZEFSAII (Michael W. Deem and Ramdas Pophale) SiO2 
 PCOD9102228
Probable space group: P -1
;
_chemical_formula_sum "Si O2"
_cell_formula_units_Z 16
_cell_length_a 12.298502
_cell_length_b 14.377906
_cell_length_c 13.610525
_cell_angle_alpha 149.681296
_cell_angle_beta 30.906946
_cell_angle_gamma 145.889515
_cell_volume 587.605452
_symmetry_space_group_name_H-M "P -1"
_symmetry_group_IT_number 2
_symmetry_cell_setting 'triclinic'
loop_
_space_group_symop_operation_xyz
x,y,z
-x,-y,-z
loop_
_atom_site_type_symbol
_atom_site_label
_atom_site_fract_x
_atom_site_fract_y
_atom_site_fract_z
Si Si1 0.797151 0.219929 0.755613
Si Si2 0.551889 0.439805 0.538271
Si Si3 0.533433 0.238780 0.632611
Si Si4 0.421057 0.771280 0.878316
Si Si5 0.846449 0.630440 0.765042
Si Si6 0.018166 0.618357 0.829354
Si Si7 0.374142 0.084136 0.826887
Si Si8 0.856142 0.859450 0.306187
O O1 0.895976 0.416483 0.796657
O O2 0.542176 0.112602 0.814454
O O3 0.924927 0.066258 0.495313
O O4 0.787597 0.261403 0.915850
O O5 0.570579 0.665171 0.726689
O O6 0.598174 0.356914 0.321558
O O7 0.310373 0.306587 0.645408
O O8 0.752176 0.401958 0.406596
O O9 0.605034 0.469971 0.777402
O O10 0.511396 0.196621 0.727228
O O11 0.307344 0.133599 0.651483
O O12 0.700018 0.133921 0.359557
O O13 0.500000 0.000000 0.000000
O O14 0.877189 0.650840 0.876825
O O15 0.000000 0.500000 0.500000
O O16 0.823596 0.828450 0.919584
O O17 0.042281 0.789295 0.045946
#
# Coordination Sequence:
#
# PCOD9102228 Si02
#       8
#     2   2   2   2   2   2   2   2
#     4  11  23  42  71  95 133 182 223 271 334 389
#     4  11  26  45  71 100 133 169 221 281 339 392
#     4  10  20  38  62  88 128 173 217 252 312 382
#     4  11  24  48  72  96 131 173 222 280 341 398
#     4  12  24  37  61  96 138 174 213 264 325 387
#     4  12  25  42  67 105 135 170 224 276 325 401
#     4  10  21  38  62  92 125 174 216 258 307 387
#     4  11  22  44  69  97 136 179 219 272 329 391
#
# _framework density 27.229153
#
# number of rings (size 3 to 8) (size 9 to 14) (size 15 to 20)
#    0.000    1.000    5.000    1.875    1.750    2.000 
#    0.000    1.250    0.000    0.000    0.000    0.000 
#    0.000    0.000    0.000    0.000    0.000    0.000 
#
# Total GULP energy -89524.940547 kJ/mol
# GULP energy per Si atom -5595.308784 kJ/mol
# Density = 2.716718 g / cm^3
# Si number density = 27.229153 Si / 1000 Ang^3
#
#
#
# Elastic Constant Matrix: (Units=GPa)
#
#
# Indices 1 2 3 4 5 6 
#
# 1 59.9320 8.6928 25.1981 -0.5914 14.6347 -11.8784
# 2 8.6928 87.8549 41.0910 19.6547 7.4665 -19.1922
# 3 25.1981 41.0910 214.5029 31.5197 5.5454 -4.4197
# 4 -0.5914 19.6547 31.5197 48.7907 -5.5519 1.7239
# 5 14.6347 7.4665 5.5454 -5.5519 55.8684 -4.1960
# 6 -11.8784 -19.1922 -4.4197 1.7239 -4.1960 30.8884
#
#
#
# Elastic Compliance Matrix: (Units=1/GPa)
#
#
# Indices 1 2 3 4 5 6 
#
# 1 0.020115 0.000975 -0.002369 0.000604 -0.004552 0.007350
# 2 0.000975 0.015858 -0.002070 -0.005617 -0.001978 0.009977
# 3 -0.002369 -0.002070 0.005733 -0.002861 -0.000048 -0.001224
# 4 0.000604 -0.005617 -0.002861 0.025122 0.003023 -0.004658
# 5 -0.004552 -0.001978 -0.000048 0.003023 0.019624 -0.000489
# 6 0.007350 0.009977 -0.001224 -0.004658 -0.000489 0.041419
#
#
# Mechanical properties :
#
#
# Convention : Reuss Voigt Hill
#
# Bulk Modulus (GPa) = 28.75418 56.91708 42.83563
# Shear Modulus (GPa) = 34.15460 46.26336 40.20898
#
# Velocity S-wave (km/s) = 3.54551 4.12641 3.84694
# Velocity P-wave (km/s) = 5.22913 6.60692 5.95799
#
# Compressibility (1/GPa) = 0.03477755
#
# Stress axis : x y z
#
# Youngs Moduli (GPa) = 49.71509 63.05775 174.42052
#
# Poissons Ratio (x) = -0.06151 0.41326
# Poissons Ratio (y) = -0.04849 0.36113
# Poissons Ratio (z) = 0.11779 0.13056
#
# Static dielectric constant tensor:
#      x y z
#    x 2.150450 0.028240 -0.072930 
#    y 0.028240 2.112330 -0.110460 
#    z -0.072930 -0.110460 2.215560 
# 
# From -- ./inp_files/533894.got.cif
#   From: 2010.05.17/outbox.cif.g08.bks.cpg/sg2_267_cif.got.tgz:533894.got - 2010.06.03 11:33:40.
