data_PCOD9102824
_publ_section_title
;
Structure prediction by ZEFSAII (Michael W. Deem and Ramdas Pophale) SiO2 
 PCOD9102824
Probable space group: P -1
;
_chemical_formula_sum "Si O2"
_cell_formula_units_Z 16
_cell_length_a 5.204988
_cell_length_b 20.261872
_cell_length_c 12.338763
_cell_angle_alpha 135.834951
_cell_angle_beta 128.807800
_cell_angle_gamma 57.645885
_cell_volume 697.666108
_symmetry_space_group_name_H-M "P -1"
_symmetry_group_IT_number 2
_symmetry_cell_setting 'triclinic'
loop_
_space_group_symop_operation_xyz
x,y,z
-x,-y,-z
loop_
_atom_site_type_symbol
_atom_site_label
_atom_site_fract_x
_atom_site_fract_y
_atom_site_fract_z
Si Si1 0.124375 0.938382 0.801532
Si Si2 0.671159 0.771969 0.023353
Si Si3 0.572872 0.273366 0.401539
Si Si4 0.454480 0.718125 0.124591
Si Si5 0.661577 0.594508 0.682570
Si Si6 0.612960 0.485152 0.135344
Si Si7 0.313484 0.307691 0.599013
Si Si8 0.533684 0.011580 0.842857
O O1 0.321983 0.832452 0.744150
O O2 0.191374 0.980169 0.752115
O O3 0.251424 0.003621 0.006298
O O4 0.734254 0.946023 0.728500
O O5 0.502342 0.684533 0.823322
O O6 0.638417 0.769870 0.142557
O O7 0.509642 0.877912 0.070511
O O8 0.054339 0.751770 0.058388
O O9 0.303365 0.347730 0.352172
O O10 0.443694 0.249735 0.458433
O O11 0.916288 0.317742 0.526528
O O12 0.547615 0.723964 0.282704
O O13 0.553135 0.605745 0.981705
O O14 0.500000 0.500000 0.500000
O O15 0.000946 0.551954 0.782838
O O16 0.558896 0.593260 0.288933
O O17 0.500000 0.500000 0.000000
#
# Coordination Sequence:
#
# PCOD9102824 Si02
#       8
#     2   2   2   2   2   2   2   2
#     4  10  21  38  60  93 124 162 204 265 326 393
#     4  11  22  41  66  96 126 169 215 271 321 382
#     4  12  24  40  65  94 136 166 210 264 337 387
#     4  10  23  40  64  89 127 172 228 261 306 381
#     4  11  23  40  62 102 139 170 210 270 330 386
#     4   9  21  41  62  90 128 180 225 257 307 380
#     4  11  24  41  63  89 129 181 214 261 317 387
#     4  10  20  38  64  89 124 159 212 263 324 382
#
# _framework density 22.933609000000001
#
# number of rings (size 3 to 8) (size 9 to 14) (size 15 to 20)
#    0.000    1.500    2.500    2.250    1.750    2.500 
#    0.000    5.000    0.000   15.000    0.000    0.000 
#    0.000    0.000    0.000    0.000    0.000    0.000 
#
# Total GULP energy -89107.131641 kJ/mol
# GULP energy per Si atom -5569.195728 kJ/mol
# Density = 2.288141 g / cm^3
# Si number density = 22.933609 Si / 1000 Ang^3
#
#
#
# Elastic Constant Matrix: (Units=GPa)
#
#
# Indices 1 2 3 4 5 6 
#
# 1 93.9480 20.5442 25.2263 -8.1814 -22.4757 25.1309
# 2 20.5442 117.9139 39.9399 8.9523 -4.5472 20.4791
# 3 25.2263 39.9399 46.9849 -5.8542 -2.4872 2.3072
# 4 -8.1814 8.9523 -5.8542 28.0836 -3.9414 0.0162
# 5 -22.4757 -4.5472 -2.4872 -3.9414 21.3086 -8.0251
# 6 25.1309 20.4791 2.3072 0.0162 -8.0251 31.3699
#
#
#
# Elastic Compliance Matrix: (Units=1/GPa)
#
#
# Indices 1 2 3 4 5 6 
#
# 1 0.021586 0.002879 -0.011740 0.005435 0.017840 -0.013747
# 2 0.002879 0.015754 -0.015365 -0.007551 -0.001225 -0.011770
# 3 -0.011740 -0.015365 0.040898 0.009538 -0.003252 0.015591
# 4 0.005435 -0.007551 0.009538 0.043643 0.014664 0.003603
# 5 0.017840 -0.001225 -0.003252 0.014664 0.069522 0.004525
# 6 -0.013747 -0.011770 0.015591 0.003603 0.004525 0.050584
#
#
# Mechanical properties :
#
#
# Convention : Reuss Voigt Hill
#
# Bulk Modulus (GPa) = 33.57327 47.80752 40.69040
# Shear Modulus (GPa) = 16.64628 27.69484 22.17056
#
# Velocity S-wave (km/s) = 2.69708 3.47884 3.11260
# Velocity P-wave (km/s) = 4.93661 6.08504 5.54066
#
# Compressibility (1/GPa) = 0.02978560
#
# Stress axis : x y z
#
# Youngs Moduli (GPa) = 46.32724 63.47588 24.45081
#
# Poissons Ratio (x) = -0.18272 0.28704
# Poissons Ratio (y) = -0.13335 0.37569
# Poissons Ratio (z) = 0.54387 0.97531
#
# Static dielectric constant tensor:
#      x y z
#    x 2.049620 -0.066850 0.072540 
#    y -0.066850 1.906730 -0.011740 
#    z 0.072540 -0.011740 1.988390 
# 
# From -- ./inp_files/369110.got.cif
#   From: 2010.05.17/outbox.cif.g08.bks.cpg/sg2_185_cif.got.tgz:369110.got - 2010.06.03 11:33:40.
