data_PCOD9102241
_publ_section_title
;
Structure prediction by ZEFSAII (Michael W. Deem and Ramdas Pophale) SiO2 
 PCOD9102241
Probable space group: P -1
;
_chemical_formula_sum "Si O2"
_cell_formula_units_Z 16
_cell_length_a 19.342380
_cell_length_b 18.494634
_cell_length_c 5.083669
_cell_angle_alpha 119.829179
_cell_angle_beta 75.795885
_cell_angle_gamma 151.492156
_cell_volume 667.382443
_symmetry_space_group_name_H-M "P -1"
_symmetry_group_IT_number 2
_symmetry_cell_setting 'triclinic'
loop_
_space_group_symop_operation_xyz
x,y,z
-x,-y,-z
loop_
_atom_site_type_symbol
_atom_site_label
_atom_site_fract_x
_atom_site_fract_y
_atom_site_fract_z
Si Si1 0.763775 0.049818 0.615306
Si Si2 0.516380 0.076215 0.865794
Si Si3 0.546839 0.357250 0.936113
Si Si4 0.182349 0.749260 0.688287
Si Si5 0.766455 0.638316 0.738869
Si Si6 0.606904 0.636090 0.895058
Si Si7 0.856030 0.464999 0.420939
Si Si8 0.942515 0.169977 0.143376
O O1 0.867863 0.126213 0.406795
O O2 0.567659 0.843231 0.370749
O O3 0.821630 0.201938 0.947211
O O4 0.805695 0.033875 0.799871
O O5 0.500000 0.000000 0.500000
O O6 0.354361 0.960724 0.800367
O O7 0.692787 0.302836 0.114601
O O8 0.500000 0.000000 0.000000
O O9 0.663666 0.500501 0.840615
O O10 0.663590 0.491363 0.323128
O O11 0.399540 0.271256 0.940132
O O12 0.180040 0.647328 0.542870
O O13 0.024893 0.605510 0.404408
O O14 0.756677 0.729355 0.912971
O O15 0.953416 0.803915 0.865162
O O16 0.500000 0.500000 0.500000
O O17 0.500000 0.500000 0.000000
O O18 0.915979 0.618872 0.720379
#
# Coordination Sequence:
#
# PCOD9102241 Si02
#       8
#     2   2   2   2   2   2   2   2
#     4  11  24  40  59  87 123 156 202 245 308 365
#     4  10  22  38  58  88 110 143 202 253 290 358
#     4  10  20  38  63  88 118 158 200 245 295 357
#     4   9  21  41  63  83 119 161 202 250 308 357
#     4  10  20  38  62  89 118 158 200 245 297 355
#     4   8  16  32  58  87 115 151 199 239 287 359
#     4   9  21  40  61  82 117 158 200 245 308 347
#     4  11  24  40  58  87 122 158 197 250 304 369
#
# _framework density 23.974257999999999
#
# number of rings (size 3 to 8) (size 9 to 14) (size 15 to 20)
#    0.000    2.250    0.000    1.500    1.750   10.000 
#    4.500    1.250    0.000    0.000    0.000    0.000 
#    0.000    0.000    0.000    0.000    0.000    0.000 
#
# Total GULP energy -89146.999139 kJ/mol
# GULP energy per Si atom -5571.687446 kJ/mol
# Density = 2.391969 g / cm^3
# Si number density = 23.974258 Si / 1000 Ang^3
#
#
#
# Elastic Constant Matrix: (Units=GPa)
#
#
# Indices 1 2 3 4 5 6 
#
# 1 56.5134 16.9987 -21.0945 -6.0704 3.8847 12.8143
# 2 16.9987 84.7898 39.2571 -16.7952 18.4942 15.0796
# 3 -21.0945 39.2571 91.6182 -14.3581 19.0924 -0.9130
# 4 -6.0704 -16.7952 -14.3581 51.5836 2.1231 12.3481
# 5 3.8847 18.4942 19.0924 2.1231 31.2835 4.8970
# 6 12.8143 15.0796 -0.9130 12.3481 4.8970 42.6515
#
#
#
# Elastic Compliance Matrix: (Units=1/GPa)
#
#
# Indices 1 2 3 4 5 6 
#
# 1 0.026228 -0.006981 0.010923 0.005549 -0.005204 -0.006187
# 2 -0.006981 0.020425 -0.008482 0.005170 -0.005415 -0.006181
# 3 0.010923 -0.008482 0.019520 0.004342 -0.008528 -0.000143
# 4 0.005549 0.005170 0.004342 0.025610 -0.006558 -0.010064
# 5 -0.005204 -0.005415 -0.008528 -0.006558 0.041393 0.000442
# 6 -0.006187 -0.006181 -0.000143 -0.010064 0.000442 0.030350
#
#
# Mechanical properties :
#
#
# Convention : Reuss Voigt Hill
#
# Bulk Modulus (GPa) = 17.51512 33.69377 25.60445
# Shear Modulus (GPa) = 26.09092 38.28775 32.18933
#
# Velocity S-wave (km/s) = 3.30250 4.00063 3.66821
# Velocity P-wave (km/s) = 4.67586 5.95186 5.35203
#
# Compressibility (1/GPa) = 0.05709352
#
# Stress axis : x y z
#
# Youngs Moduli (GPa) = 38.12661 48.96017 51.22891
#
# Poissons Ratio (x) = 0.34177 -0.55955
# Poissons Ratio (y) = 0.26614 0.43452
# Poissons Ratio (z) = -0.41644 0.41528
#
# Static dielectric constant tensor:
#      x y z
#    x 2.096710 0.038930 -0.028740 
#    y 0.038930 1.995600 0.016410 
#    z -0.028740 0.016410 1.894060 
# 
# From -- ./inp_files/120485.got.cif
#   From: 2010.05.17/outbox.cif.g08.bks.cpg/sg2_61_cif.got.tgz:120485.got - 2010.06.03 11:33:40.
