data_PCOD9102402
_publ_section_title
;
Structure prediction by ZEFSAII (Michael W. Deem and Ramdas Pophale) SiO2 
 PCOD9102402
Probable space group: P -1
;
_chemical_formula_sum "Si O2"
_cell_formula_units_Z 14
_cell_length_a 14.748337
_cell_length_b 11.538029
_cell_length_c 10.837494
_cell_angle_alpha 44.323190
_cell_angle_beta 32.955674
_cell_angle_gamma 59.695090
_cell_volume 678.373246
_symmetry_space_group_name_H-M "P -1"
_symmetry_group_IT_number 2
_symmetry_cell_setting 'triclinic'
loop_
_space_group_symop_operation_xyz
x,y,z
-x,-y,-z
loop_
_atom_site_type_symbol
_atom_site_label
_atom_site_fract_x
_atom_site_fract_y
_atom_site_fract_z
Si Si1 0.270382 0.842571 0.012569
Si Si2 0.104665 0.338625 0.317145
Si Si3 0.707648 0.864263 0.911997
Si Si4 0.417592 0.566910 0.923282
Si Si5 0.944038 0.539518 0.169832
Si Si6 0.283007 0.221383 0.745738
Si Si7 0.358210 0.792104 0.215631
O O1 0.388691 0.846455 0.996952
O O2 0.074036 0.747561 0.345892
O O3 0.337100 0.725363 0.929365
O O4 0.274703 0.038767 0.830813
O O5 0.151080 0.203677 0.271703
O O6 0.076562 0.498925 0.147699
O O7 0.264545 0.411748 0.167733
O O8 0.736933 0.069408 0.725873
O O9 0.691912 0.798544 0.120766
O O10 0.527073 0.799013 0.096157
O O11 0.561536 0.639530 0.600739
O O12 0.500000 0.500000 0.000000
O O13 0.892528 0.716680 0.112233
O O14 0.768834 0.392802 0.500562
O O15 0.000000 0.500000 0.000000
#
# Coordination Sequence:
#
# PCOD9102402 Si02
#       7
#     2   2   2   2   2   2   2
#     4  10  23  43  63  92 125 169 210 250 307 364
#     4  11  23  40  67  89 127 162 204 257 318 366
#     4  10  20  38  62  96 121 163 201 258 318 370
#     4  12  25  45  66  87 125 170 215 253 303 368
#     4  11  22  36  58  95 128 155 197 252 314 370
#     4  11  24  40  65  92 127 164 208 261 304 372
#     4   9  21  37  61  89 129 159 203 249 316 371
#
# _framework density 20.637606000000002
#
# number of rings (size 3 to 8) (size 9 to 14) (size 15 to 20)
#    0.000    1.429    1.429    4.286    4.000    2.857 
#    0.000    4.286    0.000    0.000    0.000    0.000 
#    0.000    0.000    0.000    0.000    0.000    0.000 
#
# Total GULP energy -78224.142438 kJ/mol
# GULP energy per Si atom -5587.438746 kJ/mol
# Density = 2.059063 g / cm^3
# Si number density = 20.637606 Si / 1000 Ang^3
#
#
#
# Elastic Constant Matrix: (Units=GPa)
#
#
# Indices 1 2 3 4 5 6 
#
# 1 76.1563 19.1279 22.9434 3.1627 -13.2772 -12.0233
# 2 19.1279 145.4110 22.3252 20.5388 4.9354 -1.5141
# 3 22.9434 22.3252 54.8049 11.2092 2.9802 -8.3937
# 4 3.1627 20.5388 11.2092 33.1545 3.0364 1.8960
# 5 -13.2772 4.9354 2.9802 3.0364 19.0308 -2.8467
# 6 -12.0233 -1.5141 -8.3937 1.8960 -2.8467 32.2637
#
#
#
# Elastic Compliance Matrix: (Units=1/GPa)
#
#
# Indices 1 2 3 4 5 6 
#
# 1 0.019785 -0.001953 -0.007315 -0.000106 0.016496 0.006840
# 2 -0.001953 0.008022 -0.001616 -0.003948 -0.002676 -0.000776
# 3 -0.007315 -0.001616 0.024059 -0.005975 -0.007022 0.003189
# 4 -0.000106 -0.003948 -0.005975 0.035281 -0.004378 -0.004239
# 5 0.016496 -0.002676 -0.007022 -0.004378 0.068112 0.010462
# 6 0.006840 -0.000776 0.003189 -0.004239 0.010462 0.035509
#
#
# Mechanical properties :
#
#
# Convention : Reuss Voigt Hill
#
# Bulk Modulus (GPa) = 33.22421 45.01835 39.12128
# Shear Modulus (GPa) = 22.46471 31.02150 26.74310
#
# Velocity S-wave (km/s) = 3.30287 3.88126 3.60369
# Velocity P-wave (km/s) = 5.53887 6.47662 6.02602
#
# Compressibility (1/GPa) = 0.03009853
#
# Stress axis : x y z
#
# Youngs Moduli (GPa) = 50.54210 124.64978 41.56369
#
# Poissons Ratio (x) = 0.24347 0.30404
# Poissons Ratio (y) = 0.09872 0.06718
# Poissons Ratio (z) = 0.36971 0.20146
#
# Static dielectric constant tensor:
#      x y z
#    x 1.767030 -0.011160 0.034010 
#    y -0.011160 1.771840 -0.001890 
#    z 0.034010 -0.001890 1.724330 
# 
# From -- ./inp_files/200757.got.cif
#   From: 2010.05.17/outbox.cif.g08.bks.cpg/sg2_101_cif.got.tgz:200757.got - 2010.06.03 11:33:40.
