data_PCOD9102329
_publ_section_title
;
Structure prediction by ZEFSAII (Michael W. Deem and Ramdas Pophale) SiO2 
 PCOD9102329
Probable space group: P -1
;
_chemical_formula_sum "Si O2"
_cell_formula_units_Z 15
_cell_length_a 13.800240
_cell_length_b 12.695960
_cell_length_c 11.535497
_cell_angle_alpha 62.046651
_cell_angle_beta 41.755999
_cell_angle_gamma 32.546496
_cell_volume 647.810975
_symmetry_space_group_name_H-M "P -1"
_symmetry_group_IT_number 2
_symmetry_cell_setting 'triclinic'
loop_
_space_group_symop_operation_xyz
x,y,z
-x,-y,-z
loop_
_atom_site_type_symbol
_atom_site_label
_atom_site_fract_x
_atom_site_fract_y
_atom_site_fract_z
Si Si1 0.957732 0.561819 0.372597
Si Si2 0.289239 0.282653 0.007153
Si Si3 0.920378 0.390980 0.151574
Si Si4 0.528168 0.732417 0.523458
Si Si5 0.307721 0.814988 0.324322
Si Si6 0.050763 0.766204 0.239016
Si Si7 0.500000 0.500000 0.500000
Si Si8 0.526928 0.512211 0.796753
O O1 0.669217 0.714120 0.506519
O O2 0.000000 0.500000 0.500000
O O3 0.177388 0.350118 0.201700
O O4 0.993549 0.679251 0.274730
O O5 0.212351 0.223348 0.026566
O O6 0.132318 0.505154 0.975239
O O7 0.591945 0.119513 0.809133
O O8 0.737077 0.587523 0.307904
O O9 0.819034 0.326071 0.283010
O O10 0.516528 0.602383 0.645292
O O11 0.235648 0.975919 0.625180
O O12 0.407746 0.682272 0.419724
O O13 0.436625 0.648563 0.191928
O O14 0.000000 0.000000 0.500000
O O15 0.219395 0.629188 0.277245
O O16 0.253619 0.706896 0.011957
#
# Coordination Sequence:
#
# PCOD9102329 Si02
#       8
#     2   2   2   2   2   2   1   2
#     4  11  21  41  66  92 131 169 210 266 319 382
#     4   9  20  39  62  88 129 164 208 263 322 371
#     4   9  19  37  65  90 123 166 203 269 319 372
#     4  11  22  40  68  92 124 170 218 254 328 392
#     4  11  23  39  66  90 123 171 209 260 325 380
#     4  11  24  40  63  92 128 173 210 263 325 375
#     4  10  20  38  62  92 120 156 212 258 312 380
#     4  11  23  41  60  93 133 160 214 278 309 377
#
# _framework density 23.154903000000001
#
# number of rings (size 3 to 8) (size 9 to 14) (size 15 to 20)
#    0.000    1.600    4.000    0.800    3.733    0.000 
#    0.000    2.000    8.800    0.000    0.000    0.000 
#    0.000    0.000    0.000    0.000    0.000    0.000 
#
# Total GULP energy -83569.540313 kJ/mol
# GULP energy per Si atom -5571.302688 kJ/mol
# Density = 2.310220 g / cm^3
# Si number density = 23.154903 Si / 1000 Ang^3
#
#
#
# Elastic Constant Matrix: (Units=GPa)
#
#
# Indices 1 2 3 4 5 6 
#
# 1 95.5744 4.4605 17.6013 5.9391 -29.0144 -7.9166
# 2 4.4605 60.2403 26.9290 7.8042 -3.7876 -11.5930
# 3 17.6013 26.9290 112.4649 -0.3358 -21.4228 -13.7155
# 4 5.9391 7.8042 -0.3358 37.7693 -5.6999 -6.4575
# 5 -29.0144 -3.7876 -21.4228 -5.6999 55.5346 -4.5789
# 6 -7.9166 -11.5930 -13.7155 -6.4575 -4.5789 23.0626
#
#
#
# Elastic Compliance Matrix: (Units=1/GPa)
#
#
# Indices 1 2 3 4 5 6 
#
# 1 0.013233 0.000739 -0.000050 -0.000019 0.007467 0.006361
# 2 0.000739 0.020137 -0.003956 -0.002986 0.000528 0.007292
# 3 -0.000050 -0.003956 0.011632 0.002835 0.005035 0.006705
# 4 -0.000019 -0.002986 0.002835 0.029424 0.004670 0.009344
# 5 0.007467 0.000528 0.005035 0.004670 0.025369 0.012167
# 6 0.006361 0.007292 0.006705 0.009344 0.012167 0.058229
#
#
# Mechanical properties :
#
#
# Convention : Reuss Voigt Hill
#
# Bulk Modulus (GPa) = 25.99628 40.69568 33.34598
# Shear Modulus (GPa) = 28.18776 37.89257 33.04016
#
# Velocity S-wave (km/s) = 3.49285 4.04973 3.78156
# Velocity P-wave (km/s) = 5.24577 6.28337 5.78787
#
# Compressibility (1/GPa) = 0.03846705
#
# Stress axis : x y z
#
# Youngs Moduli (GPa) = 75.57021 49.65874 85.96886
#
# Poissons Ratio (x) = -0.03668 0.00428
# Poissons Ratio (y) = -0.05582 0.34013
# Poissons Ratio (z) = 0.00376 0.19647
#
# Static dielectric constant tensor:
#      x y z
#    x 1.855440 -0.092010 -0.142710 
#    y -0.092010 1.891390 0.046990 
#    z -0.142710 0.046990 1.894030 
# 
# From -- ./inp_files/405505.got.cif
#   From: 2010.05.17/outbox.cif.g08.bks.cpg/sg2_203_cif.got.tgz:405505.got - 2010.06.03 11:33:40.
