data_PCOD9102068
_publ_section_title
;
Structure prediction by ZEFSAII (Michael W. Deem and Ramdas Pophale) SiO2 
 PCOD9102068
Probable space group: P -1
;
_chemical_formula_sum "Si O2"
_cell_formula_units_Z 16
_cell_length_a 26.865242
_cell_length_b 14.031652
_cell_length_c 8.284326
_cell_angle_alpha 44.351300
_cell_angle_beta 45.818051
_cell_angle_gamma 19.532244
_cell_volume 726.333807
_symmetry_space_group_name_H-M "P -1"
_symmetry_group_IT_number 2
_symmetry_cell_setting 'triclinic'
loop_
_space_group_symop_operation_xyz
x,y,z
-x,-y,-z
loop_
_atom_site_type_symbol
_atom_site_label
_atom_site_fract_x
_atom_site_fract_y
_atom_site_fract_z
Si Si1 0.720868 0.274718 0.340190
Si Si2 0.873195 0.105630 0.541770
Si Si3 0.528559 0.102951 0.746673
Si Si4 0.908147 0.710230 0.606283
Si Si5 0.097158 0.847213 0.128217
Si Si6 0.372680 0.283792 0.558614
Si Si7 0.812641 0.611835 0.526205
Si Si8 0.855928 0.550917 0.152392
O O1 0.789091 0.197994 0.457088
O O2 0.560661 0.626947 0.282246
O O3 0.751818 0.061002 0.511106
O O4 0.804533 0.195678 0.091780
O O5 0.751605 0.382455 0.603805
O O6 0.979454 0.040350 0.305759
O O7 0.987394 0.796340 0.732133
O O8 0.462181 0.200046 0.600408
O O9 0.700278 0.841578 0.645291
O O10 0.500000 0.000000 0.000000
O O11 0.000000 0.500000 0.500000
O O12 0.022125 0.627376 0.514740
O O13 0.888023 0.621404 0.881355
O O14 0.193780 0.540809 0.294499
O O15 0.000000 0.000000 0.000000
O O16 0.264588 0.345007 0.775372
O O17 0.500000 0.000000 0.500000
O O18 0.784243 0.720531 0.281106
#
# Coordination Sequence:
#
# PCOD9102068 Si02
#       8
#     2   2   2   2   2   2   2   2
#     4  10  20  38  61  95 127 161 217 250 322 361
#     4   9  20  36  67  89 124 161 210 263 314 364
#     4  11  23  39  68  93 129 167 197 267 321 379
#     4  12  27  41  64  90 127 171 218 263 300 378
#     4   9  15  31  63  91 115 153 205 273 292 360
#     4  11  23  40  61 103 127 153 210 264 325 362
#     4  11  21  41  65  93 121 169 211 252 326 367
#     4  11  23  43  64  90 132 165 209 260 311 385
#
# _framework density 22.028438999999999
#
# number of rings (size 3 to 8) (size 9 to 14) (size 15 to 20)
#    0.000    1.500    6.250    0.750    3.500    0.000 
#    2.250    2.500    0.000    0.000    0.000    0.000 
#    0.000    0.000    0.000    0.000    0.000    0.000 
#
# Total GULP energy -89196.570718 kJ/mol
# GULP energy per Si atom -5574.785670 kJ/mol
# Density = 2.197830 g / cm^3
# Si number density = 22.028439 Si / 1000 Ang^3
#
#
#
# Elastic Constant Matrix: (Units=GPa)
#
#
# Indices 1 2 3 4 5 6 
#
# 1 22.1101 4.3159 -5.9987 -1.3398 -2.9781 14.4379
# 2 4.3159 176.5117 72.7736 5.3624 -5.9453 34.0948
# 3 -5.9987 72.7736 155.4018 -4.5352 -0.3997 20.4546
# 4 -1.3398 5.3624 -4.5352 19.5204 3.3800 -2.1960
# 5 -2.9781 -5.9453 -0.3997 3.3800 18.1973 4.6984
# 6 14.4379 34.0948 20.4546 -2.1960 4.6984 37.7192
#
#
#
# Elastic Compliance Matrix: (Units=1/GPa)
#
#
# Indices 1 2 3 4 5 6 
#
# 1 0.074321 0.004064 0.006014 -0.003143 0.024167 -0.038576
# 2 0.004064 0.008942 -0.002952 -0.005080 0.006837 -0.009185
# 3 0.006014 -0.002952 0.008694 0.002615 0.000835 -0.004300
# 4 -0.003143 -0.005080 0.002615 0.056710 -0.015119 0.009562
# 5 0.024167 0.006837 0.000835 -0.015119 0.070566 -0.025553
# 6 -0.038576 -0.009185 -0.004300 0.009562 -0.025553 0.055651
#
#
# Mechanical properties :
#
#
# Convention : Reuss Voigt Hill
#
# Bulk Modulus (GPa) = 9.41547 55.13391 32.27469
# Shear Modulus (GPa) = 16.88987 33.94957 25.41972
#
# Velocity S-wave (km/s) = 2.77199 3.93003 3.40067
# Velocity P-wave (km/s) = 3.81166 6.75843 5.48658
#
# Compressibility (1/GPa) = 0.10620816
#
# Stress axis : x y z
#
# Youngs Moduli (GPa) = 13.45511 111.83301 115.02161
#
# Poissons Ratio (x) = -0.45451 -0.69170
# Poissons Ratio (y) = -0.05468 0.33958
# Poissons Ratio (z) = -0.08091 0.33016
#
# Static dielectric constant tensor:
#      x y z
#    x 1.900020 -0.006740 0.056550 
#    y -0.006740 1.920610 -0.007610 
#    z 0.056550 -0.007610 1.872900 
# 
# From -- ./inp_files/358837.got.cif
#   From: 2010.05.17/outbox.cif.g08.bks.cpg/sg2_180_cif.got.tgz:358837.got - 2010.06.03 11:33:40.
