data_PCOD9102767
_publ_section_title
;
Structure prediction by ZEFSAII (Michael W. Deem and Ramdas Pophale) SiO2 
 PCOD9102767
Probable space group: P -1
;
_chemical_formula_sum "Si O2"
_cell_formula_units_Z 13
_cell_length_a 12.667811
_cell_length_b 6.876424
_cell_length_c 6.720775
_cell_angle_alpha 63.616907
_cell_angle_beta 79.035376
_cell_angle_gamma 68.346659
_cell_volume 487.212055
_symmetry_space_group_name_H-M "P -1"
_symmetry_group_IT_number 2
_symmetry_cell_setting 'triclinic'
loop_
_space_group_symop_operation_xyz
x,y,z
-x,-y,-z
loop_
_atom_site_type_symbol
_atom_site_label
_atom_site_fract_x
_atom_site_fract_y
_atom_site_fract_z
Si Si1 0.726499 0.246088 0.021534
Si Si2 0.863096 0.561722 0.279084
Si Si3 0.619515 0.155430 0.700119
Si Si4 0.621832 0.575406 0.220081
Si Si5 0.786177 0.861423 0.513007
Si Si6 0.964913 0.218402 0.080949
Si Si7 0.000000 0.000000 0.500000
O O1 0.691591 0.179260 0.853892
O O2 0.631518 0.466392 0.047646
O O3 0.845269 0.295974 0.982046
O O4 0.745408 0.032765 0.262094
O O5 0.738084 0.624137 0.204322
O O6 0.845167 0.620842 0.490062
O O7 0.928198 0.299402 0.298105
O O8 0.941428 0.687506 0.083949
O O9 0.622809 0.363260 0.459743
O O10 0.489222 0.215950 0.784498
O O11 0.676821 0.918440 0.669373
O O12 0.876365 0.937904 0.571075
O O13 0.008128 0.960100 0.254692
#
# Coordination Sequence:
#
# PCOD9102767 Si02
#       7
#     2   2   2   2   2   2   1
#     4   9  19  38  61  88 112 160 200 247 289 362
#     4  10  21  41  55  91 129 149 190 260 298 351
#     4  10  20  38  64  86 116 164 205 241 286 366
#     4   9  20  40  60  87 121 157 205 243 295 351
#     4  10  23  35  58  89 121 152 203 241 302 350
#     4   9  21  40  64  86 123 155 199 243 304 350
#     4  10  22  40  62  90 114 164 202 234 290 374
#
# _framework density 26.682427000000001
#
# number of rings (size 3 to 8) (size 9 to 14) (size 15 to 20)
#    0.000    2.462    0.000    1.385    4.308    2.462 
#    8.308    0.769    0.000    0.000    0.000    0.000 
#    0.000    0.000    0.000    0.000    0.000    0.000 
#
# Total GULP energy -72620.857505 kJ/mol
# GULP energy per Si atom -5586.219808 kJ/mol
# Density = 2.662170 g / cm^3
# Si number density = 26.682427 Si / 1000 Ang^3
#
#
#
# Elastic Constant Matrix: (Units=GPa)
#
#
# Indices 1 2 3 4 5 6 
#
# 1 148.4313 62.3021 52.4306 21.5422 -12.2658 -30.4489
# 2 62.3021 142.4571 77.0455 38.8054 -17.6967 -21.0982
# 3 52.4306 77.0455 113.5627 19.5836 -6.2430 -16.6980
# 4 21.5422 38.8054 19.5836 61.2083 -5.4063 -15.5358
# 5 -12.2658 -17.6967 -6.2430 -5.4063 25.4441 10.2051
# 6 -30.4489 -21.0982 -16.6980 -15.5358 10.2051 37.8137
#
#
#
# Elastic Compliance Matrix: (Units=1/GPa)
#
#
# Indices 1 2 3 4 5 6 
#
# 1 0.009544 -0.002220 -0.002099 0.000143 0.000375 0.005477
# 2 -0.002220 0.014115 -0.007423 -0.005533 0.006206 -0.001138
# 3 -0.002099 -0.007423 0.014760 0.000932 -0.003122 0.001911
# 4 0.000143 -0.005533 0.000932 0.021004 -0.001707 0.006530
# 5 0.000375 0.006206 -0.003122 -0.001707 0.047092 -0.011024
# 6 0.005477 -0.001138 0.001911 0.006530 -0.011024 0.036723
#
#
# Mechanical properties :
#
#
# Convention : Reuss Voigt Hill
#
# Bulk Modulus (GPa) = 66.95993 87.55636 77.25815
# Shear Modulus (GPa) = 29.12063 39.07140 34.09602
#
# Velocity S-wave (km/s) = 3.30719 3.83078 3.57857
# Velocity P-wave (km/s) = 6.30341 7.24238 6.78914
#
# Compressibility (1/GPa) = 0.01493430
#
# Stress axis : x y z
#
# Youngs Moduli (GPa) = 104.77535 70.84725 67.75235
#
# Poissons Ratio (x) = 0.15729 0.14221
# Poissons Ratio (y) = 0.23261 0.50294
# Poissons Ratio (z) = 0.21992 0.52591
#
# Static dielectric constant tensor:
#      x y z
#    x 2.029820 0.022770 -0.008370 
#    y 0.022770 2.300040 0.091660 
#    z -0.008370 0.091660 2.235800 
# 
# From -- ./inp_files/24130.got.cif
#   From: 2010.05.17/outbox.cif.g08.bks.cpg/sg2_13_cif.got.tgz:24130.got - 2010.06.03 11:33:40.
