data_PCOD9102687
_publ_section_title
;
Structure prediction by ZEFSAII (Michael W. Deem and Ramdas Pophale) SiO2 
 PCOD9102687
Probable space group: P -1
;
_chemical_formula_sum "Si O2"
_cell_formula_units_Z 16
_cell_length_a 19.995305
_cell_length_b 11.003113
_cell_length_c 17.884187
_cell_angle_alpha 132.423507
_cell_angle_beta 22.626258
_cell_angle_gamma 145.537042
_cell_volume 786.195414
_symmetry_space_group_name_H-M "P -1"
_symmetry_group_IT_number 2
_symmetry_cell_setting 'triclinic'
loop_
_space_group_symop_operation_xyz
x,y,z
-x,-y,-z
loop_
_atom_site_type_symbol
_atom_site_label
_atom_site_fract_x
_atom_site_fract_y
_atom_site_fract_z
Si Si1 0.505631 0.381348 0.759410
Si Si2 0.876188 0.341718 0.375756
Si Si3 0.433886 0.014801 0.325629
Si Si4 0.845226 0.726661 0.043707
Si Si5 0.372443 0.299784 0.111394
Si Si6 0.275793 0.459796 0.741497
Si Si7 0.174458 0.002551 0.064647
Si Si8 0.206298 0.689345 0.303527
O O1 0.657715 0.315269 0.561917
O O2 0.401679 0.396315 0.799077
O O3 0.667923 0.614397 0.739382
O O4 0.263990 0.179129 0.977224
O O5 0.066381 0.586241 0.326624
O O6 0.770006 0.140812 0.463721
O O7 0.007445 0.320204 0.169371
O O8 0.620806 0.286789 0.260406
O O9 0.318975 0.928809 0.325173
O O10 0.586508 0.949396 0.148933
O O11 0.794604 0.635726 0.141778
O O12 0.000000 0.000000 0.000000
O O13 0.144970 0.072993 0.204169
O O14 0.500000 0.500000 0.000000
O O15 0.573996 0.296735 0.923194
O O16 0.500000 0.500000 0.500000
O O17 0.048648 0.260722 0.840001
O O18 0.000000 0.500000 0.500000
#
# Coordination Sequence:
#
# PCOD9102687 Si02
#       8
#     2   2   2   2   2   2   2   2
#     4  10  20  38  63  96 119 152 206 253 304 350
#     4  10  21  39  66  93 118 159 201 254 303 355
#     4   9  20  37  61  91 120 156 204 245 298 368
#     4  12  24  42  62  87 127 159 201 257 297 362
#     4   9  16  29  59  90 121 147 195 259 294 346
#     4  12  25  40  58  85 122 167 200 246 308 361
#     4   9  19  37  60  89 119 160 200 249 297 353
#     4   9  16  31  59  92 119 153 198 248 300 348
#
# _framework density 20.351174
#
# number of rings (size 3 to 8) (size 9 to 14) (size 15 to 20)
#    0.000    2.000    2.500    3.375    0.000    2.500 
#    4.500    0.625    0.000    1.500    0.000    0.000 
#    0.000    0.000    0.000    0.000    0.000    0.000 
#
# Total GULP energy -89220.688787 kJ/mol
# GULP energy per Si atom -5576.293049 kJ/mol
# Density = 2.030485 g / cm^3
# Si number density = 20.351174 Si / 1000 Ang^3
#
#
#
# Elastic Constant Matrix: (Units=GPa)
#
#
# Indices 1 2 3 4 5 6 
#
# 1 62.7484 30.9228 28.4479 5.2085 -0.0224 24.0531
# 2 30.9228 103.8495 15.4968 -0.1498 7.2079 32.6042
# 3 28.4479 15.4968 88.6620 21.2687 3.3403 11.3431
# 4 5.2085 -0.1498 21.2687 27.6735 3.6525 -2.7600
# 5 -0.0224 7.2079 3.3403 3.6525 23.7118 3.9091
# 6 24.0531 32.6042 11.3431 -2.7600 3.9091 32.9393
#
#
#
# Elastic Compliance Matrix: (Units=1/GPa)
#
#
# Indices 1 2 3 4 5 6 
#
# 1 0.025619 -0.002333 -0.005335 -0.002850 0.004451 -0.015328
# 2 -0.002333 0.014324 -0.000009 -0.000396 -0.002277 -0.012234
# 3 -0.005335 -0.000009 0.016121 -0.011640 -0.000049 -0.002616
# 4 -0.002850 -0.000396 -0.011640 0.047736 -0.007470 0.011368
# 5 0.004451 -0.002277 -0.000049 -0.007470 0.045176 -0.006967
# 6 -0.015328 -0.012234 -0.002616 0.011368 -0.006967 0.056342
#
#
# Mechanical properties :
#
#
# Convention : Reuss Voigt Hill
#
# Bulk Modulus (GPa) = 24.56423 44.99943 34.78183
# Shear Modulus (GPa) = 21.34546 28.89108 25.11827
#
# Velocity S-wave (km/s) = 3.24212 3.77188 3.51699
# Velocity P-wave (km/s) = 5.10994 6.41318 5.79829
#
# Compressibility (1/GPa) = 0.04070960
#
# Stress axis : x y z
#
# Youngs Moduli (GPa) = 39.03343 69.81346 62.03041
#
# Poissons Ratio (x) = 0.16287 0.33095
# Poissons Ratio (y) = 0.09106 0.00056
# Poissons Ratio (z) = 0.20825 0.00063
#
# Static dielectric constant tensor:
#      x y z
#    x 1.745750 0.053430 -0.044190 
#    y 0.053430 1.689760 -0.052560 
#    z -0.044190 -0.052560 1.764260 
# 
# From -- ./inp_files/260718.got.cif
#   From: 2010.05.17/outbox.cif.g08.bks.cpg/sg2_131_cif.got.tgz:260718.got - 2010.06.03 11:33:40.
