data_PCOD9102333
_publ_section_title
;
Structure prediction by ZEFSAII (Michael W. Deem and Ramdas Pophale) SiO2 
 PCOD9102333
Probable space group: P -1
;
_chemical_formula_sum "Si O2"
_cell_formula_units_Z 14
_cell_length_a 17.403388
_cell_length_b 7.188772
_cell_length_c 5.843330
_cell_angle_alpha 122.918657
_cell_angle_beta 77.309235
_cell_angle_gamma 71.974322
_cell_volume 510.041246
_symmetry_space_group_name_H-M "P -1"
_symmetry_group_IT_number 2
_symmetry_cell_setting 'triclinic'
loop_
_space_group_symop_operation_xyz
x,y,z
-x,-y,-z
loop_
_atom_site_type_symbol
_atom_site_label
_atom_site_fract_x
_atom_site_fract_y
_atom_site_fract_z
Si Si1 0.571470 0.334911 0.644402
Si Si2 0.566802 0.717318 0.518998
Si Si3 0.907425 0.270802 0.186610
Si Si4 0.936411 0.438921 0.772812
Si Si5 0.855793 0.864199 0.445916
Si Si6 0.722484 0.694477 0.631110
Si Si7 0.287614 0.606091 0.177041
O O1 0.560419 0.547120 0.609810
O O2 0.533189 0.158450 0.452797
O O3 0.673449 0.238749 0.601688
O O4 0.500000 0.500000 0.000000
O O5 0.621137 0.844361 0.678461
O O6 0.643571 0.516119 0.159646
O O7 0.903713 0.409553 0.527010
O O8 0.796722 0.386934 0.312022
O O9 0.926460 0.328810 0.952841
O O10 0.000000 0.000000 0.000000
O O11 0.047622 0.291376 0.586422
O O12 0.882221 0.740448 0.090182
O O13 0.779651 0.823096 0.596088
O O14 0.815156 0.168377 0.663426
O O15 0.705703 0.638962 0.862958
#
# Coordination Sequence:
#
# PCOD9102333 Si02
#       7
#     2   2   2   2   2   2   2
#     4   8  16  35  61  89 121 160 201 256 318 380
#     4   9  18  35  62  90 124 158 208 260 314 385
#     4  11  23  40  66  92 129 173 226 270 326 385
#     4  10  24  43  60  92 131 179 216 274 327 377
#     4  10  23  42  62  90 131 168 214 267 318 382
#     4  10  23  37  57  94 121 165 207 269 314 372
#     4  10  20  38  62  92 121 166 212 254 325 383
#
# _framework density 27.44876
#
# number of rings (size 3 to 8) (size 9 to 14) (size 15 to 20)
#    0.000    2.286    0.000    1.286    6.000    5.143 
#   10.286    0.714    0.000   29.143    0.000    0.000 
#    0.000    0.000    0.000    0.000    0.000    0.000 
#
# Total GULP energy -78006.961099 kJ/mol
# GULP energy per Si atom -5571.925793 kJ/mol
# Density = 2.738629 g / cm^3
# Si number density = 27.448760 Si / 1000 Ang^3
#
#
#
# Elastic Constant Matrix: (Units=GPa)
#
#
# Indices 1 2 3 4 5 6 
#
# 1 174.0379 29.8427 43.9936 -29.2708 -6.8551 -6.6987
# 2 29.8427 94.2534 61.3440 -11.7977 -7.9609 -7.0647
# 3 43.9936 61.3440 142.5395 -22.0105 -7.3483 -1.8367
# 4 -29.2708 -11.7977 -22.0105 50.1152 3.3172 -16.4113
# 5 -6.8551 -7.9609 -7.3483 3.3172 46.2536 -12.9860
# 6 -6.6987 -7.0647 -1.8367 -16.4113 -12.9860 29.8965
#
#
#
# Elastic Compliance Matrix: (Units=1/GPa)
#
#
# Indices 1 2 3 4 5 6 
#
# 1 0.007241 -0.000373 -0.001103 0.005220 0.001908 0.005161
# 2 -0.000373 0.015679 -0.005982 0.002628 0.003215 0.006093
# 3 -0.001103 -0.005982 0.010377 0.002686 0.000444 0.000644
# 4 0.005220 0.002628 0.002686 0.031525 0.005466 0.021635
# 5 0.001908 0.003215 0.000444 0.005466 0.026557 0.015750
# 6 0.005161 0.006093 0.000644 0.021635 0.015750 0.054802
#
#
# Mechanical properties :
#
#
# Convention : Reuss Voigt Hill
#
# Bulk Modulus (GPa) = 54.41117 75.68794 65.04956
# Shear Modulus (GPa) = 29.90035 43.62977 36.76506
#
# Velocity S-wave (km/s) = 3.30406 3.99118 3.66376
# Velocity P-wave (km/s) = 5.86699 6.99095 6.45349
#
# Compressibility (1/GPa) = 0.01837858
#
# Stress axis : x y z
#
# Youngs Moduli (GPa) = 138.11196 63.78158 96.37055
#
# Poissons Ratio (x) = 0.02380 0.10631
# Poissons Ratio (y) = 0.05153 0.57651
# Poissons Ratio (z) = 0.15236 0.38156
#
# Static dielectric constant tensor:
#      x y z
#    x 2.369280 0.053380 0.096160 
#    y 0.053380 2.195680 -0.002130 
#    z 0.096160 -0.002130 2.125350 
# 
# From -- ./inp_files/44844.got.cif
#   From: 2010.05.17/outbox.cif.g08.bks.cpg/sg2_23_cif.got.tgz:44844.got - 2010.06.03 11:33:40.
