data_PCOD9102510
_publ_section_title
;
Structure prediction by ZEFSAII (Michael W. Deem and Ramdas Pophale) SiO2 
 PCOD9102510
Probable space group: P -1
;
_chemical_formula_sum "Si O2"
_cell_formula_units_Z 16
_cell_length_a 27.348553
_cell_length_b 28.366734
_cell_length_c 12.338530
_cell_angle_alpha 155.142576
_cell_angle_beta 25.403094
_cell_angle_gamma 169.849262
_cell_volume 702.440780
_symmetry_space_group_name_H-M "P -1"
_symmetry_group_IT_number 2
_symmetry_cell_setting 'triclinic'
loop_
_space_group_symop_operation_xyz
x,y,z
-x,-y,-z
loop_
_atom_site_type_symbol
_atom_site_label
_atom_site_fract_x
_atom_site_fract_y
_atom_site_fract_z
Si Si1 0.711644 0.208234 0.413211
Si Si2 0.118944 0.829113 0.174362
Si Si3 0.522874 0.679796 0.628964
Si Si4 0.119456 0.511902 0.867526
Si Si5 0.653246 0.071289 0.626575
Si Si6 0.711063 0.417907 0.537516
Si Si7 0.876246 0.005076 0.805623
Si Si8 0.564039 0.448907 0.078752
O O1 0.000000 0.500000 0.500000
O O2 0.500000 0.000000 0.500000
O O3 0.535156 0.127653 0.515218
O O4 0.794902 0.180945 0.111538
O O5 0.801930 0.583048 0.271888
O O6 0.097391 0.747196 0.162261
O O7 0.317475 0.114713 0.359451
O O8 0.668929 0.856685 0.815898
O O9 0.556706 0.576227 0.342730
O O10 0.262404 0.554035 0.586494
O O11 0.307191 0.759056 0.084916
O O12 0.000000 0.500000 0.000000
O O13 0.970369 0.311036 0.490599
O O14 0.480774 0.861857 0.633014
O O15 0.576145 0.397072 0.831932
O O16 0.698611 0.821324 0.885606
O O17 0.000000 0.000000 0.500000
O O18 0.150737 0.322242 0.947926
#
# Coordination Sequence:
#
# PCOD9102510 Si02
#       8
#     2   2   2   2   2   2   2   2
#     4  12  25  41  61  93 132 163 202 259 320 387
#     4  12  25  41  65  92 126 175 213 253 326 391
#     4  11  23  40  62  94 133 173 212 254 310 392
#     4  10  23  46  69  91 123 168 224 274 323 389
#     4  11  23  42  65  94 127 165 214 266 324 392
#     4  11  24  40  68  96 122 164 217 279 326 360
#     4  10  20  38  63  88 126 174 210 251 308 372
#     4  11  22  40  64  98 132 164 218 266 306 373
#
# _framework density 22.777721
#
# number of rings (size 3 to 8) (size 9 to 14) (size 15 to 20)
#    0.000    1.000    0.000    9.375    0.000    9.000 
#    0.000    1.250    0.000    0.000    0.000    0.000 
#    0.000    0.000    0.000    0.000    0.000    0.000 
#
# Total GULP energy -89487.876118 kJ/mol
# GULP energy per Si atom -5592.992257 kJ/mol
# Density = 2.272588 g / cm^3
# Si number density = 22.777721 Si / 1000 Ang^3
#
#
#
# Elastic Constant Matrix: (Units=GPa)
#
#
# Indices 1 2 3 4 5 6 
#
# 1 96.9600 38.0549 39.6509 -11.3403 7.3621 -8.2935
# 2 38.0549 166.7944 37.0069 -23.3543 2.0781 -8.6613
# 3 39.6509 37.0069 91.2397 -21.9774 16.2101 -14.4855
# 4 -11.3403 -23.3543 -21.9774 34.8416 -6.7002 9.7964
# 5 7.3621 2.0781 16.2101 -6.7002 32.6098 -5.6259
# 6 -8.2935 -8.6613 -14.4855 9.7964 -5.6259 54.6669
#
#
#
# Elastic Compliance Matrix: (Units=1/GPa)
#
#
# Indices 1 2 3 4 5 6 
#
# 1 0.013079 -0.001924 -0.004831 -0.000274 -0.000415 0.000406
# 2 -0.001924 0.007249 -0.001507 0.003570 0.001449 -0.000033
# 3 -0.004831 -0.001507 0.016404 0.006250 -0.005390 0.001700
# 4 -0.000274 0.003570 0.006250 0.036773 0.003586 -0.004041
# 5 -0.000415 0.001449 -0.005390 0.003586 0.034365 0.001632
# 6 0.000406 -0.000033 0.001700 -0.004041 0.001632 0.019691
#
#
# Mechanical properties :
#
#
# Convention : Reuss Voigt Hill
#
# Bulk Modulus (GPa) = 49.48749 64.93550 57.21149
# Shear Modulus (GPa) = 33.15195 40.44241 36.79718
#
# Velocity S-wave (km/s) = 3.81918 4.21827 4.02368
# Velocity P-wave (km/s) = 6.42041 7.23155 6.83802
#
# Compressibility (1/GPa) = 0.02020713
#
# Stress axis : x y z
#
# Youngs Moduli (GPa) = 76.46124 137.95344 60.96122
#
# Poissons Ratio (x) = 0.26545 0.29451
# Poissons Ratio (y) = 0.14713 0.09185
# Poissons Ratio (z) = 0.36940 0.20785
#
# Static dielectric constant tensor:
#      x y z
#    x 1.923660 0.050320 -0.016380 
#    y 0.050320 1.853670 0.006430 
#    z -0.016380 0.006430 1.876930 
# 
# From -- ./inp_files/477235.got.cif
#   From: 2010.05.17/outbox.cif.g08.bks.cpg/sg2_239_cif.got.tgz:477235.got - 2010.06.03 11:33:40.
