data_PCOD9102305
_publ_section_title
;
Structure prediction by ZEFSAII (Michael W. Deem and Ramdas Pophale) SiO2 
 PCOD9102305
Probable space group: P -1
;
_chemical_formula_sum "Si O2"
_cell_formula_units_Z 16
_cell_length_a 9.411996
_cell_length_b 12.357568
_cell_length_c 14.008879
_cell_angle_alpha 71.625777
_cell_angle_beta 64.224272
_cell_angle_gamma 36.849219
_cell_volume 878.305012
_symmetry_space_group_name_H-M "P -1"
_symmetry_group_IT_number 2
_symmetry_cell_setting 'triclinic'
loop_
_space_group_symop_operation_xyz
x,y,z
-x,-y,-z
loop_
_atom_site_type_symbol
_atom_site_label
_atom_site_fract_x
_atom_site_fract_y
_atom_site_fract_z
Si Si1 0.218280 0.021923 0.107934
Si Si2 0.316970 0.312609 0.255002
Si Si3 0.456557 0.989208 0.861183
Si Si4 0.166738 0.812049 0.255091
Si Si5 0.123169 0.309114 0.493217
Si Si6 0.621631 0.453102 0.579141
Si Si7 0.093622 0.264096 0.720972
Si Si8 0.274447 0.784972 0.730619
O O1 0.925396 0.192262 0.174548
O O2 0.380835 0.001965 0.141459
O O3 0.274364 0.855019 0.148544
O O4 0.283588 0.033089 0.982352
O O5 0.295567 0.239328 0.372518
O O6 0.554775 0.258254 0.224401
O O7 0.075821 0.530135 0.263246
O O8 0.365241 0.209596 0.177326
O O9 0.287161 0.128561 0.785073
O O10 0.340833 0.678929 0.328889
O O11 0.092193 0.739745 0.239944
O O12 0.905542 0.013777 0.311704
O O13 0.221159 0.211591 0.594215
O O14 0.000000 0.500000 0.500000
O O15 0.897359 0.352549 0.517373
O O16 0.500000 0.500000 0.500000
O O17 0.451236 0.634194 0.640562
#
# Coordination Sequence:
#
# PCOD9102305 Si02
#       8
#     2   2   2   2   2   2   2   2
#     4   9  24  43  59  84 122 157 193 253 298 350
#     4  11  21  38  64  90 117 159 198 243 295 345
#     4  11  22  44  59  85 121 151 204 250 294 352
#     4   9  20  40  58  87 119 152 201 234 296 351
#     4   9  19  36  54  89 121 147 195 234 287 348
#     4  11  22  37  60  89 126 158 192 243 288 359
#     4  10  20  38  62  91 115 156 201 239 294 351
#     4  10  20  41  60  84 121 157 193 245 290 352
#
# _framework density 18.216906999999999
#
# number of rings (size 3 to 8) (size 9 to 14) (size 15 to 20)
#    0.750    1.250    5.000    0.000    1.750    5.000 
#    2.250    2.500    0.000    0.000    0.000    0.000 
#    0.000    0.000    0.000    0.000    0.000    0.000 
#
# Total GULP energy -89120.351525 kJ/mol
# GULP energy per Si atom -5570.021970 kJ/mol
# Density = 1.817544 g / cm^3
# Si number density = 18.216907 Si / 1000 Ang^3
#
#
#
# Elastic Constant Matrix: (Units=GPa)
#
#
# Indices 1 2 3 4 5 6 
#
# 1 49.3547 -0.1124 37.8073 0.2124 -11.6679 1.2099
# 2 -0.1124 77.6482 8.7845 -6.1351 5.4062 6.7465
# 3 37.8073 8.7845 63.5743 -4.1332 -8.0297 -6.3362
# 4 0.2124 -6.1351 -4.1332 25.6680 0.2499 1.4875
# 5 -11.6679 5.4062 -8.0297 0.2499 28.1739 1.9822
# 6 1.2099 6.7465 -6.3362 1.4875 1.9822 26.2194
#
#
#
# Elastic Compliance Matrix: (Units=1/GPa)
#
#
# Indices 1 2 3 4 5 6 
#
# 1 0.042545 0.002772 -0.025516 -0.003353 0.010510 -0.009447
# 2 0.002772 0.014180 -0.004200 0.002991 -0.002461 -0.004775
# 3 -0.025516 -0.004200 0.032581 0.003886 -0.001214 0.010003
# 4 -0.003353 0.002991 0.003886 0.040447 -0.001081 -0.001889
# 5 0.010510 -0.002461 -0.001214 -0.001081 0.040202 -0.003123
# 6 -0.009447 -0.004775 0.010003 -0.001889 -0.003123 0.042565
#
#
# Mechanical properties :
#
#
# Convention : Reuss Voigt Hill
#
# Bulk Modulus (GPa) = 28.23494 31.50400 29.86947
# Shear Modulus (GPa) = 17.97176 25.61878 21.79527
#
# Velocity S-wave (km/s) = 3.14434 3.75416 3.46270
# Velocity P-wave (km/s) = 5.35868 6.01024 5.69379
#
# Compressibility (1/GPa) = 0.03541711
#
# Stress axis : x y z
#
# Youngs Moduli (GPa) = 23.50469 70.52010 30.69298
#
# Poissons Ratio (x) = -0.19552 0.78317
# Poissons Ratio (y) = -0.06517 0.12892
# Poissons Ratio (z) = 0.59975 0.29622
#
# Static dielectric constant tensor:
#      x y z
#    x 1.624880 0.004620 -0.032720 
#    y 0.004620 1.642360 -0.002560 
#    z -0.032720 -0.002560 1.638270 
# 
# From -- ./inp_files/448362.got.cif
#   From: 2010.05.17/outbox.cif.g08.bks.cpg/sg2_225_cif.got.tgz:448362.got - 2010.06.03 11:33:40.
