data_PCOD9102664
_publ_section_title
;
Structure prediction by ZEFSAII (Michael W. Deem and Ramdas Pophale) SiO2 
 PCOD9102664
Probable space group: P -1
;
_chemical_formula_sum "Si O2"
_cell_formula_units_Z 16
_cell_length_a 14.173072
_cell_length_b 10.226675
_cell_length_c 12.103274
_cell_angle_alpha 145.837706
_cell_angle_beta 44.253511
_cell_angle_gamma 124.471847
_cell_volume 685.844303
_symmetry_space_group_name_H-M "P -1"
_symmetry_group_IT_number 2
_symmetry_cell_setting 'triclinic'
loop_
_space_group_symop_operation_xyz
x,y,z
-x,-y,-z
loop_
_atom_site_type_symbol
_atom_site_label
_atom_site_fract_x
_atom_site_fract_y
_atom_site_fract_z
Si Si1 0.787761 0.892356 0.305295
Si Si2 0.417986 0.227786 0.275376
Si Si3 0.391429 0.190612 0.939522
Si Si4 0.825549 0.823656 0.695465
Si Si5 0.936755 0.491322 0.810623
Si Si6 0.316005 0.654896 0.197645
Si Si7 0.515841 0.715416 0.481668
Si Si8 0.006407 0.179036 0.723563
O O1 0.651134 0.755351 0.328291
O O2 0.861403 0.855012 0.336307
O O3 0.742766 0.165982 0.532382
O O4 0.890672 0.765543 0.042885
O O5 0.261986 0.200121 0.358793
O O6 0.461598 0.461657 0.341912
O O7 0.448773 0.254409 0.397098
O O8 0.500000 0.000000 0.000000
O O9 0.280352 0.198583 0.133568
O O10 0.350071 0.397498 0.035383
O O11 0.544047 0.243189 0.886270
O O12 0.408392 0.930254 0.693485
O O13 0.946447 0.619713 0.445244
O O14 0.886702 0.077113 0.825968
O O15 0.801897 0.361812 0.803910
O O16 0.980351 0.420970 0.849860
O O17 0.000000 0.000000 0.500000
#
# Coordination Sequence:
#
# PCOD9102664 Si02
#       8
#     2   2   2   2   2   2   2   2
#     4  11  22  40  66  94 126 173 221 259 323 392
#     4  11  23  39  62 100 135 159 209 268 334 383
#     4  10  23  44  69  90 131 175 221 273 314 383
#     4  11  23  39  67  97 127 174 205 271 334 381
#     4  11  24  40  65  96 132 172 212 264 330 392
#     4  10  23  47  64  92 130 175 223 269 319 377
#     4  10  23  39  63  96 125 173 211 263 324 391
#     4  10  20  38  63  94 131 167 205 264 328 387
#
# _framework density 23.328907999999998
#
# number of rings (size 3 to 8) (size 9 to 14) (size 15 to 20)
#    0.000    1.500    3.750    1.875    5.250    1.500 
#    2.250    2.500    0.000    0.000    0.000    0.000 
#    0.000    0.000    0.000    0.000    0.000    0.000 
#
# Total GULP energy -89398.184671 kJ/mol
# GULP energy per Si atom -5587.386542 kJ/mol
# Density = 2.327581 g / cm^3
# Si number density = 23.328908 Si / 1000 Ang^3
#
#
#
# Elastic Constant Matrix: (Units=GPa)
#
#
# Indices 1 2 3 4 5 6 
#
# 1 41.6358 13.0063 20.9975 -7.8649 -15.8086 17.7533
# 2 13.0063 92.0614 48.7873 9.8438 -13.6556 5.9213
# 3 20.9975 48.7873 173.3718 11.8037 -17.5348 9.1474
# 4 -7.8649 9.8438 11.8037 44.6689 -2.5578 -6.8132
# 5 -15.8086 -13.6556 -17.5348 -2.5578 28.9463 -1.7762
# 6 17.7533 5.9213 9.1474 -6.8132 -1.7762 20.6519
#
#
#
# Elastic Compliance Matrix: (Units=1/GPa)
#
#
# Indices 1 2 3 4 5 6 
#
# 1 0.053332 -0.000671 -0.001880 0.005267 0.025628 -0.040880
# 2 -0.000671 0.013560 -0.003053 -0.002453 0.003815 -0.002440
# 3 -0.001880 -0.003053 0.007193 -0.001629 0.001680 -0.001087
# 4 0.005267 -0.002453 -0.001629 0.025319 0.003309 0.005534
# 5 0.025628 0.003815 0.001680 0.003309 0.050522 -0.018432
# 6 -0.040880 -0.002440 -0.001087 0.005534 -0.018432 0.084985
#
#
# Mechanical properties :
#
#
# Convention : Reuss Voigt Hill
#
# Bulk Modulus (GPa) = 15.90396 52.51680 34.21038
# Shear Modulus (GPa) = 18.72113 33.80528 26.26320
#
# Velocity S-wave (km/s) = 2.83589 3.81080 3.35890
# Velocity P-wave (km/s) = 4.18988 6.47482 5.45336
#
# Compressibility (1/GPa) = 0.06287742
#
# Stress axis : x y z
#
# Youngs Moduli (GPa) = 18.75045 73.74546 139.02611
#
# Poissons Ratio (x) = 0.04946 0.26139
# Poissons Ratio (y) = 0.01258 0.42445
# Poissons Ratio (z) = 0.03525 0.22515
#
# Static dielectric constant tensor:
#      x y z
#    x 1.898450 -0.004710 0.018770 
#    y -0.004710 1.889890 0.035670 
#    z 0.018770 0.035670 1.963710 
# 
# From -- ./inp_files/532128.got.cif
#   From: 2010.05.17/outbox.cif.g08.bks.cpg/sg2_267_cif.got.tgz:532128.got - 2010.06.03 11:33:40.
