data_PCOD9102514
_publ_section_title
;
Structure prediction by ZEFSAII (Michael W. Deem and Ramdas Pophale) SiO2 
 PCOD9102514
Probable space group: P -1
;
_chemical_formula_sum "Si O2"
_cell_formula_units_Z 16
_cell_length_a 8.993379
_cell_length_b 11.721965
_cell_length_c 13.862362
_cell_angle_alpha 64.793132
_cell_angle_beta 97.329689
_cell_angle_gamma 141.622526
_cell_volume 763.521829
_symmetry_space_group_name_H-M "P -1"
_symmetry_group_IT_number 2
_symmetry_cell_setting 'triclinic'
loop_
_space_group_symop_operation_xyz
x,y,z
-x,-y,-z
loop_
_atom_site_type_symbol
_atom_site_label
_atom_site_fract_x
_atom_site_fract_y
_atom_site_fract_z
Si Si1 0.057880 0.338651 0.039320
Si Si2 0.909856 0.037952 0.898814
Si Si3 0.278659 0.261034 0.521071
Si Si4 0.705208 0.509550 0.203024
Si Si5 0.781374 0.036508 0.477543
Si Si6 0.862304 0.853791 0.771919
Si Si7 0.593551 0.182050 0.078667
Si Si8 0.398171 0.838063 0.684691
O O1 0.064761 0.235038 0.156083
O O2 0.768589 0.188790 0.053011
O O3 0.190809 0.388496 0.932810
O O4 0.227662 0.572172 0.005355
O O5 0.142292 0.286526 0.794398
O O6 0.806501 0.890921 0.852018
O O7 0.677258 0.969194 0.936199
O O8 0.000000 0.000000 0.000000
O O9 0.500000 0.500000 0.500000
O O10 0.079762 0.205634 0.458501
O O11 0.352419 0.182835 0.496810
O O12 0.092569 0.077571 0.654563
O O13 0.401534 0.324583 0.245005
O O14 0.760313 0.399517 0.263280
O O15 0.736312 0.124925 0.372331
O O16 0.650722 0.990230 0.584359
O O17 0.551137 0.128119 0.209132
#
# Coordination Sequence:
#
# PCOD9102514 Si02
#       8
#     2   2   2   2   2   2   2   2
#     4  10  20  38  63  88 129 168 201 252 319 374
#     4  12  23  37  64  95 127 172 216 248 308 389
#     4  11  25  43  66  97 128 162 213 274 319 375
#     4  11  22  39  65  92 126 170 210 258 316 380
#     4  10  22  44  67  90 126 163 219 264 317 377
#     4  12  22  43  62  89 129 168 208 259 320 379
#     4  10  21  39  62  94 131 166 207 259 316 373
#     4  10  20  43  66  90 124 173 209 260 317 373
#
# _framework density 20.955524
#
# number of rings (size 3 to 8) (size 9 to 14) (size 15 to 20)
#    0.000    1.250    5.000    1.875    1.750    0.500 
#    4.500    3.750    0.000    0.000    0.000    0.000 
#    0.000    0.000    0.000    0.000    0.000    0.000 
#
# Total GULP energy -89356.010479 kJ/mol
# GULP energy per Si atom -5584.750655 kJ/mol
# Density = 2.090783 g / cm^3
# Si number density = 20.955524 Si / 1000 Ang^3
#
#
#
# Elastic Constant Matrix: (Units=GPa)
#
#
# Indices 1 2 3 4 5 6 
#
# 1 132.2309 52.5146 65.6851 -6.1339 26.5111 7.4162
# 2 52.5146 113.8279 26.9321 -20.9052 12.6271 5.5790
# 3 65.6851 26.9321 100.7375 -8.3770 16.7121 10.9700
# 4 -6.1339 -20.9052 -8.3770 23.8580 -4.4818 -3.3747
# 5 26.5111 12.6271 16.7121 -4.4818 47.1413 3.2116
# 6 7.4162 5.5790 10.9700 -3.3747 3.2116 28.2476
#
#
#
# Elastic Compliance Matrix: (Units=1/GPa)
#
#
# Indices 1 2 3 4 5 6 
#
# 1 0.013825 -0.004933 -0.007354 -0.004122 -0.004251 0.000192
# 2 -0.004933 0.012768 0.000659 0.010130 0.000103 -0.000284
# 3 -0.007354 0.000659 0.015380 0.003396 -0.000921 -0.003662
# 4 -0.004122 0.010130 0.003396 0.052019 0.003099 0.003625
# 5 -0.004251 0.000103 -0.000921 0.003099 0.024261 -0.000935
# 6 0.000192 -0.000284 -0.003662 0.003625 -0.000935 0.037368
#
#
# Mechanical properties :
#
#
# Convention : Reuss Voigt Hill
#
# Bulk Modulus (GPa) = 53.42688 70.78442 62.10565
# Shear Modulus (GPa) = 27.01014 33.29367 30.15191
#
# Velocity S-wave (km/s) = 3.59406 3.99027 3.79734
# Velocity P-wave (km/s) = 6.54016 7.42169 6.99482
#
# Compressibility (1/GPa) = 0.01871717
#
# Stress axis : x y z
#
# Youngs Moduli (GPa) = 72.33190 78.32058 65.02121
#
# Poissons Ratio (x) = 0.38636 0.47817
# Poissons Ratio (y) = 0.35681 -0.04286
# Poissons Ratio (z) = 0.53193 -0.05163
#
# Static dielectric constant tensor:
#      x y z
#    x 1.790850 -0.023770 -0.030600 
#    y -0.023770 1.767540 0.006320 
#    z -0.030600 0.006320 1.770550 
# 
# From -- ./inp_files/500177.got.cif
#   From: 2010.05.17/outbox.cif.g08.bks.cpg/sg2_251_cif.got.tgz:500177.got - 2010.06.03 11:33:40.
