data_PCOD9102478
_publ_section_title
;
Structure prediction by ZEFSAII (Michael W. Deem and Ramdas Pophale) SiO2 
 PCOD9102478
Probable space group: P -1
;
_chemical_formula_sum "Si O2"
_cell_formula_units_Z 16
_cell_length_a 7.957164
_cell_length_b 8.615517
_cell_length_c 14.481597
_cell_angle_alpha 80.558498
_cell_angle_beta 132.746397
_cell_angle_gamma 109.014875
_cell_volume 686.950350
_symmetry_space_group_name_H-M "P -1"
_symmetry_group_IT_number 2
_symmetry_cell_setting 'triclinic'
loop_
_space_group_symop_operation_xyz
x,y,z
-x,-y,-z
loop_
_atom_site_type_symbol
_atom_site_label
_atom_site_fract_x
_atom_site_fract_y
_atom_site_fract_z
Si Si1 0.786400 0.043771 0.712986
Si Si2 0.720091 0.328574 0.333063
Si Si3 0.634048 0.032514 0.190258
Si Si4 0.655439 0.728263 0.563773
Si Si5 0.115422 0.664367 0.406584
Si Si6 0.434146 0.206294 0.667347
Si Si7 0.741822 0.567741 0.784193
Si Si8 0.870226 0.126491 0.068385
O O1 0.930437 0.207154 0.695946
O O2 0.571924 0.090668 0.679305
O O3 0.700747 0.902983 0.616465
O O4 0.938548 0.976495 0.850287
O O5 0.826892 0.275910 0.472092
O O6 0.473276 0.366282 0.264378
O O7 0.903237 0.497884 0.350034
O O8 0.673896 0.192018 0.251699
O O9 0.712733 0.897600 0.293323
O O10 0.764615 0.086878 0.136880
O O11 0.354610 0.943939 0.073974
O O12 0.370319 0.643163 0.472079
O O13 0.716678 0.746771 0.476998
O O14 0.779012 0.627872 0.685651
O O15 0.631692 0.371460 0.761014
O O16 0.986140 0.680384 0.910806
#
# Coordination Sequence:
#
# PCOD9102478 Si02
#       8
#     2   2   2   2   2   2   2   2
#     4  10  20  38  63  86 121 160 198 240 294 360
#     4  10  21  38  62  88 125 158 192 241 297 358
#     4  11  24  43  62  84 117 159 205 252 295 348
#     4   9  18  37  60  89 127 158 189 237 302 358
#     4   9  18  34  62  91 123 150 192 240 296 354
#     4  11  21  35  65  90 119 154 201 240 293 358
#     4  10  22  39  61  91 123 155 195 244 295 358
#     4  10  25  44  60  83 119 158 204 254 300 339
#
# _framework density 23.291346999999998
#
# number of rings (size 3 to 8) (size 9 to 14) (size 15 to 20)
#    0.000    2.000    0.000    4.875    5.250    2.500 
#    6.750    3.750    0.000    0.000    0.000    0.000 
#    0.000    0.000    0.000    0.000    0.000    0.000 
#
# Total GULP energy -89497.614359 kJ/mol
# GULP energy per Si atom -5593.600897 kJ/mol
# Density = 2.323833 g / cm^3
# Si number density = 23.291347 Si / 1000 Ang^3
#
#
#
# Elastic Constant Matrix: (Units=GPa)
#
#
# Indices 1 2 3 4 5 6 
#
# 1 68.2972 9.5574 23.0330 6.0996 -3.6416 10.9411
# 2 9.5574 95.6453 25.2855 22.7654 -6.6248 19.2695
# 3 23.0330 25.2855 74.3937 24.1817 -0.4246 6.8542
# 4 6.0996 22.7654 24.1817 34.6263 9.7076 0.0217
# 5 -3.6416 -6.6248 -0.4246 9.7076 33.5934 1.3911
# 6 10.9411 19.2695 6.8542 0.0217 1.3911 35.1798
#
#
#
# Elastic Compliance Matrix: (Units=1/GPa)
#
#
# Indices 1 2 3 4 5 6 
#
# 1 0.017167 0.000986 -0.004856 -0.000974 0.002484 -0.005030
# 2 0.000986 0.015708 -0.000943 -0.011792 0.006973 -0.008995
# 3 -0.004856 -0.000943 0.019796 -0.013321 0.003469 -0.001959
# 4 -0.000974 -0.011792 -0.013321 0.051084 -0.017777 0.010029
# 5 0.002484 0.006973 0.003469 -0.017777 0.036871 -0.006715
# 6 -0.005030 -0.008995 -0.001959 0.010029 -0.006715 0.035558
#
#
# Mechanical properties :
#
#
# Convention : Reuss Voigt Hill
#
# Bulk Modulus (GPa) = 23.23118 39.34310 31.28714
# Shear Modulus (GPa) = 24.98025 32.71058 28.84542
#
# Velocity S-wave (km/s) = 3.27848 3.75161 3.52299
# Velocity P-wave (km/s) = 4.93224 5.97449 5.47821
#
# Compressibility (1/GPa) = 0.04304559
#
# Stress axis : x y z
#
# Youngs Moduli (GPa) = 58.25187 63.66218 50.51516
#
# Poissons Ratio (x) = -0.06275 0.24529
# Poissons Ratio (y) = -0.05742 0.04761
# Poissons Ratio (z) = 0.28285 0.06001
#
# Static dielectric constant tensor:
#      x y z
#    x 1.918320 0.000320 -0.000150 
#    y 0.000320 1.904890 -0.013510 
#    z -0.000150 -0.013510 1.883110 
# 
# From -- ./inp_files/221723.got.cif
#   From: 2010.05.17/outbox.cif.g08.bks.cpg/sg2_111_cif.got.tgz:221723.got - 2010.06.03 11:33:40.
