data_PCOD9102798
_publ_section_title
;
Structure prediction by ZEFSAII (Michael W. Deem and Ramdas Pophale) SiO2 
 PCOD9102798
Probable space group: P -1
;
_chemical_formula_sum "Si O2"
_cell_formula_units_Z 16
_cell_length_a 23.756401
_cell_length_b 18.909497
_cell_length_c 12.545163
_cell_angle_alpha 25.667541
_cell_angle_beta 152.992751
_cell_angle_gamma 158.926231
_cell_volume 831.436508
_symmetry_space_group_name_H-M "P -1"
_symmetry_group_IT_number 2
_symmetry_cell_setting 'triclinic'
loop_
_space_group_symop_operation_xyz
x,y,z
-x,-y,-z
loop_
_atom_site_type_symbol
_atom_site_label
_atom_site_fract_x
_atom_site_fract_y
_atom_site_fract_z
Si Si1 0.166013 0.199528 0.449124
Si Si2 0.729923 0.898576 0.443710
Si Si3 0.143630 0.801645 0.366388
Si Si4 0.596453 0.374178 0.613673
Si Si5 0.387756 0.307157 0.154581
Si Si6 0.898269 0.385647 0.092200
Si Si7 0.044866 0.434528 0.833335
Si Si8 0.135317 0.225751 0.983125
O O1 0.236182 0.126559 0.585549
O O2 0.302543 0.375200 0.525516
O O3 0.000000 0.000000 0.500000
O O4 0.122850 0.326238 0.137887
O O5 0.540592 0.772531 0.326238
O O6 0.790874 0.805752 0.748867
O O7 0.841360 0.149874 0.320420
O O8 0.108253 0.726187 0.286757
O O9 0.172063 0.667167 0.670388
O O10 0.269502 0.061467 0.241087
O O11 0.964634 0.706513 0.237640
O O12 0.496780 0.313532 0.419661
O O13 0.732421 0.351681 0.861144
O O14 0.281316 0.355274 0.968561
O O15 0.500000 0.500000 0.000000
O O16 0.993856 0.520378 0.178096
O O17 0.000000 0.500000 0.000000
O O18 0.000000 0.000000 0.000000
#
# Coordination Sequence:
#
# PCOD9102798 Si02
#       8
#     2   2   2   2   2   2   2   2
#     4  11  23  38  62  93 122 160 207 264 310 362
#     4  11  20  38  59  87 122 160 208 255 303 369
#     4  10  20  38  64  88 122 170 206 252 300 373
#     4  10  23  39  59  86 121 159 202 254 319 369
#     4  10  22  37  60  91 125 157 203 258 313 357
#     4  11  23  39  61  91 120 163 208 260 314 369
#     4  10  21  38  62  92 123 158 214 251 303 369
#     4   9  18  33  58  86 112 160 206 241 290 359
#
# _framework density 19.243803
#
# number of rings (size 3 to 8) (size 9 to 14) (size 15 to 20)
#    0.000    1.750    1.250    4.500    1.750    4.000 
#    0.000    0.000    0.000    3.750    0.000    0.000 
#    0.000    0.000    0.000    0.000    0.000    0.000 
#
# Total GULP energy -89244.141376 kJ/mol
# GULP energy per Si atom -5577.758836 kJ/mol
# Density = 1.920000 g / cm^3
# Si number density = 19.243803 Si / 1000 Ang^3
#
#
#
# Elastic Constant Matrix: (Units=GPa)
#
#
# Indices 1 2 3 4 5 6 
#
# 1 148.0847 74.0222 34.2629 -8.4252 2.4463 -0.4974
# 2 74.0222 107.9741 28.8210 -11.5207 -7.5182 2.1072
# 3 34.2629 28.8210 61.4719 -5.4263 7.7232 8.5566
# 4 -8.4252 -11.5207 -5.4263 25.7806 -2.6620 -0.2505
# 5 2.4463 -7.5182 7.7232 -2.6620 23.8112 0.0637
# 6 -0.4974 2.1072 8.5566 -0.2505 0.0637 46.3389
#
#
#
# Elastic Compliance Matrix: (Units=1/GPa)
#
#
# Indices 1 2 3 4 5 6 
#
# 1 0.010878 -0.006988 -0.002632 -0.000372 -0.002514 0.000922
# 2 -0.006988 0.016256 -0.004272 0.004885 0.007782 -0.000010
# 3 -0.002632 -0.004272 0.021328 0.000869 -0.007889 -0.003757
# 4 -0.000372 0.004885 0.000869 0.041646 0.005955 -0.000170
# 5 -0.002514 0.007782 -0.007889 0.005955 0.047934 0.001042
# 6 0.000922 -0.000010 -0.003757 -0.000170 0.001042 0.022282
#
#
# Mechanical properties :
#
#
# Convention : Reuss Voigt Hill
#
# Bulk Modulus (GPa) = 48.35970 65.74920 57.05445
# Shear Modulus (GPa) = 25.64083 31.21447 28.42765
#
# Velocity S-wave (km/s) = 3.65419 4.03184 3.84765
# Velocity P-wave (km/s) = 6.55658 7.47763 7.03220
#
# Compressibility (1/GPa) = 0.02067838
#
# Stress axis : x y z
#
# Youngs Moduli (GPa) = 91.92535 61.51746 46.88581
#
# Poissons Ratio (x) = 0.42988 0.12342
# Poissons Ratio (y) = 0.64236 0.20028
# Poissons Ratio (z) = 0.24199 0.26278
#
# Static dielectric constant tensor:
#      x y z
#    x 1.699040 -0.008550 0.008410 
#    y -0.008550 1.674360 0.001130 
#    z 0.008410 0.001130 1.701830 
# 
# From -- ./inp_files/189246.got.cif
#   From: 2010.05.17/outbox.cif.g08.bks.cpg/sg2_95_cif.got.tgz:189246.got - 2010.06.03 11:33:40.
