data_PCOD9102117
_publ_section_title
;
Structure prediction by ZEFSAII (Michael W. Deem and Ramdas Pophale) SiO2 
 PCOD9102117
Probable space group: P -1
;
_chemical_formula_sum "Si O2"
_cell_formula_units_Z 16
_cell_length_a 14.565612
_cell_length_b 8.532902
_cell_length_c 14.516656
_cell_angle_alpha 109.224775
_cell_angle_beta 62.746624
_cell_angle_gamma 149.956171
_cell_volume 793.848862
_symmetry_space_group_name_H-M "P -1"
_symmetry_group_IT_number 2
_symmetry_cell_setting 'triclinic'
loop_
_space_group_symop_operation_xyz
x,y,z
-x,-y,-z
loop_
_atom_site_type_symbol
_atom_site_label
_atom_site_fract_x
_atom_site_fract_y
_atom_site_fract_z
Si Si1 0.612192 0.967184 0.203730
Si Si2 0.235883 0.920095 0.215885
Si Si3 0.012198 0.397642 0.063534
Si Si4 0.208848 0.200739 0.533357
Si Si5 0.203101 0.828667 0.425921
Si Si6 0.435027 0.842304 0.598145
Si Si7 0.396825 0.787612 0.914985
Si Si8 0.790873 0.742966 0.677327
O O1 0.405131 0.608783 0.261626
O O2 0.685478 0.186177 0.295629
O O3 0.586624 0.052000 0.142952
O O4 0.782253 0.062244 0.128757
O O5 0.121740 0.648595 0.143417
O O6 0.168255 0.798476 0.327867
O O7 0.469051 0.189196 0.163150
O O8 0.197493 0.060954 0.242546
O O9 0.162754 0.455356 0.979361
O O10 0.000000 0.500000 0.000000
O O11 0.324029 0.516115 0.580164
O O12 0.217592 0.241450 0.426524
O O13 0.274871 0.100832 0.490900
O O14 0.992516 0.915605 0.623804
O O15 0.000000 0.500000 0.500000
O O16 0.367496 0.919173 0.388966
O O17 0.500000 0.000000 0.500000
O O18 0.500000 0.000000 0.000000
#
# Coordination Sequence:
#
# PCOD9102117 Si02
#       8
#     2   2   2   2   2   2   2   2
#     4  11  20  37  62  90 116 157 208 237 306 363
#     4  10  20  38  62  84 122 157 197 246 304 354
#     4   9  20  37  62  87 110 149 202 254 301 351
#     4  10  22  38  55  85 135 160 197 245 286 353
#     4  11  24  37  59  90 123 166 204 235 297 364
#     4  12  23  37  60  91 125 161 203 244 295 361
#     4   9  19  39  61  82 112 151 203 256 299 350
#     4  10  21  36  58  90 121 162 195 243 296 360
#
# _framework density 20.154971
#
# number of rings (size 3 to 8) (size 9 to 14) (size 15 to 20)
#    0.000    1.750    2.500    1.875    5.250    0.000 
#    0.000    6.250    0.000    0.000    0.000    0.000 
#    0.000    0.000    0.000    0.000    0.000    0.000 
#
# Total GULP energy -89180.177619 kJ/mol
# GULP energy per Si atom -5573.761101 kJ/mol
# Density = 2.010910 g / cm^3
# Si number density = 20.154971 Si / 1000 Ang^3
#
#
#
# Elastic Constant Matrix: (Units=GPa)
#
#
# Indices 1 2 3 4 5 6 
#
# 1 56.4547 5.7843 26.0723 -14.3315 -10.6556 7.7565
# 2 5.7843 72.1552 33.2360 -21.1408 2.4006 -0.0454
# 3 26.0723 33.2360 103.7193 -22.8615 -7.8925 1.2492
# 4 -14.3315 -21.1408 -22.8615 32.8175 15.7610 -8.4461
# 5 -10.6556 2.4006 -7.8925 15.7610 32.5626 -3.3347
# 6 7.7565 -0.0454 1.2492 -8.4461 -3.3347 23.9540
#
#
#
# Elastic Compliance Matrix: (Units=1/GPa)
#
#
# Indices 1 2 3 4 5 6 
#
# 1 0.022210 0.001673 -0.004793 0.004630 0.003244 -0.004854
# 2 0.001673 0.021042 -0.004160 0.017298 -0.009931 0.004432
# 3 -0.004793 -0.004160 0.013300 0.005355 -0.000355 0.002689
# 4 0.004630 0.017298 0.005355 0.065467 -0.028369 0.017388
# 5 0.003244 -0.009931 -0.000355 -0.028369 0.045668 -0.004696
# 6 -0.004854 0.004432 0.002689 0.017388 -0.004696 0.048664
#
#
# Mechanical properties :
#
#
# Convention : Reuss Voigt Hill
#
# Bulk Modulus (GPa) = 23.81333 40.27935 32.04634
# Shear Modulus (GPa) = 20.41572 29.01593 24.71583
#
# Velocity S-wave (km/s) = 3.18612 3.79838 3.50564
# Velocity P-wave (km/s) = 5.03745 6.26619 5.68511
#
# Compressibility (1/GPa) = 0.04199328
#
# Stress axis : x y z
#
# Youngs Moduli (GPa) = 45.02397 47.52322 75.18711
#
# Poissons Ratio (x) = -0.07951 0.36039
# Poissons Ratio (y) = -0.07533 0.31275
# Poissons Ratio (z) = 0.21581 0.19768
#
# Static dielectric constant tensor:
#      x y z
#    x 1.708140 0.019320 -0.049700 
#    y 0.019320 1.719130 -0.004920 
#    z -0.049700 -0.004920 1.775930 
# 
# From -- ./inp_files/187360.got.cif
#   From: 2010.05.17/outbox.cif.g08.bks.cpg/sg2_94_cif.got.tgz:187360.got - 2010.06.03 11:33:40.
