data_PCOD9102365
_publ_section_title
;
Structure prediction by ZEFSAII (Michael W. Deem and Ramdas Pophale) SiO2 
 PCOD9102365
Probable space group: P -1
;
_chemical_formula_sum "Si O2"
_cell_formula_units_Z 16
_cell_length_a 12.171353
_cell_length_b 10.671010
_cell_length_c 9.179500
_cell_angle_alpha 113.808911
_cell_angle_beta 56.749637
_cell_angle_gamma 126.308315
_cell_volume 797.921358
_symmetry_space_group_name_H-M "P -1"
_symmetry_group_IT_number 2
_symmetry_cell_setting 'triclinic'
loop_
_space_group_symop_operation_xyz
x,y,z
-x,-y,-z
loop_
_atom_site_type_symbol
_atom_site_label
_atom_site_fract_x
_atom_site_fract_y
_atom_site_fract_z
Si Si1 0.871126 0.828370 0.069430
Si Si2 0.680353 0.927416 0.096674
Si Si3 0.334140 0.854927 0.570344
Si Si4 0.333336 0.810126 0.229941
Si Si5 0.207537 0.004049 0.271534
Si Si6 0.119029 0.458474 0.225061
Si Si7 0.183580 0.516439 0.541169
Si Si8 0.862252 0.777280 0.396506
O O1 0.716364 0.817250 0.120321
O O2 0.864846 0.808077 0.237746
O O3 0.888638 0.688410 0.920321
O O4 0.000000 0.000000 0.000000
O O5 0.505712 0.857886 0.152936
O O6 0.733847 0.086864 0.225443
O O7 0.769860 0.954765 0.895099
O O8 0.264842 0.824116 0.443639
O O9 0.324119 0.689982 0.536269
O O10 0.500000 0.000000 0.500000
O O11 0.242177 0.630953 0.161659
O O12 0.313816 0.930809 0.199002
O O13 0.229698 0.150469 0.420224
O O14 0.036534 0.872603 0.364357
O O15 0.162914 0.454070 0.360685
O O16 0.961358 0.458270 0.323063
O O17 0.190847 0.397846 0.594280
#
# Coordination Sequence:
#
# PCOD9102365 Si02
#       8
#     2   2   2   2   2   2   2   2
#     4  12  24  39  59  91 123 164 209 256 312 366
#     4  11  22  39  64  89 123 168 208 252 306 377
#     4   9  20  38  64  91 124 164 200 249 305 373
#     4  10  21  41  64  90 123 163 209 253 311 372
#     4  11  22  39  61  93 124 165 208 253 317 362
#     4  10  22  37  62  90 120 159 207 259 307 367
#     4  10  20  38  62  93 124 161 204 255 311 363
#     4  11  24  38  62  90 130 160 204 268 306 363
#
# _framework density 20.052102000000001
#
# number of rings (size 3 to 8) (size 9 to 14) (size 15 to 20)
#    0.000    1.500    2.500    2.625    1.750    2.000 
#    0.000    1.250    0.000   10.500    0.000    0.000 
#    0.000    0.000    0.000    0.000    0.000    0.000 
#
# Total GULP energy -89315.158530 kJ/mol
# GULP energy per Si atom -5582.197408 kJ/mol
# Density = 2.000646 g / cm^3
# Si number density = 20.052102 Si / 1000 Ang^3
#
#
#
# Elastic Constant Matrix: (Units=GPa)
#
#
# Indices 1 2 3 4 5 6 
#
# 1 89.9220 44.8452 12.9800 1.0397 -4.8350 -20.6583
# 2 44.8452 147.6461 58.7098 11.0916 13.7261 -13.6039
# 3 12.9800 58.7098 117.6722 23.2251 17.9540 -12.4852
# 4 1.0397 11.0916 23.2251 32.9731 -1.2414 3.9353
# 5 -4.8350 13.7261 17.9540 -1.2414 26.1543 -9.1315
# 6 -20.6583 -13.6039 -12.4852 3.9353 -9.1315 35.0360
#
#
#
# Elastic Compliance Matrix: (Units=1/GPa)
#
#
# Indices 1 2 3 4 5 6 
#
# 1 0.016396 -0.005041 0.000423 0.000001 0.008945 0.010192
# 2 -0.005041 0.010155 -0.003953 -0.000453 -0.004075 -0.001449
# 3 0.000423 -0.003953 0.013435 -0.008724 -0.006511 0.002785
# 4 0.000001 -0.000453 -0.008724 0.037559 0.005929 -0.005957
# 5 0.008945 -0.004075 -0.006511 0.005929 0.051732 0.014188
# 6 0.010192 -0.001449 0.002785 -0.005957 0.014188 0.039348
#
#
# Mechanical properties :
#
#
# Convention : Reuss Voigt Hill
#
# Bulk Modulus (GPa) = 43.77580 65.36782 54.57181
# Shear Modulus (GPa) = 25.85546 34.74637 30.30091
#
# Velocity S-wave (km/s) = 3.59474 4.16721 3.89152
# Velocity P-wave (km/s) = 6.25363 7.47154 6.88955
#
# Compressibility (1/GPa) = 0.02284367
#
# Stress axis : x y z
#
# Youngs Moduli (GPa) = 60.99033 98.47023 74.43365
#
# Poissons Ratio (x) = 0.49636 -0.03147
# Poissons Ratio (y) = 0.30743 0.29426
# Poissons Ratio (z) = -0.02579 0.38928
#
# Static dielectric constant tensor:
#      x y z
#    x 1.726350 0.025720 -0.015130 
#    y 0.025720 1.719180 -0.016120 
#    z -0.015130 -0.016120 1.740850 
# 
# From -- ./inp_files/244915.got.cif
#   From: 2010.05.17/outbox.cif.g08.bks.cpg/sg2_123_cif.got.tgz:244915.got - 2010.06.03 11:33:40.
