data_PCOD9102044
_publ_section_title
;
Structure prediction by ZEFSAII (Michael W. Deem and Ramdas Pophale) SiO2 
 PCOD9102044
Probable space group: P -1
;
_chemical_formula_sum "Si O2"
_cell_formula_units_Z 14
_cell_length_a 16.627705
_cell_length_b 6.705730
_cell_length_c 10.382862
_cell_angle_alpha 107.559212
_cell_angle_beta 146.949213
_cell_angle_gamma 59.180027
_cell_volume 521.665474
_symmetry_space_group_name_H-M "P -1"
_symmetry_group_IT_number 2
_symmetry_cell_setting 'triclinic'
loop_
_space_group_symop_operation_xyz
x,y,z
-x,-y,-z
loop_
_atom_site_type_symbol
_atom_site_label
_atom_site_fract_x
_atom_site_fract_y
_atom_site_fract_z
Si Si1 0.402120 0.406742 0.475816
Si Si2 0.899146 0.989693 0.185643
Si Si3 0.301800 0.014614 0.331671
Si Si4 0.126655 0.489747 0.775752
Si Si5 0.250540 0.808939 0.712405
Si Si6 0.546515 0.638317 0.917008
Si Si7 0.029640 0.629859 0.944044
O O1 0.373385 0.200112 0.465929
O O2 0.478111 0.508004 0.703215
O O3 0.214706 0.601633 0.210791
O O4 0.536734 0.254779 0.512876
O O5 0.879447 0.252285 0.183288
O O6 0.832141 0.004171 0.244147
O O7 0.101350 0.821036 0.426846
O O8 0.788198 0.960981 0.922373
O O9 0.144550 0.112437 0.240211
O O10 0.000000 0.500000 0.500000
O O11 0.323390 0.306903 0.973027
O O12 0.055840 0.485574 0.819566
O O13 0.381104 0.842789 0.805928
O O14 0.345423 0.551599 0.861783
O O15 0.000000 0.500000 0.000000
#
# Coordination Sequence:
#
# PCOD9102044 Si02
#       7
#     2   2   2   2   2   2   2
#     4  10  20  38  61  93 124 157 210 264 311 380
#     4  10  20  39  60  94 130 164 216 258 313 384
#     4  10  20  38  61  93 124 157 210 264 311 380
#     4  11  25  45  60  89 131 168 216 271 317 373
#     4   9  19  35  67  90 125 174 204 255 320 386
#     4  10  20  39  60  94 130 164 216 258 313 384
#     4  10  24  42  68  91 123 176 216 260 331 381
#
# _framework density 26.837122999999998
#
# number of rings (size 3 to 8) (size 9 to 14) (size 15 to 20)
#    0.000    2.000    2.857    0.857    0.000   14.857 
#    2.571    0.714    0.000    0.000    0.000    0.000 
#    0.000    0.000    0.000    0.000    0.000    0.000 
#
# Total GULP energy -78429.198557 kJ/mol
# GULP energy per Si atom -5602.085611 kJ/mol
# Density = 2.677604 g / cm^3
# Si number density = 26.837123 Si / 1000 Ang^3
#
#
#
# Elastic Constant Matrix: (Units=GPa)
#
#
# Indices 1 2 3 4 5 6 
#
# 1 164.4275 34.4563 71.1610 -5.2212 25.4064 -35.8467
# 2 34.4563 88.2765 33.9284 2.9664 11.9559 -17.5310
# 3 71.1610 33.9284 170.0222 8.4037 22.2766 -18.2675
# 4 -5.2212 2.9664 8.4037 49.1940 -14.0082 9.0215
# 5 25.4064 11.9559 22.2766 -14.0082 56.9697 -17.2355
# 6 -35.8467 -17.5310 -18.2675 9.0215 -17.2355 46.3133
#
#
#
# Elastic Compliance Matrix: (Units=1/GPa)
#
#
# Indices 1 2 3 4 5 6 
#
# 1 0.008759 -0.001277 -0.002780 0.000315 -0.001036 0.004753
# 2 -0.001277 0.013275 -0.001547 -0.001568 -0.000978 0.003368
# 3 -0.002780 -0.001547 0.007712 -0.002075 -0.001969 -0.000024
# 4 0.000315 -0.001568 -0.002075 0.023058 0.005586 -0.003581
# 5 -0.001036 -0.000978 -0.001969 0.005586 0.021912 0.005118
# 6 0.004753 0.003368 -0.000024 -0.003581 0.005118 0.029138
#
#
# Mechanical properties :
#
#
# Convention : Reuss Voigt Hill
#
# Bulk Modulus (GPa) = 53.94554 77.97974 65.96264
# Shear Modulus (GPa) = 41.24024 49.37410 45.30717
#
# Velocity S-wave (km/s) = 3.92431 4.29391 4.11326
# Velocity P-wave (km/s) = 6.37796 7.32825 6.86956
#
# Compressibility (1/GPa) = 0.01853721
#
# Stress axis : x y z
#
# Youngs Moduli (GPa) = 114.17322 75.32945 129.66936
#
# Poissons Ratio (x) = 0.09616 0.36052
# Poissons Ratio (y) = 0.14575 0.20063
# Poissons Ratio (z) = 0.31744 0.11655
#
# Static dielectric constant tensor:
#      x y z
#    x 2.167820 0.042080 0.069090 
#    y 0.042080 2.236760 -0.057820 
#    z 0.069090 -0.057820 2.019090 
# 
# From -- ./inp_files/461490.got.cif
#   From: 2010.05.17/outbox.cif.g08.bks.cpg/sg2_231_cif.got.tgz:461490.got - 2010.06.03 11:33:40.
