data_PCOD9102832
_publ_section_title
;
Structure prediction by ZEFSAII (Michael W. Deem and Ramdas Pophale) SiO2 
 PCOD9102832
Probable space group: P -1
;
_chemical_formula_sum "Si O2"
_cell_formula_units_Z 16
_cell_length_a 12.256361
_cell_length_b 6.974620
_cell_length_c 11.161299
_cell_angle_alpha 62.953249
_cell_angle_beta 83.811054
_cell_angle_gamma 124.193695
_cell_volume 611.428381
_symmetry_space_group_name_H-M "P -1"
_symmetry_group_IT_number 2
_symmetry_cell_setting 'triclinic'
loop_
_space_group_symop_operation_xyz
x,y,z
-x,-y,-z
loop_
_atom_site_type_symbol
_atom_site_label
_atom_site_fract_x
_atom_site_fract_y
_atom_site_fract_z
Si Si1 0.248345 0.867019 0.862887
Si Si2 0.166929 0.940051 0.616806
Si Si3 0.349862 0.659494 0.077726
Si Si4 0.032417 0.183084 0.630721
Si Si5 0.574626 0.453101 0.680506
Si Si6 0.544974 0.357759 0.169113
Si Si7 0.160159 0.221857 0.852863
Si Si8 0.205975 0.821351 0.378781
O O1 0.159924 0.763851 0.777136
O O2 0.430731 0.126400 0.742706
O O3 0.200963 0.026714 0.884187
O O4 0.234595 0.658805 0.020920
O O5 0.041951 0.958953 0.636777
O O6 0.327021 0.291499 0.502679
O O7 0.180585 0.844788 0.514988
O O8 0.402191 0.558696 0.999077
O O9 0.309254 0.508607 0.253809
O O10 0.500000 0.000000 0.000000
O O11 0.128657 0.285348 0.711053
O O12 0.114937 0.481372 0.461175
O O13 0.870059 0.075039 0.707130
O O14 0.500372 0.514194 0.769863
O O15 0.698154 0.478440 0.180659
O O16 0.382100 0.021389 0.277324
O O17 0.000000 0.000000 0.000000
#
# Coordination Sequence:
#
# PCOD9102832 Si02
#       8
#     2   2   2   2   2   2   2   2
#     4   9  20  37  58  89 125 161 207 262 319 379
#     4  10  20  38  64  89 128 169 214 265 322 381
#     4  10  21  35  58  92 128 160 212 264 317 378
#     4  10  23  41  64  96 133 169 210 275 322 379
#     4   9  19  36  57  93 122 167 207 259 321 375
#     4  10  22  40  66  93 125 170 217 262 319 395
#     4  10  23  44  65  90 129 171 210 266 330 381
#     4  10  23  41  65  99 125 170 221 262 325 387
#
# _framework density 26.168230000000001
#
# number of rings (size 3 to 8) (size 9 to 14) (size 15 to 20)
#    0.000    2.250    0.000    1.125    5.250    6.500 
#    2.250    0.625    0.000    0.000    0.000    0.000 
#    0.000    0.000    0.000    0.000    0.000    0.000 
#
# Total GULP energy -89379.445408 kJ/mol
# GULP energy per Si atom -5586.215338 kJ/mol
# Density = 2.610867 g / cm^3
# Si number density = 26.168230 Si / 1000 Ang^3
#
#
#
# Elastic Constant Matrix: (Units=GPa)
#
#
# Indices 1 2 3 4 5 6 
#
# 1 195.8923 37.4464 60.3032 4.1150 7.5315 11.0027
# 2 37.4464 83.4250 23.8404 -1.5545 -19.3618 22.6286
# 3 60.3032 23.8404 79.3165 5.3205 5.0902 15.4049
# 4 4.1150 -1.5545 5.3205 39.4039 7.6384 -3.0332
# 5 7.5315 -19.3618 5.0902 7.6384 39.1898 -0.1023
# 6 11.0027 22.6286 15.4049 -3.0332 -0.1023 44.4019
#
#
#
# Elastic Compliance Matrix: (Units=1/GPa)
#
#
# Indices 1 2 3 4 5 6 
#
# 1 0.007063 -0.002650 -0.004700 0.000298 -0.002111 0.001246
# 2 -0.002650 0.018371 -0.002544 -0.001226 0.010134 -0.007883
# 3 -0.004700 -0.002544 0.017982 -0.001887 -0.002332 -0.003912
# 4 0.000298 -0.001226 -0.001887 0.026882 -0.005650 0.003029
# 5 -0.002111 0.010134 -0.002332 -0.005650 0.032322 -0.004144
# 6 0.001246 -0.007883 -0.003912 0.003029 -0.004144 0.027785
#
#
# Mechanical properties :
#
#
# Convention : Reuss Voigt Hill
#
# Bulk Modulus (GPa) = 42.32336 66.86820 54.59578
# Shear Modulus (GPa) = 31.63185 40.40205 36.01695
#
# Velocity S-wave (km/s) = 3.48053 3.93356 3.71396
# Velocity P-wave (km/s) = 5.68866 6.79994 6.26897
#
# Compressibility (1/GPa) = 0.02362762
#
# Stress axis : x y z
#
# Youngs Moduli (GPa) = 141.58051 54.43470 55.61168
#
# Poissons Ratio (x) = 0.14423 0.26138
# Poissons Ratio (y) = 0.37512 0.14149
# Poissons Ratio (z) = 0.66545 0.13850
#
# Static dielectric constant tensor:
#      x y z
#    x 2.148770 -0.006570 0.052620 
#    y -0.006570 2.091280 -0.034280 
#    z 0.052620 -0.034280 2.001860 
# 
# From -- ./inp_files/419186.got.cif
#   From: 2010.05.17/outbox.cif.g08.bks.cpg/sg2_210_cif.got.tgz:419186.got - 2010.06.03 11:33:40.
