data_PCOD9102102
_publ_section_title
;
Structure prediction by ZEFSAII (Michael W. Deem and Ramdas Pophale) SiO2 
 PCOD9102102
Probable space group: P -1
;
_chemical_formula_sum "Si O2"
_cell_formula_units_Z 14
_cell_length_a 6.722556
_cell_length_b 10.418093
_cell_length_c 13.568286
_cell_angle_alpha 137.788302
_cell_angle_beta 71.343486
_cell_angle_gamma 106.256027
_cell_volume 603.530243
_symmetry_space_group_name_H-M "P -1"
_symmetry_group_IT_number 2
_symmetry_cell_setting 'triclinic'
loop_
_space_group_symop_operation_xyz
x,y,z
-x,-y,-z
loop_
_atom_site_type_symbol
_atom_site_label
_atom_site_fract_x
_atom_site_fract_y
_atom_site_fract_z
Si Si1 0.979461 0.707165 0.229837
Si Si2 0.496441 0.390427 0.582673
Si Si3 0.640608 0.445372 0.039098
Si Si4 0.834966 0.889702 0.618381
Si Si5 0.495745 0.957465 0.091579
Si Si6 0.108025 0.570552 0.346831
Si Si7 0.762077 0.301550 0.300150
O O1 0.749043 0.620951 0.185120
O O2 0.046179 0.621366 0.274605
O O3 0.019502 0.935433 0.348946
O O4 0.152639 0.643063 0.089062
O O5 0.336954 0.204038 0.485446
O O6 0.645942 0.400798 0.658539
O O7 0.664837 0.378269 0.459746
O O8 0.366434 0.576744 0.690640
O O9 0.500000 0.500000 0.000000
O O10 0.519590 0.267605 0.012584
O O11 0.984703 0.719450 0.517441
O O12 0.700769 0.953628 0.769464
O O13 0.698053 0.078208 0.173488
O O14 0.500000 0.000000 0.000000
O O15 0.003761 0.364578 0.277678
#
# Coordination Sequence:
#
# PCOD9102102 Si02
#       7
#     2   2   2   2   2   2   2
#     4  10  22  38  58  86 115 152 199 238 285 349
#     4   9  19  35  55  82 117 152 186 236 297 343
#     4  10  23  43  62  83 118 157 195 242 290 342
#     4   9  21  37  55  85 121 149 187 242 288 345
#     4  10  20  38  62  83 112 155 197 240 289 339
#     4  11  20  34  60  87 116 153 191 237 293 351
#     4   9  19  35  53  82 117 148 189 242 289 342
#
# _framework density 23.196850000000001
#
# number of rings (size 3 to 8) (size 9 to 14) (size 15 to 20)
#    0.000    2.286    0.000    2.571    0.000    7.429 
#    0.000    2.857    0.000   17.143    0.000    0.000 
#    0.000    0.000    0.000    0.000    0.000    0.000 
#
# Total GULP energy -78244.699263 kJ/mol
# GULP energy per Si atom -5588.907090 kJ/mol
# Density = 2.314405 g / cm^3
# Si number density = 23.196850 Si / 1000 Ang^3
#
#
#
# Elastic Constant Matrix: (Units=GPa)
#
#
# Indices 1 2 3 4 5 6 
#
# 1 147.1463 60.6157 32.0489 18.7154 35.8502 18.7185
# 2 60.6157 165.7417 46.3605 25.5781 29.5369 28.4323
# 3 32.0489 46.3605 85.1420 10.8618 17.3528 14.2592
# 4 18.7154 25.5781 10.8618 34.8138 7.8860 10.2436
# 5 35.8502 29.5369 17.3528 7.8860 22.4706 -6.8485
# 6 18.7185 28.4323 14.2592 10.2436 -6.8485 37.7355
#
#
#
# Elastic Compliance Matrix: (Units=1/GPa)
#
#
# Indices 1 2 3 4 5 6 
#
# 1 0.016964 0.003244 0.003242 0.002725 -0.040963 -0.020258
# 2 0.003244 0.012074 0.000022 -0.000329 -0.025603 -0.015272
# 3 0.003242 0.000022 0.017084 0.001855 -0.022930 -0.012745
# 4 0.002725 -0.000329 0.001855 0.036887 -0.023178 -0.016025
# 5 -0.040963 -0.025603 -0.022930 -0.023178 0.196871 0.090296
# 6 -0.020258 -0.015272 -0.012745 -0.016025 0.090296 0.073610
#
#
# Mechanical properties :
#
#
# Convention : Reuss Voigt Hill
#
# Bulk Modulus (GPa) = 16.90973 75.12002 46.01488
# Shear Modulus (GPa) = 13.88164 36.27098 25.07631
#
# Velocity S-wave (km/s) = 2.44893 3.95855 3.29146
# Velocity P-wave (km/s) = 3.91176 7.30394 5.85873
#
# Compressibility (1/GPa) = 0.05913754
#
# Stress axis : x y z
#
# Youngs Moduli (GPa) = 58.94805 82.82081 58.53473
#
# Poissons Ratio (x) = -0.26864 -0.18976
# Poissons Ratio (y) = -0.19120 -0.00130
# Poissons Ratio (z) = -0.19110 -0.00184
#
# Static dielectric constant tensor:
#      x y z
#    x 1.872000 0.032040 0.041830 
#    y 0.032040 1.871180 -0.033470 
#    z 0.041830 -0.033470 1.938420 
# 
# From -- ./inp_files/80182.got.cif
#   From: 2010.05.17/outbox.cif.g08.bks.cpg/sg2_41_cif.got.tgz:80182.got - 2010.06.03 11:33:40.
