data_PCOD9102094
_publ_section_title
;
Structure prediction by ZEFSAII (Michael W. Deem and Ramdas Pophale) SiO2 
 PCOD9102094
Probable space group: P -1
;
_chemical_formula_sum "Si O2"
_cell_formula_units_Z 16
_cell_length_a 10.155071
_cell_length_b 13.212315
_cell_length_c 14.298894
_cell_angle_alpha 147.424754
_cell_angle_beta 126.008299
_cell_angle_gamma 41.165139
_cell_volume 674.039303
_symmetry_space_group_name_H-M "P -1"
_symmetry_group_IT_number 2
_symmetry_cell_setting 'triclinic'
loop_
_space_group_symop_operation_xyz
x,y,z
-x,-y,-z
loop_
_atom_site_type_symbol
_atom_site_label
_atom_site_fract_x
_atom_site_fract_y
_atom_site_fract_z
Si Si1 0.174640 0.149969 0.956079
Si Si2 0.918242 0.345936 0.718312
Si Si3 0.450302 0.836414 0.174754
Si Si4 0.244027 0.680148 0.168816
Si Si5 0.439130 0.074222 0.171777
Si Si6 0.040170 0.281009 0.407439
Si Si7 0.273347 0.091637 0.544730
Si Si8 0.279428 0.584186 0.497708
O O1 0.958999 0.204802 0.888701
O O2 0.351017 0.989702 0.830850
O O3 0.136285 0.399157 0.120252
O O4 0.303539 0.040098 0.019072
O O5 0.828657 0.345634 0.779493
O O6 0.831682 0.296264 0.553072
O O7 0.152871 0.168013 0.653590
O O8 0.547708 0.888617 0.341112
O O9 0.488804 0.925208 0.166377
O O10 0.209249 0.028123 0.236066
O O11 0.574141 0.560573 0.991248
O O12 0.308981 0.850370 0.345294
O O13 0.301147 0.347775 0.342443
O O14 0.135046 0.267737 0.539550
O O15 0.000000 0.500000 0.500000
O O16 0.846590 0.284659 0.359432
O O17 0.500000 0.500000 0.500000
#
# Coordination Sequence:
#
# PCOD9102094 Si02
#       8
#     2   2   2   2   2   2   2   2
#     4  10  20  38  62 102 145 184 239 290 353 425
#     4  10  20  39  64 102 142 184 234 291 358 412
#     4  12  24  45  73  97 149 191 235 285 365 437
#     4  12  24  40  70 105 152 181 235 300 360 425
#     4  10  21  37  67 100 136 199 232 288 363 416
#     4  11  25  48  72 101 141 195 241 288 365 431
#     4  11  26  43  69 106 137 193 239 290 356 425
#     4  10  23  40  69 107 140 177 246 305 347 419
#
# _framework density 23.737490000000001
#
# number of rings (size 3 to 8) (size 9 to 14) (size 15 to 20)
#    0.000    1.250    3.750    1.875    5.250    0.500 
#    0.000    1.250    0.000    4.500    0.000    0.000 
#    0.000    0.000    0.000    0.000    0.000    0.000 
#
# Total GULP energy -89241.806700 kJ/mol
# GULP energy per Si atom -5577.612919 kJ/mol
# Density = 2.368346 g / cm^3
# Si number density = 23.737490 Si / 1000 Ang^3
#
#
#
# Elastic Constant Matrix: (Units=GPa)
#
#
# Indices 1 2 3 4 5 6 
#
# 1 140.8132 69.5987 51.0162 -0.0633 -18.0435 -9.0298
# 2 69.5987 103.1251 56.1917 11.1538 -9.5529 3.2089
# 3 51.0162 56.1917 101.5524 30.0130 -14.2020 0.9191
# 4 -0.0633 11.1538 30.0130 37.0053 -5.7501 -12.4137
# 5 -18.0435 -9.5529 -14.2020 -5.7501 25.9921 8.9776
# 6 -9.0298 3.2089 0.9191 -12.4137 8.9776 49.1850
#
#
#
# Elastic Compliance Matrix: (Units=1/GPa)
#
#
# Indices 1 2 3 4 5 6 
#
# 1 0.012906 -0.006881 -0.004374 0.007675 0.004341 0.004045
# 2 -0.006881 0.017795 -0.006087 -0.001431 -0.001021 -0.002485
# 3 -0.004374 -0.006087 0.020941 -0.016385 0.004533 -0.005760
# 4 0.007675 -0.001431 -0.016385 0.045332 0.001389 0.012996
# 5 0.004341 -0.001021 0.004533 0.001389 0.046433 -0.007346
# 6 0.004045 -0.002485 -0.005760 0.012996 -0.007346 0.025965
#
#
# Mechanical properties :
#
#
# Convention : Reuss Voigt Hill
#
# Bulk Modulus (GPa) = 58.96773 77.67820 68.32297
# Shear Modulus (GPa) = 23.84237 33.68209 28.76223
#
# Velocity S-wave (km/s) = 3.17269 3.77097 3.48470
# Velocity P-wave (km/s) = 6.19006 7.19411 6.71089
#
# Compressibility (1/GPa) = 0.01695843
#
# Stress axis : x y z
#
# Youngs Moduli (GPa) = 77.48069 56.19458 47.75244
#
# Poissons Ratio (x) = 0.38667 0.20887
# Poissons Ratio (y) = 0.53314 0.29068
# Poissons Ratio (z) = 0.33891 0.34207
#
# Static dielectric constant tensor:
#      x y z
#    x 2.053980 -0.097050 -0.013810 
#    y -0.097050 1.932530 0.017180 
#    z -0.013810 0.017180 1.987260 
# 
# From -- ./inp_files/522674.got.cif
#   From: 2010.05.17/outbox.cif.g08.bks.cpg/sg2_262_cif.got.tgz:522674.got - 2010.06.03 11:33:40.
