data_PCOD9102345
_publ_section_title
;
Structure prediction by ZEFSAII (Michael W. Deem and Ramdas Pophale) SiO2 
 PCOD9102345
Probable space group: P -1
;
_chemical_formula_sum "Si O2"
_cell_formula_units_Z 12
_cell_length_a 10.647785
_cell_length_b 13.105328
_cell_length_c 11.089785
_cell_angle_alpha 38.597049
_cell_angle_beta 77.963763
_cell_angle_gamma 48.449209
_cell_volume 540.398101
_symmetry_space_group_name_H-M "P -1"
_symmetry_group_IT_number 2
_symmetry_cell_setting 'triclinic'
loop_
_space_group_symop_operation_xyz
x,y,z
-x,-y,-z
loop_
_atom_site_type_symbol
_atom_site_label
_atom_site_fract_x
_atom_site_fract_y
_atom_site_fract_z
Si Si1 0.863802 0.471904 0.066181
Si Si2 0.558094 0.244456 0.224311
Si Si3 0.032486 0.656131 0.563783
Si Si4 0.705436 0.908390 0.018871
Si Si5 0.710419 0.101809 0.586853
Si Si6 0.429308 0.452344 0.661893
O O1 0.841803 0.479654 0.205871
O O2 0.629080 0.680869 0.859508
O O3 0.029325 0.166684 0.254742
O O4 0.000000 0.500000 0.000000
O O5 0.593429 0.159602 0.436040
O O6 0.500000 0.500000 0.000000
O O7 0.785708 0.972949 0.353786
O O8 0.201484 0.606111 0.514256
O O9 0.070281 0.435604 0.705427
O O10 0.689168 0.012712 0.793845
O O11 0.644078 0.108488 0.946038
O O12 0.500000 0.000000 0.000000
O O13 0.625290 0.373501 0.377188
O O14 0.500000 0.500000 0.500000
#
# Coordination Sequence:
#
# PCOD9102345 Si02
#       6
#     2   2   2   2   2   2
#     4  11  22  39  63  95 126 164 204 260 327 375
#     4  11  24  38  64  97 130 164 209 263 318 381
#     4  10  20  38  62  92 127 160 213 260 318 374
#     4   9  18  36  62  90 120 169 206 257 316 364
#     4  10  20  38  62  93 123 163 209 256 317 377
#     4   9  18  34  64  87 121 171 205 253 314 366
#
# _framework density 22.205853000000001
#
# number of rings (size 3 to 8) (size 9 to 14) (size 15 to 20)
#    0.000    2.000    1.667    2.000    0.000    5.333 
#    0.000    0.000    0.000   80.000    0.000    0.000 
#    0.000    0.000    0.000    0.000    0.000    0.000 
#
# Total GULP energy -66866.663894 kJ/mol
# GULP energy per Si atom -5572.221991 kJ/mol
# Density = 2.215531 g / cm^3
# Si number density = 22.205853 Si / 1000 Ang^3
#
#
#
# Elastic Constant Matrix: (Units=GPa)
#
#
# Indices 1 2 3 4 5 6 
#
# 1 105.4015 24.1395 47.4840 -19.9485 1.3547 2.4135
# 2 24.1395 94.2718 41.9961 -49.2029 -8.8505 13.1591
# 3 47.4840 41.9961 84.2551 -43.5855 -0.2394 16.6087
# 4 -19.9485 -49.2029 -43.5855 56.5286 7.8536 -16.1070
# 5 1.3547 -8.8505 -0.2394 7.8536 39.4969 -2.7603
# 6 2.4135 13.1591 16.6087 -16.1070 -2.7603 21.4324
#
#
#
# Elastic Compliance Matrix: (Units=1/GPa)
#
#
# Indices 1 2 3 4 5 6 
#
# 1 0.013227 -0.000983 -0.008681 -0.001536 -0.000094 0.004674
# 2 -0.000983 0.019735 -0.001208 0.016043 0.001340 0.001160
# 3 -0.008681 -0.001208 0.026411 0.014301 -0.003245 -0.008418
# 4 -0.001536 0.016043 0.014301 0.046691 -0.004590 0.013739
# 5 -0.000094 0.001340 -0.003245 -0.004590 0.026632 0.001683
# 6 0.004674 0.001160 -0.008418 0.013739 0.001683 0.062485
#
#
# Mechanical properties :
#
#
# Convention : Reuss Voigt Hill
#
# Bulk Modulus (GPa) = 26.57491 56.79638 41.68564
# Shear Modulus (GPa) = 21.78950 34.84551 28.31750
#
# Velocity S-wave (km/s) = 3.13589 3.96562 3.57491
# Velocity P-wave (km/s) = 5.01051 6.82648 5.98774
#
# Compressibility (1/GPa) = 0.03762948
#
# Stress axis : x y z
#
# Youngs Moduli (GPa) = 75.60423 50.67199 37.86244
#
# Poissons Ratio (x) = 0.04980 0.32867
# Poissons Ratio (y) = 0.07431 0.04575
# Poissons Ratio (z) = 0.65629 0.06123
#
# Static dielectric constant tensor:
#      x y z
#    x 1.922210 -0.043630 -0.074980 
#    y -0.043630 1.968480 -0.011060 
#    z -0.074980 -0.011060 1.906090 
# 
# From -- ./inp_files/74011.got.cif
#   From: 2010.05.17/outbox.cif.g08.bks.cpg/sg2_38_cif.got.tgz:74011.got - 2010.06.03 11:33:40.
