data_PCOD9102661
_publ_section_title
;
Structure prediction by ZEFSAII (Michael W. Deem and Ramdas Pophale) SiO2 
 PCOD9102661
Probable space group: P -1
;
_chemical_formula_sum "Si O2"
_cell_formula_units_Z 12
_cell_length_a 5.129929
_cell_length_b 11.441137
_cell_length_c 20.084628
_cell_angle_alpha 151.457293
_cell_angle_beta 96.525576
_cell_angle_gamma 92.610369
_cell_volume 532.716400
_symmetry_space_group_name_H-M "P -1"
_symmetry_group_IT_number 2
_symmetry_cell_setting 'triclinic'
loop_
_space_group_symop_operation_xyz
x,y,z
-x,-y,-z
loop_
_atom_site_type_symbol
_atom_site_label
_atom_site_fract_x
_atom_site_fract_y
_atom_site_fract_z
Si Si1 0.819498 0.764080 0.334925
Si Si2 0.472452 0.230453 0.070323
Si Si3 0.786459 0.547859 0.570437
Si Si4 0.969377 0.357247 0.062744
Si Si5 0.584099 0.006582 0.334297
Si Si6 0.012839 0.910539 0.194764
O O1 0.640210 0.513836 0.245383
O O2 0.007564 0.641968 0.233429
O O3 0.623439 0.855566 0.324920
O O4 0.000000 0.000000 0.500000
O O5 0.645769 0.225933 0.005161
O O6 0.167211 0.235063 0.048936
O O7 0.500000 0.000000 0.000000
O O8 0.500000 0.500000 0.500000
O O9 0.000000 0.500000 0.500000
O O10 0.906273 0.851517 0.737713
O O11 0.725246 0.315061 0.504392
O O12 0.034813 0.333926 0.976221
O O13 0.277804 0.957340 0.273204
O O14 0.758343 0.924011 0.238949
#
# Coordination Sequence:
#
# PCOD9102661 Si02
#       6
#     2   2   2   2   2   2
#     4  10  26  44  64  94 131 172 220 261 315 383
#     4  10  23  45  65  93 128 165 220 262 317 378
#     4   8  16  32  53  83 121 159 197 241 304 375
#     4  10  23  41  68  95 126 165 218 263 321 378
#     4  10  21  37  61  92 128 168 202 260 321 375
#     4  10  20  38  63  94 129 158 209 261 321 379
#
# _framework density 22.526060000000001
#
# number of rings (size 3 to 8) (size 9 to 14) (size 15 to 20)
#    1.000    1.333    0.000    1.500    2.333    3.333 
#    0.000    3.333    0.000    0.000    0.000    0.000 
#    0.000    0.000    0.000    0.000    0.000    0.000 
#
# Total GULP energy -66927.558089 kJ/mol
# GULP energy per Si atom -5577.296507 kJ/mol
# Density = 2.247479 g / cm^3
# Si number density = 22.526060 Si / 1000 Ang^3
#
#
#
# Elastic Constant Matrix: (Units=GPa)
#
#
# Indices 1 2 3 4 5 6 
#
# 1 97.5906 2.7925 -7.3202 9.4400 -3.7761 -17.1060
# 2 2.7925 105.7104 40.3781 38.2402 -1.5722 -19.2628
# 3 -7.3202 40.3781 106.3551 13.3666 -1.1594 -3.0249
# 4 9.4400 38.2402 13.3666 27.4115 0.1371 -2.2856
# 5 -3.7761 -1.5722 -1.1594 0.1371 18.8532 3.5553
# 6 -17.1060 -19.2628 -3.0249 -2.2856 3.5553 33.3257
#
#
#
# Elastic Compliance Matrix: (Units=1/GPa)
#
#
# Indices 1 2 3 4 5 6 
#
# 1 0.012765 0.004947 0.000630 -0.010897 0.001472 0.008564
# 2 0.004947 0.026778 -0.004945 -0.035390 0.000328 0.015106
# 3 0.000630 -0.004945 0.011147 0.001116 0.000678 -0.001519
# 4 -0.010897 -0.035390 0.001116 0.087425 -0.001978 -0.019741
# 5 0.001472 0.000328 0.000678 -0.001978 0.054349 -0.004927
# 6 0.008564 0.015106 -0.001519 -0.019741 -0.004927 0.042168
#
#
# Mechanical properties :
#
#
# Convention : Reuss Voigt Hill
#
# Bulk Modulus (GPa) = 19.24817 42.37299 30.81058
# Shear Modulus (GPa) = 19.94533 34.17181 27.05857
#
# Velocity S-wave (km/s) = 2.97885 3.89908 3.46961
# Velocity P-wave (km/s) = 4.51606 6.25475 5.45512
#
# Compressibility (1/GPa) = 0.05195298
#
# Stress axis : x y z
#
# Youngs Moduli (GPa) = 78.34051 37.34454 89.70975
#
# Poissons Ratio (x) = -0.18473 -0.05649
# Poissons Ratio (y) = -0.38753 0.44359
# Poissons Ratio (z) = -0.04933 0.18466
#
# Static dielectric constant tensor:
#      x y z
#    x 1.816720 0.041510 0.000310 
#    y 0.041510 1.876340 0.093750 
#    z 0.000310 0.093750 1.900000 
# 
# From -- ./inp_files/81798.got.cif
#   From: 2010.05.17/outbox.cif.g08.bks.cpg/sg2_41_cif.got.tgz:81798.got - 2010.06.03 11:33:40.
