data_PCOD9102592
_publ_section_title
;
Structure prediction by ZEFSAII (Michael W. Deem and Ramdas Pophale) SiO2 
 PCOD9102592
Probable space group: P -1
;
_chemical_formula_sum "Si O2"
_cell_formula_units_Z 14
_cell_length_a 4.803374
_cell_length_b 9.488415
_cell_length_c 16.258079
_cell_angle_alpha 132.377659
_cell_angle_beta 76.213504
_cell_angle_gamma 91.674050
_cell_volume 522.615852
_symmetry_space_group_name_H-M "P -1"
_symmetry_group_IT_number 2
_symmetry_cell_setting 'triclinic'
loop_
_space_group_symop_operation_xyz
x,y,z
-x,-y,-z
loop_
_atom_site_type_symbol
_atom_site_label
_atom_site_fract_x
_atom_site_fract_y
_atom_site_fract_z
Si Si1 0.734634 0.819850 0.874728
Si Si2 0.530550 0.248916 0.733877
Si Si3 0.639607 0.171719 0.236553
Si Si4 0.442522 0.805112 0.560300
Si Si5 0.028405 0.776401 0.440488
Si Si6 0.572463 0.241226 0.908590
Si Si7 0.021156 0.603631 0.931487
O O1 0.546462 0.720579 0.783467
O O2 0.541318 0.962383 0.157203
O O3 0.018971 0.854260 0.817255
O O4 0.500000 0.000000 0.000000
O O5 0.237026 0.405522 0.819779
O O6 0.742952 0.317698 0.679889
O O7 0.453253 0.035640 0.641767
O O8 0.689225 0.233486 0.804873
O O9 0.563046 0.247324 0.364002
O O10 0.115369 0.295059 0.102215
O O11 0.721483 0.710955 0.448569
O O12 0.161118 0.765587 0.517828
O O13 0.000000 0.000000 0.500000
O O14 0.785782 0.273320 0.979419
O O15 0.271878 0.398677 0.996569
#
# Coordination Sequence:
#
# PCOD9102592 Si02
#       7
#     2   2   2   2   2   2   2
#     4  12  24  40  62  88 123 165 212 250 291 357
#     4  10  23  40  62  91 129 161 200 247 311 369
#     4  11  23  40  65  87 121 159 209 257 299 350
#     4  10  22  40  66  92 117 157 203 256 310 354
#     4  10  20  38  63  92 120 154 203 254 303 364
#     4  11  24  38  60  89 125 167 201 244 303 367
#     4  12  25  39  58  89 130 169 200 245 303 366
#
# _framework density 26.788318
#
# number of rings (size 3 to 8) (size 9 to 14) (size 15 to 20)
#    0.000    1.143    1.429    5.571    0.000   10.286 
#    0.000    0.000    0.000    5.143    0.000    0.000 
#    0.000    0.000    0.000    0.000    0.000    0.000 
#
# Total GULP energy -78479.281957 kJ/mol
# GULP energy per Si atom -5605.662997 kJ/mol
# Density = 2.672735 g / cm^3
# Si number density = 26.788318 Si / 1000 Ang^3
#
#
#
# Elastic Constant Matrix: (Units=GPa)
#
#
# Indices 1 2 3 4 5 6 
#
# 1 171.8902 16.2493 52.1777 -13.7129 -15.2170 -2.5600
# 2 16.2493 54.2603 38.7159 -16.9475 -14.8396 -16.2140
# 3 52.1777 38.7159 140.9648 -43.4673 -15.7369 -8.3366
# 4 -13.7129 -16.9475 -43.4673 39.8902 4.6798 7.2032
# 5 -15.2170 -14.8396 -15.7369 4.6798 49.3443 -8.5586
# 6 -2.5600 -16.2140 -8.3366 7.2032 -8.5586 39.5392
#
#
#
# Elastic Compliance Matrix: (Units=1/GPa)
#
#
# Indices 1 2 3 4 5 6 
#
# 1 0.006648 0.000086 -0.002502 -0.000633 0.001400 0.000357
# 2 0.000086 0.029386 -0.005309 0.003466 0.008966 0.012246
# 3 -0.002502 -0.005309 0.012866 0.011139 0.000407 -0.001568
# 4 -0.000633 0.003466 0.011139 0.039056 0.000113 -0.003362
# 5 0.001400 0.008966 0.000407 0.000113 0.025121 0.009270
# 6 0.000357 0.012246 -0.001568 -0.003362 0.009270 0.032625
#
#
# Mechanical properties :
#
#
# Convention : Reuss Voigt Hill
#
# Bulk Modulus (GPa) = 29.89546 64.60013 47.24779
# Shear Modulus (GPa) = 29.01911 43.08622 36.05266
#
# Velocity S-wave (km/s) = 3.29488 4.01483 3.67254
# Velocity P-wave (km/s) = 5.06548 6.75716 5.97153
#
# Compressibility (1/GPa) = 0.03344989
#
# Stress axis : x y z
#
# Youngs Moduli (GPa) = 150.42566 34.02997 77.72585
#
# Poissons Ratio (x) = -0.00293 0.19449
# Poissons Ratio (y) = -0.01297 0.41262
# Poissons Ratio (z) = 0.37641 0.18065
#
# Static dielectric constant tensor:
#      x y z
#    x 2.044480 0.001340 -0.025590 
#    y 0.001340 2.259030 0.028050 
#    z -0.025590 0.028050 2.136300 
# 
# From -- ./inp_files/481714.got.cif
#   From: 2010.05.17/outbox.cif.g08.bks.cpg/sg2_241_cif.got.tgz:481714.got - 2010.06.03 11:33:40.
