data_PCOD9102115
_publ_section_title
;
Structure prediction by ZEFSAII (Michael W. Deem and Ramdas Pophale) SiO2 
 PCOD9102115
Probable space group: P -1
;
_chemical_formula_sum "Si O2"
_cell_formula_units_Z 16
_cell_length_a 25.625209
_cell_length_b 8.385758
_cell_length_c 7.149929
_cell_angle_alpha 102.179498
_cell_angle_beta 48.148210
_cell_angle_gamma 136.429468
_cell_volume 668.585671
_symmetry_space_group_name_H-M "P -1"
_symmetry_group_IT_number 2
_symmetry_cell_setting 'triclinic'
loop_
_space_group_symop_operation_xyz
x,y,z
-x,-y,-z
loop_
_atom_site_type_symbol
_atom_site_label
_atom_site_fract_x
_atom_site_fract_y
_atom_site_fract_z
Si Si1 0.478201 0.329632 0.736900
Si Si2 0.751782 0.848148 0.090028
Si Si3 0.498179 0.030382 0.791417
Si Si4 0.772644 0.161707 0.393172
Si Si5 0.948866 0.727911 0.999977
Si Si6 0.236545 0.412966 0.754056
Si Si7 0.463777 0.230432 0.340677
Si Si8 0.797802 0.923944 0.562785
O O1 0.619722 0.593601 0.431458
O O2 0.446939 0.106447 0.866384
O O3 0.420398 0.212921 0.641973
O O4 0.465087 0.494720 0.870267
O O5 0.807221 0.788457 0.029593
O O6 0.809258 0.111441 0.120122
O O7 0.759522 0.858924 0.852819
O O8 0.631052 0.279990 0.459152
O O9 0.455721 0.769722 0.778996
O O10 0.500000 0.000000 0.000000
O O11 0.869212 0.479972 0.276067
O O12 0.762228 0.020190 0.557624
O O13 0.650456 0.009829 0.573119
O O14 0.850355 0.597020 0.054285
O O15 0.060593 0.828651 0.709410
O O16 0.000000 0.000000 0.000000
O O17 0.240857 0.306553 0.528014
#
# Coordination Sequence:
#
# PCOD9102115 Si02
#       8
#     2   2   2   2   2   2   2   2
#     4   9  21  40  59  87 123 160 198 244 301 351
#     4   9  20  38  61  85 116 157 196 244 295 349
#     4  11  22  37  61  91 120 161 199 244 300 360
#     4  10  20  40  59  85 119 154 195 246 298 351
#     4  10  20  38  62  84 120 155 191 245 304 351
#     4   9  20  40  57  84 124 151 193 247 299 349
#     4  10  20  40  61  83 123 160 196 244 300 352
#     4  10  21  37  63  86 112 157 199 247 295 353
#
# _framework density 23.931115999999999
#
# number of rings (size 3 to 8) (size 9 to 14) (size 15 to 20)
#    0.000    2.250    1.250    1.500    1.750    1.500 
#    6.750    2.500    0.000    0.000    0.000    0.000 
#    0.000    0.000    0.000    0.000    0.000    0.000 
#
# Total GULP energy -89162.370631 kJ/mol
# GULP energy per Si atom -5572.648164 kJ/mol
# Density = 2.387665 g / cm^3
# Si number density = 23.931116 Si / 1000 Ang^3
#
#
#
# Elastic Constant Matrix: (Units=GPa)
#
#
# Indices 1 2 3 4 5 6 
#
# 1 149.6034 26.9219 32.6563 -14.7129 20.9385 -39.5374
# 2 26.9219 86.9975 34.5036 -17.5990 16.4952 -27.7636
# 3 32.6563 34.5036 70.4999 -6.6046 26.4847 -2.0087
# 4 -14.7129 -17.5990 -6.6046 26.7343 5.6940 7.2966
# 5 20.9385 16.4952 26.4847 5.6940 37.7824 -10.0011
# 6 -39.5374 -27.7636 -2.0087 7.2966 -10.0011 47.1274
#
#
#
# Elastic Compliance Matrix: (Units=1/GPa)
#
#
# Indices 1 2 3 4 5 6 
#
# 1 0.010287 0.002807 -0.004807 0.004238 -0.001802 0.009040
# 2 0.002807 0.020608 -0.009174 0.010088 -0.002460 0.012021
# 3 -0.004807 -0.009174 0.027191 0.004960 -0.016458 -0.012539
# 4 0.004238 0.010088 0.004960 0.052233 -0.018724 -0.002351
# 5 -0.001802 -0.002460 -0.016458 -0.018724 0.045238 0.008836
# 6 0.009040 0.012021 -0.012539 -0.002351 0.008836 0.037590
#
#
# Mechanical properties :
#
#
# Convention : Reuss Voigt Hill
#
# Bulk Modulus (GPa) = 27.98178 55.02938 41.50558
# Shear Modulus (GPa) = 21.98698 36.53008 29.25853
#
# Velocity S-wave (km/s) = 3.03440 3.91124 3.50038
# Velocity P-wave (km/s) = 4.89844 6.59105 5.80675
#
# Compressibility (1/GPa) = 0.03573755
#
# Stress axis : x y z
#
# Youngs Moduli (GPa) = 97.21254 48.52538 36.77641
#
# Poissons Ratio (x) = -0.13623 0.17679
# Poissons Ratio (y) = -0.27292 0.33740
# Poissons Ratio (z) = 0.46732 0.44519
#
# Static dielectric constant tensor:
#      x y z
#    x 2.086720 -0.162890 -0.141230 
#    y -0.162890 2.186800 0.183980 
#    z -0.141230 0.183980 2.056740 
# 
# From -- ./inp_files/126469.got.cif
#   From: 2010.05.17/outbox.cif.g08.bks.cpg/sg2_64_cif.got.tgz:126469.got - 2010.06.03 11:33:40.
