data_PCOD9102894
_publ_section_title
;
Structure prediction by ZEFSAII (Michael W. Deem and Ramdas Pophale) SiO2 
 PCOD9102894
Probable space group: P -1
;
_chemical_formula_sum "Si O2"
_cell_formula_units_Z 16
_cell_length_a 5.942430
_cell_length_b 21.590061
_cell_length_c 16.780726
_cell_angle_alpha 160.945861
_cell_angle_beta 94.933238
_cell_angle_gamma 80.847587
_cell_volume 679.927002
_symmetry_space_group_name_H-M "P -1"
_symmetry_group_IT_number 2
_symmetry_cell_setting 'triclinic'
loop_
_space_group_symop_operation_xyz
x,y,z
-x,-y,-z
loop_
_atom_site_type_symbol
_atom_site_label
_atom_site_fract_x
_atom_site_fract_y
_atom_site_fract_z
Si Si1 0.553226 0.393980 0.195653
Si Si2 0.212273 0.380365 0.043041
Si Si3 0.813401 0.690260 0.493584
Si Si4 0.143332 0.591021 0.050740
Si Si5 0.601530 0.331224 0.703909
Si Si6 0.192875 0.744712 0.676683
Si Si7 0.357766 0.950451 0.778348
Si Si8 0.957435 0.297554 0.215948
O O1 0.399261 0.287054 0.003543
O O2 0.648310 0.541694 0.320069
O O3 0.370618 0.533976 0.418346
O O4 0.781145 0.305631 0.146536
O O5 0.346768 0.470979 0.090190
O O6 0.039700 0.570675 0.309110
O O7 0.027502 0.291683 0.879850
O O8 0.636774 0.889602 0.704756
O O9 0.932951 0.734715 0.632243
O O10 0.287239 0.706667 0.251138
O O11 0.323598 0.400058 0.787768
O O12 0.000000 0.500000 0.000000
O O13 0.703840 0.161678 0.438074
O O14 0.287702 0.869104 0.762945
O O15 0.161177 0.798841 0.833271
O O16 0.207973 0.168904 0.040651
O O17 0.000000 0.500000 0.500000
#
# Coordination Sequence:
#
# PCOD9102894 Si02
#       8
#     2   2   2   2   2   2   2   2
#     4  10  20  36  59  78 118 157 200 244 296 362
#     4  10  16  32  58  87 119 151 191 240 302 356
#     4  10  17  35  59  82 110 155 201 242 299 348
#     4   9  18  28  56  93 124 145 188 250 295 360
#     4  10  17  32  55  92 120 150 195 246 298 352
#     4  10  21  41  61  80 114 159 206 257 297 350
#     4  11  22  38  61  85 120 161 200 252 297 355
#     4  12  25  41  56  85 123 161 208 254 299 348
#
# _framework density 23.531939999999999
#
# number of rings (size 3 to 8) (size 9 to 14) (size 15 to 20)
#    0.000    1.750    6.250    0.750    0.000    0.500 
#    4.500    0.000    0.000    0.750    0.000   12.250 
#    0.000    4.000    0.000    0.000    0.000    0.125 
#
# Total GULP energy -89098.012316 kJ/mol
# GULP energy per Si atom -5568.625770 kJ/mol
# Density = 2.347838 g / cm^3
# Si number density = 23.531940 Si / 1000 Ang^3
#
#
#
# Elastic Constant Matrix: (Units=GPa)
#
#
# Indices 1 2 3 4 5 6 
#
# 1 75.4243 34.1951 14.1038 0.5313 -14.9814 -18.4525
# 2 34.1951 105.9975 30.2071 -17.9208 0.9080 -32.9225
# 3 14.1038 30.2071 67.6275 -8.3031 -17.5634 11.6679
# 4 0.5313 -17.9208 -8.3031 23.3505 -2.9356 -8.7748
# 5 -14.9814 0.9080 -17.5634 -2.9356 38.4774 -7.5957
# 6 -18.4525 -32.9225 11.6679 -8.7748 -7.5957 51.5526
#
#
#
# Elastic Compliance Matrix: (Units=1/GPa)
#
#
# Indices 1 2 3 4 5 6 
#
# 1 0.018096 -0.004455 -0.000788 -0.001390 0.007612 0.004695
# 2 -0.004455 0.023531 -0.010737 0.021350 -0.001765 0.019237
# 3 -0.000788 -0.010737 0.023480 -0.003302 0.008078 -0.011825
# 4 -0.001390 0.021350 -0.003302 0.069162 0.008023 0.026838
# 5 0.007612 -0.001765 0.008078 0.008023 0.034522 0.006221
# 6 0.004695 0.019237 -0.011825 0.026838 0.006221 0.041524
#
#
# Mechanical properties :
#
#
# Convention : Reuss Voigt Hill
#
# Bulk Modulus (GPa) = 30.16928 45.11795 37.64362
# Shear Modulus (GPa) = 19.73747 34.04568 26.89158
#
# Velocity S-wave (km/s) = 2.89926 3.80779 3.38415
# Velocity P-wave (km/s) = 4.90470 6.20863 5.59478
#
# Compressibility (1/GPa) = 0.03314630
#
# Stress axis : x y z
#
# Youngs Moduli (GPa) = 55.26099 42.49740 42.58941
#
# Poissons Ratio (x) = 0.18933 0.03355
# Poissons Ratio (y) = 0.24619 0.45730
# Poissons Ratio (z) = 0.04353 0.45631
#
# Static dielectric constant tensor:
#      x y z
#    x 1.978300 -0.041590 0.050200 
#    y -0.041590 1.999480 0.016040 
#    z 0.050200 0.016040 1.930400 
# 
# From -- ./inp_files/551277.got.cif
#   From: 2010.05.17/outbox.cif.g08.bks.cpg/sg2_276_cif.got.tgz:551277.got - 2010.06.03 11:33:40.
