data_PCOD9102071
_publ_section_title
;
Structure prediction by ZEFSAII (Michael W. Deem and Ramdas Pophale) SiO2 
 PCOD9102071
Probable space group: P -1
;
_chemical_formula_sum "Si O2"
_cell_formula_units_Z 16
_cell_length_a 8.593429
_cell_length_b 20.322952
_cell_length_c 9.778422
_cell_angle_alpha 144.103907
_cell_angle_beta 73.813826
_cell_angle_gamma 128.075507
_cell_volume 692.143682
_symmetry_space_group_name_H-M "P -1"
_symmetry_group_IT_number 2
_symmetry_cell_setting 'triclinic'
loop_
_space_group_symop_operation_xyz
x,y,z
-x,-y,-z
loop_
_atom_site_type_symbol
_atom_site_label
_atom_site_fract_x
_atom_site_fract_y
_atom_site_fract_z
Si Si1 0.769936 0.561673 0.948674
Si Si2 0.849319 0.035145 0.062632
Si Si3 0.108364 0.929120 0.178455
Si Si4 0.262472 0.209543 0.735481
Si Si5 0.093836 0.720101 0.379867
Si Si6 0.812553 0.265348 0.080281
Si Si7 0.666154 0.276699 0.412061
Si Si8 0.455502 0.845988 0.278971
O O1 0.662081 0.632144 0.067675
O O2 0.862395 0.596410 0.141135
O O3 0.623922 0.384515 0.646505
O O4 0.977704 0.647311 0.929447
O O5 0.582467 0.893690 0.849408
O O6 0.963436 0.137888 0.068532
O O7 0.871508 0.133056 0.345429
O O8 0.000000 0.000000 0.000000
O O9 0.932207 0.851679 0.213251
O O10 0.194386 0.098376 0.437144
O O11 0.261361 0.897854 0.134260
O O12 0.385702 0.172753 0.731354
O O13 0.181868 0.701615 0.465416
O O14 0.262132 0.755716 0.285662
O O15 0.820625 0.334148 0.336456
O O16 0.623504 0.233591 0.983236
O O17 0.500000 0.000000 0.500000
#
# Coordination Sequence:
#
# PCOD9102071 Si02
#       8
#     2   2   2   2   2   2   2   2
#     4  10  24  45  67  99 136 182 219 268 339 410
#     4  12  26  40  64 101 137 173 225 276 338 388
#     4  10  20  38  61  95 128 171 216 282 326 380
#     4  10  21  38  66  93 135 171 223 273 331 389
#     4  11  24  43  69 101 133 173 231 276 329 397
#     4  10  21  39  67  96 128 172 228 274 325 393
#     4  12  24  44  68  97 142 178 218 276 338 398
#     4  11  21  36  65  99 127 171 225 277 326 388
#
# _framework density 23.116589000000001
#
# number of rings (size 3 to 8) (size 9 to 14) (size 15 to 20)
#    0.000    1.250    2.500    3.375    5.250    0.000 
#    0.000    8.750    0.000    0.000    0.000    0.000 
#    0.000    0.000    0.000    0.000    0.000    0.000 
#
# Total GULP energy -89068.787510 kJ/mol
# GULP energy per Si atom -5566.799219 kJ/mol
# Density = 2.306397 g / cm^3
# Si number density = 23.116589 Si / 1000 Ang^3
#
#
#
# Elastic Constant Matrix: (Units=GPa)
#
#
# Indices 1 2 3 4 5 6 
#
# 1 119.5308 24.0570 43.1621 -9.8139 -18.0391 -20.3119
# 2 24.0570 74.5265 26.5566 -29.9943 11.1921 -7.5713
# 3 43.1621 26.5566 124.8996 -13.7769 -16.0087 -8.8452
# 4 -9.8139 -29.9943 -13.7769 39.0810 -10.8631 4.4471
# 5 -18.0391 11.1921 -16.0087 -10.8631 35.6189 -1.4556
# 6 -20.3119 -7.5713 -8.8452 4.4471 -1.4556 34.9568
#
#
#
# Elastic Compliance Matrix: (Units=1/GPa)
#
#
# Indices 1 2 3 4 5 6 
#
# 1 0.011784 -0.003037 -0.002057 0.001066 0.006560 0.005807
# 2 -0.003037 0.021575 -0.002759 0.013260 -0.005501 0.000294
# 3 -0.002057 -0.002759 0.010280 0.002350 0.005192 0.000726
# 4 0.001066 0.013260 0.002350 0.039557 0.009471 -0.000552
# 5 0.006560 -0.005501 0.005192 0.009471 0.038525 0.004333
# 6 0.005807 0.000294 0.000726 -0.000552 0.004333 0.032479
#
#
# Mechanical properties :
#
#
# Convention : Reuss Voigt Hill
#
# Bulk Modulus (GPa) = 35.80147 56.27872 46.04010
# Shear Modulus (GPa) = 27.89911 36.94341 32.42126
#
# Velocity S-wave (km/s) = 3.47780 4.00200 3.74907
# Velocity P-wave (km/s) = 5.62563 6.76411 6.22097
#
# Compressibility (1/GPa) = 0.02793181
#
# Stress axis : x y z
#
# Youngs Moduli (GPa) = 84.85796 46.35092 97.27570
#
# Poissons Ratio (x) = 0.14079 0.20009
# Poissons Ratio (y) = 0.25775 0.26841
# Poissons Ratio (z) = 0.17455 0.12790
#
# Static dielectric constant tensor:
#      x y z
#    x 1.821570 0.020670 0.056410 
#    y 0.020670 1.915530 0.063460 
#    z 0.056410 0.063460 1.946410 
# 
# From -- ./inp_files/218872.got.cif
#   From: 2010.05.17/outbox.cif.g08.bks.cpg/sg2_110_cif.got.tgz:218872.got - 2010.06.03 11:33:40.
