data_PCOD9102091
_publ_section_title
;
Structure prediction by ZEFSAII (Michael W. Deem and Ramdas Pophale) SiO2 
 PCOD9102091
Probable space group: P -1
;
_chemical_formula_sum "Si O2"
_cell_formula_units_Z 16
_cell_length_a 10.823249
_cell_length_b 12.882737
_cell_length_c 9.626634
_cell_angle_alpha 96.220837
_cell_angle_beta 44.286335
_cell_angle_gamma 68.031122
_cell_volume 707.481595
_symmetry_space_group_name_H-M "P -1"
_symmetry_group_IT_number 2
_symmetry_cell_setting 'triclinic'
loop_
_space_group_symop_operation_xyz
x,y,z
-x,-y,-z
loop_
_atom_site_type_symbol
_atom_site_label
_atom_site_fract_x
_atom_site_fract_y
_atom_site_fract_z
Si Si1 0.120307 0.511659 0.035855
Si Si2 0.230057 0.848228 0.833036
Si Si3 0.447625 0.137731 0.607030
Si Si4 0.735682 0.413657 0.586724
Si Si5 0.572006 0.265275 0.052626
Si Si6 0.105780 0.662917 0.850106
Si Si7 0.577592 0.243024 0.732719
Si Si8 0.089519 0.362320 0.490543
O O1 0.963613 0.616167 0.300263
O O2 0.301336 0.371722 0.953829
O O3 0.000000 0.500000 0.000000
O O4 0.235595 0.560410 0.861582
O O5 0.458441 0.818080 0.580986
O O6 0.255681 0.822429 0.973190
O O7 0.189680 0.748901 0.791782
O O8 0.000000 0.000000 0.000000
O O9 0.596729 0.128187 0.615290
O O10 0.500000 0.000000 0.500000
O O11 0.171136 0.238983 0.879455
O O12 0.544498 0.573050 0.815809
O O13 0.669976 0.317913 0.612964
O O14 0.828484 0.414320 0.360980
O O15 0.941403 0.334159 0.524238
O O16 0.362914 0.262396 0.237451
O O17 0.659178 0.211388 0.820214
O O18 0.000000 0.500000 0.500000
#
# Coordination Sequence:
#
# PCOD9102091 Si02
#       8
#     2   2   2   2   2   2   2   2
#     4  12  22  36  68 108 145 184 229 280 363 433
#     4  12  27  50  74 101 138 191 252 301 342 413
#     4  12  26  49  75  98 137 194 249 297 345 414
#     4  11  23  40  70 112 153 181 223 287 371 439
#     4  11  24  43  70 106 147 186 228 288 363 433
#     4  12  25  42  73 106 147 185 233 295 359 425
#     4  12  24  42  68 106 149 184 233 288 357 437
#     4  10  20  38  62 100 151 187 219 276 356 437
#
# _framework density 22.615431000000001
#
# number of rings (size 3 to 8) (size 9 to 14) (size 15 to 20)
#    0.000    0.500    6.250    4.125    3.500    1.000 
#    0.000    1.250    2.750    0.000    0.000    0.000 
#    0.000    0.000    0.000    0.000    0.000    0.000 
#
# Total GULP energy -89280.591014 kJ/mol
# GULP energy per Si atom -5580.036938 kJ/mol
# Density = 2.256396 g / cm^3
# Si number density = 22.615431 Si / 1000 Ang^3
#
#
#
# Elastic Constant Matrix: (Units=GPa)
#
#
# Indices 1 2 3 4 5 6 
#
# 1 155.4360 58.5462 42.2564 -10.5242 19.8956 5.0352
# 2 58.5462 72.1079 27.0703 -10.8892 19.2367 10.7153
# 3 42.2564 27.0703 80.5842 -26.8197 27.3627 -2.4163
# 4 -10.5242 -10.8892 -26.8197 32.9720 -8.3172 3.9222
# 5 19.8956 19.2367 27.3627 -8.3172 45.3607 -11.8042
# 6 5.0352 10.7153 -2.4163 3.9222 -11.8042 55.1628
#
#
#
# Elastic Compliance Matrix: (Units=1/GPa)
#
#
# Indices 1 2 3 4 5 6 
#
# 1 0.009923 -0.007289 -0.003703 -0.002141 0.000752 0.000661
# 2 -0.007289 0.023302 -0.000449 0.003869 -0.007187 -0.005694
# 3 -0.003703 -0.000449 0.022650 0.014883 -0.009559 -0.001686
# 4 -0.002141 0.003869 0.014883 0.042754 -0.002760 -0.003535
# 5 0.000752 -0.007187 -0.009559 -0.002760 0.032099 0.007974
# 6 0.000661 -0.005694 -0.001686 -0.003535 0.007974 0.021058
#
#
# Mechanical properties :
#
#
# Convention : Reuss Voigt Hill
#
# Bulk Modulus (GPa) = 30.30758 62.65266 46.48012
# Shear Modulus (GPa) = 26.93049 38.71610 32.82329
#
# Velocity S-wave (km/s) = 3.45454 4.14204 3.81381
# Velocity P-wave (km/s) = 5.41684 7.11611 6.32381
#
# Compressibility (1/GPa) = 0.03299504
#
# Stress axis : x y z
#
# Youngs Moduli (GPa) = 100.77723 42.91499 44.14945
#
# Poissons Ratio (x) = 0.31279 0.16348
# Poissons Ratio (y) = 0.73452 0.01981
# Poissons Ratio (z) = 0.37316 0.01925
#
# Static dielectric constant tensor:
#      x y z
#    x 1.920390 0.034220 -0.036570 
#    y 0.034220 1.926800 0.006060 
#    z -0.036570 0.006060 1.915800 
# 
# From -- ./inp_files/270287.got.cif
#   From: 2010.05.17/outbox.cif.g08.bks.cpg/sg2_136_cif.got.tgz:270287.got - 2010.06.03 11:33:40.
