data_PCOD9102653
_publ_section_title
;
Structure prediction by ZEFSAII (Michael W. Deem and Ramdas Pophale) SiO2 
 PCOD9102653
Probable space group: P -1
;
_chemical_formula_sum "Si O2"
_cell_formula_units_Z 14
_cell_length_a 21.237764
_cell_length_b 7.703784
_cell_length_c 17.313011
_cell_angle_alpha 130.583273
_cell_angle_beta 158.749188
_cell_angle_gamma 36.779067
_cell_volume 551.376804
_symmetry_space_group_name_H-M "P -1"
_symmetry_group_IT_number 2
_symmetry_cell_setting 'triclinic'
loop_
_space_group_symop_operation_xyz
x,y,z
-x,-y,-z
loop_
_atom_site_type_symbol
_atom_site_label
_atom_site_fract_x
_atom_site_fract_y
_atom_site_fract_z
Si Si1 0.070706 0.114754 0.024244
Si Si2 0.161990 0.481517 0.799702
Si Si3 0.463953 0.321133 0.852824
Si Si4 0.324444 0.865658 0.385384
Si Si5 0.303493 0.036423 0.690305
Si Si6 0.114015 0.237402 0.940132
Si Si7 0.835750 0.546670 0.570063
O O1 0.901023 0.481675 0.968609
O O2 0.313947 0.909806 0.294573
O O3 0.113384 0.105513 0.980805
O O4 0.942131 0.992262 0.856691
O O5 0.213117 0.230082 0.723708
O O6 0.937425 0.825782 0.596218
O O7 0.053803 0.466583 0.749207
O O8 0.432521 0.329298 0.090454
O O9 0.385424 0.176536 0.771733
O O10 0.253067 0.567188 0.620235
O O11 0.500000 0.500000 0.000000
O O12 0.690308 0.040969 0.977079
O O13 0.500000 0.500000 0.500000
O O14 0.358141 0.064999 0.528407
O O15 0.876843 0.433963 0.671333
#
# Coordination Sequence:
#
# PCOD9102653 Si02
#       7
#     2   2   2   2   2   2   2
#     4   9  21  38  64  92 121 159 199 263 318 386
#     4   9  17  34  58  84 113 159 210 256 312 371
#     4  11  23  37  57  86 122 168 208 263 316 385
#     4  10  20  38  63  94 122 155 206 263 321 383
#     4   9  18  34  56  83 116 158 210 259 307 368
#     4  10  20  40  61  88 126 161 204 255 324 389
#     4  10  21  37  62  88 122 169 211 261 322 385
#
# _framework density 25.390985000000001
#
# number of rings (size 3 to 8) (size 9 to 14) (size 15 to 20)
#    0.000    2.286    1.429    0.857    0.000    2.857 
#    0.000    4.286    9.429    0.000    0.000    0.000 
#    0.000    0.000    0.000    0.000    0.000    0.000 
#
# Total GULP energy -78092.942391 kJ/mol
# GULP energy per Si atom -5578.067314 kJ/mol
# Density = 2.533319 g / cm^3
# Si number density = 25.390985 Si / 1000 Ang^3
#
#
#
# Elastic Constant Matrix: (Units=GPa)
#
#
# Indices 1 2 3 4 5 6 
#
# 1 142.8282 54.4418 30.4253 3.4598 -41.5755 -19.8530
# 2 54.4418 94.8811 55.0425 1.4916 -12.1495 -21.4395
# 3 30.4253 55.0425 131.0712 -1.2854 -35.0745 -7.2876
# 4 3.4598 1.4916 -1.2854 47.8255 -6.4787 -4.6265
# 5 -41.5755 -12.1495 -35.0745 -6.4787 35.0899 2.2140
# 6 -19.8530 -21.4395 -7.2876 -4.6265 2.2140 27.2890
#
#
#
# Elastic Compliance Matrix: (Units=1/GPa)
#
#
# Indices 1 2 3 4 5 6 
#
# 1 0.016450 -0.009144 0.006498 0.002887 0.023029 0.005141
# 2 -0.009144 0.022060 -0.010568 -0.001434 -0.014578 0.008797
# 3 0.006498 -0.010568 0.016115 0.003060 0.020740 -0.000436
# 4 0.002887 -0.001434 0.003060 0.022630 0.009856 0.004827
# 5 0.023029 -0.014578 0.020740 0.009856 0.072870 0.006598
# 6 0.005141 0.008797 -0.000436 0.004827 0.006598 0.047463
#
#
# Mechanical properties :
#
#
# Convention : Reuss Voigt Hill
#
# Bulk Modulus (GPa) = 35.46319 72.06665 53.76492
# Shear Modulus (GPa) = 21.42123 37.29894 29.36008
#
# Velocity S-wave (km/s) = 2.90772 3.83689 3.40416
# Velocity P-wave (km/s) = 5.02696 6.93350 6.05573
#
# Compressibility (1/GPa) = 0.02819825
#
# Stress axis : x y z
#
# Youngs Moduli (GPa) = 60.78848 45.33090 62.05520
#
# Poissons Ratio (x) = 0.41449 -0.40322
# Poissons Ratio (y) = 0.55582 0.65577
# Poissons Ratio (z) = -0.39499 0.47904
#
# Static dielectric constant tensor:
#      x y z
#    x 1.960830 0.016090 -0.007810 
#    y 0.016090 2.019840 -0.116050 
#    z -0.007810 -0.116050 2.254850 
# 
# From -- ./inp_files/579064.got.cif
#   From: 2010.05.17/outbox.cif.g08.bks.cpg/sg2_290_cif.got.tgz:579064.got - 2010.06.03 11:33:40.
