data_PCOD9102482
_publ_section_title
;
Structure prediction by ZEFSAII (Michael W. Deem and Ramdas Pophale) SiO2 
 PCOD9102482
Probable space group: P -1
;
_chemical_formula_sum "Si O2"
_cell_formula_units_Z 16
_cell_length_a 8.713209
_cell_length_b 14.868267
_cell_length_c 15.050446
_cell_angle_alpha 150.389755
_cell_angle_beta 91.728857
_cell_angle_gamma 108.237262
_cell_volume 699.931948
_symmetry_space_group_name_H-M "P -1"
_symmetry_group_IT_number 2
_symmetry_cell_setting 'triclinic'
loop_
_space_group_symop_operation_xyz
x,y,z
-x,-y,-z
loop_
_atom_site_type_symbol
_atom_site_label
_atom_site_fract_x
_atom_site_fract_y
_atom_site_fract_z
Si Si1 0.724672 0.243691 0.176943
Si Si2 0.711274 0.758624 0.269472
Si Si3 0.942446 0.736098 0.694148
Si Si4 0.563640 0.987600 0.391251
Si Si5 0.109374 0.468426 0.899052
Si Si6 0.104287 0.730221 0.976109
Si Si7 0.224930 0.288336 0.146563
Si Si8 0.414187 0.224766 0.519912
O O1 0.791971 0.502375 0.425546
O O2 0.902463 0.269258 0.252240
O O3 0.735758 0.212867 0.046640
O O4 0.500000 0.000000 0.000000
O O5 0.733099 0.965665 0.392674
O O6 0.885709 0.740498 0.254803
O O7 0.659809 0.761597 0.374007
O O8 0.500000 0.500000 0.000000
O O9 0.799725 0.715564 0.750259
O O10 0.104191 0.003036 0.877565
O O11 0.500000 0.000000 0.500000
O O12 0.571771 0.181527 0.503905
O O13 0.357142 0.722241 0.119380
O O14 0.028485 0.496605 0.831864
O O15 0.000000 0.500000 0.000000
O O16 0.220033 0.975074 0.249582
O O17 0.920528 0.680065 0.876419
O O18 0.458139 0.519147 0.312918
#
# Coordination Sequence:
#
# PCOD9102482 Si02
#       8
#     2   2   2   2   2   2   2   2
#     4  10  20  39  65  87 128 160 198 261 320 368
#     4   9  19  36  60  86 116 165 219 259 309 389
#     4   9  21  39  59  94 121 157 212 249 304 399
#     4   8  17  35  57  80 112 158 208 253 302 377
#     4  10  21  36  59  82 125 162 203 267 317 361
#     4  10  23  37  58  94 120 163 212 258 313 386
#     4  10  21  38  63  87 126 165 202 258 319 371
#     4  10  20  38  63  86 126 167 207 264 320 368
#
# _framework density 22.859363999999999
#
# number of rings (size 3 to 8) (size 9 to 14) (size 15 to 20)
#    0.000    2.500    0.000    0.750    5.250    3.000 
#    0.000   15.625    0.000    0.000    0.000    0.000 
#    0.000    0.000    0.000    0.000    0.000    0.000 
#
# Total GULP energy -89289.018672 kJ/mol
# GULP energy per Si atom -5580.563667 kJ/mol
# Density = 2.280734 g / cm^3
# Si number density = 22.859364 Si / 1000 Ang^3
#
#
#
# Elastic Constant Matrix: (Units=GPa)
#
#
# Indices 1 2 3 4 5 6 
#
# 1 92.7810 13.3383 11.7617 1.1111 -13.6575 -12.7627
# 2 13.3383 94.3710 37.0161 15.2596 -17.7015 4.4631
# 3 11.7617 37.0161 119.1455 11.9545 -19.2938 15.4348
# 4 1.1111 15.2596 11.9545 48.3536 -8.4263 -5.6535
# 5 -13.6575 -17.7015 -19.2938 -8.4263 35.7562 1.8405
# 6 -12.7627 4.4631 15.4348 -5.6535 1.8405 32.0296
#
#
#
# Elastic Compliance Matrix: (Units=1/GPa)
#
#
# Indices 1 2 3 4 5 6 
#
# 1 0.012401 -0.001148 -0.001196 0.001678 0.003621 0.005766
# 2 -0.001148 0.013161 -0.002825 -0.002937 0.003947 -0.001675
# 3 -0.001196 -0.002825 0.010975 -0.001798 0.003947 -0.005916
# 4 0.001678 -0.002937 -0.001798 0.023292 0.003404 0.005860
# 5 0.003621 0.003947 0.003947 0.003404 0.034359 -0.002383
# 6 0.005766 -0.001675 -0.005916 0.005860 -0.002383 0.037774
#
#
# Mechanical properties :
#
#
# Convention : Reuss Voigt Hill
#
# Bulk Modulus (GPa) = 38.17057 47.83666 43.00361
# Shear Modulus (GPa) = 33.10509 39.50665 36.30587
#
# Velocity S-wave (km/s) = 3.80966 4.16173 3.98958
# Velocity P-wave (km/s) = 6.00713 6.63817 6.33052
#
# Compressibility (1/GPa) = 0.02619819
#
# Stress axis : x y z
#
# Youngs Moduli (GPa) = 80.63897 75.98100 91.11782
#
# Poissons Ratio (x) = 0.08725 0.10901
# Poissons Ratio (y) = 0.09260 0.25738
# Poissons Ratio (z) = 0.09648 0.21462
#
# Static dielectric constant tensor:
#      x y z
#    x 1.875910 -0.058640 -0.066900 
#    y -0.058640 1.765740 -0.058350 
#    z -0.066900 -0.058350 1.774870 
# 
# From -- ./inp_files/505850.got.cif
#   From: 2010.05.17/outbox.cif.g08.bks.cpg/sg2_253_cif.got.tgz:505850.got - 2010.06.03 11:33:40.
