data_PCOD9102705
_publ_section_title
;
Structure prediction by ZEFSAII (Michael W. Deem and Ramdas Pophale) SiO2 
 PCOD9102705
Probable space group: P -1
;
_chemical_formula_sum "Si O2"
_cell_formula_units_Z 14
_cell_length_a 16.866069
_cell_length_b 10.632975
_cell_length_c 9.505884
_cell_angle_alpha 70.595422
_cell_angle_beta 41.852953
_cell_angle_gamma 40.953498
_cell_volume 633.772389
_symmetry_space_group_name_H-M "P -1"
_symmetry_group_IT_number 2
_symmetry_cell_setting 'triclinic'
loop_
_space_group_symop_operation_xyz
x,y,z
-x,-y,-z
loop_
_atom_site_type_symbol
_atom_site_label
_atom_site_fract_x
_atom_site_fract_y
_atom_site_fract_z
Si Si1 0.312067 0.052872 0.065563
Si Si2 0.412531 0.752310 0.380098
Si Si3 0.771089 0.740952 0.201285
Si Si4 0.442081 0.819097 0.616144
Si Si5 0.982088 0.837188 0.416107
Si Si6 0.310876 0.315356 0.131086
Si Si7 0.378994 0.640765 0.964892
O O1 0.263516 0.207911 0.192438
O O2 0.158999 0.072194 0.297894
O O3 0.278162 0.156817 0.925777
O O4 0.545227 0.805852 0.877542
O O5 0.441149 0.722464 0.519753
O O6 0.512265 0.547259 0.229482
O O7 0.540954 0.764479 0.156830
O O8 0.180594 0.978791 0.556870
O O9 0.643733 0.723181 0.404513
O O10 0.713803 0.919408 0.306825
O O11 0.000000 0.500000 0.000000
O O12 0.392810 0.777282 0.834444
O O13 0.120684 0.583260 0.293286
O O14 0.149284 0.800102 0.226979
O O15 0.500000 0.500000 0.000000
#
# Coordination Sequence:
#
# PCOD9102705 Si02
#       7
#     2   2   2   2   2   2   2
#     4  10  20  38  63  97 132 169 223 269 327 392
#     4  10  22  44  69  98 129 176 224 270 334 394
#     4  11  27  42  69 100 133 181 219 271 335 397
#     4  11  26  47  67  96 143 175 219 279 331 392
#     4  10  23  37  68  98 127 173 222 271 332 394
#     4   9  19  37  64  97 134 166 214 280 327 391
#     4  11  27  45  69  98 134 177 223 279 331 393
#
# _framework density 22.089950999999999
#
# number of rings (size 3 to 8) (size 9 to 14) (size 15 to 20)
#    0.000    1.714    1.429    0.857   10.000    3.429 
#    0.000    0.000    0.000    0.000    0.000    0.000 
#    0.000    0.000    0.000    0.000    0.000    0.000 
#
# Total GULP energy -78224.439214 kJ/mol
# GULP energy per Si atom -5587.459944 kJ/mol
# Density = 2.203967 g / cm^3
# Si number density = 22.089951 Si / 1000 Ang^3
#
#
#
# Elastic Constant Matrix: (Units=GPa)
#
#
# Indices 1 2 3 4 5 6 
#
# 1 99.1227 40.5169 63.7148 -10.5419 -3.7299 8.2383
# 2 40.5169 86.6217 56.6341 -6.6120 -23.7943 3.7468
# 3 63.7148 56.6341 123.3039 -12.0931 -30.4777 -10.5292
# 4 -10.5419 -6.6120 -12.0931 46.9187 -0.0217 8.9161
# 5 -3.7299 -23.7943 -30.4777 -0.0217 45.0756 -3.6477
# 6 8.2383 3.7468 -10.5292 8.9161 -3.6477 29.4099
#
#
#
# Elastic Compliance Matrix: (Units=1/GPa)
#
#
# Indices 1 2 3 4 5 6 
#
# 1 0.019847 -0.003466 -0.011516 0.003145 -0.008887 -0.011296
# 2 -0.003466 0.018470 -0.005486 0.000975 0.005515 -0.002958
# 3 -0.011516 -0.005486 0.020311 -0.000536 0.010913 0.012712
# 4 0.003145 0.000975 -0.000536 0.023613 -0.000255 -0.008387
# 5 -0.008887 0.005515 0.010913 -0.000255 0.032533 0.009806
# 6 -0.011296 -0.002958 0.012712 -0.008387 0.009806 0.045854
#
#
# Mechanical properties :
#
#
# Convention : Reuss Voigt Hill
#
# Bulk Modulus (GPa) = 56.52727 70.08667 63.30697
# Shear Modulus (GPa) = 24.10103 34.15967 29.13035
#
# Velocity S-wave (km/s) = 3.30667 3.93668 3.63535
# Velocity P-wave (km/s) = 6.34223 7.24293 6.80749
#
# Compressibility (1/GPa) = 0.01769058
#
# Stress axis : x y z
#
# Youngs Moduli (GPa) = 50.38616 54.14256 49.23502
#
# Poissons Ratio (x) = 0.18768 0.56699
# Poissons Ratio (y) = 0.17465 0.27010
# Poissons Ratio (z) = 0.58025 0.29702
#
# Static dielectric constant tensor:
#      x y z
#    x 1.866570 0.034070 0.048590 
#    y 0.034070 1.813990 -0.009340 
#    z 0.048590 -0.009340 1.823460 
# 
# From -- ./inp_files/333087.got.cif
#   From: 2010.05.17/outbox.cif.g08.bks.cpg/sg2_167_cif.got.tgz:333087.got - 2010.06.03 11:33:40.
