data_PCOD9102722
_publ_section_title
;
Structure prediction by ZEFSAII (Michael W. Deem and Ramdas Pophale) SiO2 
 PCOD9102722
Probable space group: P -1
;
_chemical_formula_sum "Si O2"
_cell_formula_units_Z 16
_cell_length_a 8.873635
_cell_length_b 11.600685
_cell_length_c 17.587205
_cell_angle_alpha 52.472509
_cell_angle_beta 32.475940
_cell_angle_gamma 50.352922
_cell_volume 737.431064
_symmetry_space_group_name_H-M "P -1"
_symmetry_group_IT_number 2
_symmetry_cell_setting 'triclinic'
loop_
_space_group_symop_operation_xyz
x,y,z
-x,-y,-z
loop_
_atom_site_type_symbol
_atom_site_label
_atom_site_fract_x
_atom_site_fract_y
_atom_site_fract_z
Si Si1 0.597395 0.187808 0.446941
Si Si2 0.612863 0.410579 0.228725
Si Si3 0.802390 0.447200 0.847712
Si Si4 0.044608 0.933040 0.422677
Si Si5 0.950545 0.627748 0.071702
Si Si6 0.432525 0.905850 0.136065
Si Si7 0.790677 0.356132 0.437135
Si Si8 0.899692 0.315154 0.702141
O O1 0.657448 0.249335 0.314552
O O2 0.752996 0.264883 0.413969
O O3 0.249691 0.260027 0.575274
O O4 0.738299 0.009127 0.477476
O O5 0.806443 0.497530 0.159093
O O6 0.281040 0.522519 0.323218
O O7 0.745794 0.398156 0.092626
O O8 0.801967 0.336626 0.822977
O O9 0.027013 0.368590 0.849506
O O10 0.926603 0.582458 0.711406
O O11 0.500000 0.500000 0.000000
O O12 0.280304 0.979666 0.249743
O O13 0.167111 0.753088 0.462622
O O14 0.000000 0.000000 0.500000
O O15 0.738394 0.785362 0.072279
O O16 0.217227 0.811093 0.237182
O O17 0.500000 0.000000 0.000000
O O18 0.500000 0.500000 0.500000
#
# Coordination Sequence:
#
# PCOD9102722 Si02
#       8
#     2   2   2   2   2   2   2   2
#     4  11  22  41  68  95 141 174 229 279 351 401
#     4  10  20  38  64 100 131 176 222 287 337 401
#     4  12  23  41  65 106 138 174 235 292 336 407
#     4  10  25  43  68 103 133 180 234 278 344 423
#     4  10  21  38  67  94 132 176 230 271 346 410
#     4  11  25  47  70  92 137 186 226 282 360 419
#     4  11  22  41  71  98 136 185 223 281 345 410
#     4  11  25  39  66 102 132 172 240 286 331 414
#
# _framework density 21.696943999999998
#
# number of rings (size 3 to 8) (size 9 to 14) (size 15 to 20)
#    0.000    1.250    3.750    1.875    3.500    3.500 
#    2.250    0.625    0.000    0.000    0.000    0.000 
#    0.000    0.000    0.000    0.000    0.000    0.000 
#
# Total GULP energy -89313.268137 kJ/mol
# GULP energy per Si atom -5582.079259 kJ/mol
# Density = 2.164756 g / cm^3
# Si number density = 21.696944 Si / 1000 Ang^3
#
#
#
# Elastic Constant Matrix: (Units=GPa)
#
#
# Indices 1 2 3 4 5 6 
#
# 1 80.1956 33.7860 24.4561 -7.7143 21.9449 -17.8046
# 2 33.7860 88.7368 41.7007 3.6153 8.9499 -36.7013
# 3 24.4561 41.7007 114.6296 14.4563 16.5264 -26.0349
# 4 -7.7143 3.6153 14.4563 30.0688 -11.2524 11.5025
# 5 21.9449 8.9499 16.5264 -11.2524 41.8478 0.3026
# 6 -17.8046 -36.7013 -26.0349 11.5025 0.3026 47.2949
#
#
#
# Elastic Compliance Matrix: (Units=1/GPa)
#
#
# Indices 1 2 3 4 5 6 
#
# 1 0.017315 -0.004758 -0.000662 0.001796 -0.007333 0.002072
# 2 -0.004758 0.021781 -0.000465 -0.012527 -0.005477 0.017937
# 3 -0.000662 -0.000465 0.014931 -0.015250 -0.009633 0.011380
# 4 0.001796 -0.012527 -0.015250 0.064841 0.025436 -0.033373
# 5 -0.007333 -0.005477 -0.009633 0.025436 0.039692 -0.018754
# 6 0.002072 0.017937 0.011380 -0.033373 -0.018754 0.050344
#
#
# Mechanical properties :
#
#
# Convention : Reuss Voigt Hill
#
# Bulk Modulus (GPa) = 23.66497 53.71637 38.69067
# Shear Modulus (GPa) = 21.29831 36.08358 28.69094
#
# Velocity S-wave (km/s) = 3.13649 4.08250 3.64036
# Velocity P-wave (km/s) = 4.90383 6.85812 5.96160
#
# Compressibility (1/GPa) = 0.04225655
#
# Stress axis : x y z
#
# Youngs Moduli (GPa) = 57.75196 45.91172 66.97592
#
# Poissons Ratio (x) = 0.21846 0.04433
# Poissons Ratio (y) = 0.27480 0.03115
# Poissons Ratio (z) = 0.03823 0.02135
#
# Static dielectric constant tensor:
#      x y z
#    x 1.832590 0.009080 0.015750 
#    y 0.009080 1.852860 0.018150 
#    z 0.015750 0.018150 1.827580 
# 
# From -- ./inp_files/273915.got.cif
#   From: 2010.05.17/outbox.cif.g08.bks.cpg/sg2_137_cif.got.tgz:273915.got - 2010.06.03 11:33:40.
