data_PCOD9102295
_publ_section_title
;
Structure prediction by ZEFSAII (Michael W. Deem and Ramdas Pophale) SiO2 
 PCOD9102295
Probable space group: P -1
;
_chemical_formula_sum "Si O2"
_cell_formula_units_Z 16
_cell_length_a 6.565695
_cell_length_b 9.498737
_cell_length_c 17.077492
_cell_angle_alpha 72.294793
_cell_angle_beta 63.529330
_cell_angle_gamma 52.755136
_cell_volume 758.073446
_symmetry_space_group_name_H-M "P -1"
_symmetry_group_IT_number 2
_symmetry_cell_setting 'triclinic'
loop_
_space_group_symop_operation_xyz
x,y,z
-x,-y,-z
loop_
_atom_site_type_symbol
_atom_site_label
_atom_site_fract_x
_atom_site_fract_y
_atom_site_fract_z
Si Si1 0.873614 0.281580 0.471299
Si Si2 0.512088 0.695958 0.879514
Si Si3 0.958494 0.309850 0.620601
Si Si4 0.005008 0.536113 0.707951
Si Si5 0.575997 0.090160 0.582440
Si Si6 0.140050 0.591397 0.998671
Si Si7 0.376546 0.047801 0.925877
Si Si8 0.535970 0.203836 0.741746
O O1 0.859817 0.380088 0.537308
O O2 0.649501 0.232751 0.522471
O O3 0.868398 0.372350 0.376569
O O4 0.169762 0.098074 0.455167
O O5 0.729996 0.661753 0.782089
O O6 0.672999 0.552492 0.944341
O O7 0.383510 0.887583 0.908409
O O8 0.295770 0.645224 0.902406
O O9 0.935328 0.446099 0.665618
O O10 0.773373 0.239552 0.691776
O O11 0.279313 0.154314 0.591797
O O12 0.240639 0.386333 0.748858
O O13 0.567461 0.092474 0.677782
O O14 0.923616 0.776567 0.045487
O O15 0.000000 0.500000 0.000000
O O16 0.542722 0.103568 0.834648
O O17 0.500000 0.000000 0.000000
#
# Coordination Sequence:
#
# PCOD9102295 Si02
#       8
#     2   2   2   2   2   2   2   2
#     4  10  20  38  62  90 126 165 216 264 322 383
#     4  11  25  43  70  96 131 177 214 273 332 392
#     4  10  22  38  62  92 125 170 209 270 320 383
#     4  11  23  39  62  91 129 168 215 264 328 382
#     4   9  20  40  62  88 125 168 212 269 319 386
#     4  11  24  46  69  98 132 166 223 273 329 397
#     4  12  24  45  71  97 132 176 221 271 338 390
#     4  10  23  41  61  90 132 165 216 270 320 386
#
# _framework density 21.106134999999998
#
# number of rings (size 3 to 8) (size 9 to 14) (size 15 to 20)
#    0.000    1.500    2.500    1.875    1.750    5.500 
#    6.750    0.000    0.000    0.000    0.000    0.000 
#    0.000    0.000    0.000    0.000    0.000    0.000 
#
# Total GULP energy -89375.804756 kJ/mol
# GULP energy per Si atom -5585.987797 kJ/mol
# Density = 2.105810 g / cm^3
# Si number density = 21.106135 Si / 1000 Ang^3
#
#
#
# Elastic Constant Matrix: (Units=GPa)
#
#
# Indices 1 2 3 4 5 6 
#
# 1 69.6210 34.1343 37.8470 -0.4472 -16.0225 10.2037
# 2 34.1343 106.3830 27.6631 5.7957 -6.0309 4.4899
# 3 37.8470 27.6631 148.4285 -19.9179 -11.5030 6.1252
# 4 -0.4472 5.7957 -19.9179 33.1863 -6.7160 -3.9969
# 5 -16.0225 -6.0309 -11.5030 -6.7160 29.3208 2.4679
# 6 10.2037 4.4899 6.1252 -3.9969 2.4679 10.4099
#
#
#
# Elastic Compliance Matrix: (Units=1/GPa)
#
#
# Indices 1 2 3 4 5 6 
#
# 1 0.025576 -0.005430 -0.003641 -0.001128 0.013205 -0.024149
# 2 -0.005430 0.011553 -0.001367 -0.003254 -0.001902 0.000346
# 3 -0.003641 -0.001367 0.008917 0.006143 0.002579 0.000658
# 4 -0.001128 -0.003254 0.006143 0.037498 0.008769 0.011214
# 5 0.013205 -0.001902 0.002579 0.008769 0.045728 -0.021115
# 6 -0.024149 0.000346 0.000658 0.011214 -0.021115 0.128508
#
#
# Mechanical properties :
#
#
# Convention : Reuss Voigt Hill
#
# Bulk Modulus (GPa) = 39.72980 58.19128 48.96054
# Shear Modulus (GPa) = 17.41876 29.56927 23.49401
#
# Velocity S-wave (km/s) = 2.87591 3.74703 3.33999
# Velocity P-wave (km/s) = 5.46740 6.80815 6.17428
#
# Compressibility (1/GPa) = 0.02517002
#
# Stress axis : x y z
#
# Youngs Moduli (GPa) = 39.09883 86.55973 112.13971
#
# Poissons Ratio (x) = 0.47005 0.40830
# Poissons Ratio (y) = 0.21232 0.15328
# Poissons Ratio (z) = 0.14236 0.11831
#
# Static dielectric constant tensor:
#      x y z
#    x 1.772940 -0.001740 -0.030950 
#    y -0.001740 1.769290 0.011110 
#    z -0.030950 0.011110 1.762050 
# 
# From -- ./inp_files/52875.got.cif
#   From: 2010.05.17/outbox.cif.g08.bks.cpg/sg2_27_cif.got.tgz:52875.got - 2010.06.03 11:33:40.
