data_PCOD9102125
_publ_section_title
;
Structure prediction by ZEFSAII (Michael W. Deem and Ramdas Pophale) SiO2 
 PCOD9102125
Probable space group: P -1
;
_chemical_formula_sum "Si O2"
_cell_formula_units_Z 16
_cell_length_a 11.303771
_cell_length_b 17.248696
_cell_length_c 10.722592
_cell_angle_alpha 33.488278
_cell_angle_beta 43.033413
_cell_angle_gamma 37.702114
_cell_volume 689.621937
_symmetry_space_group_name_H-M "P -1"
_symmetry_group_IT_number 2
_symmetry_cell_setting 'triclinic'
loop_
_space_group_symop_operation_xyz
x,y,z
-x,-y,-z
loop_
_atom_site_type_symbol
_atom_site_label
_atom_site_fract_x
_atom_site_fract_y
_atom_site_fract_z
Si Si1 0.994753 0.733575 0.675523
Si Si2 0.773210 0.067475 0.485716
Si Si3 0.455237 0.855757 0.196633
Si Si4 0.868370 0.598734 0.288847
Si Si5 0.225065 0.445247 0.029155
Si Si6 0.078439 0.983040 0.173772
Si Si7 0.546893 0.836134 0.615050
Si Si8 0.049889 0.268697 0.700161
O O1 0.030091 0.836514 0.402758
O O2 0.860367 0.658970 0.834321
O O3 0.197805 0.587281 0.766819
O O4 0.867546 0.874454 0.683013
O O5 0.671531 0.153755 0.575164
O O6 0.609772 0.127954 0.421730
O O7 0.957928 0.075081 0.269950
O O8 0.664205 0.697787 0.240869
O O9 0.311578 0.905674 0.122163
O O10 0.500000 0.000000 0.000000
O O11 0.886641 0.699284 0.254839
O O12 0.059448 0.543781 0.129039
O O13 0.880960 0.437666 0.553934
O O14 0.424292 0.311225 0.120029
O O15 0.008323 0.120029 0.941780
O O16 0.759754 0.777514 0.468365
O O17 0.500000 0.000000 0.500000
#
# Coordination Sequence:
#
# PCOD9102125 Si02
#       8
#     2   2   2   2   2   2   2   2
#     4   9  21  38  58  85 119 152 194 236 294 334
#     4  10  21  36  57  88 117 150 196 239 288 343
#     4  12  20  36  61  89 115 157 198 236 291 348
#     4  10  21  35  60  86 115 155 197 236 285 348
#     4  10  20  38  62  85 119 156 194 238 289 348
#     4  10  22  39  58  88 121 152 189 249 292 338
#     4  11  19  38  63  87 108 154 201 235 283 352
#     4  10  21  39  59  85 119 151 193 242 293 345
#
# _framework density 23.201118000000001
#
# number of rings (size 3 to 8) (size 9 to 14) (size 15 to 20)
#    0.750    1.000    3.750    1.125    0.000    0.000 
#    2.250    6.875    0.000    0.000    0.000    0.000 
#    0.000    0.000    0.000    0.000    0.000    0.000 
#
# Total GULP energy -89325.197563 kJ/mol
# GULP energy per Si atom -5582.824848 kJ/mol
# Density = 2.314831 g / cm^3
# Si number density = 23.201118 Si / 1000 Ang^3
#
#
#
# Elastic Constant Matrix: (Units=GPa)
#
#
# Indices 1 2 3 4 5 6 
#
# 1 44.1396 13.8783 16.2217 -17.9274 4.6428 -9.4980
# 2 13.8783 77.4052 15.5520 -22.0992 5.4118 -9.1996
# 3 16.2217 15.5520 130.6635 -43.4772 4.7148 -13.3515
# 4 -17.9274 -22.0992 -43.4772 41.8100 -6.2590 11.1933
# 5 4.6428 5.4118 4.7148 -6.2590 25.3354 -6.5458
# 6 -9.4980 -9.1996 -13.3515 11.1933 -6.5458 36.3974
#
#
#
# Elastic Compliance Matrix: (Units=1/GPa)
#
#
# Indices 1 2 3 4 5 6 
#
# 1 0.028214 -0.001585 0.000706 0.010815 -0.001348 0.003653
# 2 -0.001585 0.015560 0.001314 0.008448 -0.000869 0.001247
# 3 0.000706 0.001314 0.011875 0.013221 0.000896 0.000968
# 4 0.010815 0.008448 0.013221 0.048618 0.004651 -0.004308
# 5 -0.001348 -0.000869 0.000896 0.004651 0.042424 0.005957
# 6 0.003653 0.001247 0.000968 -0.004308 0.005957 0.031494
#
#
# Mechanical properties :
#
#
# Convention : Reuss Voigt Hill
#
# Bulk Modulus (GPa) = 17.69230 38.16805 27.93018
# Shear Modulus (GPa) = 25.49023 34.47898 29.98460
#
# Velocity S-wave (km/s) = 3.31821 3.85917 3.59887
# Velocity P-wave (km/s) = 4.72470 6.02862 5.41604
#
# Compressibility (1/GPa) = 0.05652177
#
# Stress axis : x y z
#
# Youngs Moduli (GPa) = 35.44291 64.26792 84.21149
#
# Poissons Ratio (x) = 0.10183 -0.05948
# Poissons Ratio (y) = 0.05616 -0.11069
# Poissons Ratio (z) = -0.02503 -0.08448
#
# Static dielectric constant tensor:
#      x y z
#    x 1.906300 0.020050 0.042270 
#    y 0.020050 1.878240 -0.000170 
#    z 0.042270 -0.000170 1.947920 
# 
# From -- ./inp_files/457415.got.cif
#   From: 2010.05.17/outbox.cif.g08.bks.cpg/sg2_229_cif.got.tgz:457415.got - 2010.06.03 11:33:40.
