data_PCOD9102601
_publ_section_title
;
Structure prediction by ZEFSAII (Michael W. Deem and Ramdas Pophale) SiO2 
 PCOD9102601
Probable space group: P -1
;
_chemical_formula_sum "Si O2"
_cell_formula_units_Z 16
_cell_length_a 8.013355
_cell_length_b 9.064922
_cell_length_c 18.422023
_cell_angle_alpha 97.471505
_cell_angle_beta 83.023634
_cell_angle_gamma 147.414048
_cell_volume 714.401600
_symmetry_space_group_name_H-M "P -1"
_symmetry_group_IT_number 2
_symmetry_cell_setting 'triclinic'
loop_
_space_group_symop_operation_xyz
x,y,z
-x,-y,-z
loop_
_atom_site_type_symbol
_atom_site_label
_atom_site_fract_x
_atom_site_fract_y
_atom_site_fract_z
Si Si1 0.201346 0.082259 0.432551
Si Si2 0.272312 0.657472 0.052679
Si Si3 0.976004 0.157487 0.001095
Si Si4 0.083844 0.475007 0.418360
Si Si5 0.992023 0.703921 0.150664
Si Si6 0.443448 0.985798 0.366722
Si Si7 0.426048 0.417785 0.630244
Si Si8 0.437615 0.218789 0.250275
O O1 0.940745 0.885107 0.369530
O O2 0.320720 0.007690 0.436276
O O3 0.000000 0.000000 0.500000
O O4 0.502131 0.402964 0.422130
O O5 0.612427 0.922525 0.017735
O O6 0.233547 0.749092 0.124330
O O7 0.183010 0.419168 0.058208
O O8 0.000000 0.500000 0.000000
O O9 0.082758 0.279664 0.922119
O O10 0.000000 0.000000 0.000000
O O11 0.000000 0.500000 0.500000
O O12 0.185275 0.668271 0.362680
O O13 0.360477 0.560253 0.405316
O O14 0.770056 0.166082 0.386656
O O15 0.708503 0.418897 0.189132
O O16 0.134840 0.940933 0.206402
O O17 0.476932 0.120314 0.304541
O O18 0.538813 0.596845 0.705493
#
# Coordination Sequence:
#
# PCOD9102601 Si02
#       8
#     2   2   2   2   2   2   2   2
#     4  11  20  37  60  85 110 151 201 247 296 362
#     4  10  20  38  63  92 123 163 208 253 297 345
#     4  11  22  39  64  99 132 154 195 263 310 340
#     4  12  23  40  62  90 119 154 195 258 328 364
#     4  11  21  40  65  87 119 168 208 240 295 370
#     4  11  23  39  59  85 118 152 199 251 292 358
#     4  11  23  38  58  85 121 155 195 252 308 363
#     4  11  23  41  60  85 119 169 210 240 291 370
#
# _framework density 22.396367000000001
#
# number of rings (size 3 to 8) (size 9 to 14) (size 15 to 20)
#    0.000    1.000    0.000   10.875    0.000    0.000 
#    0.000    7.500    0.000    0.000    0.000    0.000 
#    0.000    0.000    0.000    0.000    0.000    0.000 
#
# Total GULP energy -89243.892382 kJ/mol
# GULP energy per Si atom -5577.743274 kJ/mol
# Density = 2.234539 g / cm^3
# Si number density = 22.396367 Si / 1000 Ang^3
#
#
#
# Elastic Constant Matrix: (Units=GPa)
#
#
# Indices 1 2 3 4 5 6 
#
# 1 85.0213 17.1512 12.6205 -8.0242 -8.6463 -7.4574
# 2 17.1512 113.5349 23.7017 -14.4342 -2.4127 0.1195
# 3 12.6205 23.7017 67.2226 -9.3316 -12.6120 -11.1439
# 4 -8.0242 -14.4342 -9.3316 43.1981 -2.4745 -4.0132
# 5 -8.6463 -2.4127 -12.6120 -2.4745 20.8676 0.3525
# 6 -7.4574 0.1195 -11.1439 -4.0132 0.3525 47.8613
#
#
#
# Elastic Compliance Matrix: (Units=1/GPa)
#
#
# Indices 1 2 3 4 5 6 
#
# 1 0.013056 -0.001511 -0.000231 0.002376 0.005341 0.002144
# 2 -0.001511 0.009978 -0.003290 0.002197 -0.001186 -0.000833
# 3 -0.000231 -0.003290 0.019690 0.004238 0.011845 0.004825
# 4 0.002376 0.002197 0.004238 0.025954 0.006818 0.003477
# 5 0.005341 -0.001186 0.011845 0.006818 0.057901 0.003738
# 6 0.002144 -0.000833 0.004825 0.003477 0.003738 0.022617
#
#
# Mechanical properties :
#
#
# Convention : Reuss Voigt Hill
#
# Bulk Modulus (GPa) = 30.61885 41.41396 36.01641
# Shear Modulus (GPa) = 29.38627 36.53910 32.96268
#
# Velocity S-wave (km/s) = 3.62622 4.04353 3.84055
# Velocity P-wave (km/s) = 5.58871 6.35073 5.98186
#
# Compressibility (1/GPa) = 0.03265962
#
# Stress axis : x y z
#
# Youngs Moduli (GPa) = 76.59159 100.22082 50.78760
#
# Poissons Ratio (x) = 0.15141 0.01175
# Poissons Ratio (y) = 0.11571 0.16710
# Poissons Ratio (z) = 0.01771 0.32974
#
# Static dielectric constant tensor:
#      x y z
#    x 1.841890 -0.036080 -0.006970 
#    y -0.036080 1.833240 0.048350 
#    z -0.006970 0.048350 1.948260 
# 
# From -- ./inp_files/223631.got.cif
#   From: 2010.05.17/outbox.cif.g08.bks.cpg/sg2_112_cif.got.tgz:223631.got - 2010.06.03 11:33:40.
