data_PCOD9102599
_publ_section_title
;
Structure prediction by ZEFSAII (Michael W. Deem and Ramdas Pophale) SiO2 
 PCOD9102599
Probable space group: P -1
;
_chemical_formula_sum "Si O2"
_cell_formula_units_Z 14
_cell_length_a 12.898712
_cell_length_b 6.034881
_cell_length_c 17.190809
_cell_angle_alpha 88.601349
_cell_angle_beta 23.594851
_cell_angle_gamma 86.897962
_cell_volume 533.777540
_symmetry_space_group_name_H-M "P -1"
_symmetry_group_IT_number 2
_symmetry_cell_setting 'triclinic'
loop_
_space_group_symop_operation_xyz
x,y,z
-x,-y,-z
loop_
_atom_site_type_symbol
_atom_site_label
_atom_site_fract_x
_atom_site_fract_y
_atom_site_fract_z
Si Si1 0.404868 0.875794 0.963693
Si Si2 0.161482 0.425406 0.285841
Si Si3 0.118633 0.154424 0.615388
Si Si4 0.691971 0.247306 0.680082
Si Si5 0.709551 0.670928 0.339037
Si Si6 0.265063 0.571766 0.913979
Si Si7 0.676522 0.048007 0.231316
O O1 0.565943 0.717792 0.916713
O O2 0.325241 0.737690 0.942844
O O3 0.597409 0.046258 0.796285
O O4 0.134897 0.973658 0.186641
O O5 0.244245 0.563372 0.302708
O O6 0.005940 0.615537 0.339664
O O7 0.955339 0.246127 0.450038
O O8 0.229119 0.224804 0.621416
O O9 0.377382 0.039023 0.397655
O O10 0.443579 0.349019 0.802395
O O11 0.500000 0.500000 0.500000
O O12 0.642003 0.876174 0.326116
O O13 0.967377 0.537053 0.130490
O O14 0.321607 0.690900 0.793772
O O15 0.000000 0.000000 0.000000
#
# Coordination Sequence:
#
# PCOD9102599 Si02
#       7
#     2   2   2   2   2   2   2
#     4  10  22  37  64  94 124 158 201 247 304 368
#     4  10  21  39  61  92 129 155 201 248 299 372
#     4  11  22  41  63  87 124 163 195 258 312 349
#     4  10  20  38  63  92 123 162 200 243 303 368
#     4  10  23  40  61  90 120 154 209 260 302 356
#     4   9  20  41  61  88 125 160 199 252 300 365
#     4  10  21  42  62  83 121 162 203 250 306 356
#
# _framework density 26.228154
#
# number of rings (size 3 to 8) (size 9 to 14) (size 15 to 20)
#    0.000    2.000    1.429    1.286    2.000    1.714 
#    2.571    1.429    0.000    0.000    0.000    0.000 
#    0.000    0.000    0.000    0.000    0.000    0.000 
#
# Total GULP energy -78034.343717 kJ/mol
# GULP energy per Si atom -5573.881694 kJ/mol
# Density = 2.616846 g / cm^3
# Si number density = 26.228154 Si / 1000 Ang^3
#
#
#
# Elastic Constant Matrix: (Units=GPa)
#
#
# Indices 1 2 3 4 5 6 
#
# 1 74.1712 59.2280 57.5026 1.0027 -14.0271 -26.9989
# 2 59.2280 105.6731 86.6966 -1.5889 -7.8517 -43.9397
# 3 57.5026 86.6966 217.5863 -2.1380 -20.0512 -26.3696
# 4 1.0027 -1.5889 -2.1380 55.9456 -9.0646 -5.6178
# 5 -14.0271 -7.8517 -20.0512 -9.0646 41.9378 6.1668
# 6 -26.9989 -43.9397 -26.3696 -5.6178 6.1668 65.8749
#
#
#
# Elastic Compliance Matrix: (Units=1/GPa)
#
#
# Indices 1 2 3 4 5 6 
#
# 1 0.026040 -0.012737 -0.001139 0.000163 0.005638 0.001207
# 2 -0.012737 0.025110 -0.005782 0.001121 -0.003498 0.009637
# 3 -0.001139 -0.005782 0.007220 0.000342 0.002301 -0.001620
# 4 0.000163 0.001121 0.000342 0.018810 0.004175 0.002165
# 5 0.005638 -0.003498 0.002301 0.004175 0.027269 -0.001299
# 6 0.001207 0.009637 -0.001620 0.002165 -0.001299 0.021761
#
#
# Mechanical properties :
#
#
# Convention : Reuss Voigt Hill
#
# Bulk Modulus (GPa) = 52.48676 89.36498 70.92587
# Shear Modulus (GPa) = 29.09034 45.68520 37.38777
#
# Velocity S-wave (km/s) = 3.33397 4.17806 3.77965
# Velocity P-wave (km/s) = 5.90555 7.57767 6.79325
#
# Compressibility (1/GPa) = 0.01905242
#
# Stress axis : x y z
#
# Youngs Moduli (GPa) = 38.40278 39.82443 138.50475
#
# Poissons Ratio (x) = 0.50725 0.15778
# Poissons Ratio (y) = 0.48914 0.80089
# Poissons Ratio (z) = 0.04375 0.23028
#
# Static dielectric constant tensor:
#      x y z
#    x 2.178760 0.121180 0.105270 
#    y 0.121180 2.084500 0.143860 
#    z 0.105270 0.143860 2.227340 
# 
# From -- ./inp_files/220580.got.cif
#   From: 2010.05.17/outbox.cif.g08.bks.cpg/sg2_111_cif.got.tgz:220580.got - 2010.06.03 11:33:40.
