data_PCOD9102308
_publ_section_title
;
Structure prediction by ZEFSAII (Michael W. Deem and Ramdas Pophale) SiO2 
 PCOD9102308
Probable space group: P -1
;
_chemical_formula_sum "Si O2"
_cell_formula_units_Z 16
_cell_length_a 11.976042
_cell_length_b 16.180481
_cell_length_c 8.178446
_cell_angle_alpha 141.740024
_cell_angle_beta 61.117766
_cell_angle_gamma 128.046995
_cell_volume 772.824392
_symmetry_space_group_name_H-M "P -1"
_symmetry_group_IT_number 2
_symmetry_cell_setting 'triclinic'
loop_
_space_group_symop_operation_xyz
x,y,z
-x,-y,-z
loop_
_atom_site_type_symbol
_atom_site_label
_atom_site_fract_x
_atom_site_fract_y
_atom_site_fract_z
Si Si1 0.694719 0.400322 0.463395
Si Si2 0.794788 0.495067 0.162967
Si Si3 0.900164 0.980317 0.190968
Si Si4 0.833550 0.186307 0.011127
Si Si5 0.585578 0.606607 0.456750
Si Si6 0.888116 0.254475 0.695460
Si Si7 0.160230 0.287920 0.999047
Si Si8 0.817410 0.876532 0.596371
O O1 0.755334 0.457968 0.325370
O O2 0.528206 0.359179 0.508814
O O3 0.758876 0.539362 0.754946
O O4 0.742873 0.271377 0.269514
O O5 0.670217 0.516067 0.192108
O O6 0.942877 0.643611 0.282628
O O7 0.820041 0.362769 0.860393
O O8 0.809729 0.809996 0.035063
O O9 0.835340 0.097049 0.399270
O O10 0.015717 0.047570 0.360762
O O11 0.000000 0.000000 0.000000
O O12 0.851671 0.217520 0.853459
O O13 0.993932 0.252731 0.070124
O O14 0.774303 0.010273 0.806613
O O15 0.500000 0.500000 0.500000
O O16 0.717696 0.768198 0.639380
O O17 0.196018 0.224410 0.709248
#
# Coordination Sequence:
#
# PCOD9102308 Si02
#       8
#     2   2   2   2   2   2   2   2
#     4  10  22  34  56  84 114 156 192 229 270 343
#     4   9  18  32  56  81 114 146 187 234 279 331
#     4  11  20  32  58  89 117 144 186 234 290 337
#     4  10  19  36  56  85 116 144 187 237 291 327
#     4  10  21  38  56  80 114 154 195 228 277 342
#     4  10  16  32  56  85 110 144 183 232 293 330
#     4  11  20  35  58  89 117 143 189 236 287 337
#     4  11  21  38  59  81 115 153 182 241 288 333
#
# _framework density 20.703279999999999
#
# number of rings (size 3 to 8) (size 9 to 14) (size 15 to 20)
#    0.000    1.750    3.750    1.875    1.750    1.000 
#    0.000    2.500    0.000    2.250    0.000    0.000 
#    0.000    0.000    0.000    0.000    0.000    0.000 
#
# Total GULP energy -89158.051940 kJ/mol
# GULP energy per Si atom -5572.378246 kJ/mol
# Density = 2.065616 g / cm^3
# Si number density = 20.703280 Si / 1000 Ang^3
#
#
#
# Elastic Constant Matrix: (Units=GPa)
#
#
# Indices 1 2 3 4 5 6 
#
# 1 78.4128 17.8853 57.4692 14.9502 -44.6506 11.1379
# 2 17.8853 65.3772 10.7975 9.8193 -16.3080 -4.0871
# 3 57.4692 10.7975 124.0521 6.8457 -44.1375 -0.8882
# 4 14.9502 9.8193 6.8457 23.1581 -14.3680 -1.8286
# 5 -44.6506 -16.3080 -44.1375 -14.3680 42.7979 -0.2807
# 6 11.1379 -4.0871 -0.8882 -1.8286 -0.2807 24.3501
#
#
#
# Elastic Compliance Matrix: (Units=1/GPa)
#
#
# Indices 1 2 3 4 5 6 
#
# 1 0.040403 -0.002320 -0.006777 -0.004309 0.032707 -0.019064
# 2 -0.002320 0.017588 0.001425 -0.003146 0.004720 0.003883
# 3 -0.006777 0.001425 0.014549 0.006443 0.010670 0.004477
# 4 -0.004309 -0.003146 0.006443 0.058743 0.020714 0.006328
# 5 0.032707 0.004720 0.010670 0.020714 0.077171 -0.011334
# 6 -0.019064 0.003883 0.004477 0.006328 -0.011334 0.050947
#
#
# Mechanical properties :
#
#
# Convention : Reuss Voigt Hill
#
# Bulk Modulus (GPa) = 17.48363 48.90511 33.19437
# Shear Modulus (GPa) = 17.01773 30.17389 23.59581
#
# Velocity S-wave (km/s) = 2.87013 3.82179 3.37963
# Velocity P-wave (km/s) = 4.40985 6.56871 5.59440
#
# Compressibility (1/GPa) = 0.05719635
#
# Stress axis : x y z
#
# Youngs Moduli (GPa) = 24.75072 56.85731 68.73094
#
# Poissons Ratio (x) = 0.13189 0.46578
# Poissons Ratio (y) = 0.05741 -0.09792
# Poissons Ratio (z) = 0.16773 -0.08100
#
# Static dielectric constant tensor:
#      x y z
#    x 1.785940 -0.039740 -0.011360 
#    y -0.039740 1.772430 -0.003900 
#    z -0.011360 -0.003900 1.790610 
# 
# From -- ./inp_files/261696.got.cif
#   From: 2010.05.17/outbox.cif.g08.bks.cpg/sg2_131_cif.got.tgz:261696.got - 2010.06.03 11:33:40.
