data_PCOD9102631
_publ_section_title
;
Structure prediction by ZEFSAII (Michael W. Deem and Ramdas Pophale) SiO2 
 PCOD9102631
Probable space group: P -1
;
_chemical_formula_sum "Si O2"
_cell_formula_units_Z 12
_cell_length_a 5.060390
_cell_length_b 11.802892
_cell_length_c 8.233237
_cell_angle_alpha 74.843271
_cell_angle_beta 100.446952
_cell_angle_gamma 76.414761
_cell_volume 445.653704
_symmetry_space_group_name_H-M "P -1"
_symmetry_group_IT_number 2
_symmetry_cell_setting 'triclinic'
loop_
_space_group_symop_operation_xyz
x,y,z
-x,-y,-z
loop_
_atom_site_type_symbol
_atom_site_label
_atom_site_fract_x
_atom_site_fract_y
_atom_site_fract_z
Si Si1 0.754937 0.584587 0.744247
Si Si2 0.208949 0.151347 0.699556
Si Si3 0.090856 0.160268 0.324537
Si Si4 0.449246 0.892638 0.859185
Si Si5 0.670708 0.626030 0.082275
Si Si6 0.604834 0.316484 0.643485
O O1 0.879839 0.701966 0.715717
O O2 0.550517 0.606732 0.557789
O O3 0.024275 0.465720 0.809402
O O4 0.613624 0.592521 0.903537
O O5 0.120389 0.111774 0.528298
O O6 0.470566 0.203228 0.677634
O O7 0.934599 0.260485 0.676633
O O8 0.286025 0.027078 0.859918
O O9 0.345110 0.086813 0.265779
O O10 0.798928 0.157523 0.217956
O O11 0.642625 0.772162 0.018529
O O12 0.472758 0.619170 0.214159
#
# Coordination Sequence:
#
# PCOD9102631 Si02
#       6
#     2   2   2   2   2   2
#     4   9  21  43  66  92 124 163 210 256 308 365
#     4  11  22  39  62  92 129 163 205 256 307 368
#     4  10  20  38  63  93 125 163 209 254 306 367
#     4  11  22  37  63  94 125 165 206 252 311 368
#     4  10  22  41  66  93 126 164 206 257 309 367
#     4  11  24  42  65  93 125 164 207 255 308 365
#
# _framework density 26.926736999999999
#
# number of rings (size 3 to 8) (size 9 to 14) (size 15 to 20)
#    0.000    1.667    0.000    5.500    0.000    4.667 
#    0.000   15.833    0.000    0.000    0.000    0.000 
#    0.000    0.000    0.000    0.000    0.000    0.000 
#
# Total GULP energy -67268.028720 kJ/mol
# GULP energy per Si atom -5605.669060 kJ/mol
# Density = 2.686545 g / cm^3
# Si number density = 26.926737 Si / 1000 Ang^3
#
#
#
# Elastic Constant Matrix: (Units=GPa)
#
#
# Indices 1 2 3 4 5 6 
#
# 1 105.2921 9.7117 30.4139 -6.1931 9.5910 -13.8005
# 2 9.7117 131.3851 39.9080 -33.6719 9.7935 -23.9176
# 3 30.4139 39.9080 171.1499 -16.2741 2.0527 -24.2928
# 4 -6.1931 -33.6719 -16.2741 38.4787 -6.2152 -0.4644
# 5 9.5910 9.7935 2.0527 -6.2152 46.5395 8.0414
# 6 -13.8005 -23.9176 -24.2928 -0.4644 8.0414 51.2721
#
#
#
# Elastic Compliance Matrix: (Units=1/GPa)
#
#
# Indices 1 2 3 4 5 6 
#
# 1 0.010550 0.000730 -0.001476 0.001329 -0.002586 0.002898
# 2 0.000730 0.011453 -0.001109 0.009381 -0.002199 0.005444
# 3 -0.001476 -0.001109 0.006860 0.001731 0.000062 0.002342
# 4 0.001329 0.009381 0.001731 0.035444 0.001433 0.005651
# 5 -0.002586 -0.002199 0.000062 0.001433 0.023601 -0.005381
# 6 0.002898 0.005444 0.002342 0.005651 -0.005381 0.024828
#
#
# Mechanical properties :
#
#
# Convention : Reuss Voigt Hill
#
# Bulk Modulus (GPa) = 39.75821 63.09936 51.42878
# Shear Modulus (GPa) = 40.05394 49.11098 44.58246
#
# Velocity S-wave (km/s) = 3.86102 4.27532 4.07344
# Velocity P-wave (km/s) = 5.88846 6.91778 6.42377
#
# Compressibility (1/GPa) = 0.02515204
#
# Stress axis : x y z
#
# Youngs Moduli (GPa) = 94.78601 87.31035 145.77185
#
# Poissons Ratio (x) = -0.06370 0.21517
# Poissons Ratio (y) = -0.06916 0.16169
# Poissons Ratio (z) = 0.13991 0.09685
#
# Static dielectric constant tensor:
#      x y z
#    x 1.966030 0.049650 -0.012440 
#    y 0.049650 2.149850 0.022550 
#    z -0.012440 0.022550 2.155670 
# 
# From -- ./inp_files/131515.got.cif
#   From: 2010.05.17/outbox.cif.g08.bks.cpg/sg2_66_cif.got.tgz:131515.got - 2010.06.03 11:33:40.
