data_PCOD9102473
_publ_section_title
;
Structure prediction by ZEFSAII (Michael W. Deem and Ramdas Pophale) SiO2 
 PCOD9102473
Probable space group: P -1
;
_chemical_formula_sum "Si O2"
_cell_formula_units_Z 16
_cell_length_a 12.879202
_cell_length_b 11.833833
_cell_length_c 13.676546
_cell_angle_alpha 143.853480
_cell_angle_beta 147.226527
_cell_angle_gamma 50.316957
_cell_volume 660.203253
_symmetry_space_group_name_H-M "P -1"
_symmetry_group_IT_number 2
_symmetry_cell_setting 'triclinic'
loop_
_space_group_symop_operation_xyz
x,y,z
-x,-y,-z
loop_
_atom_site_type_symbol
_atom_site_label
_atom_site_fract_x
_atom_site_fract_y
_atom_site_fract_z
Si Si1 0.417023 0.092163 0.168223
Si Si2 0.277248 0.672568 0.733150
Si Si3 0.071866 0.346706 0.857397
Si Si4 0.495177 0.418267 0.326680
Si Si5 0.118412 0.284179 0.644140
Si Si6 0.619474 0.001148 0.447335
Si Si7 0.334398 0.636225 0.975480
Si Si8 0.997931 0.234570 0.926888
O O1 0.506963 0.199353 0.218606
O O2 0.529652 0.134712 0.389298
O O3 0.196364 0.145843 0.045436
O O4 0.423611 0.866487 0.998925
O O5 0.360146 0.540232 0.622545
O O6 0.240846 0.614691 0.777357
O O7 0.084917 0.739320 0.585571
O O8 0.095711 0.226096 0.696975
O O9 0.971799 0.224524 0.781124
O O10 0.283549 0.427558 0.121857
O O11 0.970659 0.532497 0.874254
O O12 0.500000 0.500000 0.500000
O O13 0.259576 0.155896 0.614634
O O14 0.194991 0.513547 0.855767
O O15 0.793827 0.130196 0.733646
O O16 0.431783 0.853050 0.232384
O O17 0.500000 0.500000 0.000000
#
# Coordination Sequence:
#
# PCOD9102473 Si02
#       8
#     2   2   2   2   2   2   2   2
#     4  10  21  37  58  87 126 149 204 244 294 363
#     4  11  22  37  62  91 118 160 201 246 304 353
#     4  10  23  38  58  86 128 157 202 243 302 362
#     4  11  23  38  59  89 125 162 197 243 304 365
#     4  11  22  38  63  90 120 158 207 250 298 352
#     4  10  20  38  63  86 118 157 200 253 301 347
#     4   9  20  39  62  88 118 153 204 258 293 347
#     4  10  21  39  57  90 121 165 195 243 302 367
#
# _framework density 24.234960000000001
#
# number of rings (size 3 to 8) (size 9 to 14) (size 15 to 20)
#    0.000    1.750    1.250    3.750    7.000    1.500 
#    0.000    0.625    0.000    7.500    0.000    0.000 
#    0.000    0.000    0.000    0.000    0.000    0.000 
#
# Total GULP energy -89162.313568 kJ/mol
# GULP energy per Si atom -5572.644598 kJ/mol
# Density = 2.417980 g / cm^3
# Si number density = 24.234960 Si / 1000 Ang^3
#
#
#
# Elastic Constant Matrix: (Units=GPa)
#
#
# Indices 1 2 3 4 5 6 
#
# 1 90.2248 12.2613 5.6392 -6.8148 3.1867 2.8570
# 2 12.2613 51.0573 14.8693 -15.4275 0.2765 -9.0649
# 3 5.6392 14.8693 76.5361 -12.3546 11.1638 -4.9773
# 4 -6.8148 -15.4275 -12.3546 44.1642 -2.0617 9.1236
# 5 3.1867 0.2765 11.1638 -2.0617 23.9622 4.2422
# 6 2.8570 -9.0649 -4.9773 9.1236 4.2422 22.6986
#
#
#
# Elastic Compliance Matrix: (Units=1/GPa)
#
#
# Indices 1 2 3 4 5 6 
#
# 1 0.011714 -0.002897 -0.000167 0.001344 -0.000789 -0.003061
# 2 -0.002897 0.024163 -0.003245 0.005715 0.000900 0.006837
# 3 -0.000167 -0.003245 0.015307 0.002255 -0.007328 0.002545
# 4 0.001344 0.005715 0.002255 0.027443 0.002645 -0.008917
# 5 -0.000789 0.000900 -0.007328 0.002645 0.047429 -0.011075
# 6 -0.003061 0.006837 0.002545 -0.008917 -0.011075 0.053383
#
#
# Mechanical properties :
#
#
# Convention : Reuss Voigt Hill
#
# Bulk Modulus (GPa) = 25.93053 31.48419 28.70736
# Shear Modulus (GPa) = 24.40061 30.50157 27.45109
#
# Velocity S-wave (km/s) = 3.17651 3.55149 3.36922
# Velocity P-wave (km/s) = 4.91696 5.46232 5.19680
#
# Compressibility (1/GPa) = 0.03856459
#
# Stress axis : x y z
#
# Youngs Moduli (GPa) = 85.36837 41.38627 65.33030
#
# Poissons Ratio (x) = 0.11991 0.01092
# Poissons Ratio (y) = 0.24735 0.21198
# Poissons Ratio (z) = 0.01427 0.13429
#
# Static dielectric constant tensor:
#      x y z
#    x 1.954310 -0.004020 -0.040720 
#    y -0.004020 1.926770 0.091150 
#    z -0.040720 0.091150 2.080250 
# 
# From -- ./inp_files/244499.got.cif
#   From: 2010.05.17/outbox.cif.g08.bks.cpg/sg2_123_cif.got.tgz:244499.got - 2010.06.03 11:33:40.
