data_PCOD9102362
_publ_section_title
;
Structure prediction by ZEFSAII (Michael W. Deem and Ramdas Pophale) SiO2 
 PCOD9102362
Probable space group: P -1
;
_chemical_formula_sum "Si O2"
_cell_formula_units_Z 15
_cell_length_a 9.648576
_cell_length_b 7.270895
_cell_length_c 18.385354
_cell_angle_alpha 97.740425
_cell_angle_beta 130.539383
_cell_angle_gamma 119.181030
_cell_volume 626.992011
_symmetry_space_group_name_H-M "P -1"
_symmetry_group_IT_number 2
_symmetry_cell_setting 'triclinic'
loop_
_space_group_symop_operation_xyz
x,y,z
-x,-y,-z
loop_
_atom_site_type_symbol
_atom_site_label
_atom_site_fract_x
_atom_site_fract_y
_atom_site_fract_z
Si Si1 0.522096 0.641359 0.184416
Si Si2 0.272654 0.756308 0.203287
Si Si3 0.100279 0.767545 0.717849
Si Si4 0.500000 0.000000 0.000000
Si Si5 0.268276 0.150043 0.148238
Si Si6 0.254352 0.477411 0.929341
Si Si7 0.392456 0.825062 0.528549
Si Si8 0.191865 0.168496 0.287656
O O1 0.324346 0.615281 0.167068
O O2 0.535582 0.452221 0.216326
O O3 0.793255 0.982736 0.284001
O O4 0.374272 0.507749 0.048646
O O5 0.968040 0.527508 0.128104
O O6 0.280706 0.941958 0.161936
O O7 0.503618 0.973405 0.356387
O O8 0.937447 0.478233 0.605896
O O9 0.877270 0.691915 0.692211
O O10 0.355083 0.901679 0.863141
O O11 0.509132 0.234775 0.019381
O O12 0.235640 0.219031 0.219593
O O13 0.000000 0.000000 0.000000
O O14 0.073034 0.179972 0.813098
O O15 0.548996 0.748437 0.588768
O O16 0.500000 0.000000 0.500000
#
# Coordination Sequence:
#
# PCOD9102362 Si02
#       8
#     2   2   2   1   2   2   2   2
#     4  11  22  38  60  93 128 162 198 263 317 367
#     4  10  22  39  63  87 124 167 216 253 303 384
#     4  11  24  41  59  96 129 158 211 258 321 370
#     4  10  22  34  60  92 128 158 196 262 316 366
#     4  10  20  38  62  93 122 165 211 250 313 374
#     4   9  19  38  55  95 120 159 213 250 315 368
#     4  10  22  44  66  88 117 168 220 254 311 375
#     4  10  22  40  67  88 125 163 214 260 299 381
#
# _framework density 23.923750999999999
#
# number of rings (size 3 to 8) (size 9 to 14) (size 15 to 20)
#    0.000    2.133    2.667    2.400    3.733    3.733 
#    7.200    2.667    0.000    0.000    0.000    0.000 
#    0.000    0.000    0.000    0.000    0.000    0.000 
#
# Total GULP energy -83623.192881 kJ/mol
# GULP energy per Si atom -5574.879525 kJ/mol
# Density = 2.386930 g / cm^3
# Si number density = 23.923751 Si / 1000 Ang^3
#
#
#
# Elastic Constant Matrix: (Units=GPa)
#
#
# Indices 1 2 3 4 5 6 
#
# 1 73.1122 -9.2740 9.0833 -10.5300 -5.3408 -13.4414
# 2 -9.2740 103.5137 37.1363 -24.3102 -2.1247 -4.9401
# 3 9.0833 37.1363 133.7797 2.1734 -17.8697 -0.7884
# 4 -10.5300 -24.3102 2.1734 39.7366 0.4841 -2.7016
# 5 -5.3408 -2.1247 -17.8697 0.4841 19.8927 5.0909
# 6 -13.4414 -4.9401 -0.7884 -2.7016 5.0909 13.8873
#
#
#
# Elastic Compliance Matrix: (Units=1/GPa)
#
#
# Indices 1 2 3 4 5 6 
#
# 1 0.021749 0.007666 -0.004254 0.012622 -0.004550 0.027659
# 2 0.007666 0.016493 -0.006099 0.013762 -0.006611 0.018041
# 3 -0.004254 -0.006099 0.010966 -0.006336 0.011009 -0.010933
# 4 0.012622 0.013762 -0.006336 0.039264 -0.008862 0.027639
# 5 -0.004550 -0.006611 0.011009 -0.008862 0.066717 -0.032312
# 6 0.027659 0.018041 -0.010933 0.027639 -0.032312 0.121798
#
#
# Mechanical properties :
#
#
# Convention : Reuss Voigt Hill
#
# Bulk Modulus (GPa) = 22.81424 42.69964 32.75694
# Shear Modulus (GPa) = 16.83656 32.93400 24.88528
#
# Velocity S-wave (km/s) = 2.65572 3.71431 3.22870
# Velocity P-wave (km/s) = 4.35440 6.02344 5.25559
#
# Compressibility (1/GPa) = 0.04383228
#
# Stress axis : x y z
#
# Youngs Moduli (GPa) = 45.97896 60.63250 91.19094
#
# Poissons Ratio (x) = -0.46479 0.38796
# Poissons Ratio (y) = -0.35246 0.55618
# Poissons Ratio (z) = 0.19561 0.36981
#
# Static dielectric constant tensor:
#      x y z
#    x 4.450200 -0.058780 2.232590 
#    y -0.058780 2.018970 -0.045530 
#    z 2.232590 -0.045530 3.795880 
# 
# From -- ./inp_files/386810.got.cif
#   From: 2010.05.17/outbox.cif.g08.bks.cpg/sg2_194_cif.got.tgz:386810.got - 2010.06.03 11:33:40.
