data_PCOD9102309
_publ_section_title
;
Structure prediction by ZEFSAII (Michael W. Deem and Ramdas Pophale) SiO2 
 PCOD9102309
Probable space group: P -1
;
_chemical_formula_sum "Si O2"
_cell_formula_units_Z 14
_cell_length_a 8.304732
_cell_length_b 8.909979
_cell_length_c 20.342135
_cell_angle_alpha 37.110502
_cell_angle_beta 139.160627
_cell_angle_gamma 130.946644
_cell_volume 588.708192
_symmetry_space_group_name_H-M "P -1"
_symmetry_group_IT_number 2
_symmetry_cell_setting 'triclinic'
loop_
_space_group_symop_operation_xyz
x,y,z
-x,-y,-z
loop_
_atom_site_type_symbol
_atom_site_label
_atom_site_fract_x
_atom_site_fract_y
_atom_site_fract_z
Si Si1 0.161765 0.285370 0.645446
Si Si2 0.192366 0.751444 0.814184
Si Si3 0.650197 0.648462 0.668870
Si Si4 0.441022 0.990333 0.596026
Si Si5 0.713812 0.449241 0.220335
Si Si6 0.314615 0.765330 0.998060
Si Si7 0.939866 0.095274 0.783600
O O1 0.444164 0.409701 0.690594
O O2 0.061972 0.193704 0.717609
O O3 0.000000 0.500000 0.500000
O O4 0.138781 0.035377 0.682367
O O5 0.333478 0.647323 0.834264
O O6 0.310886 0.763631 0.918230
O O7 0.922095 0.591726 0.790020
O O8 0.646503 0.776692 0.550783
O O9 0.576016 0.848039 0.629858
O O10 0.647438 0.069643 0.688538
O O11 0.235696 0.782639 0.637149
O O12 0.931879 0.685362 0.205892
O O13 0.459891 0.534336 0.141307
O O14 0.048255 0.828845 0.919590
O O15 0.500000 0.000000 0.000000
#
# Coordination Sequence:
#
# PCOD9102309 Si02
#       7
#     2   2   2   2   2   2   2
#     4  11  19  38  65  87 121 168 204 252 290 367
#     4  11  24  41  61  97 126 159 204 260 314 360
#     4  11  21  37  64  92 124 164 214 247 298 373
#     4  11  21  37  63  94 119 167 209 247 303 374
#     4  11  24  39  62  91 131 160 201 261 315 351
#     4   9  20  42  68  87 116 167 212 253 304 369
#     4  10  20  38  62  91 120 158 214 248 301 366
#
# _framework density 23.780881000000001
#
# number of rings (size 3 to 8) (size 9 to 14) (size 15 to 20)
#    0.000    1.429    5.714    1.286    0.000    2.286 
#    0.000    1.429    0.000    6.857    0.000    0.000 
#    0.000    0.000    0.000    0.000    0.000    0.000 
#
# Total GULP energy -78227.570949 kJ/mol
# GULP energy per Si atom -5587.683639 kJ/mol
# Density = 2.372676 g / cm^3
# Si number density = 23.780881 Si / 1000 Ang^3
#
#
#
# Elastic Constant Matrix: (Units=GPa)
#
#
# Indices 1 2 3 4 5 6 
#
# 1 40.8337 29.9265 11.0415 0.6474 -3.8183 -5.6085
# 2 29.9265 118.4522 20.0788 14.7495 6.3234 0.5334
# 3 11.0415 20.0788 66.6205 2.8969 -5.4246 -9.1577
# 4 0.6474 14.7495 2.8969 35.5949 1.1724 1.0488
# 5 -3.8183 6.3234 -5.4246 1.1724 19.8822 5.2322
# 6 -5.6085 0.5334 -9.1577 1.0488 5.2322 39.3376
#
#
#
# Elastic Compliance Matrix: (Units=1/GPa)
#
#
# Indices 1 2 3 4 5 6 
#
# 1 0.032416 -0.008639 -0.001838 0.002799 0.007453 0.003245
# 2 -0.008639 0.011907 -0.002579 -0.004349 -0.005595 -0.001133
# 3 -0.001838 -0.002579 0.016896 -0.000507 0.004278 0.003151
# 4 0.002799 -0.004349 -0.000507 0.029896 0.000145 -0.000476
# 5 0.007453 -0.005595 0.004278 0.000145 0.056068 -0.005327
# 6 0.003245 -0.001133 0.003151 -0.000476 -0.005327 0.027354
#
#
# Mechanical properties :
#
#
# Convention : Reuss Voigt Hill
#
# Bulk Modulus (GPa) = 28.48406 38.66670 33.57538
# Shear Modulus (GPa) = 23.54588 29.95358 26.74973
#
# Velocity S-wave (km/s) = 3.15003 3.55289 3.35750
# Velocity P-wave (km/s) = 5.02334 5.75548 5.40183
#
# Compressibility (1/GPa) = 0.03510736
#
# Stress axis : x y z
#
# Youngs Moduli (GPa) = 30.84865 83.98071 59.18636
#
# Poissons Ratio (x) = 0.72554 0.10876
# Poissons Ratio (y) = 0.26651 0.15266
# Poissons Ratio (z) = 0.05669 0.21661
#
# Static dielectric constant tensor:
#      x y z
#    x 1.879180 -0.002000 0.040570 
#    y -0.002000 1.919880 -0.004490 
#    z 0.040570 -0.004490 2.003630 
# 
# From -- ./inp_files/187211.got.cif
#   From: 2010.05.17/outbox.cif.g08.bks.cpg/sg2_94_cif.got.tgz:187211.got - 2010.06.03 11:33:40.
