data_PCOD9102727
_publ_section_title
;
Structure prediction by ZEFSAII (Michael W. Deem and Ramdas Pophale) SiO2 
 PCOD9102727
Probable space group: P -1
;
_chemical_formula_sum "Si O2"
_cell_formula_units_Z 15
_cell_length_a 8.175024
_cell_length_b 7.922574
_cell_length_c 10.708326
_cell_angle_alpha 107.843973
_cell_angle_beta 79.622865
_cell_angle_gamma 126.745351
_cell_volume 529.003264
_symmetry_space_group_name_H-M "P -1"
_symmetry_group_IT_number 2
_symmetry_cell_setting 'triclinic'
loop_
_space_group_symop_operation_xyz
x,y,z
-x,-y,-z
loop_
_atom_site_type_symbol
_atom_site_label
_atom_site_fract_x
_atom_site_fract_y
_atom_site_fract_z
Si Si1 0.664769 0.948592 0.442164
Si Si2 0.500000 0.500000 0.500000
Si Si3 0.286356 0.558868 0.765023
Si Si4 0.945406 0.775493 0.678667
Si Si5 0.108349 0.836859 0.200440
Si Si6 0.118424 0.886746 0.944616
Si Si7 0.560199 0.420330 0.779155
Si Si8 0.402074 0.763107 0.043051
O O1 0.651136 0.756938 0.479822
O O2 0.592626 0.830312 0.291361
O O3 0.500000 0.000000 0.500000
O O4 0.895713 0.159771 0.439592
O O5 0.389029 0.586442 0.624361
O O6 0.417062 0.500026 0.817281
O O7 0.050942 0.362353 0.737492
O O8 0.308203 0.724438 0.905746
O O9 0.054065 0.779585 0.792441
O O10 0.718329 0.549179 0.669093
O O11 0.902325 0.960408 0.730665
O O12 0.328719 0.884015 0.169286
O O13 0.032812 0.746481 0.051078
O O14 0.355022 0.092214 0.972495
O O15 0.000000 0.000000 0.000000
O O16 0.657819 0.434134 0.899840
#
# Coordination Sequence:
#
# PCOD9102727 Si02
#       8
#     2   1   2   2   2   2   2   2
#     4  11  25  50  76 105 149 200 260 306 369 450
#     4  10  24  48  76 102 148 208 246 312 368 432
#     4  11  22  44  70 100 150 193 250 300 375 449
#     4  11  22  46  72 101 148 194 245 304 380 450
#     4  11  22  39  65 106 149 188 234 312 378 442
#     4  10  20  38  64 100 144 186 230 300 376 443
#     4  11  23  45  73 106 141 196 240 309 380 446
#     4  12  23  39  69 113 147 181 247 309 382 452
#
# _framework density 28.355212999999999
#
# number of rings (size 3 to 8) (size 9 to 14) (size 15 to 20)
#    0.000    1.067    4.000    4.400    0.000    2.667 
#    7.200    4.000    0.000    0.000    0.000    0.000 
#    0.000    0.000    0.000    0.000    0.000    0.000 
#
# Total GULP energy -83560.002766 kJ/mol
# GULP energy per Si atom -5570.666851 kJ/mol
# Density = 2.829068 g / cm^3
# Si number density = 28.355213 Si / 1000 Ang^3
#
#
#
# Elastic Constant Matrix: (Units=GPa)
#
#
# Indices 1 2 3 4 5 6 
#
# 1 52.8752 16.6059 10.4107 -8.5276 -13.2397 22.7976
# 2 16.6059 102.5140 33.8525 -29.4300 -4.8839 18.1903
# 3 10.4107 33.8525 137.9529 -20.2270 -17.0751 15.0074
# 4 -8.5276 -29.4300 -20.2270 51.9536 15.1430 -7.6695
# 5 -13.2397 -4.8839 -17.0751 15.1430 40.9893 -9.8459
# 6 22.7976 18.1903 15.0074 -7.6695 -9.8459 52.9954
#
#
#
# Elastic Compliance Matrix: (Units=1/GPa)
#
#
# Indices 1 2 3 4 5 6 
#
# 1 0.024857 -0.002313 0.000367 -0.000096 0.005794 -0.008940
# 2 -0.002313 0.013071 -0.002167 0.006740 -0.003181 -0.002493
# 3 0.000367 -0.002167 0.008373 0.001153 0.002652 -0.001126
# 4 -0.000096 0.006740 0.001153 0.025890 -0.008412 -0.000415
# 5 0.005794 -0.003181 0.002652 -0.008412 0.030660 0.002328
# 6 -0.008940 -0.002493 -0.001126 -0.000415 0.002328 0.024263
#
#
# Mechanical properties :
#
#
# Convention : Reuss Voigt Hill
#
# Bulk Modulus (GPa) = 26.26396 46.12004 36.19200
# Shear Modulus (GPa) = 33.77695 44.68586 39.23141
#
# Velocity S-wave (km/s) = 3.45513 3.97411 3.72367
# Velocity P-wave (km/s) = 5.01994 6.11216 5.59278
#
# Compressibility (1/GPa) = 0.03807498
#
# Stress axis : x y z
#
# Youngs Moduli (GPa) = 40.23079 76.50573 119.43544
#
# Poissons Ratio (x) = 0.17695 -0.04389
# Poissons Ratio (y) = 0.09305 0.25885
# Poissons Ratio (z) = -0.01478 0.16581
#
# Static dielectric constant tensor:
#      x y z
#    x 2.736620 -0.408720 -0.398260 
#    y -0.408720 2.266770 -0.045220 
#    z -0.398260 -0.045220 1.887450 
# 
# From -- ./inp_files/382895.got.cif
#   From: 2010.05.17/outbox.cif.g08.bks.cpg/sg2_192_cif.got.tgz:382895.got - 2010.06.03 11:33:40.
