data_PCOD9102484
_publ_section_title
;
Structure prediction by ZEFSAII (Michael W. Deem and Ramdas Pophale) SiO2 
 PCOD9102484
Probable space group: P -1
;
_chemical_formula_sum "Si O2"
_cell_formula_units_Z 16
_cell_length_a 9.091781
_cell_length_b 7.530582
_cell_length_c 15.642293
_cell_angle_alpha 116.930080
_cell_angle_beta 47.270821
_cell_angle_gamma 128.794021
_cell_volume 612.436116
_symmetry_space_group_name_H-M "P -1"
_symmetry_group_IT_number 2
_symmetry_cell_setting 'triclinic'
loop_
_space_group_symop_operation_xyz
x,y,z
-x,-y,-z
loop_
_atom_site_type_symbol
_atom_site_label
_atom_site_fract_x
_atom_site_fract_y
_atom_site_fract_z
Si Si1 0.531545 0.765784 0.506887
Si Si2 0.208518 0.870067 0.048241
Si Si3 0.362148 0.538576 0.698198
Si Si4 0.721825 0.835782 0.745442
Si Si5 0.887274 0.539811 0.891591
Si Si6 0.434612 0.846806 0.179713
Si Si7 0.844775 0.199532 0.398072
Si Si8 0.848083 0.977754 0.166112
O O1 0.523739 0.692769 0.590610
O O2 0.682283 0.703103 0.370701
O O3 0.270000 0.644526 0.547476
O O4 0.660643 0.035717 0.504910
O O5 0.212691 0.646867 0.033397
O O6 0.265478 0.053172 0.142232
O O7 0.955479 0.814094 0.106558
O O8 0.383269 0.994487 0.930175
O O9 0.493105 0.622690 0.753288
O O10 0.135064 0.557137 0.788576
O O11 0.912737 0.755140 0.651805
O O12 0.732917 0.041237 0.725370
O O13 0.716959 0.407753 0.851556
O O14 0.956087 0.804153 0.917626
O O15 0.600080 0.869192 0.196572
O O16 0.832843 0.089848 0.285538
#
# Coordination Sequence:
#
# PCOD9102484 Si02
#       8
#     2   2   2   2   2   2   2   2
#     4  10  21  38  63  85 129 160 217 268 309 384
#     4  10  24  43  64  98 129 165 220 267 307 393
#     4  11  21  39  61  94 120 173 213 257 324 385
#     4  10  20  38  63  86 132 162 206 260 322 371
#     4  11  22  42  66  91 131 174 205 268 323 374
#     4  11  22  43  66  95 128 171 215 263 317 384
#     4  10  21  41  60  92 127 167 205 274 313 376
#     4  11  22  44  65  95 134 165 214 266 323 381
#
# _framework density 26.125173
#
# number of rings (size 3 to 8) (size 9 to 14) (size 15 to 20)
#    0.000    1.500    2.500    4.125    0.000    2.000 
#   11.250    5.000    0.000    0.000    0.000    0.000 
#    0.000    0.000    0.000    0.000    0.000    0.000 
#
# Total GULP energy -89369.382156 kJ/mol
# GULP energy per Si atom -5585.586385 kJ/mol
# Density = 2.606571 g / cm^3
# Si number density = 26.125173 Si / 1000 Ang^3
#
#
#
# Elastic Constant Matrix: (Units=GPa)
#
#
# Indices 1 2 3 4 5 6 
#
# 1 177.4750 45.0075 20.7634 -3.2462 -23.7400 24.2929
# 2 45.0075 89.6337 15.0467 -6.0472 9.2363 12.3845
# 3 20.7634 15.0467 62.7100 -6.2442 -3.6436 6.0555
# 4 -3.2462 -6.0472 -6.2442 25.8897 -4.0376 -0.9238
# 5 -23.7400 9.2363 -3.6436 -4.0376 43.7050 1.0848
# 6 24.2929 12.3845 6.0555 -0.9238 1.0848 48.6914
#
#
#
# Elastic Compliance Matrix: (Units=1/GPa)
#
#
# Indices 1 2 3 4 5 6 
#
# 1 0.007817 -0.003840 -0.001039 0.000523 0.005091 -0.002898
# 2 -0.003840 0.014255 -0.002173 0.001481 -0.005110 -0.001298
# 3 -0.001039 -0.002173 0.017391 0.003787 0.001721 -0.001058
# 4 0.000523 0.001481 0.003787 0.040566 0.004045 -0.000429
# 5 0.005091 -0.005110 0.001721 0.004045 0.027293 -0.001986
# 6 -0.002898 -0.001298 -0.001058 -0.000429 -0.001986 0.022481
#
#
# Mechanical properties :
#
#
# Convention : Reuss Voigt Hill
#
# Bulk Modulus (GPa) = 39.43341 54.60599 47.01970
# Shear Modulus (GPa) = 32.81690 40.25730 36.53710
#
# Velocity S-wave (km/s) = 3.54805 3.92974 3.74376
# Velocity P-wave (km/s) = 5.64904 6.44496 6.06008
#
# Compressibility (1/GPa) = 0.02535921
#
# Stress axis : x y z
#
# Youngs Moduli (GPa) = 127.92324 70.14991 57.50031
#
# Poissons Ratio (x) = 0.26936 0.05976
# Poissons Ratio (y) = 0.49119 0.12496
# Poissons Ratio (z) = 0.13294 0.15245
#
# Static dielectric constant tensor:
#      x y z
#    x 2.117150 -0.038690 -0.017420 
#    y -0.038690 2.153990 0.038510 
#    z -0.017420 0.038510 2.093510 
# 
# From -- ./inp_files/557367.got.cif
#   From: 2010.05.17/outbox.cif.g08.bks.cpg/sg2_279_cif.got.tgz:557367.got - 2010.06.03 11:33:40.
