data_PCOD9102617
_publ_section_title
;
Structure prediction by ZEFSAII (Michael W. Deem and Ramdas Pophale) SiO2 
 PCOD9102617
Probable space group: P -1
;
_chemical_formula_sum "Si O2"
_cell_formula_units_Z 14
_cell_length_a 10.434586
_cell_length_b 11.926357
_cell_length_c 11.515705
_cell_angle_alpha 144.558940
_cell_angle_beta 58.703433
_cell_angle_gamma 98.535232
_cell_volume 590.868858
_symmetry_space_group_name_H-M "P -1"
_symmetry_group_IT_number 2
_symmetry_cell_setting 'triclinic'
loop_
_space_group_symop_operation_xyz
x,y,z
-x,-y,-z
loop_
_atom_site_type_symbol
_atom_site_label
_atom_site_fract_x
_atom_site_fract_y
_atom_site_fract_z
Si Si1 0.558625 0.809095 0.410428
Si Si2 0.561873 0.189655 0.299911
Si Si3 0.487739 0.330474 0.197896
Si Si4 0.817882 0.691929 0.808168
Si Si5 0.173349 0.015908 0.408490
Si Si6 0.678744 0.258071 0.670062
Si Si7 0.110141 0.541404 0.189299
O O1 0.553078 0.849228 0.583240
O O2 0.389856 0.781698 0.449470
O O3 0.500000 0.000000 0.500000
O O4 0.746484 0.587105 0.090607
O O5 0.494144 0.218417 0.224625
O O6 0.549880 0.422161 0.537423
O O7 0.755427 0.949187 0.016252
O O8 0.339076 0.340672 0.192214
O O9 0.680686 0.175152 0.910762
O O10 0.854594 0.648413 0.892328
O O11 0.000000 0.500000 0.500000
O O12 0.267438 0.941495 0.428011
O O13 0.000000 0.000000 0.500000
O O14 0.082836 0.275083 0.619599
O O15 0.834408 0.304652 0.635632
O O16 0.500000 0.500000 0.000000
#
# Coordination Sequence:
#
# PCOD9102617 Si02
#       7
#     2   2   2   2   2   2   2
#     4  11  20  38  62  95 132 169 221 271 329 394
#     4  11  24  42  69  98 134 177 226 275 341 404
#     4  11  24  45  70  96 136 180 220 281 340 398
#     4  12  25  44  67  98 132 178 229 274 339 405
#     4  10  20  38  69  99 127 169 226 272 331 404
#     4   9  18  34  62  90 119 172 214 259 330 387
#     4  10  20  38  63  92 130 168 221 277 327 395
#
# _framework density 23.693923000000002
#
# number of rings (size 3 to 8) (size 9 to 14) (size 15 to 20)
#    0.000    1.429    1.429    6.429    0.000    0.571 
#    0.000    7.857    6.286    0.000    0.000    0.000 
#    0.000    0.000    0.000    0.000    0.000    0.000 
#
# Total GULP energy -78182.402998 kJ/mol
# GULP energy per Si atom -5584.457357 kJ/mol
# Density = 2.363999 g / cm^3
# Si number density = 23.693923 Si / 1000 Ang^3
#
#
#
# Elastic Constant Matrix: (Units=GPa)
#
#
# Indices 1 2 3 4 5 6 
#
# 1 85.1649 26.2258 48.5543 2.6301 -18.5989 -18.6425
# 2 26.2258 148.4997 39.9619 6.4873 -11.1193 -43.5899
# 3 48.5543 39.9619 168.4942 5.8025 -18.9694 -10.8677
# 4 2.6301 6.4873 5.8025 53.8299 -2.0610 -6.1378
# 5 -18.5989 -11.1193 -18.9694 -2.0610 33.7390 8.0613
# 6 -18.6425 -43.5899 -10.8677 -6.1378 8.0613 42.2848
#
#
#
# Elastic Compliance Matrix: (Units=1/GPa)
#
#
# Indices 1 2 3 4 5 6 
#
# 1 0.016214 0.000092 -0.003734 0.000416 0.005635 0.005270
# 2 0.000092 0.010146 -0.001789 0.000112 -0.000007 0.010058
# 3 -0.003734 -0.001789 0.007555 -0.000568 0.002048 -0.002022
# 4 0.000416 0.000112 -0.000568 0.018943 0.000430 0.002820
# 5 0.005635 -0.000007 0.002048 0.000430 0.034772 -0.003564
# 6 0.005270 0.010058 -0.002022 0.002820 -0.003564 0.036910
#
#
# Mechanical properties :
#
#
# Convention : Reuss Voigt Hill
#
# Bulk Modulus (GPa) = 43.37859 70.18253 56.78056
# Shear Modulus (GPa) = 34.94416 45.13187 40.03801
#
# Velocity S-wave (km/s) = 3.84450 4.36912 4.11518
# Velocity P-wave (km/s) = 6.16884 7.42543 6.82611
#
# Compressibility (1/GPa) = 0.02305285
#
# Stress axis : x y z
#
# Youngs Moduli (GPa) = 61.67589 98.56144 132.36303
#
# Poissons Ratio (x) = -0.00907 0.49426
# Poissons Ratio (y) = -0.00567 0.23678
# Poissons Ratio (z) = 0.23030 0.17631
#
# Static dielectric constant tensor:
#      x y z
#    x 1.979110 0.065380 0.042230 
#    y 0.065380 1.990900 0.067290 
#    z 0.042230 0.067290 1.912290 
# 
# From -- ./inp_files/259565.got.cif
#   From: 2010.05.17/outbox.cif.g08.bks.cpg/sg2_130_cif.got.tgz:259565.got - 2010.06.03 11:33:40.
