data_PCOD9102448
_publ_section_title
;
Structure prediction by ZEFSAII (Michael W. Deem and Ramdas Pophale) SiO2 
 PCOD9102448
Probable space group: P -1
;
_chemical_formula_sum "Si O2"
_cell_formula_units_Z 14
_cell_length_a 15.228790
_cell_length_b 8.349612
_cell_length_c 8.919762
_cell_angle_alpha 54.447656
_cell_angle_beta 42.734367
_cell_angle_gamma 57.014226
_cell_volume 611.874280
_symmetry_space_group_name_H-M "P -1"
_symmetry_group_IT_number 2
_symmetry_cell_setting 'triclinic'
loop_
_space_group_symop_operation_xyz
x,y,z
-x,-y,-z
loop_
_atom_site_type_symbol
_atom_site_label
_atom_site_fract_x
_atom_site_fract_y
_atom_site_fract_z
Si Si1 0.892883 0.867720 0.797785
Si Si2 0.774085 0.608651 0.312379
Si Si3 0.162180 0.866610 0.543271
Si Si4 0.513536 0.327042 0.446344
Si Si5 0.365531 0.510112 0.066550
Si Si6 0.920565 0.450793 0.482134
Si Si7 0.596489 0.964795 0.752264
O O1 0.004495 0.932192 0.727262
O O2 0.977838 0.712236 0.655282
O O3 0.816371 0.049547 0.695582
O O4 0.806009 0.749872 0.065482
O O5 0.808739 0.373491 0.350015
O O6 0.617906 0.650325 0.502200
O O7 0.863552 0.625147 0.336114
O O8 0.265968 0.959145 0.452740
O O9 0.500000 0.500000 0.500000
O O10 0.529615 0.109698 0.622887
O O11 0.620826 0.375205 0.168931
O O12 0.219575 0.601010 0.265411
O O13 0.367508 0.274176 0.173898
O O14 0.500000 0.500000 0.000000
O O15 0.000000 0.500000 0.500000
O O16 0.500000 0.000000 0.000000
#
# Coordination Sequence:
#
# PCOD9102448 Si02
#       7
#     2   2   2   2   2   2   2
#     4  10  23  40  69  97 133 182 235 283 340 412
#     4  11  22  44  69 100 138 180 237 287 337 415
#     4  10  20  38  63 102 130 171 233 285 334 399
#     4  12  24  43  74 104 133 189 239 286 348 420
#     4  12  27  49  68 103 151 181 227 299 358 412
#     4  11  24  42  67  96 142 183 219 285 359 400
#     4  12  24  40  73 103 135 181 243 284 340 427
#
# _framework density 22.880517999999999
#
# number of rings (size 3 to 8) (size 9 to 14) (size 15 to 20)
#    0.000    0.857    4.286    3.429    4.000    1.714 
#    0.000    1.429    0.000   18.857    0.000    0.000 
#    0.000    0.000    0.000    0.000    0.000    0.000 
#
# Total GULP energy -78111.384441 kJ/mol
# GULP energy per Si atom -5579.384603 kJ/mol
# Density = 2.282844 g / cm^3
# Si number density = 22.880518 Si / 1000 Ang^3
#
#
#
# Elastic Constant Matrix: (Units=GPa)
#
#
# Indices 1 2 3 4 5 6 
#
# 1 92.6350 -8.8732 -27.4698 3.8660 -18.5615 0.2802
# 2 -8.8732 36.3453 4.0514 -0.0004 -0.0348 2.4945
# 3 -27.4698 4.0514 130.8391 -9.5972 3.9618 4.7940
# 4 3.8660 -0.0004 -9.5972 45.8932 -5.4710 6.9615
# 5 -18.5615 -0.0348 3.9618 -5.4710 35.6033 -6.3590
# 6 0.2802 2.4945 4.7940 6.9615 -6.3590 25.5939
#
#
#
# Elastic Compliance Matrix: (Units=1/GPa)
#
#
# Indices 1 2 3 4 5 6 
#
# 1 0.013139 0.002889 0.002444 0.000091 0.006731 0.000765
# 2 0.002889 0.028417 -0.000197 0.000238 0.001138 -0.002546
# 3 0.002444 -0.000197 0.008366 0.001882 0.000272 -0.002019
# 4 0.000091 0.000238 0.001882 0.023388 0.002332 -0.006159
# 5 0.006731 0.001138 0.000272 0.002332 0.033246 0.007390
# 6 0.000765 -0.002546 -0.002019 -0.006159 0.007390 0.043201
#
#
# Mechanical properties :
#
#
# Convention : Reuss Voigt Hill
#
# Bulk Modulus (GPa) = 16.61274 21.69291 19.15283
# Shear Modulus (GPa) = 31.33822 40.89217 36.11519
#
# Velocity S-wave (km/s) = 3.70489 4.23212 3.97725
# Velocity P-wave (km/s) = 5.05747 5.77777 5.42958
#
# Compressibility (1/GPa) = 0.06019475
#
# Stress axis : x y z
#
# Youngs Moduli (GPa) = 76.10800 35.19011 119.53134
#
# Poissons Ratio (x) = -0.10168 -0.29213
# Poissons Ratio (y) = -0.21990 0.02355
# Poissons Ratio (z) = -0.18600 0.00693
#
# Static dielectric constant tensor:
#      x y z
#    x 1.929970 0.007090 0.025220 
#    y 0.007090 1.914840 0.001620 
#    z 0.025220 0.001620 1.835960 
# 
# From -- ./inp_files/293858.got.cif
#   From: 2010.05.17/outbox.cif.g08.bks.cpg/sg2_147_cif.got.tgz:293858.got - 2010.06.03 11:33:40.
