data_PCOD9102560
_publ_section_title
;
Structure prediction by ZEFSAII (Michael W. Deem and Ramdas Pophale) SiO2 
 PCOD9102560
Probable space group: P -1
;
_chemical_formula_sum "Si O2"
_cell_formula_units_Z 16
_cell_length_a 11.276112
_cell_length_b 5.169834
_cell_length_c 23.918713
_cell_angle_alpha 107.370057
_cell_angle_beta 150.722604
_cell_angle_gamma 68.006658
_cell_volume 631.053722
_symmetry_space_group_name_H-M "P -1"
_symmetry_group_IT_number 2
_symmetry_cell_setting 'triclinic'
loop_
_space_group_symop_operation_xyz
x,y,z
-x,-y,-z
loop_
_atom_site_type_symbol
_atom_site_label
_atom_site_fract_x
_atom_site_fract_y
_atom_site_fract_z
Si Si1 0.718272 0.387522 0.950243
Si Si2 0.723666 0.888760 0.849571
Si Si3 0.083319 0.578564 0.328155
Si Si4 0.916632 0.529505 0.146155
Si Si5 0.547036 0.108560 0.464723
Si Si6 0.192603 0.921045 0.623928
Si Si7 0.232985 0.897655 0.237803
Si Si8 0.206557 0.542589 0.702575
O O1 0.485742 0.570113 0.832406
O O2 0.696283 0.070518 0.907053
O O3 0.696640 0.515658 0.011806
O O4 0.012265 0.339164 0.053042
O O5 0.487081 0.774687 0.725557
O O6 0.735128 0.103271 0.816255
O O7 0.333019 0.397283 0.389592
O O8 0.190718 0.806990 0.420053
O O9 0.884048 0.673817 0.202879
O O10 0.971581 0.391520 0.312839
O O11 0.105747 0.678063 0.200916
O O12 0.038214 0.200711 0.184847
O O13 0.500000 0.000000 0.500000
O O14 0.481632 0.915654 0.376144
O O15 0.108673 0.715749 0.619111
O O16 0.217432 0.218475 0.676456
O O17 0.000000 0.000000 0.500000
#
# Coordination Sequence:
#
# PCOD9102560 Si02
#       8
#     2   2   2   2   2   2   2   2
#     4   9  21  42  67  98 131 177 228 274 323 395
#     4   9  21  41  69  93 133 176 224 280 329 383
#     4  10  23  39  61  96 131 175 214 275 330 388
#     4  10  21  38  60  93 129 160 221 264 323 382
#     4  10  20  38  63  90 130 171 223 269 325 401
#     4  11  26  46  64 100 134 174 223 272 335 403
#     4  10  21  35  60  95 120 164 217 273 323 381
#     4  11  26  43  68  96 135 177 220 269 339 392
#
# _framework density 25.354417000000002
#
# number of rings (size 3 to 8) (size 9 to 14) (size 15 to 20)
#    0.000    2.000    1.250    0.375    3.500   10.500 
#    0.000    0.000    0.000    8.250    0.000    0.000 
#    0.000    0.000    0.000    0.000    0.000    0.000 
#
# Total GULP energy -89272.940106 kJ/mol
# GULP energy per Si atom -5579.558757 kJ/mol
# Density = 2.529671 g / cm^3
# Si number density = 25.354417 Si / 1000 Ang^3
#
#
#
# Elastic Constant Matrix: (Units=GPa)
#
#
# Indices 1 2 3 4 5 6 
#
# 1 78.2680 24.4422 51.7706 -3.9739 -1.6961 35.6928
# 2 24.4422 64.4249 16.7509 3.8701 1.2810 20.7869
# 3 51.7706 16.7509 190.3110 7.1778 -19.5645 11.4581
# 4 -3.9739 3.8701 7.1778 31.8111 -1.1501 -4.6846
# 5 -1.6961 1.2810 -19.5645 -1.1501 40.4995 -8.9929
# 6 35.6928 20.7869 11.4581 -4.6846 -8.9929 37.0353
#
#
#
# Elastic Compliance Matrix: (Units=1/GPa)
#
#
# Indices 1 2 3 4 5 6 
#
# 1 0.031358 -0.000158 -0.007681 0.000954 -0.008986 -0.029818
# 2 -0.000158 0.020220 -0.001260 -0.004160 -0.004111 -0.012332
# 3 -0.007681 -0.001260 0.007597 -0.001348 0.004853 0.006767
# 4 0.000954 -0.004160 -0.001348 0.033395 0.001917 0.006523
# 5 -0.008986 -0.004111 0.004853 0.001917 0.030653 0.017152
# 6 -0.029818 -0.012332 0.006767 0.006523 0.017152 0.065556
#
#
# Mechanical properties :
#
#
# Convention : Reuss Voigt Hill
#
# Bulk Modulus (GPa) = 24.40352 57.65903 41.03128
# Shear Modulus (GPa) = 22.66177 37.87186 30.26681
#
# Velocity S-wave (km/s) = 2.99289 3.86903 3.45882
# Velocity P-wave (km/s) = 4.64640 6.53833 5.67181
#
# Compressibility (1/GPa) = 0.04097769
#
# Stress axis : x y z
#
# Youngs Moduli (GPa) = 31.88957 49.45637 131.62644
#
# Poissons Ratio (x) = 0.00779 1.01103
# Poissons Ratio (y) = 0.00503 0.16587
# Poissons Ratio (z) = 0.24495 0.06232
#
# Static dielectric constant tensor:
#      x y z
#    x 2.089890 -0.064280 0.003660 
#    y -0.064280 2.004940 0.013020 
#    z 0.003660 0.013020 2.068460 
# 
# From -- ./inp_files/609198.got.cif
#   From: 2010.05.17/outbox.cif.g08.bks.cpg/sg2_305_cif.got.tgz:609198.got - 2010.06.03 11:33:40.
