data_PCOD9102319
_publ_section_title
;
Structure prediction by ZEFSAII (Michael W. Deem and Ramdas Pophale) SiO2 
 PCOD9102319
Probable space group: P -1
;
_chemical_formula_sum "Si O2"
_cell_formula_units_Z 16
_cell_length_a 13.001727
_cell_length_b 5.097525
_cell_length_c 25.547704
_cell_angle_alpha 125.420073
_cell_angle_beta 27.064086
_cell_angle_gamma 120.442895
_cell_volume 627.607774
_symmetry_space_group_name_H-M "P -1"
_symmetry_group_IT_number 2
_symmetry_cell_setting 'triclinic'
loop_
_space_group_symop_operation_xyz
x,y,z
-x,-y,-z
loop_
_atom_site_type_symbol
_atom_site_label
_atom_site_fract_x
_atom_site_fract_y
_atom_site_fract_z
Si Si1 0.332857 0.730417 0.635295
Si Si2 0.985616 0.522172 0.946926
Si Si3 0.487087 0.279263 0.817824
Si Si4 0.352860 0.012231 0.135758
Si Si5 0.413758 0.475255 0.681268
Si Si6 0.886486 0.915477 0.648496
Si Si7 0.730807 0.288319 0.605642
Si Si8 0.832700 0.886376 0.884361
O O1 0.500000 0.500000 0.500000
O O2 0.413338 0.677825 0.652317
O O3 0.061864 0.669162 0.749614
O O4 0.364053 0.100739 0.646774
O O5 0.211799 0.604550 0.824422
O O6 0.919926 0.175348 0.913739
O O7 0.773749 0.750547 0.054046
O O8 0.000000 0.500000 0.000000
O O9 0.565115 0.628491 0.844240
O O10 0.529019 0.234540 0.731614
O O11 0.654354 0.029782 0.740390
O O12 0.150606 0.955400 0.261705
O O13 0.248751 0.005594 0.124307
O O14 0.587379 0.800651 0.010243
O O15 0.630555 0.448569 0.617058
O O16 0.877973 0.528986 0.602353
O O17 0.103549 0.994121 0.524432
#
# Coordination Sequence:
#
# PCOD9102319 Si02
#       8
#     2   2   2   2   2   2   2   2
#     4  11  26  46  69  97 134 175 224 273 335 398
#     4  10  20  40  65  95 131 172 219 275 336 394
#     4  10  20  38  62  91 126 170 217 270 332 393
#     4   9  20  41  59  90 124 168 216 271 329 381
#     4  11  25  44  69 101 131 177 221 275 332 402
#     4  10  22  36  63  89 125 171 216 273 325 390
#     4  10  22  39  58  93 133 162 223 269 331 394
#     4   9  21  41  62  90 131 164 220 273 323 400
#
# _framework density 25.49363
#
# number of rings (size 3 to 8) (size 9 to 14) (size 15 to 20)
#    0.000    2.000    1.250    0.750    5.250    1.000 
#    4.500    5.000    0.000    0.000    0.000    0.000 
#    0.000    0.000    0.000    0.000    0.000    0.000 
#
# Total GULP energy -89434.900686 kJ/mol
# GULP energy per Si atom -5589.681293 kJ/mol
# Density = 2.543561 g / cm^3
# Si number density = 25.493630 Si / 1000 Ang^3
#
#
#
# Elastic Constant Matrix: (Units=GPa)
#
#
# Indices 1 2 3 4 5 6 
#
# 1 142.7715 8.5390 61.1693 0.0592 4.9927 5.9152
# 2 8.5390 63.2697 15.6113 13.4884 5.1266 23.4391
# 3 61.1693 15.6113 228.2402 7.9350 -1.4534 9.3056
# 4 0.0592 13.4884 7.9350 15.7137 -9.1002 4.5994
# 5 4.9927 5.1266 -1.4534 -9.1002 38.2159 4.1847
# 6 5.9152 23.4391 9.3056 4.5994 4.1847 37.2180
#
#
#
# Elastic Compliance Matrix: (Units=1/GPa)
#
#
# Indices 1 2 3 4 5 6 
#
# 1 0.007996 -0.000615 -0.002133 0.001305 -0.000685 -0.000435
# 2 -0.000615 0.026139 -0.000361 -0.022920 -0.007519 -0.012596
# 3 -0.002133 -0.000361 0.005068 -0.002063 0.000078 -0.000455
# 4 0.001305 -0.022920 -0.002063 0.099996 0.026705 -0.000617
# 5 -0.000685 -0.007519 0.000078 0.026705 0.033878 -0.002285
# 6 -0.000435 -0.012596 -0.000455 -0.000617 -0.002285 0.035318
#
#
# Mechanical properties :
#
#
# Convention : Reuss Voigt Hill
#
# Bulk Modulus (GPa) = 30.31440 67.21341 48.76391
# Shear Modulus (GPa) = 22.16234 41.49364 31.82799
#
# Velocity S-wave (km/s) = 2.95164 4.03874 3.53720
# Velocity P-wave (km/s) = 4.85108 6.94050 5.98764
#
# Compressibility (1/GPa) = 0.03298762
#
# Stress axis : x y z
#
# Youngs Moduli (GPa) = 125.05869 38.25655 197.29895
#
# Poissons Ratio (x) = 0.02351 0.42084
# Poissons Ratio (y) = 0.07685 0.07116
# Poissons Ratio (z) = 0.26675 0.01380
#
# Static dielectric constant tensor:
#      x y z
#    x 1.960240 0.027870 0.007040 
#    y 0.027870 2.109280 -0.024520 
#    z 0.007040 -0.024520 2.073100 
# 
# From -- ./inp_files/69992.got.cif
#   From: 2010.05.17/outbox.cif.g08.bks.cpg/sg2_35_cif.got.tgz:69992.got - 2010.06.03 11:33:40.
