data_PCOD9102145
_publ_section_title
;
Structure prediction by ZEFSAII (Michael W. Deem and Ramdas Pophale) SiO2 
 PCOD9102145
Probable space group: P -1
;
_chemical_formula_sum "Si O2"
_cell_formula_units_Z 16
_cell_length_a 19.014667
_cell_length_b 8.639997
_cell_length_c 10.361632
_cell_angle_alpha 44.188448
_cell_angle_beta 141.144034
_cell_angle_gamma 141.345847
_cell_volume 640.774012
_symmetry_space_group_name_H-M "P -1"
_symmetry_group_IT_number 2
_symmetry_cell_setting 'triclinic'
loop_
_space_group_symop_operation_xyz
x,y,z
-x,-y,-z
loop_
_atom_site_type_symbol
_atom_site_label
_atom_site_fract_x
_atom_site_fract_y
_atom_site_fract_z
Si Si1 0.852388 0.873300 0.232192
Si Si2 0.449640 0.619917 0.679278
Si Si3 0.788051 0.372612 0.554879
Si Si4 0.153215 0.723327 0.578621
Si Si5 0.265230 0.580438 0.065709
Si Si6 0.373039 0.101066 0.986984
Si Si7 0.936483 0.889289 0.829133
Si Si8 0.296851 0.179671 0.189671
O O1 0.878012 0.683291 0.472971
O O2 0.777323 0.986366 0.138558
O O3 0.738363 0.722390 0.050437
O O4 0.970959 0.032303 0.210133
O O5 0.321766 0.637561 0.502372
O O6 0.411358 0.321277 0.802790
O O7 0.557987 0.771048 0.636940
O O8 0.528969 0.752064 0.844467
O O9 0.770629 0.294949 0.425118
O O10 0.802327 0.131169 0.766103
O O11 0.213291 0.678471 0.816875
O O12 0.000000 0.500000 0.500000
O O13 0.149579 0.982485 0.403633
O O14 0.379411 0.847499 0.121201
O O15 0.148744 0.416466 0.096586
O O16 0.292803 0.362986 0.182320
O O17 0.000000 0.000000 0.000000
#
# Coordination Sequence:
#
# PCOD9102145 Si02
#       8
#     2   2   2   2   2   2   2   2
#     4  10  20  38  62  86 120 165 202 241 301 365
#     4   9  21  42  65  83 116 167 206 247 310 359
#     4  11  19  36  64  92 114 158 211 246 290 368
#     4  12  21  36  61  93 122 161 198 244 298 360
#     4  12  24  37  61  96 124 156 203 252 301 358
#     4   9  22  42  62  87 124 159 201 256 306 355
#     4  12  20  37  63  92 121 163 203 243 300 359
#     4  11  20  36  63  93 116 158 206 250 301 360
#
# _framework density 24.969802999999999
#
# number of rings (size 3 to 8) (size 9 to 14) (size 15 to 20)
#    0.000    1.250    6.250    1.125    0.000    1.000 
#    0.000    7.500    0.000    0.000    0.000    0.000 
#    0.000    0.000    0.000    0.000    0.000    0.000 
#
# Total GULP energy -89154.765027 kJ/mol
# GULP energy per Si atom -5572.172814 kJ/mol
# Density = 2.491297 g / cm^3
# Si number density = 24.969803 Si / 1000 Ang^3
#
#
#
# Elastic Constant Matrix: (Units=GPa)
#
#
# Indices 1 2 3 4 5 6 
#
# 1 70.1648 8.9937 16.6573 -1.8104 -7.7028 14.3957
# 2 8.9937 90.1676 30.5932 -32.3899 -8.5127 -2.5383
# 3 16.6573 30.5932 114.5656 -34.5859 -12.5417 1.3202
# 4 -1.8104 -32.3899 -34.5859 39.2321 -0.0910 1.1193
# 5 -7.7028 -8.5127 -12.5417 -0.0910 12.4788 -8.8284
# 6 14.3957 -2.5383 1.3202 1.1193 -8.8284 18.8196
#
#
#
# Elastic Compliance Matrix: (Units=1/GPa)
#
#
# Indices 1 2 3 4 5 6 
#
# 1 0.018203 -0.003420 -0.003764 -0.004830 -0.007039 -0.017136
# 2 -0.003420 0.020206 0.003795 0.019454 0.027542 0.016839
# 3 -0.003764 0.003795 0.016012 0.016751 0.026013 0.013475
# 4 -0.004830 0.019454 0.016751 0.055565 0.043152 0.022081
# 5 -0.007039 0.027542 0.026013 0.043152 0.186147 0.092031
# 6 -0.017136 0.016839 0.013475 0.022081 0.092031 0.109429
#
#
# Mechanical properties :
#
#
# Convention : Reuss Voigt Hill
#
# Bulk Modulus (GPa) = 20.98985 43.04294 32.01639
# Shear Modulus (GPa) = 11.67621 28.68300 20.17961
#
# Velocity S-wave (km/s) = 2.16478 3.39294 2.84590
# Velocity P-wave (km/s) = 3.83050 5.71181 4.86300
#
# Compressibility (1/GPa) = 0.04764209
#
# Stress axis : x y z
#
# Youngs Moduli (GPa) = 54.93710 49.48955 62.45379
#
# Poissons Ratio (x) = 0.16927 0.23510
# Poissons Ratio (y) = 0.18790 -0.23703
# Poissons Ratio (z) = 0.20681 -0.18783
#
# Static dielectric constant tensor:
#      x y z
#    x 2.080720 0.018670 0.052830 
#    y 0.018670 2.059090 0.004730 
#    z 0.052830 0.004730 2.025980 
# 
# From -- ./inp_files/469790.got.cif
#   From: 2010.05.17/outbox.cif.g08.bks.cpg/sg2_235_cif.got.tgz:469790.got - 2010.06.03 11:33:40.
