data_PCOD9102087
_publ_section_title
;
Structure prediction by ZEFSAII (Michael W. Deem and Ramdas Pophale) SiO2 
 PCOD9102087
Probable space group: P -1
;
_chemical_formula_sum "Si O2"
_cell_formula_units_Z 16
_cell_length_a 25.766901
_cell_length_b 12.807230
_cell_length_c 9.150988
_cell_angle_alpha 63.163930
_cell_angle_beta 46.190751
_cell_angle_gamma 26.804243
_cell_volume 844.468887
_symmetry_space_group_name_H-M "P -1"
_symmetry_group_IT_number 2
_symmetry_cell_setting 'triclinic'
loop_
_space_group_symop_operation_xyz
x,y,z
-x,-y,-z
loop_
_atom_site_type_symbol
_atom_site_label
_atom_site_fract_x
_atom_site_fract_y
_atom_site_fract_z
Si Si1 0.807792 0.748375 0.706072
Si Si2 0.813164 0.469894 0.914809
Si Si3 0.900026 0.986560 0.119926
Si Si4 0.390622 0.598206 0.961857
Si Si5 0.594212 0.605966 0.391250
Si Si6 0.341741 0.863515 0.489252
Si Si7 0.416747 0.803225 0.899924
Si Si8 0.096271 0.875304 0.241943
O O1 0.787240 0.639540 0.806980
O O2 0.000000 0.500000 0.500000
O O3 0.733463 0.924883 0.599823
O O4 0.711104 0.935944 0.919728
O O5 0.859236 0.315305 0.791045
O O6 0.654658 0.642867 0.191577
O O7 0.966146 0.240718 0.875204
O O8 0.761011 0.281624 0.263636
O O9 0.800175 0.015485 0.253031
O O10 0.983624 0.930480 0.855277
O O11 0.451167 0.443970 0.087069
O O12 0.259170 0.710414 0.067075
O O13 0.545717 0.378355 0.688438
O O14 0.332667 0.811906 0.985041
O O15 0.459712 0.745580 0.456050
O O16 0.513319 0.727537 0.631442
O O17 0.000000 0.000000 0.500000
#
# Coordination Sequence:
#
# PCOD9102087 Si02
#       8
#     2   2   2   2   2   2   2   2
#     4  11  25  45  61  87 128 176 210 237 313 387
#     4  11  25  42  63  89 134 172 198 249 316 379
#     4  11  21  39  65  94 127 165 200 257 317 364
#     4  10  20  38  61  99 119 154 208 263 309 352
#     4  11  21  39  64  99 120 153 214 266 311 353
#     4  11  20  41  69  91 123 163 207 263 304 368
#     4  10  23  36  66  88 122 162 207 260 301 365
#     4  11  24  36  61  98 129 155 204 260 318 360
#
# _framework density 18.946819000000001
#
# number of rings (size 3 to 8) (size 9 to 14) (size 15 to 20)
#    0.000    1.250    5.000    2.625    5.250    1.000 
#    0.000    1.875    0.000    0.000    0.000    0.000 
#    0.000    0.000    0.000    0.000    0.000    0.000 
#
# Total GULP energy -89379.891720 kJ/mol
# GULP energy per Si atom -5586.243233 kJ/mol
# Density = 1.890370 g / cm^3
# Si number density = 18.946819 Si / 1000 Ang^3
#
#
#
# Elastic Constant Matrix: (Units=GPa)
#
#
# Indices 1 2 3 4 5 6 
#
# 1 86.8702 37.5207 26.5765 -8.4811 -8.7115 12.1001
# 2 37.5207 89.0610 39.4368 -14.9800 1.0205 17.0844
# 3 26.5765 39.4368 124.6440 -26.2320 13.8543 12.8906
# 4 -8.4811 -14.9800 -26.2320 22.0381 1.4025 -9.8003
# 5 -8.7115 1.0205 13.8543 1.4025 34.3685 -7.0518
# 6 12.1001 17.0844 12.8906 -9.8003 -7.0518 34.2973
#
#
#
# Elastic Compliance Matrix: (Units=1/GPa)
#
#
# Indices 1 2 3 4 5 6 
#
# 1 0.015014 -0.005411 -0.002152 -0.001295 0.004639 -0.001209
# 2 -0.005411 0.016148 -0.002395 0.004194 -0.001968 -0.004441
# 3 -0.002152 -0.002395 0.012672 0.012837 -0.006192 -0.000416
# 4 -0.001295 0.004194 0.012837 0.068700 -0.005980 0.011944
# 5 0.004639 -0.001968 -0.006192 -0.005980 0.034519 0.007060
# 6 -0.001209 -0.004441 -0.000416 0.011944 0.007060 0.036816
#
#
# Mechanical properties :
#
#
# Convention : Reuss Voigt Hill
#
# Bulk Modulus (GPa) = 41.80974 56.40482 49.10728
# Shear Modulus (GPa) = 23.61161 31.27687 27.44424
#
# Velocity S-wave (km/s) = 3.53399 4.06738 3.81003
# Velocity P-wave (km/s) = 6.22631 7.20366 6.73274
#
# Compressibility (1/GPa) = 0.02391787
#
# Stress axis : x y z
#
# Youngs Moduli (GPa) = 66.60311 61.92589 78.91235
#
# Poissons Ratio (x) = 0.33511 0.16984
# Poissons Ratio (y) = 0.36042 0.18898
# Poissons Ratio (z) = 0.14335 0.14830
#
# Static dielectric constant tensor:
#      x y z
#    x 1.663000 -0.009810 -0.002950 
#    y -0.009810 1.652260 -0.024950 
#    z -0.002950 -0.024950 1.690880 
# 
# From -- ./inp_files/244716.got.cif
#   From: 2010.05.17/outbox.cif.g08.bks.cpg/sg2_123_cif.got.tgz:244716.got - 2010.06.03 11:33:40.
