data_PCOD9102358
_publ_section_title
;
Structure prediction by ZEFSAII (Michael W. Deem and Ramdas Pophale) SiO2 
 PCOD9102358
Probable space group: P -1
;
_chemical_formula_sum "Si O2"
_cell_formula_units_Z 14
_cell_length_a 8.177783
_cell_length_b 12.029528
_cell_length_c 11.910470
_cell_angle_alpha 137.158131
_cell_angle_beta 130.289573
_cell_angle_gamma 52.145384
_cell_volume 585.331865
_symmetry_space_group_name_H-M "P -1"
_symmetry_group_IT_number 2
_symmetry_cell_setting 'triclinic'
loop_
_space_group_symop_operation_xyz
x,y,z
-x,-y,-z
loop_
_atom_site_type_symbol
_atom_site_label
_atom_site_fract_x
_atom_site_fract_y
_atom_site_fract_z
Si Si1 0.967179 0.476874 0.337568
Si Si2 0.258888 0.005436 0.327839
Si Si3 0.061875 0.316255 0.835032
Si Si4 0.764624 0.007875 0.168814
Si Si5 0.386545 0.279677 0.745269
Si Si6 0.194613 0.090365 0.123477
Si Si7 0.713130 0.345042 0.513476
O O1 0.075859 0.288616 0.203841
O O2 0.092893 0.600167 0.426026
O O3 0.000000 0.500000 0.500000
O O4 0.710774 0.551618 0.244630
O O5 0.351105 0.800754 0.205304
O O6 0.999248 0.040319 0.258869
O O7 0.327477 0.118860 0.538928
O O8 0.323559 0.070778 0.284431
O O9 0.159361 0.163739 0.852143
O O10 0.263121 0.305420 0.827864
O O11 0.834399 0.306780 0.661131
O O12 0.000000 0.500000 0.000000
O O13 0.661919 0.175166 0.319931
O O14 0.671496 0.986436 0.986305
O O15 0.000000 0.000000 0.000000
O O16 0.500000 0.500000 0.500000
#
# Coordination Sequence:
#
# PCOD9102358 Si02
#       7
#     2   2   2   2   2   2   2
#     4  11  19  39  61  89 122 162 204 257 308 371
#     4  10  20  38  62  93 119 158 203 260 306 371
#     4  11  24  44  65  90 131 172 209 257 318 383
#     4  11  21  42  64  89 126 167 207 260 316 379
#     4  10  21  37  62  92 122 155 209 252 314 365
#     4  10  21  38  62  91 125 162 207 258 317 368
#     4  11  25  41  62  94 127 166 213 261 317 376
#
# _framework density 23.918054000000001
#
# number of rings (size 3 to 8) (size 9 to 14) (size 15 to 20)
#    0.000    1.429    4.286    3.000    0.000    3.429 
#    0.000    8.571    0.000    0.000    0.000    0.000 
#    0.000    0.000    0.000    0.000    0.000    0.000 
#
# Total GULP energy -78127.546125 kJ/mol
# GULP energy per Si atom -5580.539009 kJ/mol
# Density = 2.386362 g / cm^3
# Si number density = 23.918054 Si / 1000 Ang^3
#
#
#
# Elastic Constant Matrix: (Units=GPa)
#
#
# Indices 1 2 3 4 5 6 
#
# 1 21.4682 2.4999 26.8512 -0.3395 -13.7965 10.9932
# 2 2.4999 157.1309 52.9627 22.4710 -21.0185 2.4783
# 3 26.8512 52.9627 155.2225 18.6696 -19.9688 9.9311
# 4 -0.3395 22.4710 18.6696 44.9592 0.9038 -9.8569
# 5 -13.7965 -21.0185 -19.9688 0.9038 40.0191 -0.1231
# 6 10.9932 2.4783 9.9311 -9.8569 -0.1231 44.4347
#
#
#
# Elastic Compliance Matrix: (Units=1/GPa)
#
#
# Indices 1 2 3 4 5 6 
#
# 1 0.090848 0.007481 -0.012915 -0.002773 0.028804 -0.020542
# 2 0.007481 0.008542 -0.002873 -0.003680 0.005708 -0.002486
# 3 -0.012915 -0.002873 0.009799 -0.002581 -0.001011 0.000590
# 4 -0.002773 -0.003680 -0.002581 0.026853 -0.004760 0.007412
# 5 0.028804 0.005708 -0.001011 -0.004760 0.037494 -0.008170
# 6 -0.020542 -0.002486 0.000590 0.007412 -0.008170 0.029215
#
#
# Mechanical properties :
#
#
# Convention : Reuss Voigt Hill
#
# Bulk Modulus (GPa) = 10.80184 55.38325 33.09255
# Shear Modulus (GPa) = 19.98213 42.64979 31.31596
#
# Velocity S-wave (km/s) = 2.89354 4.22733 3.62235
# Velocity P-wave (km/s) = 3.96098 6.85805 5.60010
#
# Compressibility (1/GPa) = 0.09257682
#
# Stress axis : x y z
#
# Youngs Moduli (GPa) = 11.00738 117.06360 102.04832
#
# Poissons Ratio (x) = -0.87577 1.31792
# Poissons Ratio (y) = -0.08235 0.29318
# Poissons Ratio (z) = 0.14216 0.33632
#
# Static dielectric constant tensor:
#      x y z
#    x 2.005730 -0.183290 0.055410 
#    y -0.183290 2.231180 -0.209060 
#    z 0.055410 -0.209060 2.064610 
# 
# From -- ./inp_files/174477.got.cif
#   From: 2010.05.17/outbox.cif.g08.bks.cpg/sg2_88_cif.got.tgz:174477.got - 2010.06.03 11:33:40.
