data_PCOD9102015
_publ_section_title
;
Structure prediction by ZEFSAII (Michael W. Deem and Ramdas Pophale) SiO2 
 PCOD9102015
Probable space group: P -1
;
_chemical_formula_sum "Si O2"
_cell_formula_units_Z 16
_cell_length_a 18.059025
_cell_length_b 5.406597
_cell_length_c 7.034438
_cell_angle_alpha 102.778300
_cell_angle_beta 91.999618
_cell_angle_gamma 69.878254
_cell_volume 628.297110
_symmetry_space_group_name_H-M "P -1"
_symmetry_group_IT_number 2
_symmetry_cell_setting 'triclinic'
loop_
_space_group_symop_operation_xyz
x,y,z
-x,-y,-z
loop_
_atom_site_type_symbol
_atom_site_label
_atom_site_fract_x
_atom_site_fract_y
_atom_site_fract_z
Si Si1 0.412944 0.210682 0.505112
Si Si2 0.405947 0.123460 0.046508
Si Si3 0.168682 0.884617 0.596273
Si Si4 0.324539 0.725248 0.069644
Si Si5 0.655754 0.204829 0.461014
Si Si6 0.853299 0.980416 0.825320
Si Si7 0.959990 0.801563 0.124827
Si Si8 0.932181 0.410162 0.578876
O O1 0.406625 0.520081 0.581753
O O2 0.500000 0.000000 0.500000
O O3 0.391548 0.198254 0.280593
O O4 0.361247 0.074109 0.600275
O O5 0.366060 0.896738 0.981440
O O6 0.364565 0.406524 0.985026
O O7 0.500000 0.000000 0.000000
O O8 0.261089 0.799274 0.615368
O O9 0.154987 0.920655 0.374990
O O10 0.120934 0.679831 0.591951
O O11 0.121644 0.147294 0.757087
O O12 0.339338 0.762517 0.302987
O O13 0.230266 0.853500 0.060214
O O14 0.924358 0.989239 0.969946
O O15 0.872885 0.659723 0.736757
O O16 0.017778 0.814917 0.303337
O O17 0.000000 0.500000 0.000000
O O18 0.000000 0.500000 0.500000
#
# Coordination Sequence:
#
# PCOD9102015 Si02
#       8
#     2   2   2   2   2   2   2   2
#     4  10  20  39  61  95 125 165 214 268 321 397
#     4  10  20  38  61  91 123 169 207 263 323 399
#     4  11  23  42  68  91 133 180 218 278 345 397
#     4   9  20  37  62  89 126 165 219 258 329 393
#     4   9  21  36  66  89 125 172 216 263 330 395
#     4  10  23  41  66  91 132 174 220 283 337 396
#     4  10  23  44  62  99 128 167 226 280 332 407
#     4  11  23  41  68  94 129 174 226 276 342 405
#
# _framework density 25.465661000000001
#
# number of rings (size 3 to 8) (size 9 to 14) (size 15 to 20)
#    0.000    2.000    1.250    1.125    8.750    0.500 
#    9.000    0.000    0.000    0.000    0.000    0.000 
#    0.000    0.000    0.000    0.000    0.000    0.000 
#
# Total GULP energy -89377.726011 kJ/mol
# GULP energy per Si atom -5586.107876 kJ/mol
# Density = 2.540770 g / cm^3
# Si number density = 25.465661 Si / 1000 Ang^3
#
#
#
# Elastic Constant Matrix: (Units=GPa)
#
#
# Indices 1 2 3 4 5 6 
#
# 1 130.2801 69.0332 17.5020 11.2220 -19.1465 -8.0140
# 2 69.0332 137.1174 27.7571 -2.4411 -14.3982 -5.6746
# 3 17.5020 27.7571 107.6288 6.5386 -9.8983 12.8270
# 4 11.2220 -2.4411 6.5386 47.0253 -0.2394 -6.3925
# 5 -19.1465 -14.3982 -9.8983 -0.2394 38.9902 -1.9800
# 6 -8.0140 -5.6746 12.8270 -6.3925 -1.9800 43.0033
#
#
#
# Elastic Compliance Matrix: (Units=1/GPa)
#
#
# Indices 1 2 3 4 5 6 
#
# 1 0.011353 -0.005311 -0.000117 -0.002787 0.003628 0.001203
# 2 -0.005311 0.010580 -0.002095 0.002304 0.000853 0.001413
# 3 -0.000117 -0.002095 0.010565 -0.002041 0.001652 -0.003677
# 4 -0.002787 0.002304 -0.002041 0.022841 -0.000705 0.003756
# 5 0.003628 0.000853 0.001652 -0.000705 0.028235 0.001491
# 6 0.001203 0.001413 -0.003677 0.003756 0.001491 0.025388
#
#
# Mechanical properties :
#
#
# Convention : Reuss Voigt Hill
#
# Bulk Modulus (GPa) = 57.29941 67.06786 62.18364
# Shear Modulus (GPa) = 38.51373 43.18603 40.84988
#
# Velocity S-wave (km/s) = 3.89315 4.12254 4.00949
# Velocity P-wave (km/s) = 6.53899 7.00387 6.77542
#
# Compressibility (1/GPa) = 0.01745219
#
# Stress axis : x y z
#
# Youngs Moduli (GPa) = 88.08368 94.51785 94.65612
#
# Poissons Ratio (x) = 0.50198 0.01106
# Poissons Ratio (y) = 0.46781 0.19829
# Poissons Ratio (z) = 0.01029 0.19800
#
# Static dielectric constant tensor:
#      x y z
#    x 2.011070 0.051480 0.038840 
#    y 0.051480 2.106730 -0.124310 
#    z 0.038840 -0.124310 2.263160 
# 
# From -- ./inp_files/322914.got.cif
#   From: 2010.05.17/outbox.cif.g08.bks.cpg/sg2_162_cif.got.tgz:322914.got - 2010.06.03 11:33:40.
