data_PCOD9102986
_publ_section_title
;
Structure prediction by ZEFSAII (Michael W. Deem and Ramdas Pophale) SiO2 
 PCOD9102986
Probable space group: P -1
;
_chemical_formula_sum "Si O2"
_cell_formula_units_Z 14
_cell_length_a 15.116359
_cell_length_b 15.949174
_cell_length_c 8.756714
_cell_angle_alpha 83.858579
_cell_angle_beta 98.853103
_cell_angle_gamma 160.670707
_cell_volume 685.733891
_symmetry_space_group_name_H-M "P -1"
_symmetry_group_IT_number 2
_symmetry_cell_setting 'triclinic'
loop_
_space_group_symop_operation_xyz
x,y,z
-x,-y,-z
loop_
_atom_site_type_symbol
_atom_site_label
_atom_site_fract_x
_atom_site_fract_y
_atom_site_fract_z
Si Si1 0.375629 0.940925 0.624266
Si Si2 0.382815 0.169110 0.273003
Si Si3 0.301675 0.266446 0.087948
Si Si4 0.950104 0.455954 0.811837
Si Si5 0.815322 0.741125 0.637312
Si Si6 0.011489 0.687904 0.324163
Si Si7 0.331320 0.222112 0.557702
O O1 0.174005 0.823483 0.501455
O O2 0.183414 0.715464 0.730980
O O3 0.500000 0.000000 0.500000
O O4 0.642521 0.211913 0.731539
O O5 0.387978 0.246699 0.132627
O O6 0.286865 0.131394 0.409182
O O7 0.692384 0.414709 0.323641
O O8 0.165878 0.902541 0.240971
O O9 0.289431 0.301408 0.239459
O O10 0.500000 0.500000 0.000000
O O11 0.000000 0.000000 0.000000
O O12 0.961596 0.371518 0.761522
O O13 0.000000 0.500000 0.000000
O O14 0.647043 0.507300 0.617951
O O15 0.751875 0.751892 0.482061
O O16 0.133727 0.009895 0.672628
#
# Coordination Sequence:
#
# PCOD9102986 Si02
#       7
#     2   2   2   2   2   2   2
#     4  10  20  38  64  95 120 159 212 247 289 370
#     4  11  22  36  61  87 115 157 203 253 313 352
#     4  11  22  37  58  82 113 161 211 243 292 373
#     4  11  22  39  67  96 126 168 204 243 307 379
#     4   9  17  31  53  75 101 135 185 247 281 332
#     4  11  21  38  63  90 126 159 205 260 300 363
#     4   9  17  31  52  79 101 131 188 241 290 333
#
# _framework density 20.416083
#
# number of rings (size 3 to 8) (size 9 to 14) (size 15 to 20)
#    0.000    1.714    0.000    7.286    0.000    4.571 
#    0.000    0.000   31.429    0.000    0.000    0.000 
#    0.000    0.000    0.000    0.000    0.000    0.000 
#
# Total GULP energy -78007.137157 kJ/mol
# GULP energy per Si atom -5571.938368 kJ/mol
# Density = 2.036962 g / cm^3
# Si number density = 20.416083 Si / 1000 Ang^3
#
#
#
# Elastic Constant Matrix: (Units=GPa)
#
#
# Indices 1 2 3 4 5 6 
#
# 1 50.1765 15.8946 12.2372 -6.8095 -1.9026 -0.2289
# 2 15.8946 164.2695 41.1680 -23.3555 -6.8727 -2.5942
# 3 12.2372 41.1680 93.4964 -3.8070 -0.6555 -2.0509
# 4 -6.8095 -23.3555 -3.8070 43.1562 -1.8044 3.9137
# 5 -1.9026 -6.8727 -0.6555 -1.8044 13.8529 -1.6597
# 6 -0.2289 -2.5942 -2.0509 3.9137 -1.6597 31.5927
#
#
#
# Elastic Compliance Matrix: (Units=1/GPa)
#
#
# Indices 1 2 3 4 5 6 
#
# 1 0.021261 -0.001004 -0.002216 0.002751 0.002642 -0.000274
# 2 -0.001004 0.007675 -0.003058 0.003880 0.004049 0.000156
# 3 -0.002216 -0.003058 0.012294 -0.001028 -0.001303 0.000590
# 4 0.002751 0.003880 -0.001028 0.026081 0.005330 -0.002679
# 5 0.002642 0.004049 -0.001303 0.005330 0.075620 0.003579
# 6 -0.000274 0.000156 0.000590 -0.002679 0.003579 0.032222
#
#
# Mechanical properties :
#
#
# Convention : Reuss Voigt Hill
#
# Bulk Modulus (GPa) = 34.87658 49.61578 42.24618
# Shear Modulus (GPa) = 25.34645 33.62988 29.48817
#
# Velocity S-wave (km/s) = 3.52731 4.06301 3.80460
# Velocity P-wave (km/s) = 5.80596 6.80924 6.32752
#
# Compressibility (1/GPa) = 0.02867253
#
# Stress axis : x y z
#
# Youngs Moduli (GPa) = 47.03558 130.29845 81.34012
#
# Poissons Ratio (x) = 0.13088 0.18024
# Poissons Ratio (y) = 0.04725 0.24874
# Poissons Ratio (z) = 0.10422 0.39845
#
# Static dielectric constant tensor:
#      x y z
#    x 1.784090 0.007900 0.018500 
#    y 0.007900 1.827990 0.021520 
#    z 0.018500 0.021520 1.798760 
# 
# From -- ./inp_files/311409.got.cif
#   From: 2010.05.17/outbox.cif.g08.bks.cpg/sg2_156_cif.got.tgz:311409.got - 2010.06.03 11:33:40.
