data_PCOD9102980
_publ_section_title
;
Structure prediction by ZEFSAII (Michael W. Deem and Ramdas Pophale) SiO2 
 PCOD9102980
Probable space group: P -1
;
_chemical_formula_sum "Si O2"
_cell_formula_units_Z 14
_cell_length_a 10.994486
_cell_length_b 11.240809
_cell_length_c 13.998123
_cell_angle_alpha 85.895842
_cell_angle_beta 80.011479
_cell_angle_gamma 153.683966
_cell_volume 645.153041
_symmetry_space_group_name_H-M "P -1"
_symmetry_group_IT_number 2
_symmetry_cell_setting 'triclinic'
loop_
_space_group_symop_operation_xyz
x,y,z
-x,-y,-z
loop_
_atom_site_type_symbol
_atom_site_label
_atom_site_fract_x
_atom_site_fract_y
_atom_site_fract_z
Si Si1 0.776447 0.536136 0.798614
Si Si2 0.239129 0.259928 0.871845
Si Si3 0.324185 0.730972 0.991389
Si Si4 0.413803 0.867113 0.620794
Si Si5 0.517773 0.819256 0.328083
Si Si6 0.934477 0.642424 0.406208
Si Si7 0.257828 0.083742 0.193239
O O1 0.503395 0.391123 0.823744
O O2 0.723130 0.410632 0.715780
O O3 0.731872 0.416514 0.907035
O O4 0.120883 0.911321 0.741836
O O5 0.446241 0.563362 0.846769
O O6 0.991221 0.074563 0.833917
O O7 0.000000 0.000000 0.000000
O O8 0.562809 0.874215 0.876854
O O9 0.000000 0.500000 0.000000
O O10 0.500000 0.000000 0.000000
O O11 0.147672 0.529940 0.653768
O O12 0.500000 0.000000 0.500000
O O13 0.375840 0.946538 0.689686
O O14 0.736437 0.093806 0.600052
O O15 0.341463 0.614380 0.459822
O O16 0.028303 0.845963 0.327702
#
# Coordination Sequence:
#
# PCOD9102980 Si02
#       7
#     2   2   2   2   2   2   2
#     4  12  26  44  73  99 136 184 231 286 337 401
#     4  12  26  50  73  95 130 185 250 272 326 407
#     4  12  28  45  68 107 144 174 220 287 360 400
#     4  10  20  38  64  94 139 190 220 258 325 424
#     4  11  23  41  66 104 139 179 227 277 341 413
#     4  11  23  42  65 101 141 179 226 272 344 416
#     4  12  27  47  73 100 136 185 227 287 337 404
#
# _framework density 21.700275999999999
#
# number of rings (size 3 to 8) (size 9 to 14) (size 15 to 20)
#    0.000    0.571    1.429    8.143    8.000    0.000 
#    0.000    4.286    0.000    0.000    0.000    0.000 
#    0.000    0.000    0.000    0.000    0.000    0.000 
#
# Total GULP energy -78140.412799 kJ/mol
# GULP energy per Si atom -5581.458057 kJ/mol
# Density = 2.165089 g / cm^3
# Si number density = 21.700276 Si / 1000 Ang^3
#
#
#
# Elastic Constant Matrix: (Units=GPa)
#
#
# Indices 1 2 3 4 5 6 
#
# 1 153.3306 108.3616 41.7850 -10.5263 20.6804 45.3867
# 2 108.3616 251.6220 58.8347 -33.2299 24.4952 39.4068
# 3 41.7850 58.8347 115.2085 -11.6248 31.4885 15.1408
# 4 -10.5263 -33.2299 -11.6248 53.1070 15.6094 3.3947
# 5 20.6804 24.4952 31.4885 15.6094 50.4532 7.0207
# 6 45.3867 39.4068 15.1408 3.3947 7.0207 63.3072
#
#
#
# Elastic Compliance Matrix: (Units=1/GPa)
#
#
# Indices 1 2 3 4 5 6 
#
# 1 0.011117 -0.003444 -0.001030 0.000668 -0.001694 -0.005428
# 2 -0.003444 0.006652 -0.000928 0.004041 -0.002292 -0.001412
# 3 -0.001030 -0.000928 0.012272 0.004310 -0.007985 -0.000964
# 4 0.000668 0.004041 0.004310 0.026373 -0.012521 -0.004051
# 5 -0.001694 -0.002292 -0.007985 -0.012521 0.030225 0.001870
# 6 -0.005428 -0.001412 -0.000964 -0.004051 0.001870 0.020807
#
#
# Mechanical properties :
#
#
# Convention : Reuss Voigt Hill
#
# Bulk Modulus (GPa) = 51.98119 104.23598 78.10859
# Shear Modulus (GPa) = 40.10808 54.11879 47.11344
#
# Velocity S-wave (km/s) = 4.30382 4.99934 4.66456
# Velocity P-wave (km/s) = 6.97878 9.02569 8.06742
#
# Compressibility (1/GPa) = 0.01923773
#
# Stress axis : x y z
#
# Youngs Moduli (GPa) = 89.94963 150.32420 81.48874
#
# Poissons Ratio (x) = 0.51766 0.08392
# Poissons Ratio (y) = 0.30975 0.07565
# Poissons Ratio (z) = 0.09263 0.13955
#
# Static dielectric constant tensor:
#      x y z
#    x 1.783110 -0.060670 -0.089950 
#    y -0.060670 1.777070 -0.003170 
#    z -0.089950 -0.003170 1.833520 
# 
# From -- ./inp_files/519676.got.cif
#   From: 2010.05.17/outbox.cif.g08.bks.cpg/sg2_260_cif.got.tgz:519676.got - 2010.06.03 11:33:40.
