data_PCOD9102330
_publ_section_title
;
Structure prediction by ZEFSAII (Michael W. Deem and Ramdas Pophale) SiO2 
 PCOD9102330
Probable space group: P -1
;
_chemical_formula_sum "Si O2"
_cell_formula_units_Z 16
_cell_length_a 15.051998
_cell_length_b 11.543537
_cell_length_c 9.357635
_cell_angle_alpha 124.707634
_cell_angle_beta 149.012385
_cell_angle_gamma 61.669954
_cell_volume 687.806931
_symmetry_space_group_name_H-M "P -1"
_symmetry_group_IT_number 2
_symmetry_cell_setting 'triclinic'
loop_
_space_group_symop_operation_xyz
x,y,z
-x,-y,-z
loop_
_atom_site_type_symbol
_atom_site_label
_atom_site_fract_x
_atom_site_fract_y
_atom_site_fract_z
Si Si1 0.998757 0.879130 0.746059
Si Si2 0.096431 0.906209 0.452557
Si Si3 0.585713 0.244774 0.200007
Si Si4 0.690699 0.782082 0.432690
Si Si5 0.523567 0.660376 0.596467
Si Si6 0.077671 0.318633 0.776936
Si Si7 0.762368 0.467714 0.405713
Si Si8 0.625168 0.229279 0.824437
O O1 0.878814 0.846356 0.695272
O O2 0.950068 0.769409 0.470892
O O3 0.941573 0.026601 0.703488
O O4 0.205573 0.862909 0.035894
O O5 0.292706 0.885669 0.755909
O O6 0.015913 0.752842 0.265105
O O7 0.000000 0.000000 0.500000
O O8 0.568575 0.248596 0.347093
O O9 0.668278 0.393539 0.359818
O O10 0.406015 0.225992 0.858924
O O11 0.713253 0.624595 0.413502
O O12 0.540964 0.842113 0.371981
O O13 0.500000 0.500000 0.500000
O O14 0.447307 0.702168 0.370043
O O15 0.726653 0.683294 0.910941
O O16 0.969271 0.457559 0.698404
O O17 0.696562 0.358314 0.114668
#
# Coordination Sequence:
#
# PCOD9102330 Si02
#       8
#     2   2   2   2   2   2   2   2
#     4  10  21  39  65  87 116 161 208 255 301 360
#     4   9  19  41  64  89 118 152 213 269 294 342
#     4  10  20  38  62  92 120 158 207 250 304 366
#     4  11  19  36  62  90 119 157 210 247 310 359
#     4  12  23  38  58  93 132 161 194 249 312 373
#     4   9  20  38  61  89 119 160 202 251 308 358
#     4   9  19  37  61  85 119 160 200 259 297 363
#     4  10  23  38  56  90 127 158 200 252 311 358
#
# _framework density 23.262339999999998
#
# number of rings (size 3 to 8) (size 9 to 14) (size 15 to 20)
#    0.000    2.000    1.250    5.250    1.750    1.500 
#    6.750    4.375    0.000    0.000    0.000    0.000 
#    0.000    0.000    0.000    0.000    0.000    0.000 
#
# Total GULP energy -89314.174717 kJ/mol
# GULP energy per Si atom -5582.135920 kJ/mol
# Density = 2.320939 g / cm^3
# Si number density = 23.262340 Si / 1000 Ang^3
#
#
#
# Elastic Constant Matrix: (Units=GPa)
#
#
# Indices 1 2 3 4 5 6 
#
# 1 114.1833 39.8706 47.5843 -18.1995 28.0188 21.2810
# 2 39.8706 65.7737 49.6904 -36.7046 6.6057 -9.9142
# 3 47.5843 49.6904 90.1235 -36.4858 26.6446 18.9100
# 4 -18.1995 -36.7046 -36.4858 31.3515 -7.2188 2.8972
# 5 28.0188 6.6057 26.6446 -7.2188 16.8258 -19.0498
# 6 21.2810 -9.9142 18.9100 2.8972 -19.0498 19.8666
#
#
#
# Elastic Compliance Matrix: (Units=1/GPa)
#
#
# Indices 1 2 3 4 5 6 
#
# 1 0.009593 -0.001766 -0.011110 -0.008511 0.006915 0.007290
# 2 -0.001766 0.037446 0.008672 0.049791 -0.018701 -0.012868
# 3 -0.011110 0.008672 0.015367 0.023696 0.013677 0.011261
# 4 -0.008511 0.049791 0.023696 0.113392 0.000657 -0.004498
# 5 0.006915 -0.018701 0.013677 0.000657 -0.000980 -0.030794
# 6 0.007290 -0.012868 0.011261 -0.004498 -0.030794 -0.003485
#
#
# Mechanical properties :
#
#
# Convention : Reuss Voigt Hill
#
# Bulk Modulus (GPa) = 18.51917 60.48568 39.50243
# Shear Modulus (GPa) = 25.28564 22.47113 23.87839
#
# Velocity S-wave (km/s) = 3.30051 3.11141 3.20735
# Velocity P-wave (km/s) = 4.74371 6.24226 5.54385
#
# Compressibility (1/GPa) = 0.05399809
#
# Stress axis : x y z
#
# Youngs Moduli (GPa) = 104.24441 26.70491 65.07299
#
# Poissons Ratio (x) = 0.04717 0.72298
# Poissons Ratio (y) = 0.18414 -0.56434
# Poissons Ratio (z) = 1.15819 -0.23160
#
# Static dielectric constant tensor:
#      x y z
#    x 1.840650 -0.053040 -0.123470 
#    y -0.053040 1.878610 -0.018660 
#    z -0.123470 -0.018660 1.579020 
# 
# From -- ./inp_files/224126.got.cif
#   From: 2010.05.17/outbox.cif.g08.bks.cpg/sg2_113_cif.got.tgz:224126.got - 2010.06.03 11:33:40.
