data_PCOD9102505
_publ_section_title
;
Structure prediction by ZEFSAII (Michael W. Deem and Ramdas Pophale) SiO2 
 PCOD9102505
Probable space group: P -1
;
_chemical_formula_sum "Si O2"
_cell_formula_units_Z 14
_cell_length_a 12.946603
_cell_length_b 13.411295
_cell_length_c 6.456806
_cell_angle_alpha 92.774122
_cell_angle_beta 58.040868
_cell_angle_gamma 51.591037
_cell_volume 613.719594
_symmetry_space_group_name_H-M "P -1"
_symmetry_group_IT_number 2
_symmetry_cell_setting 'triclinic'
loop_
_space_group_symop_operation_xyz
x,y,z
-x,-y,-z
loop_
_atom_site_type_symbol
_atom_site_label
_atom_site_fract_x
_atom_site_fract_y
_atom_site_fract_z
Si Si1 0.345460 0.626810 0.508769
Si Si2 0.153025 0.273483 0.972519
Si Si3 0.114980 0.660404 0.446041
Si Si4 0.107146 0.847599 0.151908
Si Si5 0.429620 0.144084 0.978984
Si Si6 0.692353 0.170711 0.721989
Si Si7 0.950565 0.606559 0.339118
O O1 0.500000 0.500000 0.500000
O O2 0.284099 0.575228 0.416958
O O3 0.399782 0.683805 0.304304
O O4 0.172004 0.769124 0.852586
O O5 0.066326 0.240868 0.203052
O O6 0.032177 0.449575 0.167756
O O7 0.362921 0.163296 0.816890
O O8 0.116920 0.283311 0.770524
O O9 0.100221 0.762543 0.318523
O O10 0.106783 0.569716 0.297768
O O11 0.261689 0.824052 0.090877
O O12 0.900694 0.023941 0.389923
O O13 0.574923 0.143215 0.836182
O O14 0.235850 0.292499 0.317812
O O15 0.500000 0.000000 0.000000
#
# Coordination Sequence:
#
# PCOD9102505 Si02
#       7
#     2   2   2   2   2   2   2
#     4  11  25  39  63  97 122 157 204 255 309 361
#     4  10  22  39  63  90 120 164 206 250 307 362
#     4  10  20  38  63  88 121 158 202 251 302 362
#     4  10  22  42  64  87 121 165 205 246 304 366
#     4  11  23  39  62  95 127 158 202 253 305 363
#     4  10  23  42  63  88 125 165 202 250 302 363
#     4  10  22  40  62  88 122 164 206 251 305 362
#
# _framework density 22.811720999999999
#
# number of rings (size 3 to 8) (size 9 to 14) (size 15 to 20)
#    0.000    1.714    0.000    4.714    0.000   10.857 
#    0.000    2.857    0.000    0.000    0.000    0.000 
#    0.000    0.000    0.000    0.000    0.000    0.000 
#
# Total GULP energy -78262.119795 kJ/mol
# GULP energy per Si atom -5590.151414 kJ/mol
# Density = 2.275980 g / cm^3
# Si number density = 22.811721 Si / 1000 Ang^3
#
#
#
# Elastic Constant Matrix: (Units=GPa)
#
#
# Indices 1 2 3 4 5 6 
#
# 1 178.0472 58.2526 43.7197 -18.7419 -16.9143 -17.1506
# 2 58.2526 100.0097 14.3992 -12.3818 -8.6283 -20.0840
# 3 43.7197 14.3992 59.9374 -15.2862 7.2683 -5.1682
# 4 -18.7419 -12.3818 -15.2862 38.2273 4.2922 3.1494
# 5 -16.9143 -8.6283 7.2683 4.2922 36.5744 -8.1911
# 6 -17.1506 -20.0840 -5.1682 3.1494 -8.1911 28.9825
#
#
#
# Elastic Compliance Matrix: (Units=1/GPa)
#
#
# Indices 1 2 3 4 5 6 
#
# 1 0.009041 -0.003184 -0.006176 0.000024 0.005457 0.003582
# 2 -0.003184 0.014195 -0.000330 0.001770 0.003693 0.008745
# 3 -0.006176 -0.000330 0.024129 0.007814 -0.009334 -0.003068
# 4 0.000024 0.001770 0.007814 0.030632 -0.005204 -0.002166
# 5 0.005457 0.003693 -0.009334 -0.005204 0.036567 0.015024
# 6 0.003582 0.008745 -0.003068 -0.002166 0.015024 0.046618
#
#
# Mechanical properties :
#
#
# Convention : Reuss Voigt Hill
#
# Bulk Modulus (GPa) = 35.73544 63.41527 49.57535
# Shear Modulus (GPa) = 26.33120 35.53168 30.93144
#
# Velocity S-wave (km/s) = 3.40116 3.95093 3.68631
# Velocity P-wave (km/s) = 5.57882 6.97660 6.31649
#
# Compressibility (1/GPa) = 0.02798343
#
# Stress axis : x y z
#
# Youngs Moduli (GPa) = 110.61185 70.44819 41.44418
#
# Poissons Ratio (x) = 0.22428 0.25598
# Poissons Ratio (y) = 0.35214 0.01369
# Poissons Ratio (z) = 0.68319 0.02328
#
# Static dielectric constant tensor:
#      x y z
#    x 1.881440 -0.005860 0.036410 
#    y -0.005860 1.884750 0.015620 
#    z 0.036410 0.015620 1.868510 
# 
# From -- ./inp_files/77759.got.cif
#   From: 2010.05.17/outbox.cif.g08.bks.cpg/sg2_39_cif.got.tgz:77759.got - 2010.06.03 11:33:40.
