data_PCOD9102598
_publ_section_title
;
Structure prediction by ZEFSAII (Michael W. Deem and Ramdas Pophale) SiO2 
 PCOD9102598
Probable space group: P -1
;
_chemical_formula_sum "Si O2"
_cell_formula_units_Z 14
_cell_length_a 9.559842
_cell_length_b 11.492787
_cell_length_c 9.754121
_cell_angle_alpha 133.954246
_cell_angle_beta 126.272681
_cell_angle_gamma 57.330661
_cell_volume 606.392124
_symmetry_space_group_name_H-M "P -1"
_symmetry_group_IT_number 2
_symmetry_cell_setting 'triclinic'
loop_
_space_group_symop_operation_xyz
x,y,z
-x,-y,-z
loop_
_atom_site_type_symbol
_atom_site_label
_atom_site_fract_x
_atom_site_fract_y
_atom_site_fract_z
Si Si1 0.945515 0.919385 0.762525
Si Si2 0.541135 0.675112 0.122451
Si Si3 0.125845 0.534510 0.978039
Si Si4 0.333694 0.852558 0.893237
Si Si5 0.562313 0.801186 0.728655
Si Si6 0.328749 0.823937 0.362697
Si Si7 0.887938 0.624710 0.646555
O O1 0.850119 0.787459 0.664207
O O2 0.133904 0.837468 0.736004
O O3 0.823489 0.040070 0.686139
O O4 0.000000 0.000000 0.000000
O O5 0.737297 0.630329 0.134275
O O6 0.493388 0.784061 0.319192
O O7 0.500000 0.500000 0.000000
O O8 0.400238 0.764866 0.002362
O O9 0.012088 0.615355 0.845505
O O10 0.245116 0.662042 0.199215
O O11 0.000000 0.500000 0.000000
O O12 0.472232 0.768765 0.790725
O O13 0.338789 0.047945 0.062127
O O14 0.405001 0.870612 0.587341
O O15 0.692913 0.637504 0.608691
O O16 0.000000 0.500000 0.500000
#
# Coordination Sequence:
#
# PCOD9102598 Si02
#       7
#     2   2   2   2   2   2   2
#     4  12  21  45  71  94 128 177 222 269 325 391
#     4  10  20  38  63  92 122 170 216 263 319 385
#     4  11  23  41  65  94 133 173 213 274 333 388
#     4  11  23  43  68  93 134 175 220 271 333 387
#     4  11  25  42  65 100 132 172 217 278 331 388
#     4  11  23  42  68  94 129 171 228 267 321 402
#     4  12  25  44  68  99 134 174 222 271 330 393
#
# _framework density 23.08737
#
# number of rings (size 3 to 8) (size 9 to 14) (size 15 to 20)
#    0.000    0.857    4.286    2.571    0.000    7.429 
#    0.000    4.286    0.000    0.000    0.000    0.000 
#    0.000    0.000    0.000    0.000    0.000    0.000 
#
# Total GULP energy -78258.640636 kJ/mol
# GULP energy per Si atom -5589.902903 kJ/mol
# Density = 2.303482 g / cm^3
# Si number density = 23.087370 Si / 1000 Ang^3
#
#
#
# Elastic Constant Matrix: (Units=GPa)
#
#
# Indices 1 2 3 4 5 6 
#
# 1 162.2957 14.5114 28.8427 4.9296 -18.3572 -10.3813
# 2 14.5114 51.7332 5.7260 -8.6035 4.0247 -11.2667
# 3 28.8427 5.7260 55.7438 -21.1980 -8.3688 2.8339
# 4 4.9296 -8.6035 -21.1980 27.7468 -11.2271 -1.2539
# 5 -18.3572 4.0247 -8.3688 -11.2271 25.6417 -10.6372
# 6 -10.3813 -11.2667 2.8339 -1.2539 -10.6372 29.8037
#
#
#
# Elastic Compliance Matrix: (Units=1/GPa)
#
#
# Indices 1 2 3 4 5 6 
#
# 1 0.008089 -0.001824 -0.005003 -0.003852 0.004426 0.004021
# 2 -0.001824 0.023648 0.004814 0.014995 0.007789 0.011257
# 3 -0.005003 0.004814 0.045624 0.053520 0.038915 0.011880
# 4 -0.003852 0.014995 0.053520 0.114033 0.075075 0.030830
# 5 0.004426 0.007789 0.038915 0.075075 0.103474 0.040875
# 6 0.004021 0.011257 0.011880 0.030830 0.040875 0.053965
#
#
# Mechanical properties :
#
#
# Convention : Reuss Voigt Hill
#
# Bulk Modulus (GPa) = 13.63607 40.88143 27.25875
# Shear Modulus (GPa) = 13.25192 31.35127 22.30159
#
# Velocity S-wave (km/s) = 2.39841 3.68902 3.11137
# Velocity P-wave (km/s) = 3.68632 5.99090 4.97392
#
# Compressibility (1/GPa) = 0.07333490
#
# Stress axis : x y z
#
# Youngs Moduli (GPa) = 123.63128 42.28628 21.91830
#
# Poissons Ratio (x) = 0.07715 0.10965
# Poissons Ratio (y) = 0.22556 -0.10552
# Poissons Ratio (z) = 0.61848 -0.20357
#
# Static dielectric constant tensor:
#      x y z
#    x 1.899980 -0.043600 -0.008980 
#    y -0.043600 1.848780 0.083390 
#    z -0.008980 0.083390 1.874670 
# 
# From -- ./inp_files/153664.got.cif
#   From: 2010.05.17/outbox.cif.g08.bks.cpg/sg2_77_cif.got.tgz:153664.got - 2010.06.03 11:33:40.
