data_PCOD9102454
_publ_section_title
;
Structure prediction by ZEFSAII (Michael W. Deem and Ramdas Pophale) SiO2 
 PCOD9102454
Probable space group: P -1
;
_chemical_formula_sum "Si O2"
_cell_formula_units_Z 14
_cell_length_a 14.177903
_cell_length_b 11.517109
_cell_length_c 12.833529
_cell_angle_alpha 46.650129
_cell_angle_beta 39.298394
_cell_angle_gamma 31.662413
_cell_volume 694.253451
_symmetry_space_group_name_H-M "P -1"
_symmetry_group_IT_number 2
_symmetry_cell_setting 'triclinic'
loop_
_space_group_symop_operation_xyz
x,y,z
-x,-y,-z
loop_
_atom_site_type_symbol
_atom_site_label
_atom_site_fract_x
_atom_site_fract_y
_atom_site_fract_z
Si Si1 0.036836 0.513441 0.724980
Si Si2 0.480209 0.342754 0.960304
Si Si3 0.356787 0.980059 0.570566
Si Si4 0.881962 0.409182 0.747231
Si Si5 0.309042 0.505262 0.357472
Si Si6 0.671055 0.742627 0.040633
Si Si7 0.598905 0.909630 0.219502
O O1 0.909879 0.539847 0.719161
O O2 0.163806 0.569366 0.539588
O O3 0.201892 0.254623 0.775279
O O4 0.885579 0.647632 0.868638
O O5 0.663217 0.331668 0.795168
O O6 0.385794 0.368266 0.912058
O O7 0.298450 0.549830 0.061265
O O8 0.557397 0.119725 0.085290
O O9 0.465886 0.733307 0.660622
O O10 0.409205 0.983112 0.403936
O O11 0.500000 0.000000 0.500000
O O12 0.112682 0.168106 0.684744
O O13 0.787035 0.510510 0.652131
O O14 0.656029 0.750731 0.172256
O O15 0.500000 0.000000 0.000000
#
# Coordination Sequence:
#
# PCOD9102454 Si02
#       7
#     2   2   2   2   2   2   2
#     4  10  21  37  63  86 111 158 205 236 286 360
#     4  10  23  39  58  90 122 153 195 250 296 341
#     4  11  22  37  62  91 117 156 204 236 286 361
#     4  11  22  37  62  85 122 161 193 233 300 353
#     4  11  23  39  58  91 125 151 195 250 295 341
#     4   9  20  38  62  83 113 158 201 237 292 354
#     4  10  20  38  63  83 118 153 202 239 288 353
#
# _framework density 20.165545999999999
#
# number of rings (size 3 to 8) (size 9 to 14) (size 15 to 20)
#    0.000    1.714    2.857    2.143    6.000    0.571 
#    5.143    5.714    0.000    0.000    0.000    0.000 
#    0.000    0.000    0.000    0.000    0.000    0.000 
#
# Total GULP energy -78042.507266 kJ/mol
# GULP energy per Si atom -5574.464805 kJ/mol
# Density = 2.011965 g / cm^3
# Si number density = 20.165546 Si / 1000 Ang^3
#
#
#
# Elastic Constant Matrix: (Units=GPa)
#
#
# Indices 1 2 3 4 5 6 
#
# 1 63.8032 21.3865 43.6293 0.5242 19.8324 -10.0566
# 2 21.3865 77.9225 29.4193 15.1559 3.6163 -20.7045
# 3 43.6293 29.4193 108.3608 18.7467 13.3952 2.3475
# 4 0.5242 15.1559 18.7467 41.4905 3.7411 3.0448
# 5 19.8324 3.6163 13.3952 3.7411 32.2149 6.4418
# 6 -10.0566 -20.7045 2.3475 3.0448 6.4418 26.3726
#
#
#
# Elastic Compliance Matrix: (Units=1/GPa)
#
#
# Indices 1 2 3 4 5 6 
#
# 1 0.032654 0.000169 -0.012139 0.005445 -0.019253 0.017739
# 2 0.000169 0.020857 -0.004559 -0.006602 -0.003473 0.018455
# 3 -0.012139 -0.004559 0.015951 -0.005009 0.003936 -0.010011
# 4 0.005445 -0.006602 -0.005009 0.029359 -0.002868 -0.005350
# 5 -0.019253 -0.003473 0.003936 -0.002868 0.046257 -0.021387
# 6 0.017739 0.018455 -0.010011 -0.005350 -0.021387 0.065904
#
#
# Mechanical properties :
#
#
# Convention : Reuss Voigt Hill
#
# Bulk Modulus (GPa) = 27.47052 48.77297 38.12174
# Shear Modulus (GPa) = 19.51798 30.39238 24.95518
#
# Velocity S-wave (km/s) = 3.11446 3.88641 3.52165
# Velocity P-wave (km/s) = 5.15609 6.66166 5.95663
#
# Compressibility (1/GPa) = 0.03640266
#
# Stress axis : x y z
#
# Youngs Moduli (GPa) = 30.62458 47.94540 62.69353
#
# Poissons Ratio (x) = -0.00810 0.76106
# Poissons Ratio (y) = -0.00518 0.28581
# Poissons Ratio (z) = 0.37176 0.21858
#
# Static dielectric constant tensor:
#      x y z
#    x 1.795120 0.001980 0.038740 
#    y 0.001980 1.733730 0.025950 
#    z 0.038740 0.025950 1.754550 
# 
# From -- ./inp_files/178659.got.cif
#   From: 2010.05.17/outbox.cif.g08.bks.cpg/sg2_90_cif.got.tgz:178659.got - 2010.06.03 11:33:40.
