data_PCOD9102041
_publ_section_title
;
Structure prediction by ZEFSAII (Michael W. Deem and Ramdas Pophale) SiO2 
 PCOD9102041
Probable space group: P -1
;
_chemical_formula_sum "Si O2"
_cell_formula_units_Z 16
_cell_length_a 5.111867
_cell_length_b 26.619499
_cell_length_c 5.159460
_cell_angle_alpha 121.708638
_cell_angle_beta 98.354406
_cell_angle_gamma 73.766547
_cell_volume 573.463568
_symmetry_space_group_name_H-M "P -1"
_symmetry_group_IT_number 2
_symmetry_cell_setting 'triclinic'
loop_
_space_group_symop_operation_xyz
x,y,z
-x,-y,-z
loop_
_atom_site_type_symbol
_atom_site_label
_atom_site_fract_x
_atom_site_fract_y
_atom_site_fract_z
Si Si1 0.343063 0.761852 0.606362
Si Si2 0.438841 0.349733 0.749498
Si Si3 0.462014 0.067209 0.072200
Si Si4 0.064301 0.292711 0.230903
Si Si5 0.792090 0.538016 0.776733
Si Si6 0.705634 0.419738 0.571846
Si Si7 0.116416 0.874176 0.969885
Si Si8 0.247467 0.186439 0.568067
O O1 0.381860 0.703345 0.201266
O O2 0.126745 0.726170 0.631885
O O3 0.567018 0.795727 0.580463
O O4 0.296299 0.819456 0.006653
O O5 0.568383 0.394574 0.724181
O O6 0.360450 0.298485 0.408420
O O7 0.170640 0.397035 0.943619
O O8 0.188401 0.088627 0.914229
O O9 0.388450 0.114901 0.430686
O O10 0.722792 0.079711 0.998743
O O11 0.500000 0.000000 0.000000
O O12 0.939760 0.364090 0.348112
O O13 0.157653 0.239547 0.898576
O O14 0.768942 0.484242 0.823233
O O15 0.512605 0.563608 0.646498
O O16 0.000000 0.500000 0.500000
O O17 0.052145 0.821785 0.611042
#
# Coordination Sequence:
#
# PCOD9102041 Si02
#       8
#     2   2   2   2   2   2   2   2
#     4   7  19  37  56  91 120 158 208 267 326 378
#     4  10  22  42  64  91 122 164 218 265 331 404
#     4   9  17  32  59  90 125 177 223 263 325 400
#     4  10  20  38  61  93 117 163 208 270 324 395
#     4  11  25  44  61  90 130 162 211 279 330 402
#     4  11  24  39  65  91 122 169 212 270 338 399
#     4   8  18  33  57  89 125 167 215 270 328 384
#     4   8  19  34  58  88 130 159 214 263 332 379
#
# _framework density 27.900642999999999
#
# number of rings (size 3 to 8) (size 9 to 14) (size 15 to 20)
#    2.250    0.250    0.000    2.250    0.000    7.000 
#    2.250    0.000    0.000    3.750    0.000    0.000 
#    0.000    0.000    0.000    0.000    0.000    0.000 
#
# Total GULP energy -89104.492766 kJ/mol
# GULP energy per Si atom -5569.030798 kJ/mol
# Density = 2.783714 g / cm^3
# Si number density = 27.900643 Si / 1000 Ang^3
#
#
#
# Elastic Constant Matrix: (Units=GPa)
#
#
# Indices 1 2 3 4 5 6 
#
# 1 187.5344 65.2631 35.2569 15.4166 -14.1904 20.1272
# 2 65.2631 170.0143 51.6309 58.2654 -16.9480 17.6459
# 3 35.2569 51.6309 100.9813 29.5801 -3.4367 -4.3199
# 4 15.4166 58.2654 29.5801 52.1151 4.7735 -11.5718
# 5 -14.1904 -16.9480 -3.4367 4.7735 36.0912 9.1536
# 6 20.1272 17.6459 -4.3199 -11.5718 9.1536 58.3606
#
#
#
# Elastic Compliance Matrix: (Units=1/GPa)
#
#
# Indices 1 2 3 4 5 6 
#
# 1 0.006588 -0.001617 -0.001493 0.000001 0.002258 -0.002248
# 2 -0.001617 0.016175 -0.001903 -0.019916 0.012027 -0.010309
# 3 -0.001493 -0.001903 0.012738 -0.004406 0.000022 0.001156
# 4 0.000001 -0.019916 -0.004406 0.050106 -0.021206 0.018957
# 5 0.002258 0.012027 0.000022 -0.021206 0.040862 -0.015028
# 6 -0.002248 -0.010309 0.001156 0.018957 -0.015028 0.027228
#
#
# Mechanical properties :
#
#
# Convention : Reuss Voigt Hill
#
# Bulk Modulus (GPa) = 39.25569 84.75910 62.00739
# Shear Modulus (GPa) = 29.03345 49.73865 39.38605
#
# Velocity S-wave (km/s) = 3.22934 4.22679 3.76127
# Velocity P-wave (km/s) = 5.29199 7.36654 6.41370
#
# Compressibility (1/GPa) = 0.02547401
#
# Stress axis : x y z
#
# Youngs Moduli (GPa) = 151.79321 61.82395 78.50620
#
# Poissons Ratio (x) = 0.10000 0.11718
# Poissons Ratio (y) = 0.24552 0.14941
# Poissons Ratio (z) = 0.22657 0.11766
#
# Static dielectric constant tensor:
#      x y z
#    x 2.480100 -0.164760 0.136040 
#    y -0.164760 2.136590 -0.067440 
#    z 0.136040 -0.067440 2.763460 
# 
# From -- ./inp_files/14787.got.cif
#   From: 2010.05.17/outbox.cif.g08.bks.cpg/sg2_8_cif.got.tgz:14787.got - 2010.06.03 11:33:40.
