data_PCOD9102104
_publ_section_title
;
Structure prediction by ZEFSAII (Michael W. Deem and Ramdas Pophale) SiO2 
 PCOD9102104
Probable space group: P -1
;
_chemical_formula_sum "Si O2"
_cell_formula_units_Z 16
_cell_length_a 11.936737
_cell_length_b 11.148324
_cell_length_c 12.637362
_cell_angle_alpha 119.872094
_cell_angle_beta 25.172825
_cell_angle_gamma 110.863521
_cell_volume 599.521055
_symmetry_space_group_name_H-M "P -1"
_symmetry_group_IT_number 2
_symmetry_cell_setting 'triclinic'
loop_
_space_group_symop_operation_xyz
x,y,z
-x,-y,-z
loop_
_atom_site_type_symbol
_atom_site_label
_atom_site_fract_x
_atom_site_fract_y
_atom_site_fract_z
Si Si1 0.100954 0.061225 0.332313
Si Si2 0.736170 0.723045 0.593354
Si Si3 0.344646 0.043380 0.824067
Si Si4 0.058760 0.782899 0.917594
Si Si5 0.510555 0.512980 0.369371
Si Si6 0.303231 0.518329 0.024293
Si Si7 0.075492 0.153653 0.727829
Si Si8 0.484378 0.732488 0.101956
O O1 0.828977 0.178333 0.579404
O O2 0.317161 0.145830 0.221976
O O3 0.145938 0.929837 0.155978
O O4 0.000000 0.000000 0.500000
O O5 0.520927 0.640872 0.707335
O O6 0.831560 0.780924 0.427515
O O7 0.998200 0.600080 0.353609
O O8 0.343707 0.148292 0.972896
O O9 0.204144 0.149027 0.897324
O O10 0.661704 0.964691 0.505065
O O11 0.196832 0.913787 0.885159
O O12 0.997570 0.734691 0.066163
O O13 0.263629 0.654992 0.625837
O O14 0.500000 0.500000 0.500000
O O15 0.711117 0.525634 0.105964
O O16 0.423787 0.380757 0.932084
O O17 0.479520 0.632491 0.958602
#
# Coordination Sequence:
#
# PCOD9102104 Si02
#       8
#     2   2   2   2   2   2   2   2
#     4   8  17  35  60  88 112 145 197 247 296 349
#     4  10  21  39  61  86 116 156 200 243 301 353
#     4  10  22  39  58  85 118 150 197 251 299 351
#     4  11  24  37  55  88 119 157 204 237 290 362
#     4  12  26  40  58  88 124 162 202 242 291 356
#     4  10  22  41  62  89 122 153 199 252 294 352
#     4  10  20  38  62  83 116 156 195 250 298 348
#     4   9  19  39  65  88 116 156 196 247 306 347
#
# _framework density 26.68797
#
# number of rings (size 3 to 8) (size 9 to 14) (size 15 to 20)
#    0.000    2.000    0.000    2.625    0.000   10.000 
#    0.000    8.750    0.000   10.500    0.000    0.000 
#    0.000    0.000    0.000    0.000    0.000    0.000 
#
# Total GULP energy -89373.388941 kJ/mol
# GULP energy per Si atom -5585.836809 kJ/mol
# Density = 2.662723 g / cm^3
# Si number density = 26.687970 Si / 1000 Ang^3
#
#
#
# Elastic Constant Matrix: (Units=GPa)
#
#
# Indices 1 2 3 4 5 6 
#
# 1 143.1898 30.4915 41.9492 15.8147 11.0943 28.4388
# 2 30.4915 111.5807 16.3632 23.4961 2.6853 30.7103
# 3 41.9492 16.3632 72.8966 39.9793 9.9818 -3.7596
# 4 15.8147 23.4961 39.9793 39.2545 -0.0711 -3.9516
# 5 11.0943 2.6853 9.9818 -0.0711 55.3991 18.6593
# 6 28.4388 30.7103 -3.7596 -3.9516 18.6593 49.1357
#
#
#
# Elastic Compliance Matrix: (Units=1/GPa)
#
#
# Indices 1 2 3 4 5 6 
#
# 1 0.010430 -0.000789 -0.009066 0.004850 0.001787 -0.006526
# 2 -0.000789 0.013958 0.003315 -0.012400 0.002182 -0.009840
# 3 -0.009066 0.003315 0.041573 -0.040067 -0.007961 0.006157
# 4 0.004850 -0.012400 -0.040067 0.072342 0.004988 0.005801
# 5 0.001787 0.002182 -0.007961 0.004988 0.022825 -0.011274
# 6 -0.006526 -0.009840 0.006157 0.005801 -0.011274 0.035498
#
#
# Mechanical properties :
#
#
# Convention : Reuss Voigt Hill
#
# Bulk Modulus (GPa) = 18.91041 56.14168 37.52604
# Shear Modulus (GPa) = 21.99410 44.68207 33.33809
#
# Velocity S-wave (km/s) = 2.87386 4.09619 3.53821
# Velocity P-wave (km/s) = 4.25597 6.59194 5.54828
#
# Compressibility (1/GPa) = 0.05288094
#
# Stress axis : x y z
#
# Youngs Moduli (GPa) = 95.88038 71.64166 24.05411
#
# Poissons Ratio (x) = 0.05651 0.21808
# Poissons Ratio (y) = 0.07563 -0.07974
# Poissons Ratio (z) = 0.86926 -0.23748
#
# Static dielectric constant tensor:
#      x y z
#    x 2.102200 0.019590 0.015610 
#    y 0.019590 2.161830 -0.113800 
#    z 0.015610 -0.113800 2.081200 
# 
# From -- ./inp_files/70764.got.cif
#   From: 2010.05.17/outbox.cif.g08.bks.cpg/sg2_36_cif.got.tgz:70764.got - 2010.06.03 11:33:40.
