data_PCOD9102938
_publ_section_title
;
Structure prediction by ZEFSAII (Michael W. Deem and Ramdas Pophale) SiO2 
 PCOD9102938
Probable space group: P -1
;
_chemical_formula_sum "Si O2"
_cell_formula_units_Z 14
_cell_length_a 22.702745
_cell_length_b 12.307277
_cell_length_c 21.494235
_cell_angle_alpha 160.990835
_cell_angle_beta 161.880484
_cell_angle_gamma 27.614295
_cell_volume 603.724219
_symmetry_space_group_name_H-M "P -1"
_symmetry_group_IT_number 2
_symmetry_cell_setting 'triclinic'
loop_
_space_group_symop_operation_xyz
x,y,z
-x,-y,-z
loop_
_atom_site_type_symbol
_atom_site_label
_atom_site_fract_x
_atom_site_fract_y
_atom_site_fract_z
Si Si1 0.949206 0.683823 0.321469
Si Si2 0.245491 0.639441 0.266431
Si Si3 0.324319 0.487752 0.395740
Si Si4 0.627916 0.707690 0.097049
Si Si5 0.816475 0.463141 0.412011
Si Si6 0.995854 0.771515 0.979395
Si Si7 0.274864 0.421364 0.745783
O O1 0.069320 0.739521 0.535529
O O2 0.729069 0.631437 0.093343
O O3 0.000000 0.000000 0.500000
O O4 0.005015 0.377959 0.171055
O O5 0.218240 0.440231 0.196399
O O6 0.465265 0.615681 0.456891
O O7 0.115883 0.559076 0.032473
O O8 0.222458 0.025239 0.467395
O O9 0.343446 0.887229 0.645765
O O10 0.209766 0.278795 0.221646
O O11 0.735317 0.531805 0.165528
O O12 0.404269 0.588954 0.816354
O O13 0.823547 0.385810 0.303108
O O14 0.903860 0.850149 0.716233
O O15 0.500000 0.500000 0.000000
#
# Coordination Sequence:
#
# PCOD9102938 Si02
#       7
#     2   2   2   2   2   2   2
#     4  12  26  42  62  93 127 171 215 247 306 376
#     4   9  20  36  63  92 122 164 206 251 319 364
#     4  10  20  38  64  93 125 161 204 260 311 368
#     4  10  22  41  66  92 128 163 207 259 309 375
#     4  10  24  42  65  92 125 164 209 261 317 360
#     4  11  23  41  61  92 127 160 212 260 299 372
#     4   8  17  39  63  93 122 153 205 260 310 368
#
# _framework density 23.189395000000001
#
# number of rings (size 3 to 8) (size 9 to 14) (size 15 to 20)
#    0.000    2.000    1.429    0.857    2.000    6.286 
#    0.000    0.000    0.000    0.000    0.000    0.000 
#    0.000    0.000    0.000    0.000    0.000    0.000 
#
# Total GULP energy -78270.487934 kJ/mol
# GULP energy per Si atom -5590.749138 kJ/mol
# Density = 2.313662 g / cm^3
# Si number density = 23.189395 Si / 1000 Ang^3
#
#
#
# Elastic Constant Matrix: (Units=GPa)
#
#
# Indices 1 2 3 4 5 6 
#
# 1 126.5027 27.2803 39.2347 0.0224 42.2593 -4.2938
# 2 27.2803 71.6984 20.8077 3.4247 5.4432 5.6492
# 3 39.2347 20.8077 96.7413 14.4755 26.8018 -2.2489
# 4 0.0224 3.4247 14.4755 34.4806 0.6488 7.4322
# 5 42.2593 5.4432 26.8018 0.6488 34.9328 -8.8024
# 6 -4.2938 5.6492 -2.2489 7.4322 -8.8024 25.4373
#
#
#
# Elastic Compliance Matrix: (Units=1/GPa)
#
#
# Indices 1 2 3 4 5 6 
#
# 1 0.014683 -0.003909 -0.000570 0.001652 -0.017570 -0.003267
# 2 -0.003909 0.016295 -0.003069 0.000329 0.003689 -0.003370
# 3 -0.000570 -0.003069 0.014904 -0.005779 -0.010139 0.000083
# 4 0.001652 0.000329 -0.005779 0.033661 -0.000873 -0.010442
# 5 -0.017570 0.003689 -0.010139 -0.000873 0.061335 0.016798
# 6 -0.003267 -0.003370 0.000083 -0.010442 0.016798 0.048380
#
#
# Mechanical properties :
#
#
# Convention : Reuss Voigt Hill
#
# Bulk Modulus (GPa) = 32.48247 52.17640 42.32944
# Shear Modulus (GPa) = 23.29748 32.81145 28.05447
#
# Velocity S-wave (km/s) = 3.17308 3.76564 3.48199
# Velocity P-wave (km/s) = 5.24046 6.43861 5.87018
#
# Compressibility (1/GPa) = 0.03078583
#
# Stress axis : x y z
#
# Youngs Moduli (GPa) = 68.10666 61.36836 67.09793
#
# Poissons Ratio (x) = 0.23989 0.03821
# Poissons Ratio (y) = 0.26623 0.20594
# Poissons Ratio (z) = 0.03879 0.18836
#
# Static dielectric constant tensor:
#      x y z
#    x 1.885290 0.025390 -0.001330 
#    y 0.025390 1.911740 -0.017600 
#    z -0.001330 -0.017600 1.865990 
# 
# From -- ./inp_files/269715.got.cif
#   From: 2010.05.17/outbox.cif.g08.bks.cpg/sg2_135_cif.got.tgz:269715.got - 2010.06.03 11:33:40.
