data_PCOD9102815
_publ_section_title
;
Structure prediction by ZEFSAII (Michael W. Deem and Ramdas Pophale) SiO2 
 PCOD9102815
Probable space group: P -1
;
_chemical_formula_sum "Si O2"
_cell_formula_units_Z 14
_cell_length_a 5.680380
_cell_length_b 17.743219
_cell_length_c 7.701156
_cell_angle_alpha 125.926375
_cell_angle_beta 64.459910
_cell_angle_gamma 88.061202
_cell_volume 521.597250
_symmetry_space_group_name_H-M "P -1"
_symmetry_group_IT_number 2
_symmetry_cell_setting 'triclinic'
loop_
_space_group_symop_operation_xyz
x,y,z
-x,-y,-z
loop_
_atom_site_type_symbol
_atom_site_label
_atom_site_fract_x
_atom_site_fract_y
_atom_site_fract_z
Si Si1 0.172694 0.257137 0.164477
Si Si2 0.697211 0.863005 0.583150
Si Si3 0.765257 0.430710 0.698556
Si Si4 0.211682 0.053716 0.961741
Si Si5 0.433224 0.320620 0.650156
Si Si6 0.923901 0.420999 0.160099
Si Si7 0.684671 0.286117 0.917712
O O1 0.123892 0.155078 0.014122
O O2 0.042973 0.337545 0.160300
O O3 0.021645 0.317665 0.467206
O O4 0.500158 0.240176 0.025611
O O5 0.741336 0.902763 0.809202
O O6 0.527410 0.790377 0.565369
O O7 0.992832 0.795027 0.307249
O O8 0.497606 0.963820 0.682858
O O9 0.562838 0.387095 0.589332
O O10 0.966226 0.493184 0.696187
O O11 0.500000 0.500000 0.000000
O O12 0.000000 0.000000 0.000000
O O13 0.570093 0.304674 0.780590
O O14 0.103784 0.386935 0.878457
O O15 0.651637 0.396370 0.155373
#
# Coordination Sequence:
#
# PCOD9102815 Si02
#       7
#     2   2   2   2   2   2   2
#     4  11  23  39  60  89 123 157 195 249 302 357
#     4  10  21  40  64  89 119 157 199 248 300 352
#     4  10  20  38  64  89 120 162 203 245 293 349
#     4  11  24  41  64  91 118 154 203 249 298 359
#     4   9  19  39  63  88 121 158 202 247 290 349
#     4   9  21  38  59  88 123 161 197 243 298 349
#     4  10  21  39  60  88 125 159 198 244 297 356
#
# _framework density 26.840634999999999
#
# number of rings (size 3 to 8) (size 9 to 14) (size 15 to 20)
#    0.000    2.000    0.000    3.000    0.000    5.143 
#    0.000   17.143    0.000    0.000    0.000    0.000 
#    0.000    0.000    0.000    0.000    0.000    0.000 
#
# Total GULP energy -77974.777166 kJ/mol
# GULP energy per Si atom -5569.626940 kJ/mol
# Density = 2.677954 g / cm^3
# Si number density = 26.840635 Si / 1000 Ang^3
#
#
#
# Elastic Constant Matrix: (Units=GPa)
#
#
# Indices 1 2 3 4 5 6 
#
# 1 90.2732 47.3376 32.6073 -1.1406 21.2138 41.2197
# 2 47.3376 164.5418 54.9894 34.4331 9.0107 35.3291
# 3 32.6073 54.9894 122.3425 7.1071 -11.9695 15.4778
# 4 -1.1406 34.4331 7.1071 53.3435 15.8887 9.7850
# 5 21.2138 9.0107 -11.9695 15.8887 59.0013 4.8254
# 6 41.2197 35.3291 15.4778 9.7850 4.8254 62.5208
#
#
#
# Elastic Compliance Matrix: (Units=1/GPa)
#
#
# Indices 1 2 3 4 5 6 
#
# 1 0.022573 -0.003691 -0.004246 0.008589 -0.009718 -0.012340
# 2 -0.003691 0.009521 -0.002668 -0.005916 0.001043 -0.001441
# 3 -0.004246 -0.002668 0.010823 -0.001392 0.004381 0.001507
# 4 0.008589 -0.005916 -0.001392 0.026674 -0.009205 -0.005439
# 5 -0.009718 0.001043 0.004381 -0.009205 0.023293 0.004376
# 6 -0.012340 -0.001441 0.001507 -0.005439 0.004376 0.025085
#
#
# Mechanical properties :
#
#
# Convention : Reuss Voigt Hill
#
# Bulk Modulus (GPa) = 46.06479 71.89178 58.97829
# Shear Modulus (GPa) = 34.14951 51.12134 42.63542
#
# Velocity S-wave (km/s) = 3.57081 4.36894 3.98988
# Velocity P-wave (km/s) = 5.84812 7.23139 6.57622
#
# Compressibility (1/GPa) = 0.02170855
#
# Stress axis : x y z
#
# Youngs Moduli (GPa) = 44.30039 105.02952 92.39254
#
# Poissons Ratio (x) = 0.38765 0.39229
# Poissons Ratio (y) = 0.16351 0.24649
# Poissons Ratio (z) = 0.18809 0.28020
#
# Static dielectric constant tensor:
#      x y z
#    x 2.415280 -0.084700 -0.027700 
#    y -0.084700 2.316390 -0.116200 
#    z -0.027700 -0.116200 2.199650 
# 
# From -- ./inp_files/141559.got.cif
#   From: 2010.05.17/outbox.cif.g08.bks.cpg/sg2_71_cif.got.tgz:141559.got - 2010.06.03 11:33:40.
