data_PCOD9102609
_publ_section_title
;
Structure prediction by ZEFSAII (Michael W. Deem and Ramdas Pophale) SiO2 
 PCOD9102609
Probable space group: P -1
;
_chemical_formula_sum "Si O2"
_cell_formula_units_Z 16
_cell_length_a 9.871479
_cell_length_b 9.390277
_cell_length_c 10.218749
_cell_angle_alpha 79.320622
_cell_angle_beta 103.877859
_cell_angle_gamma 135.618999
_cell_volume 643.048017
_symmetry_space_group_name_H-M "P -1"
_symmetry_group_IT_number 2
_symmetry_cell_setting 'triclinic'
loop_
_space_group_symop_operation_xyz
x,y,z
-x,-y,-z
loop_
_atom_site_type_symbol
_atom_site_label
_atom_site_fract_x
_atom_site_fract_y
_atom_site_fract_z
Si Si1 0.146893 0.608513 0.638674
Si Si2 0.204012 0.981015 0.663671
Si Si3 0.075114 0.983261 0.364930
Si Si4 0.666666 0.532663 0.322252
Si Si5 0.586434 0.405985 0.773655
Si Si6 0.744646 0.670969 0.017620
Si Si7 0.114447 0.614641 0.142784
Si Si8 0.801391 0.019354 0.888336
O O1 0.197627 0.806527 0.664068
O O2 0.327753 0.635958 0.637091
O O3 0.000000 0.500000 0.500000
O O4 0.038675 0.460238 0.764824
O O5 0.209259 0.058996 0.508429
O O6 0.390047 0.166294 0.758685
O O7 0.010858 0.917258 0.691861
O O8 0.176382 0.997404 0.257249
O O9 0.875670 0.744053 0.388654
O O10 0.481452 0.493866 0.330194
O O11 0.687888 0.588260 0.164537
O O12 0.655216 0.503636 0.916081
O O13 0.762978 0.431982 0.765660
O O14 0.693760 0.802256 0.958096
O O15 0.977991 0.827725 0.030431
O O16 0.256725 0.857988 0.118442
O O17 0.000000 0.500000 0.000000
#
# Coordination Sequence:
#
# PCOD9102609 Si02
#       8
#     2   2   2   2   2   2   2   2
#     4  12  23  44  73  95 127 186 229 257 329 407
#     4  10  22  38  67  93 131 169 224 271 327 388
#     4   9  18  40  64  91 122 174 225 264 320 397
#     4  10  20  41  65  92 130 173 219 269 319 401
#     4  11  24  40  62 100 139 162 212 287 334 373
#     4  10  20  38  63  92 126 173 218 262 333 387
#     4  12  24  43  67 103 136 170 224 279 322 394
#     4  10  20  38  67  89 125 177 221 262 323 396
#
# _framework density 24.881499000000002
#
# number of rings (size 3 to 8) (size 9 to 14) (size 15 to 20)
#    0.000    1.500    5.000    0.375    1.750    3.000 
#    0.000    8.125    0.000    0.000    0.000    0.000 
#    0.000    0.000    0.000    0.000    0.000    0.000 
#
# Total GULP energy -89468.268181 kJ/mol
# GULP energy per Si atom -5591.766761 kJ/mol
# Density = 2.482487 g / cm^3
# Si number density = 24.881499 Si / 1000 Ang^3
#
#
#
# Elastic Constant Matrix: (Units=GPa)
#
#
# Indices 1 2 3 4 5 6 
#
# 1 119.0545 33.1524 9.7152 -5.0237 26.9056 -35.6107
# 2 33.1524 125.7447 39.0131 21.4733 4.2573 -43.2644
# 3 9.7152 39.0131 114.2115 24.7800 -17.3320 -2.2091
# 4 -5.0237 21.4733 24.7800 37.9665 -10.3547 2.4776
# 5 26.9056 4.2573 -17.3320 -10.3547 29.1273 -2.0827
# 6 -35.6107 -43.2644 -2.2091 2.4776 -2.0827 52.8074
#
#
#
# Elastic Compliance Matrix: (Units=1/GPa)
#
#
# Indices 1 2 3 4 5 6 
#
# 1 0.015079 0.001797 -0.003785 -0.001700 -0.016268 0.010921
# 2 0.001797 0.015416 -0.004581 -0.008781 -0.008780 0.013716
# 3 -0.003785 -0.004581 0.012776 -0.003101 0.010293 -0.005220
# 4 -0.001700 -0.008781 -0.003101 0.037454 0.013631 -0.009690
# 5 -0.016268 -0.008780 0.010293 0.013631 0.060469 -0.015988
# 6 0.010921 0.013716 -0.005220 -0.009690 -0.015988 0.037145
#
#
# Mechanical properties :
#
#
# Convention : Reuss Voigt Hill
#
# Bulk Modulus (GPa) = 33.18447 58.08578 45.63513
# Shear Modulus (GPa) = 24.81121 42.45557 33.63339
#
# Velocity S-wave (km/s) = 3.16123 4.13523 3.68059
# Velocity P-wave (km/s) = 5.16628 6.79675 6.03682
#
# Compressibility (1/GPa) = 0.03013458
#
# Stress axis : x y z
#
# Youngs Moduli (GPa) = 66.31668 64.86724 78.27055
#
# Poissons Ratio (x) = -0.11660 0.29627
# Poissons Ratio (y) = -0.11920 0.35854
# Poissons Ratio (z) = 0.25102 0.29714
#
# Static dielectric constant tensor:
#      x y z
#    x 2.046240 -0.016990 0.048760 
#    y -0.016990 2.070310 -0.024190 
#    z 0.048760 -0.024190 1.927390 
# 
# From -- ./inp_files/419371.got.cif
#   From: 2010.05.17/outbox.cif.g08.bks.cpg/sg2_210_cif.got.tgz:419371.got - 2010.06.03 11:33:40.
