data_PCOD9102946
_publ_section_title
;
Structure prediction by ZEFSAII (Michael W. Deem and Ramdas Pophale) SiO2 
 PCOD9102946
Probable space group: P -1
;
_chemical_formula_sum "Si O2"
_cell_formula_units_Z 16
_cell_length_a 14.775132
_cell_length_b 7.701302
_cell_length_c 9.326879
_cell_angle_alpha 97.366014
_cell_angle_beta 137.459980
_cell_angle_gamma 96.369443
_cell_volume 677.407243
_symmetry_space_group_name_H-M "P -1"
_symmetry_group_IT_number 2
_symmetry_cell_setting 'triclinic'
loop_
_space_group_symop_operation_xyz
x,y,z
-x,-y,-z
loop_
_atom_site_type_symbol
_atom_site_label
_atom_site_fract_x
_atom_site_fract_y
_atom_site_fract_z
Si Si1 0.325855 0.089751 0.866785
Si Si2 0.575805 0.516117 0.938617
Si Si3 0.081149 0.696678 0.929385
Si Si4 0.915758 0.696758 0.021012
Si Si5 0.069593 0.959585 0.722647
Si Si6 0.599409 0.213988 0.745530
Si Si7 0.639818 0.435921 0.543266
Si Si8 0.610783 0.081242 0.346674
O O1 0.219620 0.956084 0.835536
O O2 0.312325 0.023417 0.679974
O O3 0.306366 0.288036 0.893156
O O4 0.482827 0.110116 0.105854
O O5 0.627924 0.349367 0.931706
O O6 0.461673 0.519520 0.685314
O O7 0.500000 0.500000 0.000000
O O8 0.061680 0.478277 0.886149
O O9 0.009195 0.773432 0.723542
O O10 0.248847 0.800770 0.124060
O O11 0.020629 0.742732 0.013517
O O12 0.922347 0.872177 0.142653
O O13 0.760805 0.607744 0.762100
O O14 0.000000 0.000000 0.500000
O O15 0.560118 0.321029 0.574962
O O16 0.470254 0.042703 0.628641
O O17 0.700413 0.284739 0.520258
#
# Coordination Sequence:
#
# PCOD9102946 Si02
#       8
#     2   2   2   2   2   2   2   2
#     4  10  21  39  61  95 133 169 214 276 330 402
#     4  11  22  39  63  96 137 177 212 268 341 394
#     4  10  23  45  72  95 132 183 223 282 336 392
#     4  10  24  49  69  97 136 176 231 284 331 401
#     4  12  26  44  71 102 134 176 230 280 344 399
#     4  11  20  40  64  96 128 173 221 272 326 396
#     4  10  23  39  64  96 132 174 219 270 333 392
#     4  10  20  38  64  93 132 168 214 268 327 393
#
# _framework density 23.619468000000001
#
# number of rings (size 3 to 8) (size 9 to 14) (size 15 to 20)
#    0.000    1.500    2.500    2.625    0.000    5.500 
#    4.500    0.000    0.000    0.000    0.000    0.000 
#    0.000    0.000    0.000    0.000    0.000    0.000 
#
# Total GULP energy -89386.205302 kJ/mol
# GULP energy per Si atom -5586.637831 kJ/mol
# Density = 2.356571 g / cm^3
# Si number density = 23.619468 Si / 1000 Ang^3
#
#
#
# Elastic Constant Matrix: (Units=GPa)
#
#
# Indices 1 2 3 4 5 6 
#
# 1 123.7525 43.2450 29.9801 1.6552 -20.1896 7.8564
# 2 43.2450 79.7163 36.8703 -9.5063 -10.7490 7.9043
# 3 29.9801 36.8703 75.6917 -5.4635 -22.7789 -4.3110
# 4 1.6552 -9.5063 -5.4635 31.2754 4.5051 -13.6471
# 5 -20.1896 -10.7490 -22.7789 4.5051 26.2488 -0.6312
# 6 7.8564 7.9043 -4.3110 -13.6471 -0.6312 40.3130
#
#
#
# Elastic Compliance Matrix: (Units=1/GPa)
#
#
# Indices 1 2 3 4 5 6 
#
# 1 0.011395 -0.005398 -0.000227 -0.004423 0.007055 -0.002573
# 2 -0.005398 0.019575 -0.008515 0.004376 -0.004331 -0.002283
# 3 -0.000227 -0.008515 0.022572 0.001167 0.015841 0.004771
# 4 -0.004423 0.004376 0.001167 0.040827 -0.007272 0.013836
# 5 0.007055 -0.004331 0.015841 -0.007272 0.056735 -0.000405
# 6 -0.002573 -0.002283 0.004771 0.013836 -0.000405 0.030943
#
#
# Mechanical properties :
#
#
# Convention : Reuss Voigt Hill
#
# Bulk Modulus (GPa) = 39.58240 55.48348 47.53294
# Shear Modulus (GPa) = 22.85734 30.83845 26.84789
#
# Velocity S-wave (km/s) = 3.11422 3.61728 3.37513
# Velocity P-wave (km/s) = 5.45214 6.40218 5.94616
#
# Compressibility (1/GPa) = 0.02526375
#
# Stress axis : x y z
#
# Youngs Moduli (GPa) = 87.75526 51.08479 44.30200
#
# Poissons Ratio (x) = 0.27575 0.01005
# Poissons Ratio (y) = 0.47369 0.37723
# Poissons Ratio (z) = 0.01991 0.43498
#
# Static dielectric constant tensor:
#      x y z
#    x 1.943750 -0.033620 0.045390 
#    y -0.033620 1.998020 -0.031980 
#    z 0.045390 -0.031980 1.953850 
# 
# From -- ./inp_files/295874.got.cif
#   From: 2010.05.17/outbox.cif.g08.bks.cpg/sg2_148_cif.got.tgz:295874.got - 2010.06.03 11:33:40.
