data_PCOD9102882
_publ_section_title
;
Structure prediction by ZEFSAII (Michael W. Deem and Ramdas Pophale) SiO2 
 PCOD9102882
Probable space group: P -1
;
_chemical_formula_sum "Si O2"
_cell_formula_units_Z 16
_cell_length_a 5.680209
_cell_length_b 13.954186
_cell_length_c 21.734652
_cell_angle_alpha 21.762099
_cell_angle_beta 89.869704
_cell_angle_gamma 85.208853
_cell_volume 623.124072
_symmetry_space_group_name_H-M "P -1"
_symmetry_group_IT_number 2
_symmetry_cell_setting 'triclinic'
loop_
_space_group_symop_operation_xyz
x,y,z
-x,-y,-z
loop_
_atom_site_type_symbol
_atom_site_label
_atom_site_fract_x
_atom_site_fract_y
_atom_site_fract_z
Si Si1 0.641255 0.729261 0.083186
Si Si2 0.764656 0.438002 0.454832
Si Si3 0.640331 0.172491 0.357437
Si Si4 0.739852 0.601766 0.883830
Si Si5 0.974886 0.980927 0.374978
Si Si6 0.619799 0.090763 0.205541
Si Si7 0.679398 0.169874 0.732575
Si Si8 0.829157 0.885114 0.114376
O O1 0.689305 0.433219 0.234670
O O2 0.699149 0.740278 0.148691
O O3 0.770770 0.920696 0.926748
O O4 0.358889 0.878013 0.993944
O O5 0.829028 0.287469 0.609935
O O6 0.488077 0.597165 0.366827
O O7 0.912183 0.656398 0.301703
O O8 0.792770 0.219897 0.531034
O O9 0.459494 0.282334 0.236065
O O10 0.500000 0.000000 0.500000
O O11 0.874179 0.975030 0.446386
O O12 0.613889 0.712444 0.882031
O O13 0.783260 0.288200 0.064208
O O14 0.970365 0.727253 0.802428
O O15 0.773684 0.936785 0.352787
O O16 0.521146 0.926897 0.252355
O O17 0.000000 0.000000 0.000000
#
# Coordination Sequence:
#
# PCOD9102882 Si02
#       8
#     2   2   2   2   2   2   2   2
#     4  10  23  46  67  95 130 169 219 267 327 382
#     4  10  23  42  66  97 130 168 218 267 327 384
#     4  11  26  41  66  95 128 175 217 271 323 385
#     4  10  21  40  61  90 133 165 211 259 323 388
#     4  11  24  39  61  96 128 172 210 266 325 391
#     4  10  20  38  64  91 128 169 205 261 330 378
#     4  10  20  44  68  95 131 169 214 279 317 381
#     4  10  24  46  70  92 127 177 214 270 324 387
#
# _framework density 25.677070000000001
#
# number of rings (size 3 to 8) (size 9 to 14) (size 15 to 20)
#    0.000    1.750    2.500    0.375    3.500    3.000 
#   11.250    0.000    0.000    0.000    0.000    0.000 
#    0.000    0.000    0.000    0.000    0.000    0.000 
#
# Total GULP energy -89463.439321 kJ/mol
# GULP energy per Si atom -5591.464958 kJ/mol
# Density = 2.561863 g / cm^3
# Si number density = 25.677070 Si / 1000 Ang^3
#
#
#
# Elastic Constant Matrix: (Units=GPa)
#
#
# Indices 1 2 3 4 5 6 
#
# 1 47.5069 35.8954 20.7325 1.3110 -7.0667 -9.1005
# 2 35.8954 152.4919 61.7779 -7.5716 3.1682 -28.0858
# 3 20.7325 61.7779 157.4128 14.2968 -14.9751 -24.7228
# 4 1.3110 -7.5716 14.2968 46.3074 -11.3921 -4.3843
# 5 -7.0667 3.1682 -14.9751 -11.3921 37.0302 13.5250
# 6 -9.1005 -28.0858 -24.7228 -4.3843 13.5250 48.4950
#
#
#
# Elastic Compliance Matrix: (Units=1/GPa)
#
#
# Indices 1 2 3 4 5 6 
#
# 1 0.026789 -0.006284 -0.000586 -0.000298 0.005493 -0.000470
# 2 -0.006284 0.010358 -0.003123 0.002201 -0.004368 0.004644
# 3 -0.000586 -0.003123 0.008317 -0.002368 0.002250 0.001480
# 4 -0.000298 0.002201 -0.002368 0.024235 0.006066 0.000511
# 5 0.005493 -0.004368 0.002250 0.006066 0.034662 -0.009470
# 6 -0.000470 0.004644 0.001480 0.000511 -0.009470 0.026664
#
#
# Mechanical properties :
#
#
# Convention : Reuss Voigt Hill
#
# Bulk Modulus (GPa) = 39.25166 66.02479 52.63823
# Shear Modulus (GPa) = 31.34736 42.30026 36.82381
#
# Velocity S-wave (km/s) = 3.49783 4.06321 3.79108
# Velocity P-wave (km/s) = 5.62432 6.91247 6.30140
#
# Compressibility (1/GPa) = 0.02547663
#
# Stress axis : x y z
#
# Youngs Moduli (GPa) = 37.32936 96.54792 120.23233
#
# Poissons Ratio (x) = 0.60668 0.07050
# Poissons Ratio (y) = 0.23457 0.37552
# Poissons Ratio (z) = 0.02189 0.30155
#
# Static dielectric constant tensor:
#      x y z
#    x 2.089580 0.008450 -0.004340 
#    y 0.008450 2.010090 0.029800 
#    z -0.004340 0.029800 2.084380 
# 
# From -- ./inp_files/364608.got.cif
#   From: 2010.05.17/outbox.cif.g08.bks.cpg/sg2_183_cif.got.tgz:364608.got - 2010.06.03 11:33:40.
