data_PCOD9102335
_publ_section_title
;
Structure prediction by ZEFSAII (Michael W. Deem and Ramdas Pophale) SiO2 
 PCOD9102335
Probable space group: P -1
;
_chemical_formula_sum "Si O2"
_cell_formula_units_Z 15
_cell_length_a 15.103625
_cell_length_b 9.085338
_cell_length_c 6.839341
_cell_angle_alpha 50.927786
_cell_angle_beta 112.204104
_cell_angle_gamma 120.262204
_cell_volume 626.774732
_symmetry_space_group_name_H-M "P -1"
_symmetry_group_IT_number 2
_symmetry_cell_setting 'triclinic'
loop_
_space_group_symop_operation_xyz
x,y,z
-x,-y,-z
loop_
_atom_site_type_symbol
_atom_site_label
_atom_site_fract_x
_atom_site_fract_y
_atom_site_fract_z
Si Si1 0.360794 0.477855 0.551844
Si Si2 0.179492 0.920126 0.517375
Si Si3 0.962249 0.625921 0.701783
Si Si4 0.781094 0.623780 0.817202
Si Si5 0.805196 0.425553 0.408650
Si Si6 0.659361 0.988665 0.138169
Si Si7 0.500000 0.500000 0.000000
Si Si8 0.502584 0.075505 0.226292
O O1 0.320962 0.517164 0.270344
O O2 0.280222 0.516576 0.598843
O O3 0.344197 0.239257 0.710700
O O4 0.465414 0.564596 0.693171
O O5 0.214380 0.805412 0.471711
O O6 0.058115 0.815591 0.539704
O O7 0.224964 0.160044 0.310381
O O8 0.228659 0.886028 0.792606
O O9 0.875481 0.682188 0.694831
O O10 0.904656 0.500394 0.568730
O O11 0.000000 0.500000 0.000000
O O12 0.811141 0.528838 0.113774
O O13 0.582630 0.014523 0.216565
O O14 0.610862 0.039611 0.862257
O O15 0.477063 0.686106 0.931221
O O16 0.500000 0.000000 0.500000
#
# Coordination Sequence:
#
# PCOD9102335 Si02
#       8
#     2   2   2   2   2   2   1   2
#     4   9  21  40  61  90 128 160 206 255 302 365
#     4  11  22  40  64  91 121 165 208 251 312 364
#     4  11  23  44  62  89 129 160 205 264 309 366
#     4  10  23  42  62  89 125 164 206 257 308 366
#     4  11  23  42  62  89 124 163 207 259 305 368
#     4   9  21  41  59  91 125 155 207 252 294 374
#     4  10  20  38  62  92 122 158 204 246 298 370
#     4  10  21  40  63  88 125 160 199 251 307 356
#
# _framework density 23.932041999999999
#
# number of rings (size 3 to 8) (size 9 to 14) (size 15 to 20)
#    0.000    1.867    1.333    1.600    0.000    5.867 
#    9.600    6.667    0.000    0.000    0.000    0.000 
#    0.000    0.000    0.000    0.000    0.000    0.000 
#
# Total GULP energy -83502.999272 kJ/mol
# GULP energy per Si atom -5566.866618 kJ/mol
# Density = 2.387757 g / cm^3
# Si number density = 23.932042 Si / 1000 Ang^3
#
#
#
# Elastic Constant Matrix: (Units=GPa)
#
#
# Indices 1 2 3 4 5 6 
#
# 1 86.7652 50.3468 22.6719 -0.1426 0.6065 -30.9390
# 2 50.3468 162.7465 43.1656 24.0304 5.0794 -30.7539
# 3 22.6719 43.1656 132.2284 42.4734 14.9408 5.0855
# 4 -0.1426 24.0304 42.4734 44.4130 5.8923 13.5295
# 5 0.6065 5.0794 14.9408 5.8923 35.8772 12.0607
# 6 -30.9390 -30.7539 5.0855 13.5295 12.0607 45.0533
#
#
#
# Elastic Compliance Matrix: (Units=1/GPa)
#
#
# Indices 1 2 3 4 5 6 
#
# 1 0.017766 -0.002809 -0.002590 0.001068 -0.002688 0.010974
# 2 -0.002809 0.009586 -0.000536 -0.006584 -0.002463 0.007312
# 3 -0.002590 -0.000536 0.012077 -0.011039 -0.003332 0.000699
# 4 0.001068 -0.006584 -0.011039 0.040939 0.004138 -0.015917
# 5 -0.002688 -0.002463 -0.003332 0.004138 0.033464 -0.013352
# 6 0.010974 0.007312 0.000699 -0.015917 -0.013352 0.042999
#
#
# Mechanical properties :
#
#
# Convention : Reuss Voigt Hill
#
# Bulk Modulus (GPa) = 36.28554 68.23431 52.25993
# Shear Modulus (GPa) = 28.10769 42.77240 35.44004
#
# Velocity S-wave (km/s) = 3.43079 4.23217 3.85237
# Velocity P-wave (km/s) = 5.55775 7.24260 6.45538
#
# Compressibility (1/GPa) = 0.02755919
#
# Stress axis : x y z
#
# Youngs Moduli (GPa) = 56.28740 104.31454 82.80047
#
# Poissons Ratio (x) = 0.29301 0.21449
# Poissons Ratio (y) = 0.15811 0.04437
# Poissons Ratio (z) = 0.14581 0.05589
#
# Static dielectric constant tensor:
#      x y z
#    x 1.942690 0.057920 0.049250 
#    y 0.057920 1.954420 -0.007570 
#    z 0.049250 -0.007570 1.973470 
# 
# From -- ./inp_files/37868.got.cif
#   From: 2010.05.17/outbox.cif.g08.bks.cpg/sg2_19_cif.got.tgz:37868.got - 2010.06.03 11:33:40.
