data_PCOD9102785
_publ_section_title
;
Structure prediction by ZEFSAII (Michael W. Deem and Ramdas Pophale) SiO2 
 PCOD9102785
Probable space group: P -1
;
_chemical_formula_sum "Si O2"
_cell_formula_units_Z 16
_cell_length_a 9.022119
_cell_length_b 14.826670
_cell_length_c 7.237172
_cell_angle_alpha 87.709197
_cell_angle_beta 128.619889
_cell_angle_gamma 120.942573
_cell_volume 588.964049
_symmetry_space_group_name_H-M "P -1"
_symmetry_group_IT_number 2
_symmetry_cell_setting 'triclinic'
loop_
_space_group_symop_operation_xyz
x,y,z
-x,-y,-z
loop_
_atom_site_type_symbol
_atom_site_label
_atom_site_fract_x
_atom_site_fract_y
_atom_site_fract_z
Si Si1 0.464185 0.834708 0.757500
Si Si2 0.117554 0.796191 0.766092
Si Si3 0.089603 0.467423 0.398119
Si Si4 0.257858 0.248248 0.016644
Si Si5 0.624141 0.543095 0.837799
Si Si6 0.843235 0.335034 0.798895
Si Si7 0.242744 0.939381 0.212367
Si Si8 0.391145 0.287111 0.566230
O O1 0.340343 0.869124 0.792851
O O2 0.555521 0.767491 0.920616
O O3 0.266160 0.752281 0.452984
O O4 0.711283 0.950346 0.855655
O O5 0.052443 0.669974 0.705885
O O6 0.876396 0.785996 0.545531
O O7 0.201849 0.853068 0.028750
O O8 0.367226 0.516068 0.605575
O O9 0.088023 0.545281 0.237220
O O10 0.000000 0.500000 0.500000
O O11 0.289828 0.358608 0.947674
O O12 0.327234 0.271573 0.293952
O O13 0.981406 0.133848 0.816538
O O14 0.533815 0.415349 0.750555
O O15 0.889934 0.621160 0.937125
O O16 0.600932 0.274147 0.740520
O O17 0.500000 0.000000 0.500000
#
# Coordination Sequence:
#
# PCOD9102785 Si02
#       8
#     2   2   2   2   2   2   2   2
#     4  11  21  43  64  92 126 174 219 257 330 387
#     4  10  22  40  70  88 130 179 208 262 332 386
#     4  11  21  41  62  95 139 168 206 260 332 386
#     4  10  20  38  64  87 123 173 212 266 325 379
#     4  11  20  35  62  91 132 165 215 259 317 382
#     4  11  22  36  64  95 128 173 213 263 317 387
#     4  11  24  41  65  94 124 166 226 278 314 376
#     4   9  20  36  58  92 127 167 212 257 317 385
#
# _framework density 27.166346000000001
#
# number of rings (size 3 to 8) (size 9 to 14) (size 15 to 20)
#    0.000    1.500    3.750    2.250    3.500    0.500 
#    4.500    0.625    0.000    0.000    0.000    0.000 
#    0.000    0.000    0.000    0.000    0.000    0.000 
#
# Total GULP energy -89246.921188 kJ/mol
# GULP energy per Si atom -5577.932574 kJ/mol
# Density = 2.710451 g / cm^3
# Si number density = 27.166346 Si / 1000 Ang^3
#
#
#
# Elastic Constant Matrix: (Units=GPa)
#
#
# Indices 1 2 3 4 5 6 
#
# 1 175.4203 7.8176 80.0787 -12.5921 27.0939 -18.2650
# 2 7.8176 65.2747 23.9344 18.2623 2.0462 -20.2234
# 3 80.0787 23.9344 142.7622 23.1733 37.8358 -3.1818
# 4 -12.5921 18.2623 23.1733 36.4296 -4.2437 11.0979
# 5 27.0939 2.0462 37.8358 -4.2437 54.0638 -5.1286
# 6 -18.2650 -20.2234 -3.1818 11.0979 -5.1286 40.8816
#
#
#
# Elastic Compliance Matrix: (Units=1/GPa)
#
#
# Indices 1 2 3 4 5 6 
#
# 1 0.009190 -0.000158 -0.006338 0.006816 0.000537 0.001751
# 2 -0.000158 0.026205 -0.001021 -0.017921 0.000073 0.017687
# 3 -0.006338 -0.001021 0.014847 -0.012095 -0.008117 0.000084
# 4 0.006816 -0.017921 -0.012095 0.053603 0.008008 -0.020308
# 5 0.000537 0.000073 -0.008117 0.008008 0.024586 0.000555
# 6 0.001751 0.017687 0.000084 -0.020308 0.000555 0.039582
#
#
# Mechanical properties :
#
#
# Convention : Reuss Voigt Hill
#
# Bulk Modulus (GPa) = 28.40259 67.45761 47.93010
# Shear Modulus (GPa) = 25.66968 44.38345 35.02656
#
# Velocity S-wave (km/s) = 3.07727 4.04637 3.59463
# Velocity P-wave (km/s) = 4.80665 6.83491 5.90847
#
# Compressibility (1/GPa) = 0.03520806
#
# Stress axis : x y z
#
# Youngs Moduli (GPa) = 108.81936 38.16134 67.35244
#
# Poissons Ratio (x) = 0.00603 0.42688
# Poissons Ratio (y) = 0.01719 0.06875
# Poissons Ratio (z) = 0.68969 0.03895
#
# Static dielectric constant tensor:
#      x y z
#    x 2.153030 0.054450 -0.106740 
#    y 0.054450 2.353900 -0.127360 
#    z -0.106740 -0.127360 2.208990 
# 
# From -- ./inp_files/208048.got.cif
#   From: 2010.05.17/outbox.cif.g08.bks.cpg/sg2_105_cif.got.tgz:208048.got - 2010.06.03 11:33:40.
