data_PCOD9102613
_publ_section_title
;
Structure prediction by ZEFSAII (Michael W. Deem and Ramdas Pophale) SiO2 
 PCOD9102613
Probable space group: P -1
;
_chemical_formula_sum "Si O2"
_cell_formula_units_Z 16
_cell_length_a 7.786351
_cell_length_b 17.393540
_cell_length_c 12.385831
_cell_angle_alpha 45.883330
_cell_angle_beta 81.066162
_cell_angle_gamma 116.967281
_cell_volume 726.560260
_symmetry_space_group_name_H-M "P -1"
_symmetry_group_IT_number 2
_symmetry_cell_setting 'triclinic'
loop_
_space_group_symop_operation_xyz
x,y,z
-x,-y,-z
loop_
_atom_site_type_symbol
_atom_site_label
_atom_site_fract_x
_atom_site_fract_y
_atom_site_fract_z
Si Si1 0.558623 0.209462 0.108375
Si Si2 0.370804 0.049373 0.925203
Si Si3 0.128542 0.204367 0.635903
Si Si4 0.297343 0.857723 0.397523
Si Si5 0.542913 0.138448 0.409721
Si Si6 0.972292 0.915436 0.808725
Si Si7 0.263254 0.624016 0.276603
Si Si8 0.423330 0.437726 0.692714
O O1 0.629451 0.248842 0.188637
O O2 0.296270 0.162395 0.152575
O O3 0.465254 0.044864 0.240991
O O4 0.794157 0.352491 0.856609
O O5 0.507120 0.117778 0.726293
O O6 0.492030 0.196250 0.853708
O O7 0.500000 0.000000 0.000000
O O8 0.034892 0.878494 0.150680
O O9 0.961261 0.211920 0.572931
O O10 0.456106 0.398233 0.420729
O O11 0.077366 0.063188 0.729954
O O12 0.246845 0.766474 0.601114
O O13 0.500000 0.000000 0.500000
O O14 0.233006 0.018603 0.603285
O O15 0.862160 0.756535 0.041403
O O16 0.354257 0.548704 0.320032
O O17 0.000000 0.500000 0.500000
O O18 0.500000 0.500000 0.500000
#
# Coordination Sequence:
#
# PCOD9102613 Si02
#       8
#     2   2   2   2   2   2   2   2
#     4   9  18  36  56  88 121 165 208 241 309 361
#     4  10  16  32  57  87 120 163 198 244 298 361
#     4  10  20  39  62  83 130 164 202 250 306 380
#     4   9  18  32  57  92 115 159 210 244 304 353
#     4  10  21  35  64  90 116 160 213 262 298 365
#     4  10  21  41  61  89 121 167 206 247 317 367
#     4  11  20  35  60  90 126 164 203 248 308 369
#     4  11  25  37  57  95 128 161 201 256 309 366
#
# _framework density 22.021574999999999
#
# number of rings (size 3 to 8) (size 9 to 14) (size 15 to 20)
#    0.000    2.000    5.000    1.875    1.750    2.500 
#    0.000    0.000    0.000   29.250    0.000    0.000 
#    0.000    0.000    0.000    0.000    0.000    0.000 
#
# Total GULP energy -89170.786036 kJ/mol
# GULP energy per Si atom -5573.174127 kJ/mol
# Density = 2.197145 g / cm^3
# Si number density = 22.021575 Si / 1000 Ang^3
#
#
#
# Elastic Constant Matrix: (Units=GPa)
#
#
# Indices 1 2 3 4 5 6 
#
# 1 50.1703 21.6123 24.6319 10.2211 5.9046 -1.0977
# 2 21.6123 102.8710 59.9700 21.3121 10.0911 4.0214
# 3 24.6319 59.9700 130.3815 20.6082 11.2436 11.1609
# 4 10.2211 21.3121 20.6082 50.6190 3.4271 7.6392
# 5 5.9046 10.0911 11.2436 3.4271 32.3355 18.5563
# 6 -1.0977 4.0214 11.1609 7.6392 18.5563 34.7835
#
#
#
# Elastic Compliance Matrix: (Units=1/GPa)
#
#
# Indices 1 2 3 4 5 6 
#
# 1 0.023768 -0.002322 -0.002938 -0.003094 -0.005450 0.005548
# 2 -0.002322 0.014395 -0.005571 -0.003488 -0.003214 0.002531
# 3 -0.002938 -0.005571 0.011210 -0.001203 0.000145 -0.002859
# 4 -0.003094 -0.003488 -0.001203 0.023037 0.003080 -0.006011
# 5 -0.005450 -0.003214 0.000145 0.003080 0.047341 -0.025779
# 6 0.005548 0.002531 -0.002859 -0.006011 -0.025779 0.044621
#
#
# Mechanical properties :
#
#
# Convention : Reuss Voigt Hill
#
# Bulk Modulus (GPa) = 36.08647 55.09457 45.59052
# Shear Modulus (GPa) = 25.60546 35.36151 30.48349
#
# Velocity S-wave (km/s) = 3.41360 4.01155 3.72459
# Velocity P-wave (km/s) = 5.65326 6.82125 6.26454
#
# Compressibility (1/GPa) = 0.02771122
#
# Stress axis : x y z
#
# Youngs Moduli (GPa) = 42.07335 69.46737 89.20950
#
# Poissons Ratio (x) = 0.16129 0.26212
# Poissons Ratio (y) = 0.09769 0.49696
# Poissons Ratio (z) = 0.12362 0.38698
#
# Static dielectric constant tensor:
#      x y z
#    x 1.912040 0.192460 0.069130 
#    y 0.192460 2.219340 0.124340 
#    z 0.069130 0.124340 1.955040 
# 
# From -- ./inp_files/398575.got.cif
#   From: 2010.05.17/outbox.cif.g08.bks.cpg/sg2_200_cif.got.tgz:398575.got - 2010.06.03 11:33:40.
