data_PCOD9102310
_publ_section_title
;
Structure prediction by ZEFSAII (Michael W. Deem and Ramdas Pophale) SiO2 
 PCOD9102310
Probable space group: P -1
;
_chemical_formula_sum "Si O2"
_cell_formula_units_Z 16
_cell_length_a 11.987866
_cell_length_b 6.281528
_cell_length_c 11.332258
_cell_angle_alpha 59.331434
_cell_angle_beta 99.229238
_cell_angle_gamma 98.790158
_cell_volume 721.947581
_symmetry_space_group_name_H-M "P -1"
_symmetry_group_IT_number 2
_symmetry_cell_setting 'triclinic'
loop_
_space_group_symop_operation_xyz
x,y,z
-x,-y,-z
loop_
_atom_site_type_symbol
_atom_site_label
_atom_site_fract_x
_atom_site_fract_y
_atom_site_fract_z
Si Si1 0.175783 0.368376 0.507392
Si Si2 0.023098 0.432800 0.686902
Si Si3 0.033064 0.098577 0.107836
Si Si4 0.149261 0.557405 0.916955
Si Si5 0.511368 0.737190 0.663865
Si Si6 0.315070 0.946623 0.726855
Si Si7 0.498578 0.195517 0.839359
Si Si8 0.617326 0.218188 0.604203
O O1 0.115273 0.448056 0.594875
O O2 0.278155 0.576304 0.440923
O O3 0.074694 0.381449 0.393283
O O4 0.220427 0.097332 0.605780
O O5 0.089189 0.479766 0.805660
O O6 0.961172 0.153458 0.747708
O O7 0.929142 0.249696 0.090205
O O8 0.140628 0.302252 0.061959
O O9 0.000000 0.000000 0.000000
O O10 0.265551 0.709311 0.859895
O O11 0.407187 0.857925 0.676618
O O12 0.522691 0.478213 0.802339
O O13 0.474737 0.693195 0.533214
O O14 0.620019 0.934636 0.637813
O O15 0.375747 0.144395 0.772215
O O16 0.581253 0.176700 0.746114
O O17 0.500000 0.000000 0.000000
#
# Coordination Sequence:
#
# PCOD9102310 Si02
#       8
#     2   2   2   2   2   2   2   2
#     4  11  22  41  62  95 131 170 213 274 319 373
#     4  10  22  41  60  92 135 162 216 276 312 366
#     4   9  19  39  61  82 126 169 211 264 313 375
#     4  10  20  38  62  91 120 171 216 257 321 385
#     4  10  22  41  71  94 123 168 216 269 324 393
#     4  11  23  39  69  94 125 172 218 258 330 387
#     4  11  25  46  65  96 136 161 210 276 323 393
#     4  10  22  41  67  96 125 169 218 257 330 387
#
# _framework density 22.162272000000002
#
# number of rings (size 3 to 8) (size 9 to 14) (size 15 to 20)
#    0.000    1.750    2.500    1.125    3.500    2.500 
#   13.500    0.000    0.000    0.000    0.000    0.000 
#    0.000    0.000    0.000    0.000    0.000    0.000 
#
# Total GULP energy -89271.260603 kJ/mol
# GULP energy per Si atom -5579.453788 kJ/mol
# Density = 2.211183 g / cm^3
# Si number density = 22.162272 Si / 1000 Ang^3
#
#
#
# Elastic Constant Matrix: (Units=GPa)
#
#
# Indices 1 2 3 4 5 6 
#
# 1 54.1043 5.6870 21.5409 -4.4497 -30.8801 6.6081
# 2 5.6870 53.3687 6.4134 -19.5381 -14.7326 3.6708
# 3 21.5409 6.4134 92.1096 -25.4094 -27.8902 -1.0469
# 4 -4.4497 -19.5381 -25.4094 33.3365 3.9955 -7.8846
# 5 -30.8801 -14.7326 -27.8902 3.9955 38.3676 -10.4786
# 6 6.6081 3.6708 -1.0469 -7.8846 -10.4786 23.6399
#
#
#
# Elastic Compliance Matrix: (Units=1/GPa)
#
#
# Indices 1 2 3 4 5 6 
#
# 1 0.038123 0.011264 0.007180 0.014847 0.041792 0.011389
# 2 0.011264 0.037742 0.016231 0.036344 0.037111 0.020281
# 3 0.007180 0.016231 0.028274 0.033345 0.035537 0.023598
# 4 0.014847 0.036344 0.033345 0.082431 0.053243 0.042777
# 5 0.041792 0.037111 0.035537 0.053243 0.107804 0.049672
# 6 0.011389 0.020281 0.023598 0.042777 0.049672 0.073299
#
#
# Mechanical properties :
#
#
# Convention : Reuss Voigt Hill
#
# Bulk Modulus (GPa) = 5.76404 29.65169 17.70786
# Shear Modulus (GPa) = 14.03889 30.13155 22.08522
#
# Velocity S-wave (km/s) = 2.51959 3.69126 3.16020
# Velocity P-wave (km/s) = 3.32730 5.61922 4.61771
#
# Compressibility (1/GPa) = 0.17348947
#
# Stress axis : x y z
#
# Youngs Moduli (GPa) = 26.23076 26.49576 35.36762
#
# Poissons Ratio (x) = -0.29844 -0.25393
# Poissons Ratio (y) = -0.29546 -0.57407
# Poissons Ratio (z) = -0.18833 -0.43006
#
# Static dielectric constant tensor:
#      x y z
#    x 1.830530 0.014960 -0.016480 
#    y 0.014960 1.842650 -0.020930 
#    z -0.016480 -0.020930 1.873580 
# 
# From -- ./inp_files/82989.got.cif
#   From: 2010.05.17/outbox.cif.g08.bks.cpg/sg2_42_cif.got.tgz:82989.got - 2010.06.03 11:33:40.
