data_PCOD9102028
_publ_section_title
;
Structure prediction by ZEFSAII (Michael W. Deem and Ramdas Pophale) SiO2 
 PCOD9102028
Probable space group: P -1
;
_chemical_formula_sum "Si O2"
_cell_formula_units_Z 16
_cell_length_a 9.603692
_cell_length_b 7.003265
_cell_length_c 18.301698
_cell_angle_alpha 43.049761
_cell_angle_beta 64.837064
_cell_angle_gamma 51.013322
_cell_volume 651.746889
_symmetry_space_group_name_H-M "P -1"
_symmetry_group_IT_number 2
_symmetry_cell_setting 'triclinic'
loop_
_space_group_symop_operation_xyz
x,y,z
-x,-y,-z
loop_
_atom_site_type_symbol
_atom_site_label
_atom_site_fract_x
_atom_site_fract_y
_atom_site_fract_z
Si Si1 0.229985 0.196476 0.850282
Si Si2 0.078656 0.132747 0.116634
Si Si3 0.163962 0.295160 0.205261
Si Si4 0.709641 0.331264 0.189002
Si Si5 0.723496 0.964056 0.596204
Si Si6 0.610972 0.573358 0.366918
Si Si7 0.622960 0.372851 0.920878
Si Si8 0.534587 0.717902 0.627813
O O1 0.269295 0.407058 0.840968
O O2 0.288225 0.272174 0.739243
O O3 0.017303 0.351386 0.857764
O O4 0.337865 0.831019 0.957037
O O5 0.161966 0.116564 0.182266
O O6 0.905772 0.097340 0.177488
O O7 0.227585 0.879460 0.099629
O O8 0.000000 0.500000 0.000000
O O9 0.332350 0.343916 0.157498
O O10 0.159235 0.144255 0.326640
O O11 0.564842 0.511806 0.107744
O O12 0.622911 0.192504 0.303417
O O13 0.745469 0.205627 0.469421
O O14 0.517995 0.201297 0.603438
O O15 0.711529 0.669269 0.643449
O O16 0.477694 0.545463 0.346285
O O17 0.500000 0.000000 0.500000
#
# Coordination Sequence:
#
# PCOD9102028 Si02
#       8
#     2   2   2   2   2   2   2   2
#     4  10  22  39  61  89 125 166 206 256 319 371
#     4  11  25  42  63  91 133 170 211 263 315 376
#     4  11  24  39  61  96 125 163 212 261 315 379
#     4  10  21  40  65  94 119 174 213 251 322 383
#     4  10  20  38  61  92 120 155 214 259 312 376
#     4   9  21  38  62  87 121 163 205 262 311 376
#     4  12  23  44  65  89 137 166 211 267 314 374
#     4   9  18  37  62  88 121 161 210 262 312 371
#
# _framework density 24.549405
#
# number of rings (size 3 to 8) (size 9 to 14) (size 15 to 20)
#    0.000    1.750    3.750    0.750    3.500    1.500 
#    0.000    1.250    0.000    0.750    0.000    0.000 
#    0.000    0.000    0.000    0.000    0.000    0.000 
#
# Total GULP energy -89556.643922 kJ/mol
# GULP energy per Si atom -5597.290245 kJ/mol
# Density = 2.449353 g / cm^3
# Si number density = 24.549405 Si / 1000 Ang^3
#
#
#
# Elastic Constant Matrix: (Units=GPa)
#
#
# Indices 1 2 3 4 5 6 
#
# 1 104.1683 26.0455 25.3463 -3.8413 20.9874 3.4002
# 2 26.0455 67.1163 8.0481 13.1251 5.0176 8.2474
# 3 25.3463 8.0481 142.0803 12.5796 20.0875 1.3619
# 4 -3.8413 13.1251 12.5796 32.3812 -0.6552 1.1777
# 5 20.9874 5.0176 20.0875 -0.6552 41.0711 -4.1782
# 6 3.4002 8.2474 1.3619 1.1777 -4.1782 30.6981
#
#
#
# Elastic Compliance Matrix: (Units=1/GPa)
#
#
# Indices 1 2 3 4 5 6 
#
# 1 0.012394 -0.004933 -0.001575 0.004011 -0.004979 -0.000809
# 2 -0.004933 0.018961 0.000692 -0.008395 -0.000710 -0.004353
# 3 -0.001575 0.000692 0.008085 -0.003651 -0.003362 -0.000688
# 4 0.004011 -0.008395 -0.003651 0.036180 0.001418 0.000778
# 5 -0.004979 -0.000710 -0.003362 0.001418 0.029135 0.004802
# 6 -0.000809 -0.004353 -0.000688 0.000778 0.004802 0.034489
#
#
# Mechanical properties :
#
#
# Convention : Reuss Voigt Hill
#
# Bulk Modulus (GPa) = 35.96310 48.02718 41.99514
# Shear Modulus (GPa) = 31.22159 37.75842 34.49000
#
# Velocity S-wave (km/s) = 3.57008 3.92606 3.75230
# Velocity P-wave (km/s) = 5.62806 6.33703 5.99304
#
# Compressibility (1/GPa) = 0.02780628
#
# Stress axis : x y z
#
# Youngs Moduli (GPa) = 80.68433 52.74015 123.68132
#
# Poissons Ratio (x) = 0.26019 0.19480
# Poissons Ratio (y) = 0.39806 -0.08553
# Poissons Ratio (z) = 0.12708 -0.03647
#
# Static dielectric constant tensor:
#      x y z
#    x 1.927100 0.042140 0.012150 
#    y 0.042140 1.985830 -0.002290 
#    z 0.012150 -0.002290 1.972020 
# 
# From -- ./inp_files/587136.got.cif
#   From: 2010.05.17/outbox.cif.g08.bks.cpg/sg2_294_cif.got.tgz:587136.got - 2010.06.03 11:33:40.
