data_PCOD9102517
_publ_section_title
;
Structure prediction by ZEFSAII (Michael W. Deem and Ramdas Pophale) SiO2 
 PCOD9102517
Probable space group: P -1
;
_chemical_formula_sum "Si O2"
_cell_formula_units_Z 16
_cell_length_a 7.001665
_cell_length_b 20.119893
_cell_length_c 8.960587
_cell_angle_alpha 130.334842
_cell_angle_beta 124.278873
_cell_angle_gamma 64.138609
_cell_volume 789.928748
_symmetry_space_group_name_H-M "P -1"
_symmetry_group_IT_number 2
_symmetry_cell_setting 'triclinic'
loop_
_space_group_symop_operation_xyz
x,y,z
-x,-y,-z
loop_
_atom_site_type_symbol
_atom_site_label
_atom_site_fract_x
_atom_site_fract_y
_atom_site_fract_z
Si Si1 0.414608 0.022952 0.247760
Si Si2 0.221965 0.300270 0.366194
Si Si3 0.259093 0.903943 0.259785
Si Si4 0.739799 0.888370 0.996309
Si Si5 0.499522 0.366247 0.809596
Si Si6 0.880299 0.470963 0.053528
Si Si7 0.676548 0.294480 0.100891
Si Si8 0.356282 0.417956 0.350736
O O1 0.585232 0.074991 0.499827
O O2 0.282968 0.080777 0.142825
O O3 0.269057 0.977531 0.242954
O O4 0.556691 0.944976 0.101752
O O5 0.280538 0.214680 0.166189
O O6 0.369562 0.290405 0.568407
O O7 0.316083 0.383743 0.449352
O O8 0.943419 0.309848 0.278474
O O9 0.334835 0.808624 0.081762
O O10 0.993484 0.902425 0.187238
O O11 0.298100 0.447688 0.851680
O O12 0.719108 0.392944 0.852364
O O13 0.600755 0.342315 0.981949
O O14 0.094387 0.442321 0.213653
O O15 0.000000 0.500000 0.000000
O O16 0.498894 0.338522 0.208352
O O17 0.500000 0.500000 0.500000
#
# Coordination Sequence:
#
# PCOD9102517 Si02
#       8
#     2   2   2   2   2   2   2   2
#     4  10  20  38  63  89 117 156 190 238 294 357
#     4  11  24  40  59  91 119 157 199 248 295 351
#     4  10  21  37  62  89 119 152 197 237 293 352
#     4  10  21  38  61  87 123 151 193 241 294 350
#     4  11  23  39  62  82 118 155 202 243 296 345
#     4  11  22  39  59  84 113 155 201 249 289 343
#     4  11  23  41  60  88 122 158 195 251 294 349
#     4  12  24  39  62  86 122 159 204 246 299 346
#
# _framework density 20.254992000000001
#
# number of rings (size 3 to 8) (size 9 to 14) (size 15 to 20)
#    0.000    1.250    2.500    3.750    1.750    1.000 
#    0.000    0.000    2.750    0.000    0.000    0.000 
#    0.000    0.000    0.000    0.000    0.000    0.000 
#
# Total GULP energy -89328.800091 kJ/mol
# GULP energy per Si atom -5583.050006 kJ/mol
# Density = 2.020889 g / cm^3
# Si number density = 20.254992 Si / 1000 Ang^3
#
#
#
# Elastic Constant Matrix: (Units=GPa)
#
#
# Indices 1 2 3 4 5 6 
#
# 1 66.9631 19.2120 29.6292 -0.6769 14.2908 4.1809
# 2 19.2120 52.7912 5.1950 -3.1777 12.9177 -0.3090
# 3 29.6292 5.1950 86.1043 -11.5056 31.0118 3.8310
# 4 -0.6769 -3.1777 -11.5056 24.5552 0.8633 -2.4074
# 5 14.2908 12.9177 31.0118 0.8633 30.3574 -8.1261
# 6 4.1809 -0.3090 3.8310 -2.4074 -8.1261 24.2522
#
#
#
# Elastic Compliance Matrix: (Units=1/GPa)
#
#
# Indices 1 2 3 4 5 6 
#
# 1 0.020096 -0.006804 -0.006742 -0.003765 -0.000369 -0.002984
# 2 -0.006804 0.025313 0.008342 0.007124 -0.017638 -0.005025
# 3 -0.006742 0.008342 0.027329 0.013606 -0.032006 -0.012422
# 4 -0.003765 0.007124 0.013606 0.048289 -0.017166 -0.002368
# 5 -0.000369 -0.017638 -0.032006 -0.017166 0.082014 0.030671
# 6 -0.002984 -0.005025 -0.012422 -0.002368 0.030671 0.053688
#
#
# Mechanical properties :
#
#
# Convention : Reuss Voigt Hill
#
# Bulk Modulus (GPa) = 16.04346 34.88122 25.46234
# Shear Modulus (GPa) = 17.36639 25.95445 21.66042
#
# Velocity S-wave (km/s) = 2.93130 3.58353 3.27370
# Velocity P-wave (km/s) = 4.40393 5.86350 5.18533
#
# Compressibility (1/GPa) = 0.06233071
#
# Stress axis : x y z
#
# Youngs Moduli (GPa) = 49.76177 39.50535 36.59165
#
# Poissons Ratio (x) = 0.26878 0.24670
# Poissons Ratio (y) = 0.33856 -0.30525
# Poissons Ratio (z) = 0.33549 -0.32956
#
# Static dielectric constant tensor:
#      x y z
#    x 1.671990 0.020310 0.010960 
#    y 0.020310 1.774810 -0.003600 
#    z 0.010960 -0.003600 1.759110 
# 
# From -- ./inp_files/48512.got.cif
#   From: 2010.05.17/outbox.cif.g08.bks.cpg/sg2_25_cif.got.tgz:48512.got - 2010.06.03 11:33:40.
