data_PCOD9102238
_publ_section_title
;
Structure prediction by ZEFSAII (Michael W. Deem and Ramdas Pophale) SiO2 
 PCOD9102238
Probable space group: P -1
;
_chemical_formula_sum "Si O2"
_cell_formula_units_Z 16
_cell_length_a 12.041401
_cell_length_b 17.355825
_cell_length_c 10.025566
_cell_angle_alpha 139.556455
_cell_angle_beta 128.623899
_cell_angle_gamma 30.956800
_cell_volume 696.603388
_symmetry_space_group_name_H-M "P -1"
_symmetry_group_IT_number 2
_symmetry_cell_setting 'triclinic'
loop_
_space_group_symop_operation_xyz
x,y,z
-x,-y,-z
loop_
_atom_site_type_symbol
_atom_site_label
_atom_site_fract_x
_atom_site_fract_y
_atom_site_fract_z
Si Si1 0.168081 0.307860 0.799641
Si Si2 0.650906 0.434265 0.209523
Si Si3 0.127160 0.877650 0.613760
Si Si4 0.757611 0.438587 0.583021
Si Si5 0.501094 0.280562 0.996357
Si Si6 0.845186 0.920961 0.924395
Si Si7 0.491287 0.969919 0.798240
Si Si8 0.666668 0.190349 0.593088
O O1 0.006710 0.326994 0.620052
O O2 0.303491 0.153273 0.811583
O O3 0.338838 0.284084 0.819249
O O4 0.000000 0.500000 0.000000
O O5 0.656577 0.500925 0.443543
O O6 0.542604 0.375597 0.076903
O O7 0.517420 0.601210 0.229735
O O8 0.901416 0.257814 0.132511
O O9 0.228157 0.706043 0.545916
O O10 0.208966 0.819561 0.447260
O O11 0.866178 0.033513 0.632087
O O12 0.189125 0.968891 0.831400
O O13 0.618056 0.603656 0.801454
O O14 0.727745 0.071515 0.919320
O O15 0.714199 0.882073 0.791085
O O16 0.446950 0.859313 0.601507
O O17 0.500000 0.000000 0.000000
#
# Coordination Sequence:
#
# PCOD9102238 Si02
#       8
#     2   2   2   2   2   2   2   2
#     4   9  21  36  61  93 118 147 197 253 294 341
#     4  12  24  38  62  89 122 159 202 243 303 352
#     4  11  21  39  63  90 120 152 205 247 297 350
#     4  11  20  38  64  92 117 154 204 250 289 359
#     4  10  20  38  62  89 117 153 202 247 292 347
#     4  11  24  40  60  89 121 161 197 248 301 355
#     4  11  22  40  63  87 121 157 196 244 299 357
#     4  11  24  39  63  91 118 160 198 250 292 358
#
# _framework density 22.968592999999998
#
# number of rings (size 3 to 8) (size 9 to 14) (size 15 to 20)
#    0.000    1.250    5.000    1.500    3.500    1.000 
#    0.000    3.750    0.000    0.000    0.000    0.000 
#    0.000    0.000    0.000    0.000    0.000    0.000 
#
# Total GULP energy -89448.991675 kJ/mol
# GULP energy per Si atom -5590.561980 kJ/mol
# Density = 2.291632 g / cm^3
# Si number density = 22.968593 Si / 1000 Ang^3
#
#
#
# Elastic Constant Matrix: (Units=GPa)
#
#
# Indices 1 2 3 4 5 6 
#
# 1 71.6776 38.4850 39.9454 0.5366 25.6824 -9.5272
# 2 38.4850 127.7705 33.8423 16.2109 11.2867 -19.6920
# 3 39.9454 33.8423 65.0495 2.0216 23.8138 -5.4201
# 4 0.5366 16.2109 2.0216 45.2216 -1.9268 1.4255
# 5 25.6824 11.2867 23.8138 -1.9268 41.9523 -6.3123
# 6 -9.5272 -19.6920 -5.4201 1.4255 -6.3123 30.6211
#
#
#
# Elastic Compliance Matrix: (Units=1/GPa)
#
#
# Indices 1 2 3 4 5 6 
#
# 1 0.024837 -0.003983 -0.010119 0.001189 -0.008086 0.001653
# 2 -0.003983 0.011188 -0.003548 -0.003900 0.002159 0.005954
# 3 -0.010119 -0.003548 0.026191 -0.000046 -0.008090 -0.002459
# 4 0.001189 -0.003900 -0.000046 0.023637 0.000975 -0.003046
# 5 -0.008086 0.002159 -0.008090 0.000975 0.033490 0.004299
# 6 0.001653 0.005954 -0.002459 -0.003046 0.004299 0.037593
#
#
# Mechanical properties :
#
#
# Convention : Reuss Voigt Hill
#
# Bulk Modulus (GPa) = 37.15174 54.33812 45.74493
# Shear Modulus (GPa) = 24.85023 33.70734 29.27879
#
# Velocity S-wave (km/s) = 3.29283 3.83501 3.57421
# Velocity P-wave (km/s) = 5.53779 6.58169 6.08217
#
# Compressibility (1/GPa) = 0.02691664
#
# Stress axis : x y z
#
# Youngs Moduli (GPa) = 40.26267 89.38479 38.18177
#
# Poissons Ratio (x) = 0.35598 0.38636
# Poissons Ratio (y) = 0.16035 0.13546
# Poissons Ratio (z) = 0.40741 0.31712
#
# Static dielectric constant tensor:
#      x y z
#    x 1.855690 -0.032950 -0.036350 
#    y -0.032950 1.875430 -0.020140 
#    z -0.036350 -0.020140 1.898280 
# 
# From -- ./inp_files/207807.got.cif
#   From: 2010.05.17/outbox.cif.g08.bks.cpg/sg2_104_cif.got.tgz:207807.got - 2010.06.03 11:33:40.
