data_PCOD9102155
_publ_section_title
;
Structure prediction by ZEFSAII (Michael W. Deem and Ramdas Pophale) SiO2 
 PCOD9102155
Probable space group: P -1
;
_chemical_formula_sum "Si O2"
_cell_formula_units_Z 13
_cell_length_a 11.030883
_cell_length_b 9.101969
_cell_length_c 14.388773
_cell_angle_alpha 96.904141
_cell_angle_beta 26.845038
_cell_angle_gamma 76.503449
_cell_volume 421.044158
_symmetry_space_group_name_H-M "P -1"
_symmetry_group_IT_number 2
_symmetry_cell_setting 'triclinic'
loop_
_space_group_symop_operation_xyz
x,y,z
-x,-y,-z
loop_
_atom_site_type_symbol
_atom_site_label
_atom_site_fract_x
_atom_site_fract_y
_atom_site_fract_z
Si Si1 0.557158 0.301257 0.847383
Si Si2 0.297866 0.261721 0.477490
Si Si3 0.063007 0.304236 0.942869
Si Si4 0.500000 0.000000 0.500000
Si Si5 0.236258 0.964819 0.146187
Si Si6 0.108718 0.190454 0.084295
Si Si7 0.516758 0.593074 0.789402
O O1 0.842726 0.096126 0.710096
O O2 0.294183 0.276575 0.980595
O O3 0.721396 0.355627 0.666837
O O4 0.189468 0.555242 0.162923
O O5 0.510273 0.152219 0.424647
O O6 0.308243 0.412465 0.424997
O O7 0.528666 0.061499 0.229441
O O8 0.543524 0.079037 0.574248
O O9 0.849621 0.323324 0.178103
O O10 0.000000 0.500000 0.000000
O O11 0.944120 0.267548 0.923703
O O12 0.483514 0.735868 0.898649
O O13 0.500000 0.000000 0.000000
O O14 0.960603 0.168026 0.274219
#
# Coordination Sequence:
#
# PCOD9102155 Si02
#       7
#     2   2   2   1   2   2   2
#     4  11  20  43  63  86 130 161 201 255 303 359
#     4  10  22  38  61  92 121 164 203 250 303 366
#     4  11  20  39  63  90 129 155 200 261 301 362
#     4  10  20  38  62  86 128 164 194 250 312 356
#     4   9  21  39  62  91 123 163 206 252 301 365
#     4   9  20  37  62  89 123 161 198 254 304 351
#     4  11  22  38  67  93 117 168 205 248 313 361
#
# _framework density 30.875622
#
# number of rings (size 3 to 8) (size 9 to 14) (size 15 to 20)
#    0.000    1.846    3.077    0.462    0.000    8.000 
#    0.000   12.308    0.000   10.154    0.000    0.000 
#    0.000    0.000    0.000    0.000    0.000    0.000 
#
# Total GULP energy -72540.715420 kJ/mol
# GULP energy per Si atom -5580.055032 kJ/mol
# Density = 3.080535 g / cm^3
# Si number density = 30.875622 Si / 1000 Ang^3
#
#
#
# Elastic Constant Matrix: (Units=GPa)
#
#
# Indices 1 2 3 4 5 6 
#
# 1 180.7345 99.0987 22.8697 -11.8374 -0.5695 -31.5750
# 2 99.0987 323.1530 42.8330 -14.9922 14.0954 -46.6198
# 3 22.8697 42.8330 88.4225 -2.1058 8.4256 -2.4386
# 4 -11.8374 -14.9922 -2.1058 71.3335 -6.7904 16.4423
# 5 -0.5695 14.0954 8.4256 -6.7904 39.9338 -1.5000
# 6 -31.5750 -46.6198 -2.4386 16.4423 -1.5000 80.0887
#
#
#
# Elastic Compliance Matrix: (Units=1/GPa)
#
#
# Indices 1 2 3 4 5 6 
#
# 1 0.006955 -0.001800 -0.000975 0.000485 0.001082 0.001586
# 2 -0.001800 0.004112 -0.001374 0.000047 -0.001119 0.001612
# 3 -0.000975 -0.001374 0.012411 -0.000103 -0.002196 -0.000827
# 4 0.000485 0.000047 -0.000103 0.014989 0.002455 -0.002816
# 5 0.001082 -0.001119 -0.002196 0.002455 0.026321 -0.000302
# 6 0.001586 0.001612 -0.000827 -0.002816 -0.000302 0.014597
#
#
# Mechanical properties :
#
#
# Convention : Reuss Voigt Hill
#
# Bulk Modulus (GPa) = 65.87322 102.43476 84.15399
# Shear Modulus (GPa) = 53.91230 66.77176 60.34203
#
# Velocity S-wave (km/s) = 4.18318 4.65543 4.42561
# Velocity P-wave (km/s) = 6.68681 7.88327 7.30956
#
# Compressibility (1/GPa) = 0.01518068
#
# Stress axis : x y z
#
# Youngs Moduli (GPa) = 143.77550 243.18860 80.57211
#
# Poissons Ratio (x) = 0.43766 0.07856
# Poissons Ratio (y) = 0.25875 0.11073
# Poissons Ratio (z) = 0.14018 0.33421
#
# Static dielectric constant tensor:
#      x y z
#    x 2.475550 -0.008430 -0.096980 
#    y -0.008430 2.535420 0.018140 
#    z -0.096980 0.018140 2.487070 
# 
# From -- ./inp_files/325215.got.cif
#   From: 2010.05.17/outbox.cif.g08.bks.cpg/sg2_163_cif.got.tgz:325215.got - 2010.06.03 11:33:40.
