data_PCOD9102810
_publ_section_title
;
Structure prediction by ZEFSAII (Michael W. Deem and Ramdas Pophale) SiO2 
 PCOD9102810
Probable space group: P -1
;
_chemical_formula_sum "Si O2"
_cell_formula_units_Z 12
_cell_length_a 10.730675
_cell_length_b 9.453215
_cell_length_c 10.534100
_cell_angle_alpha 100.891398
_cell_angle_beta 148.673578
_cell_angle_gamma 70.892344
_cell_volume 515.936594
_symmetry_space_group_name_H-M "P -1"
_symmetry_group_IT_number 2
_symmetry_cell_setting 'triclinic'
loop_
_space_group_symop_operation_xyz
x,y,z
-x,-y,-z
loop_
_atom_site_type_symbol
_atom_site_label
_atom_site_fract_x
_atom_site_fract_y
_atom_site_fract_z
Si Si1 0.553817 0.958253 0.732190
Si Si2 0.388658 0.890517 0.965624
Si Si3 0.985939 0.959969 0.817972
Si Si4 0.082472 0.626569 0.943616
Si Si5 0.229606 0.569393 0.341378
Si Si6 0.478000 0.686896 0.777614
O O1 0.582480 0.808148 0.815881
O O2 0.318220 0.968885 0.438188
O O3 0.471531 0.108924 0.777525
O O4 0.830554 0.964294 0.933122
O O5 0.097501 0.962817 0.771401
O O6 0.422335 0.745307 0.882423
O O7 0.500000 0.000000 0.000000
O O8 0.069574 0.782413 0.895026
O O9 0.847897 0.570060 0.696457
O O10 0.072421 0.639234 0.090707
O O11 0.322434 0.482630 0.086560
O O12 0.500000 0.500000 0.500000
O O13 0.242486 0.679460 0.485326
#
# Coordination Sequence:
#
# PCOD9102810 Si02
#       6
#     2   2   2   2   2   2
#     4   9  22  39  61  90 126 159 197 244 307 356
#     4   8  19  37  60  90 125 158 197 242 307 359
#     4  10  22  40  62  91 128 160 195 252 305 352
#     4  10  22  39  62  87 120 161 204 257 298 358
#     4   9  21  38  62  83 120 158 209 246 310 352
#     4  10  20  38  64  89 117 163 207 241 300 368
#
# _framework density 23.258673000000002
#
# number of rings (size 3 to 8) (size 9 to 14) (size 15 to 20)
#    1.000    1.667    0.000    0.000    7.000    4.667 
#    0.000    3.333    0.000    0.000    0.000    0.000 
#    0.000    0.000    0.000    0.000    0.000    0.000 
#
# Total GULP energy -66831.941807 kJ/mol
# GULP energy per Si atom -5569.328484 kJ/mol
# Density = 2.320574 g / cm^3
# Si number density = 23.258673 Si / 1000 Ang^3
#
#
#
# Elastic Constant Matrix: (Units=GPa)
#
#
# Indices 1 2 3 4 5 6 
#
# 1 61.8479 29.3248 36.0730 6.9018 1.6430 -13.4919
# 2 29.3248 132.5384 32.8367 4.6275 9.5610 7.0155
# 3 36.0730 32.8367 109.7093 26.7941 12.8008 -4.2104
# 4 6.9018 4.6275 26.7941 36.0865 -1.4964 6.2492
# 5 1.6430 9.5610 12.8008 -1.4964 41.2979 21.9228
# 6 -13.4919 7.0155 -4.2104 6.2492 21.9228 47.7701
#
#
#
# Elastic Compliance Matrix: (Units=1/GPa)
#
#
# Indices 1 2 3 4 5 6 
#
# 1 0.023235 -0.003965 -0.005513 -0.001342 -0.002610 0.008032
# 2 -0.003965 0.008976 -0.001906 0.001544 0.000287 -0.002940
# 3 -0.005513 -0.001906 0.015197 -0.011087 -0.006947 0.004701
# 4 -0.001342 0.001544 -0.011087 0.038431 0.010622 -0.011485
# 5 -0.002610 0.000287 -0.006947 0.010622 0.037370 -0.019931
# 6 0.008032 -0.002940 0.004701 -0.011485 -0.019931 0.034698
#
#
# Mechanical properties :
#
#
# Convention : Reuss Voigt Hill
#
# Bulk Modulus (GPa) = 40.58426 55.61827 48.10127
# Shear Modulus (GPa) = 26.47080 38.75500 32.61290
#
# Velocity S-wave (km/s) = 3.37724 4.08641 3.74863
# Velocity P-wave (km/s) = 5.71792 6.79925 6.28190
#
# Compressibility (1/GPa) = 0.02464009
#
# Stress axis : x y z
#
# Youngs Moduli (GPa) = 43.03799 111.41438 65.80349
#
# Poissons Ratio (x) = 0.44178 0.36275
# Poissons Ratio (y) = 0.17065 0.12542
# Poissons Ratio (z) = 0.23725 0.21235
#
# Static dielectric constant tensor:
#      x y z
#    x 1.946000 -0.001530 -0.015240 
#    y -0.001530 1.872740 -0.014400 
#    z -0.015240 -0.014400 2.005740 
# 
# From -- ./inp_files/40460.got.cif
#   From: 2010.05.17/outbox.cif.g08.bks.cpg/sg2_21_cif.got.tgz:40460.got - 2010.06.03 11:33:40.
