data_PCOD9102761
_publ_section_title
;
Structure prediction by ZEFSAII (Michael W. Deem and Ramdas Pophale) SiO2 
 PCOD9102761
Probable space group: P -1
;
_chemical_formula_sum "Si O2"
_cell_formula_units_Z 16
_cell_length_a 9.569115
_cell_length_b 11.379796
_cell_length_c 7.855619
_cell_angle_alpha 87.166167
_cell_angle_beta 105.342996
_cell_angle_gamma 122.694550
_cell_volume 689.621940
_symmetry_space_group_name_H-M "P -1"
_symmetry_group_IT_number 2
_symmetry_cell_setting 'triclinic'
loop_
_space_group_symop_operation_xyz
x,y,z
-x,-y,-z
loop_
_atom_site_type_symbol
_atom_site_label
_atom_site_fract_x
_atom_site_fract_y
_atom_site_fract_z
Si Si1 0.008076 0.520537 0.202221
Si Si2 0.086662 0.260381 0.730177
Si Si3 0.366171 0.317640 0.103093
Si Si4 0.649473 0.262863 0.234709
Si Si5 0.621365 0.296755 0.627274
Si Si6 0.588248 0.593098 0.358115
Si Si7 0.139347 0.031592 0.189780
Si Si8 0.441263 0.979048 0.282194
O O1 0.000494 0.654535 0.251438
O O2 0.843337 0.383086 0.241485
O O3 0.196937 0.556218 0.306290
O O4 0.000000 0.500000 0.000000
O O5 0.209169 0.336800 0.603456
O O6 0.963901 0.090762 0.692657
O O7 0.228199 0.291373 0.918417
O O8 0.511336 0.286481 0.096153
O O9 0.476380 0.477812 0.186301
O O10 0.251332 0.201690 0.223040
O O11 0.613971 0.273040 0.423594
O O12 0.599697 0.103373 0.216639
O O13 0.457785 0.291825 0.647918
O O14 0.626173 0.181603 0.750830
O O15 0.500000 0.500000 0.500000
O O16 0.285705 0.999983 0.194389
O O17 0.000000 0.000000 0.000000
O O18 0.500000 0.000000 0.500000
#
# Coordination Sequence:
#
# PCOD9102761 Si02
#       8
#     2   2   2   2   2   2   2   2
#     4  12  24  38  60  94 125 157 205 256 306 364
#     4  11  22  40  64  88 122 165 203 249 312 365
#     4  10  20  38  64  85 121 159 209 243 306 360
#     4  10  21  40  63  88 119 167 199 252 307 363
#     4  11  22  40  63  90 127 157 207 252 307 367
#     4  12  23  39  61  95 125 163 204 251 305 375
#     4   9  19  38  64  90 116 166 210 254 303 372
#     4   9  19  38  65  89 122 162 209 252 314 367
#
# _framework density 23.201118000000001
#
# number of rings (size 3 to 8) (size 9 to 14) (size 15 to 20)
#    0.000    1.500    3.750    1.500    1.750    0.000 
#    0.000    6.250    0.000    0.000    0.000    0.000 
#    0.000    0.000    0.000    0.000    0.000    0.000 
#
# Total GULP energy -89225.014325 kJ/mol
# GULP energy per Si atom -5576.563395 kJ/mol
# Density = 2.314831 g / cm^3
# Si number density = 23.201118 Si / 1000 Ang^3
#
#
#
# Elastic Constant Matrix: (Units=GPa)
#
#
# Indices 1 2 3 4 5 6 
#
# 1 67.0743 19.1285 4.0256 -1.0040 -3.0331 -1.5832
# 2 19.1285 125.7994 -0.8993 -23.6059 -15.1019 25.4138
# 3 4.0256 -0.8993 38.3737 -10.0423 0.5066 -1.9812
# 4 -1.0040 -23.6059 -10.0423 21.4543 4.0621 10.8462
# 5 -3.0331 -15.1019 0.5066 4.0621 34.5248 -4.7592
# 6 -1.5832 25.4138 -1.9812 10.8462 -4.7592 34.3579
#
#
#
# Elastic Compliance Matrix: (Units=1/GPa)
#
#
# Indices 1 2 3 4 5 6 
#
# 1 0.017848 -0.008597 -0.006252 -0.018415 0.001843 0.012889
# 2 -0.008597 0.026929 0.013893 0.054457 -0.000660 -0.036796
# 3 -0.006252 0.013893 0.037657 0.044942 -0.003492 -0.023064
# 4 -0.018415 0.054457 0.044942 0.177860 -0.012677 -0.096441
# 5 0.001843 -0.000660 -0.003492 -0.012677 0.031587 0.008749
# 6 0.012889 -0.036796 -0.023064 -0.096441 0.008749 0.087243
#
#
# Mechanical properties :
#
#
# Convention : Reuss Voigt Hill
#
# Bulk Modulus (GPa) = 12.41881 30.63967 21.52924
# Shear Modulus (GPa) = 12.25864 32.00025 22.12944
#
# Velocity S-wave (km/s) = 2.30111 3.71786 3.09173
# Velocity P-wave (km/s) = 3.52483 5.62715 4.69517
#
# Compressibility (1/GPa) = 0.08052304
#
# Stress axis : x y z
#
# Youngs Moduli (GPa) = 56.02987 37.13498 26.55528
#
# Poissons Ratio (x) = 0.31924 0.16602
# Poissons Ratio (y) = 0.48167 -0.36894
# Poissons Ratio (z) = 0.35029 -0.51592
#
# Static dielectric constant tensor:
#      x y z
#    x 1.478830 0.211640 -0.079590 
#    y 0.211640 1.873120 0.054970 
#    z -0.079590 0.054970 1.995420 
# 
# From -- ./inp_files/179281.got.cif
#   From: 2010.05.17/outbox.cif.g08.bks.cpg/sg2_90_cif.got.tgz:179281.got - 2010.06.03 11:33:40.
