data_PCOD9102777
_publ_section_title
;
Structure prediction by ZEFSAII (Michael W. Deem and Ramdas Pophale) SiO2 
 PCOD9102777
Probable space group: P -1
;
_chemical_formula_sum "Si O2"
_cell_formula_units_Z 14
_cell_length_a 18.321112
_cell_length_b 5.170330
_cell_length_c 9.359230
_cell_angle_alpha 79.587824
_cell_angle_beta 90.899721
_cell_angle_gamma 39.634506
_cell_volume 538.999485
_symmetry_space_group_name_H-M "P -1"
_symmetry_group_IT_number 2
_symmetry_cell_setting 'triclinic'
loop_
_space_group_symop_operation_xyz
x,y,z
-x,-y,-z
loop_
_atom_site_type_symbol
_atom_site_label
_atom_site_fract_x
_atom_site_fract_y
_atom_site_fract_z
Si Si1 0.458302 0.495932 0.852557
Si Si2 0.073230 0.440957 0.135098
Si Si3 0.386412 0.876365 0.356200
Si Si4 0.678468 0.599657 0.233603
Si Si5 0.646088 0.568483 0.540671
Si Si6 0.126191 0.598164 0.869437
Si Si7 0.997285 0.296639 0.391728
O O1 0.564451 0.139770 0.783958
O O2 0.388194 0.422879 0.864399
O O3 0.389148 0.950555 0.749077
O O4 0.500000 0.500000 0.000000
O O5 0.084691 0.192482 0.287005
O O6 0.162324 0.343736 0.040319
O O7 0.995655 0.897828 0.156609
O O8 0.000000 0.500000 0.000000
O O9 0.500000 0.500000 0.500000
O O10 0.325868 0.772484 0.339140
O O11 0.308932 0.298135 0.397543
O O12 0.696279 0.391162 0.401818
O O13 0.782963 0.434806 0.168438
O O14 0.500000 0.000000 0.500000
O O15 0.111982 0.446017 0.747395
O O16 0.000000 0.500000 0.500000
O O17 0.000000 0.000000 0.500000
#
# Coordination Sequence:
#
# PCOD9102777 Si02
#       7
#     2   2   2   2   2   2   2
#     4  12  24  38  60  90 124 168 208 267 328 369
#     4   9  20  41  66  95 129 177 221 249 330 409
#     4  10  16  34  58  77 105 152 204 238 303 377
#     4  12  23  38  65  91 123 159 227 267 297 387
#     4  10  16  32  58  84 102 152 203 251 296 352
#     4  10  23  40  68  98 126 177 226 263 316 397
#     4  11  21  39  69  98 129 164 205 262 331 396
#
# _framework density 25.974048
#
# number of rings (size 3 to 8) (size 9 to 14) (size 15 to 20)
#    0.000    1.429    7.143    0.429    4.000    0.000 
#    0.000    0.000    9.429    0.000    0.000    0.000 
#    0.000    0.000    0.000    0.000    0.000    0.000 
#
# Total GULP energy -78083.251764 kJ/mol
# GULP energy per Si atom -5577.375126 kJ/mol
# Density = 2.591493 g / cm^3
# Si number density = 25.974048 Si / 1000 Ang^3
#
#
#
# Elastic Constant Matrix: (Units=GPa)
#
#
# Indices 1 2 3 4 5 6 
#
# 1 192.0350 44.0071 80.6684 12.3454 -21.0047 36.8028
# 2 44.0071 58.7958 47.0228 -2.0021 9.6433 29.9746
# 3 80.6684 47.0228 210.6879 14.8844 -22.5366 -3.8906
# 4 12.3454 -2.0021 14.8844 34.7300 14.0614 0.2035
# 5 -21.0047 9.6433 -22.5366 14.0614 53.6421 14.4795
# 6 36.8028 29.9746 -3.8906 0.2035 14.4795 44.4760
#
#
#
# Elastic Compliance Matrix: (Units=1/GPa)
#
#
# Indices 1 2 3 4 5 6 
#
# 1 0.009366 -0.002155 -0.002159 -0.005261 0.006875 -0.008701
# 2 -0.002155 0.041303 -0.010654 0.011624 -0.009312 -0.024007
# 3 -0.002159 -0.010654 0.008899 -0.005290 0.003901 0.008499
# 4 -0.005261 0.011624 -0.005290 0.040656 -0.017448 0.001551
# 5 0.006875 -0.009312 0.003901 -0.017448 0.031738 -0.009325
# 6 -0.008701 -0.024007 0.008499 0.001551 -0.009325 0.049636
#
#
# Mechanical properties :
#
#
# Convention : Reuss Voigt Hill
#
# Bulk Modulus (GPa) = 33.74574 89.43507 61.59040
# Shear Modulus (GPa) = 22.58255 45.89099 34.23677
#
# Velocity S-wave (km/s) = 2.95180 4.20789 3.63452
# Velocity P-wave (km/s) = 4.96365 7.62337 6.43248
#
# Compressibility (1/GPa) = 0.02963337
#
# Stress axis : x y z
#
# Youngs Moduli (GPa) = 106.77325 24.21104 112.37693
#
# Poissons Ratio (x) = 0.05217 0.24258
# Poissons Ratio (y) = 0.23005 1.19726
# Poissons Ratio (z) = 0.23048 0.25794
#
# Static dielectric constant tensor:
#      x y z
#    x 2.282000 -0.077490 0.004010 
#    y -0.077490 2.215890 -0.126120 
#    z 0.004010 -0.126120 2.086930 
# 
# From -- ./inp_files/323551.got.cif
#   From: 2010.05.17/outbox.cif.g08.bks.cpg/sg2_162_cif.got.tgz:323551.got - 2010.06.03 11:33:40.
