data_PCOD9102298
_publ_section_title
;
Structure prediction by ZEFSAII (Michael W. Deem and Ramdas Pophale) SiO2 
 PCOD9102298
Probable space group: P -1
;
_chemical_formula_sum "Si O2"
_cell_formula_units_Z 13
_cell_length_a 11.524445
_cell_length_b 8.503384
_cell_length_c 17.013842
_cell_angle_alpha 146.400191
_cell_angle_beta 37.441244
_cell_angle_gamma 137.705964
_cell_volume 545.497582
_symmetry_space_group_name_H-M "P -1"
_symmetry_group_IT_number 2
_symmetry_cell_setting 'triclinic'
loop_
_space_group_symop_operation_xyz
x,y,z
-x,-y,-z
loop_
_atom_site_type_symbol
_atom_site_label
_atom_site_fract_x
_atom_site_fract_y
_atom_site_fract_z
Si Si1 0.000000 0.000000 0.000000
Si Si2 0.861635 0.742276 0.110716
Si Si3 0.675778 0.645833 0.909810
Si Si4 0.588028 0.164452 0.441775
Si Si5 0.787853 0.837475 0.640531
Si Si6 0.750804 0.061441 0.584186
Si Si7 0.243437 0.896793 0.066797
O O1 0.858265 0.787331 0.925341
O O2 0.980704 0.722263 0.958827
O O3 0.014788 0.854868 0.144724
O O4 0.736748 0.975480 0.249213
O O5 0.730430 0.431869 0.077236
O O6 0.722121 0.388491 0.724673
O O7 0.639610 0.899777 0.978791
O O8 0.500000 0.500000 0.000000
O O9 0.708626 0.489571 0.529222
O O10 0.500000 0.000000 0.500000
O O11 0.410069 0.148082 0.470301
O O12 0.024811 0.930434 0.551411
O O13 0.717930 0.977596 0.658473
O O14 0.725447 0.945563 0.801552
#
# Coordination Sequence:
#
# PCOD9102298 Si02
#       7
#     1   2   2   2   2   2   2
#     4  10  20  38  62  90 128 170 208 260 322 380
#     4  10  22  41  68  99 133 172 219 271 329 392
#     4  11  23  40  65  96 133 171 216 270 328 390
#     4  12  25  42  67  98 132 172 218 270 327 392
#     4  11  24  45  69  94 131 173 221 272 327 393
#     4  11  25  43  67  97 130 174 221 273 330 388
#     4  10  22  42  69  99 131 176 222 270 330 392
#
# _framework density 23.831454000000001
#
# number of rings (size 3 to 8) (size 9 to 14) (size 15 to 20)
#    0.000    1.231    0.000    6.000    0.000    4.308 
#    0.000   10.769    0.000    1.846    0.000    0.000 
#    0.000    0.000    0.000    0.000    0.000    0.000 
#
# Total GULP energy -72569.187176 kJ/mol
# GULP energy per Si atom -5582.245167 kJ/mol
# Density = 2.377721 g / cm^3
# Si number density = 23.831454 Si / 1000 Ang^3
#
#
#
# Elastic Constant Matrix: (Units=GPa)
#
#
# Indices 1 2 3 4 5 6 
#
# 1 164.6872 58.4825 42.1260 1.4113 20.8689 4.6393
# 2 58.4825 140.5038 28.6816 16.2350 3.1738 -17.5551
# 3 42.1260 28.6816 48.0464 21.1559 4.3822 8.9585
# 4 1.4113 16.2350 21.1559 33.8444 -2.1416 -3.9614
# 5 20.8689 3.1738 4.3822 -2.1416 35.0778 1.2106
# 6 4.6393 -17.5551 8.9585 -3.9614 1.2106 44.4130
#
#
#
# Elastic Compliance Matrix: (Units=1/GPa)
#
#
# Indices 1 2 3 4 5 6 
#
# 1 0.010045 -0.002790 -0.009933 0.006939 -0.004079 0.000581
# 2 -0.002790 0.009778 -0.003601 -0.001712 0.000958 0.004704
# 3 -0.009933 -0.003601 0.046585 -0.028475 -0.000899 -0.012298
# 4 0.006939 -0.001712 -0.028475 0.049035 0.002279 0.008654
# 5 -0.004079 0.000958 -0.000899 0.002279 0.031088 0.000342
# 6 0.000581 0.004704 -0.012298 0.008654 0.000342 0.027558
#
#
# Mechanical properties :
#
#
# Convention : Reuss Voigt Hill
#
# Bulk Modulus (GPa) = 29.62219 67.97972 48.80096
# Shear Modulus (GPa) = 22.93689 37.59686 30.26688
#
# Velocity S-wave (km/s) = 3.10572 3.97623 3.56763
# Velocity P-wave (km/s) = 5.03166 7.04753 6.12312
#
# Compressibility (1/GPa) = 0.03375847
#
# Stress axis : x y z
#
# Youngs Moduli (GPa) = 99.55352 102.27422 21.46620
#
# Poissons Ratio (x) = 0.28538 0.21322
# Poissons Ratio (y) = 0.27779 0.07730
# Poissons Ratio (z) = 0.98887 0.36830
#
# Static dielectric constant tensor:
#      x y z
#    x 1.859600 -0.098720 0.068900 
#    y -0.098720 1.472780 0.327160 
#    z 0.068900 0.327160 1.724790 
# 
# From -- ./inp_files/159891.got.cif
#   From: 2010.05.17/outbox.cif.g08.bks.cpg/sg2_80_cif.got.tgz:159891.got - 2010.06.03 11:33:40.
