data_PCOD9102568
_publ_section_title
;
Structure prediction by ZEFSAII (Michael W. Deem and Ramdas Pophale) SiO2 
 PCOD9102568
Probable space group: P -1
;
_chemical_formula_sum "Si O2"
_cell_formula_units_Z 14
_cell_length_a 9.581498
_cell_length_b 7.534734
_cell_length_c 8.244026
_cell_angle_alpha 101.843263
_cell_angle_beta 110.525236
_cell_angle_gamma 82.294497
_cell_volume 544.267252
_symmetry_space_group_name_H-M "P -1"
_symmetry_group_IT_number 2
_symmetry_cell_setting 'triclinic'
loop_
_space_group_symop_operation_xyz
x,y,z
-x,-y,-z
loop_
_atom_site_type_symbol
_atom_site_label
_atom_site_fract_x
_atom_site_fract_y
_atom_site_fract_z
Si Si1 0.096848 0.203340 0.245691
Si Si2 0.165496 0.821171 0.661070
Si Si3 0.723475 0.731199 0.967925
Si Si4 0.996765 0.630335 0.267107
Si Si5 0.421513 0.693797 0.951227
Si Si6 0.730648 0.331739 0.795052
Si Si7 0.661450 0.019695 0.493742
O O1 0.176369 0.166745 0.098530
O O2 0.042972 0.417565 0.277095
O O3 0.950291 0.110179 0.233225
O O4 0.228331 0.131872 0.405944
O O5 0.057568 0.742481 0.464520
O O6 0.290392 0.680669 0.764422
O O7 0.270609 0.969537 0.657067
O O8 0.558751 0.804328 0.966122
O O9 0.689049 0.545356 0.822087
O O10 0.826603 0.666325 0.150311
O O11 0.091185 0.680333 0.154184
O O12 0.500000 0.500000 0.000000
O O13 0.337701 0.759678 0.093767
O O14 0.681850 0.226267 0.599347
O O15 0.500000 0.000000 0.500000
#
# Coordination Sequence:
#
# PCOD9102568 Si02
#       7
#     2   2   2   2   2   2   2
#     4  11  21  38  62  88 121 163 201 244 300 367
#     4  11  23  41  63  92 125 158 201 255 305 358
#     4  10  20  39  65  95 121 154 203 254 302 360
#     4  10  21  39  65  96 121 153 203 256 303 357
#     4  10  20  38  63  91 120 158 201 248 301 358
#     4   9  20  39  61  86 121 158 198 246 299 358
#     4  11  25  42  58  88 128 166 204 249 303 360
#
# _framework density 25.722657999999999
#
# number of rings (size 3 to 8) (size 9 to 14) (size 15 to 20)
#    0.000    1.714    0.000    6.000    0.000    3.429 
#    0.000   24.286    0.000    0.000    0.000    0.000 
#    0.000    0.000    0.000    0.000    0.000    0.000 
#
# Total GULP energy -78138.875059 kJ/mol
# GULP energy per Si atom -5581.348219 kJ/mol
# Density = 2.566411 g / cm^3
# Si number density = 25.722658 Si / 1000 Ang^3
#
#
#
# Elastic Constant Matrix: (Units=GPa)
#
#
# Indices 1 2 3 4 5 6 
#
# 1 257.2412 42.6800 44.3326 -28.0805 -3.6463 23.6466
# 2 42.6800 91.4700 32.7934 -2.5906 1.1515 -18.2601
# 3 44.3326 32.7934 65.0350 -15.9224 5.4592 -0.5688
# 4 -28.0805 -2.5906 -15.9224 52.1511 -5.2023 2.2823
# 5 -3.6463 1.1515 5.4592 -5.2023 43.9808 -17.8725
# 6 23.6466 -18.2601 -0.5688 2.2823 -17.8725 31.7550
#
#
#
# Elastic Compliance Matrix: (Units=1/GPa)
#
#
# Indices 1 2 3 4 5 6 
#
# 1 0.005673 -0.003618 -0.001296 0.002607 -0.002092 -0.007693
# 2 -0.003618 0.018975 -0.008429 -0.003654 0.006990 0.017651
# 3 -0.001296 -0.008429 0.022183 0.005478 -0.004626 -0.006481
# 4 0.002607 -0.003654 0.005478 0.022314 0.000022 -0.005536
# 5 -0.002092 0.006990 -0.004626 0.000022 0.032659 0.023874
# 6 -0.007693 0.017651 -0.006481 -0.005536 0.023874 0.061088
#
#
# Mechanical properties :
#
#
# Convention : Reuss Voigt Hill
#
# Bulk Modulus (GPa) = 49.63989 72.59536 61.11763
# Shear Modulus (GPa) = 25.47205 45.17338 35.32272
#
# Velocity S-wave (km/s) = 3.15025 4.19522 3.70971
# Velocity P-wave (km/s) = 5.70720 7.19375 6.49316
#
# Compressibility (1/GPa) = 0.02014509
#
# Stress axis : x y z
#
# Youngs Moduli (GPa) = 176.26766 52.70203 45.07977
#
# Poissons Ratio (x) = 0.19067 0.05844
# Poissons Ratio (y) = 0.63772 0.37996
# Poissons Ratio (z) = 0.22850 0.44420
#
# Static dielectric constant tensor:
#      x y z
#    x 2.160940 0.108130 -0.037710 
#    y 0.108130 2.061530 0.037490 
#    z -0.037710 0.037490 2.050810 
# 
# From -- ./inp_files/159380.got.cif
#   From: 2010.05.17/outbox.cif.g08.bks.cpg/sg2_80_cif.got.tgz:159380.got - 2010.06.03 11:33:40.
