data_PCOD9102099
_publ_section_title
;
Structure prediction by ZEFSAII (Michael W. Deem and Ramdas Pophale) SiO2 
 PCOD9102099
Probable space group: P -1
;
_chemical_formula_sum "Si O2"
_cell_formula_units_Z 16
_cell_length_a 10.686483
_cell_length_b 25.238869
_cell_length_c 16.990805
_cell_angle_alpha 158.029980
_cell_angle_beta 30.109373
_cell_angle_gamma 149.423289
_cell_volume 816.918510
_symmetry_space_group_name_H-M "P -1"
_symmetry_group_IT_number 2
_symmetry_cell_setting 'triclinic'
loop_
_space_group_symop_operation_xyz
x,y,z
-x,-y,-z
loop_
_atom_site_type_symbol
_atom_site_label
_atom_site_fract_x
_atom_site_fract_y
_atom_site_fract_z
Si Si1 0.210676 0.081080 0.757648
Si Si2 0.601931 0.947557 0.621563
Si Si3 0.717268 0.500581 0.263649
Si Si4 0.594504 0.818061 0.039968
Si Si5 0.791569 0.235775 0.633692
Si Si6 0.239976 0.583244 0.693211
Si Si7 0.047768 0.749966 0.614632
Si Si8 0.941324 0.129373 0.823567
O O1 0.206152 0.129206 0.632385
O O2 0.207958 0.909573 0.517116
O O3 0.480157 0.205325 0.753342
O O4 0.981092 0.091570 0.840270
O O5 0.721232 0.012706 0.730073
O O6 0.310477 0.836958 0.636234
O O7 0.232518 0.114931 0.885285
O O8 0.591558 0.350802 0.075488
O O9 0.511406 0.594002 0.515378
O O10 0.726265 0.436155 0.258227
O O11 0.001860 0.610774 0.237136
O O12 0.804281 0.806709 0.845296
O O13 0.430968 0.920335 0.235197
O O14 0.892597 0.227570 0.479080
O O15 0.040959 0.424361 0.557181
O O16 0.126694 0.717774 0.929192
#
# Coordination Sequence:
#
# PCOD9102099 Si02
#       8
#     2   2   2   2   2   2   2   2
#     4  11  22  38  56  90 125 157 184 246 301 351
#     4  11  21  37  60  88 117 155 201 239 282 354
#     4   9  19  37  62  89 108 157 204 247 274 346
#     4  11  21  38  66  90 116 149 210 243 284 345
#     4  10  20  38  62  82 120 158 206 231 289 349
#     4   9  19  37  61  87 119 147 203 246 289 340
#     4  10  20  38  66  91 106 158 210 246 272 345
#     4  11  23  38  55  88 129 154 184 247 307 346
#
# _framework density 19.585796999999999
#
# number of rings (size 3 to 8) (size 9 to 14) (size 15 to 20)
#    0.000    1.750    3.750    1.875    0.000    1.000 
#    0.000    6.250    0.000    0.000    0.000    0.000 
#    0.000    0.000    0.000    0.000    0.000    0.000 
#
# Total GULP energy -89218.550742 kJ/mol
# GULP energy per Si atom -5576.159421 kJ/mol
# Density = 1.954122 g / cm^3
# Si number density = 19.585797 Si / 1000 Ang^3
#
#
#
# Elastic Constant Matrix: (Units=GPa)
#
#
# Indices 1 2 3 4 5 6 
#
# 1 91.5746 3.8473 25.5261 10.8013 -7.2492 22.4910
# 2 3.8473 42.4888 -24.3604 -2.1966 -0.6475 29.6084
# 3 25.5261 -24.3604 70.5017 0.8154 -21.3662 18.2582
# 4 10.8013 -2.1966 0.8154 22.3045 5.0102 10.5922
# 5 -7.2492 -0.6475 -21.3662 5.0102 24.2586 -0.3677
# 6 22.4910 29.6084 18.2582 10.5922 -0.3677 28.5296
#
#
#
# Elastic Compliance Matrix: (Units=1/GPa)
#
#
# Indices 1 2 3 4 5 6 
#
# 1 0.013778 -0.003056 -0.005238 -0.005903 0.000609 -0.002139
# 2 -0.003056 -0.020264 -0.022060 -0.016595 -0.016797 0.043503
# 3 -0.005238 -0.022060 0.001067 -0.015484 0.002471 0.032121
# 4 -0.005903 -0.016595 -0.015484 0.045275 -0.024973 0.014655
# 5 0.000609 -0.016797 0.002471 -0.024973 0.048673 0.025270
# 6 -0.002139 0.043503 0.032121 0.014655 0.025270 -0.034082
#
#
# Mechanical properties :
#
#
# Convention : Reuss Voigt Hill
#
# Bulk Modulus (GPa) = -15.12247 23.84347 4.36050
# Shear Modulus (GPa) = 53.69805 28.32201 41.01003
#
# Velocity S-wave (km/s) = 5.24179 3.80682 4.58084
# Velocity P-wave (km/s) = 5.37561 5.61452 5.49636
#
# Compressibility (1/GPa) = -0.06612674
#
# Stress axis : x y z
#
# Youngs Moduli (GPa) = 72.57816 -49.34775 936.86662
#
# Poissons Ratio (x) = -0.15081 4.90709
# Poissons Ratio (y) = 0.22180 20.66745
# Poissons Ratio (z) = 0.38015 -1.08862
#
# Static dielectric constant tensor:
#      x y z
#    x 1.727870 0.018800 0.042080 
#    y 0.018800 1.705390 -0.005390 
#    z 0.042080 -0.005390 1.698630 
# 
# From -- ./inp_files/596449.got.cif
#   From: 2010.05.17/outbox.cif.g08.bks.cpg/sg2_299_cif.got.tgz:596449.got - 2010.06.03 11:33:40.
