data_PCOD9102794
_publ_section_title
;
Structure prediction by ZEFSAII (Michael W. Deem and Ramdas Pophale) SiO2 
 PCOD9102794
Probable space group: P -1
;
_chemical_formula_sum "Si O2"
_cell_formula_units_Z 12
_cell_length_a 17.800737
_cell_length_b 12.564299
_cell_length_c 12.137665
_cell_angle_alpha 51.777999
_cell_angle_beta 152.083272
_cell_angle_gamma 148.961595
_cell_volume 536.924188
_symmetry_space_group_name_H-M "P -1"
_symmetry_group_IT_number 2
_symmetry_cell_setting 'triclinic'
loop_
_space_group_symop_operation_xyz
x,y,z
-x,-y,-z
loop_
_atom_site_type_symbol
_atom_site_label
_atom_site_fract_x
_atom_site_fract_y
_atom_site_fract_z
Si Si1 0.824689 0.263823 0.848662
Si Si2 0.454397 0.240137 0.377762
Si Si3 0.047793 0.845239 0.747673
Si Si4 0.113483 0.966386 0.513168
Si Si5 0.331202 0.492625 0.209296
Si Si6 0.982472 0.860206 0.182880
O O1 0.261036 0.912538 0.061472
O O2 0.570757 0.179595 0.523527
O O3 0.061859 0.369136 0.005477
O O4 0.000000 0.500000 0.000000
O O5 0.722569 0.540347 0.532155
O O6 0.311498 0.110785 0.396042
O O7 0.177873 0.107164 0.038558
O O8 0.028426 0.987960 0.668120
O O9 0.127652 0.896096 0.689956
O O10 0.430104 0.230198 0.702971
O O11 0.957377 0.785398 0.321273
O O12 0.500000 0.500000 0.500000
O O13 0.197096 0.338522 0.020332
#
# Coordination Sequence:
#
# PCOD9102794 Si02
#       6
#     2   2   2   2   2   2
#     4  10  20  38  64  88 120 159 201 249 297 353
#     4  10  21  40  60  93 118 156 206 247 299 347
#     4  10  21  39  62  90 124 160 197 250 303 356
#     4  11  22  39  62  91 124 159 200 246 302 361
#     4  12  21  41  64  89 123 157 207 244 297 360
#     4  11  23  39  65  93 116 161 207 248 295 359
#
# _framework density 22.349526000000001
#
# number of rings (size 3 to 8) (size 9 to 14) (size 15 to 20)
#    0.000    1.333    3.333    5.000    0.000    1.333 
#    0.000    7.500    0.000    5.000    0.000    0.000 
#    0.000    0.000    0.000    0.000    0.000    0.000 
#
# Total GULP energy -66991.352049 kJ/mol
# GULP energy per Si atom -5582.612671 kJ/mol
# Density = 2.229866 g / cm^3
# Si number density = 22.349526 Si / 1000 Ang^3
#
#
#
# Elastic Constant Matrix: (Units=GPa)
#
#
# Indices 1 2 3 4 5 6 
#
# 1 192.6296 33.6216 60.5507 -12.4762 -13.4072 23.7624
# 2 33.6216 38.7137 17.6213 -5.1807 -2.7891 12.3182
# 3 60.5507 17.6213 98.6078 -11.4669 19.1429 11.3201
# 4 -12.4762 -5.1807 -11.4669 27.5110 -4.6608 -2.8489
# 5 -13.4072 -2.7891 19.1429 -4.6608 40.2238 -6.9950
# 6 23.7624 12.3182 11.3201 -2.8489 -6.9950 45.2072
#
#
#
# Elastic Compliance Matrix: (Units=1/GPa)
#
#
# Indices 1 2 3 4 5 6 
#
# 1 0.007916 -0.003807 -0.004771 0.001554 0.004631 -0.001114
# 2 -0.003807 0.032785 -0.002845 0.002952 0.001696 -0.005772
# 3 -0.004771 -0.002845 0.015894 0.002113 -0.009459 -0.002028
# 4 0.001554 0.002952 0.002113 0.039350 0.004454 0.001019
# 5 0.004631 0.001696 -0.009459 0.004454 0.032368 0.004761
# 6 -0.001114 -0.005772 -0.002028 0.001019 0.004761 0.025587
#
#
# Mechanical properties :
#
#
# Convention : Reuss Voigt Hill
#
# Bulk Modulus (GPa) = 29.62953 61.50425 45.56689
# Shear Modulus (GPa) = 26.59629 37.13223 31.86426
#
# Velocity S-wave (km/s) = 3.45340 4.08049 3.77997
# Velocity P-wave (km/s) = 5.40254 7.05546 6.28359
#
# Compressibility (1/GPa) = 0.03375011
#
# Stress axis : x y z
#
# Youngs Moduli (GPa) = 126.32783 30.50143 62.91678
#
# Poissons Ratio (x) = 0.11612 0.30018
# Poissons Ratio (y) = 0.48093 0.17897
# Poissons Ratio (z) = 0.60271 0.08676
#
# Static dielectric constant tensor:
#      x y z
#    x 1.896270 -0.086720 -0.077970 
#    y -0.086720 1.860840 0.050720 
#    z -0.077970 0.050720 1.983260 
# 
# From -- ./inp_files/448809.got.cif
#   From: 2010.05.17/outbox.cif.g08.bks.cpg/sg2_225_cif.got.tgz:448809.got - 2010.06.03 11:33:40.
