data_PCOD9102366
_publ_section_title
;
Structure prediction by ZEFSAII (Michael W. Deem and Ramdas Pophale) SiO2 
 PCOD9102366
Probable space group: P -1
;
_chemical_formula_sum "Si O2"
_cell_formula_units_Z 15
_cell_length_a 8.402176
_cell_length_b 7.795124
_cell_length_c 11.033075
_cell_angle_alpha 110.744946
_cell_angle_beta 57.260526
_cell_angle_gamma 106.332898
_cell_volume 564.713749
_symmetry_space_group_name_H-M "P -1"
_symmetry_group_IT_number 2
_symmetry_cell_setting 'triclinic'
loop_
_space_group_symop_operation_xyz
x,y,z
-x,-y,-z
loop_
_atom_site_type_symbol
_atom_site_label
_atom_site_fract_x
_atom_site_fract_y
_atom_site_fract_z
Si Si1 0.616249 0.332508 0.364776
Si Si2 0.703561 0.955217 0.859267
Si Si3 0.130763 0.072425 0.743849
Si Si4 0.046959 0.445646 0.600222
Si Si5 0.227765 0.377033 0.098876
Si Si6 0.744046 0.920059 0.556284
Si Si7 0.775733 0.522969 0.121121
Si Si8 0.000000 0.000000 0.000000
O O1 0.500000 0.500000 0.500000
O O2 0.808342 0.383686 0.370591
O O3 0.471022 0.154787 0.406313
O O4 0.667185 0.366944 0.211142
O O5 0.707456 0.742721 0.845891
O O6 0.734623 0.998425 0.715268
O O7 0.899225 0.057419 0.868192
O O8 0.500000 0.000000 0.000000
O O9 0.166877 0.982489 0.577835
O O10 0.216037 0.284937 0.759470
O O11 0.184750 0.987417 0.826790
O O12 0.134291 0.253779 0.521925
O O13 0.000000 0.500000 0.500000
O O14 0.867729 0.453436 0.763302
O O15 0.084373 0.217771 0.051061
O O16 0.335908 0.458979 0.954985
O O17 0.000000 0.500000 0.000000
#
# Coordination Sequence:
#
# PCOD9102366 Si02
#       8
#     2   2   2   2   2   2   2   1
#     4  10  21  37  61  97 128 164 207 267 327 387
#     4  11  25  41  62  91 132 179 221 276 324 385
#     4  10  20  40  64  89 122 173 222 255 334 390
#     4  11  20  38  66  98 130 167 211 272 328 388
#     4  10  20  38  62  93 126 169 221 259 327 387
#     4  11  22  41  68  94 129 175 220 272 330 395
#     4  11  19  35  67  95 123 166 213 269 334 388
#     4   8  20  34  64  86 120 160 208 272 294 390
#
# _framework density 26.562134
#
# number of rings (size 3 to 8) (size 9 to 14) (size 15 to 20)
#    0.000    1.600    5.333    0.400    1.867    1.067 
#    0.000    3.333    0.000    7.200    0.000    0.000 
#    0.000    0.000    0.000    0.000    0.000    0.000 
#
# Total GULP energy -83602.986999 kJ/mol
# GULP energy per Si atom -5573.532467 kJ/mol
# Density = 2.650168 g / cm^3
# Si number density = 26.562134 Si / 1000 Ang^3
#
#
#
# Elastic Constant Matrix: (Units=GPa)
#
#
# Indices 1 2 3 4 5 6 
#
# 1 44.0523 6.5073 30.8971 -8.3780 10.6452 -6.6186
# 2 6.5073 72.9415 32.5193 -17.6961 5.5676 -4.3248
# 3 30.8971 32.5193 186.9380 -18.4042 10.6554 -18.1537
# 4 -8.3780 -17.6961 -18.4042 51.0651 -6.6421 3.5804
# 5 10.6452 5.5676 10.6554 -6.6421 46.4797 -9.9385
# 6 -6.6186 -4.3248 -18.1537 3.5804 -9.9385 35.1164
#
#
#
# Elastic Compliance Matrix: (Units=1/GPa)
#
#
# Indices 1 2 3 4 5 6 
#
# 1 0.027222 0.000359 -0.003898 0.002464 -0.004694 0.001580
# 2 0.000359 0.015897 -0.002312 0.004625 -0.000765 0.000142
# 3 -0.003898 -0.002312 0.006699 0.000839 0.000275 0.002436
# 4 0.002464 0.004625 0.000839 0.022145 0.001793 -0.000283
# 5 -0.004694 -0.000765 0.000275 0.001793 0.024116 0.005805
# 6 0.001580 0.000142 0.002436 -0.000283 0.005805 0.031723
#
#
# Mechanical properties :
#
#
# Convention : Reuss Voigt Hill
#
# Bulk Modulus (GPa) = 26.23547 49.30881 37.77214
# Shear Modulus (GPa) = 32.84933 42.13278 37.49106
#
# Velocity S-wave (km/s) = 3.52049 3.98703 3.76100
# Velocity P-wave (km/s) = 5.14039 6.30865 5.75424
#
# Compressibility (1/GPa) = 0.03811633
#
# Stress axis : x y z
#
# Youngs Moduli (GPa) = 36.73559 62.90388 149.26911
#
# Poissons Ratio (x) = -0.02259 0.58186
# Poissons Ratio (y) = -0.01320 0.34512
# Poissons Ratio (z) = 0.14320 0.14544
#
# Static dielectric constant tensor:
#      x y z
#    x 1.678260 0.195850 -0.194630 
#    y 0.195850 2.067630 0.132760 
#    z -0.194630 0.132760 2.150520 
# 
# From -- ./inp_files/336651.got.cif
#   From: 2010.05.17/outbox.cif.g08.bks.cpg/sg2_169_cif.got.tgz:336651.got - 2010.06.03 11:33:40.
