data_PCOD9102838
_publ_section_title
;
Structure prediction by ZEFSAII (Michael W. Deem and Ramdas Pophale) SiO2 
 PCOD9102838
Probable space group: P -1
;
_chemical_formula_sum "Si O2"
_cell_formula_units_Z 14
_cell_length_a 13.751752
_cell_length_b 12.788274
_cell_length_c 9.081678
_cell_angle_alpha 148.636723
_cell_angle_beta 135.957312
_cell_angle_gamma 43.999327
_cell_volume 552.733662
_symmetry_space_group_name_H-M "P -1"
_symmetry_group_IT_number 2
_symmetry_cell_setting 'triclinic'
loop_
_space_group_symop_operation_xyz
x,y,z
-x,-y,-z
loop_
_atom_site_type_symbol
_atom_site_label
_atom_site_fract_x
_atom_site_fract_y
_atom_site_fract_z
Si Si1 0.218651 0.704794 0.645094
Si Si2 0.000647 0.901738 0.040618
Si Si3 0.560317 0.109274 0.386308
Si Si4 0.285621 0.275737 0.089859
Si Si5 0.050882 0.406936 0.200174
Si Si6 0.486723 0.711099 0.143055
Si Si7 0.261067 0.587222 0.089356
O O1 0.281364 0.521806 0.372332
O O2 0.352372 0.750787 0.931165
O O3 0.090105 0.916003 0.727583
O O4 0.132563 0.583121 0.510423
O O5 0.456766 0.878644 0.442007
O O6 0.923258 0.722187 0.774961
O O7 0.000000 0.000000 0.000000
O O8 0.397770 0.169659 0.215284
O O9 0.624239 0.285464 0.587246
O O10 0.656266 0.880476 0.166566
O O11 0.128033 0.281739 0.989044
O O12 0.878542 0.464913 0.052460
O O13 0.640210 0.630049 0.130540
O O14 0.500000 0.500000 0.000000
O O15 0.166748 0.777573 0.109594
#
# Coordination Sequence:
#
# PCOD9102838 Si02
#       7
#     2   2   2   2   2   2   2
#     4  10  19  38  60  85 109 155 188 225 287 341
#     4  10  20  33  56  87 120 145 178 241 291 327
#     4  10  18  33  58  83 111 157 187 229 284 336
#     4   9  19  35  58  83 109 152 201 217 279 353
#     4   8  20  35  57  86 113 147 193 228 280 341
#     4  10  16  32  58  85 110 148 190 230 286 328
#     4   9  18  33  57  86 115 143 186 243 279 328
#
# _framework density 25.328654
#
# number of rings (size 3 to 8) (size 9 to 14) (size 15 to 20)
#    1.714    0.857    2.857    1.714    0.000    1.143 
#    2.571    0.714    6.286   10.286    3.714    0.000 
#    0.000    0.000    0.000    0.000    0.000    0.000 
#
# Total GULP energy -77972.854703 kJ/mol
# GULP energy per Si atom -5569.489622 kJ/mol
# Density = 2.527101 g / cm^3
# Si number density = 25.328654 Si / 1000 Ang^3
#
#
#
# Elastic Constant Matrix: (Units=GPa)
#
#
# Indices 1 2 3 4 5 6 
#
# 1 119.0690 62.6264 61.5988 -3.5220 -6.1623 -54.2806
# 2 62.6264 96.6155 49.7246 5.1082 -9.3379 -28.8181
# 3 61.5988 49.7246 97.0998 8.2906 -37.3039 -35.9554
# 4 -3.5220 5.1082 8.2906 42.1039 -10.2369 0.6933
# 5 -6.1623 -9.3379 -37.3039 -10.2369 45.9625 10.7773
# 6 -54.2806 -28.8181 -35.9554 0.6933 10.7773 48.2397
#
#
#
# Elastic Compliance Matrix: (Units=1/GPa)
#
#
# Indices 1 2 3 4 5 6 
#
# 1 0.025176 -0.006858 -0.009019 0.002090 -0.009467 0.019594
# 2 -0.006858 0.017213 -0.005459 -0.002076 -0.002079 -0.001009
# 3 -0.009019 -0.005459 0.027099 -0.000882 0.018873 0.002585
# 4 0.002090 -0.002076 -0.000882 0.025607 0.005092 -0.001052
# 5 -0.009467 -0.002079 0.018873 0.005092 0.038016 -0.006394
# 6 0.019594 -0.001009 0.002585 -0.001052 -0.006394 0.045546
#
#
# Mechanical properties :
#
#
# Convention : Reuss Voigt Hill
#
# Bulk Modulus (GPa) = 37.29168 73.40933 55.35051
# Shear Modulus (GPa) = 21.71379 36.51685 29.11532
#
# Velocity S-wave (km/s) = 2.93111 3.80112 3.39411
# Velocity P-wave (km/s) = 5.11960 6.95056 6.10412
#
# Compressibility (1/GPa) = 0.02681563
#
# Stress axis : x y z
#
# Youngs Moduli (GPa) = 39.72023 58.09401 36.90184
#
# Poissons Ratio (x) = 0.39843 0.33282
# Poissons Ratio (y) = 0.27241 0.20145
# Poissons Ratio (z) = 0.35824 0.31714
#
# Static dielectric constant tensor:
#      x y z
#    x 2.161680 0.020410 -0.040730 
#    y 0.020410 2.037190 0.116420 
#    z -0.040730 0.116420 2.216920 
# 
# From -- ./inp_files/455283.got.cif
#   From: 2010.05.17/outbox.cif.g08.bks.cpg/sg2_228_cif.got.tgz:455283.got - 2010.06.03 11:33:40.
