data_PCOD9102370
_publ_section_title
;
Structure prediction by ZEFSAII (Michael W. Deem and Ramdas Pophale) SiO2 
 PCOD9102370
Probable space group: P -1
;
_chemical_formula_sum "Si O2"
_cell_formula_units_Z 14
_cell_length_a 9.148692
_cell_length_b 12.283124
_cell_length_c 7.483718
_cell_angle_alpha 46.316323
_cell_angle_beta 66.022979
_cell_angle_gamma 57.167228
_cell_volume 510.311002
_symmetry_space_group_name_H-M "P -1"
_symmetry_group_IT_number 2
_symmetry_cell_setting 'triclinic'
loop_
_space_group_symop_operation_xyz
x,y,z
-x,-y,-z
loop_
_atom_site_type_symbol
_atom_site_label
_atom_site_fract_x
_atom_site_fract_y
_atom_site_fract_z
Si Si1 0.411637 0.833255 0.352112
Si Si2 0.194051 0.267960 0.795617
Si Si3 0.183294 0.349326 0.087850
Si Si4 0.494074 0.470293 0.824670
Si Si5 0.050795 0.940057 0.334489
Si Si6 0.134169 0.654030 0.370469
Si Si7 0.301550 0.019519 0.559184
O O1 0.602984 0.833162 0.236360
O O2 0.448238 0.641315 0.551279
O O3 0.241815 0.940042 0.195896
O O4 0.342138 0.899249 0.505662
O O5 0.161323 0.463049 0.585938
O O6 0.032244 0.262405 0.772402
O O7 0.180302 0.240928 0.042665
O O8 0.220044 0.219813 0.374298
O O9 0.347352 0.400151 0.940944
O O10 0.000000 0.500000 0.000000
O O11 0.686061 0.354739 0.795904
O O12 0.500000 0.500000 0.000000
O O13 0.105406 0.748742 0.465895
O O14 0.863575 0.015022 0.241059
O O15 0.000000 0.000000 0.500000
O O16 0.500000 0.000000 0.500000
#
# Coordination Sequence:
#
# PCOD9102370 Si02
#       7
#     2   2   2   2   2   2   2
#     4  10  21  39  62  88 123 166 211 262 327 391
#     4  10  21  37  63  93 126 167 215 270 330 390
#     4  12  24  39  63  95 129 167 219 272 321 389
#     4  11  22  37  62  94 128 166 217 273 327 389
#     4  10  21  38  62  88 119 167 220 260 315 392
#     4  10  20  38  62  93 130 168 214 272 330 389
#     4  11  23  40  63  90 128 172 212 263 330 392
#
# _framework density 27.434252999999998
#
# number of rings (size 3 to 8) (size 9 to 14) (size 15 to 20)
#    0.000    1.429    0.000    6.000    0.000    5.143 
#    0.000    1.429    0.000   12.857    0.000    0.000 
#    0.000    0.000    0.000    0.000    0.000    0.000 
#
# Total GULP energy -78009.561165 kJ/mol
# GULP energy per Si atom -5572.111512 kJ/mol
# Density = 2.737181 g / cm^3
# Si number density = 27.434253 Si / 1000 Ang^3
#
#
#
# Elastic Constant Matrix: (Units=GPa)
#
#
# Indices 1 2 3 4 5 6 
#
# 1 288.0957 72.7842 62.8221 -4.8984 -26.6200 -61.8620
# 2 72.7842 164.5208 15.2145 -1.3484 -16.6307 -20.6705
# 3 62.8221 15.2145 63.8665 -21.7680 -27.6685 -20.3528
# 4 -4.8984 -1.3484 -21.7680 43.2616 1.3317 0.4303
# 5 -26.6200 -16.6307 -27.6685 1.3317 46.8972 5.7451
# 6 -61.8620 -20.6705 -20.3528 0.4303 5.7451 70.5877
#
#
#
# Elastic Compliance Matrix: (Units=1/GPa)
#
#
# Indices 1 2 3 4 5 6 
#
# 1 0.005551 -0.001705 -0.005142 -0.002017 -0.000792 0.002960
# 2 -0.001705 0.007033 0.001483 0.000694 0.002283 0.000803
# 3 -0.005142 0.001483 0.034792 0.016399 0.017121 0.004467
# 4 -0.002017 0.000694 0.016399 0.030902 0.007610 0.002356
# 5 -0.000792 0.002283 0.017121 0.007610 0.031284 0.002318
# 6 0.002960 0.000803 0.004467 0.002356 0.002318 0.018081
#
#
# Mechanical properties :
#
#
# Convention : Reuss Voigt Hill
#
# Bulk Modulus (GPa) = 27.28567 90.90274 59.09421
# Shear Modulus (GPa) = 33.20376 56.52679 44.86527
#
# Velocity S-wave (km/s) = 3.48272 4.54414 4.04836
# Velocity P-wave (km/s) = 5.11271 7.79352 6.59086
#
# Compressibility (1/GPa) = 0.03664927
#
# Stress axis : x y z
#
# Youngs Moduli (GPa) = 180.14617 142.19175 28.74245
#
# Poissons Ratio (x) = 0.24245 0.14778
# Poissons Ratio (y) = 0.30716 -0.04264
# Poissons Ratio (z) = 0.92623 -0.21094
#
# Static dielectric constant tensor:
#      x y z
#    x 2.235260 -0.032980 0.087250 
#    y -0.032980 2.192310 -0.053500 
#    z 0.087250 -0.053500 2.312820 
# 
# From -- ./inp_files/184004.got.cif
#   From: 2010.05.17/outbox.cif.g08.bks.cpg/sg2_93_cif.got.tgz:184004.got - 2010.06.03 11:33:40.
