data_PCOD9102718
_publ_section_title
;
Structure prediction by ZEFSAII (Michael W. Deem and Ramdas Pophale) SiO2 
 PCOD9102718
Probable space group: P -1
;
_chemical_formula_sum "Si O2"
_cell_formula_units_Z 16
_cell_length_a 11.830486
_cell_length_b 12.603201
_cell_length_c 8.596064
_cell_angle_alpha 46.925225
_cell_angle_beta 81.547074
_cell_angle_gamma 51.155291
_cell_volume 633.766238
_symmetry_space_group_name_H-M "P -1"
_symmetry_group_IT_number 2
_symmetry_cell_setting 'triclinic'
loop_
_space_group_symop_operation_xyz
x,y,z
-x,-y,-z
loop_
_atom_site_type_symbol
_atom_site_label
_atom_site_fract_x
_atom_site_fract_y
_atom_site_fract_z
Si Si1 0.554336 0.097583 0.535517
Si Si2 0.007056 0.643329 0.454410
Si Si3 0.956562 0.245099 0.966374
Si Si4 0.499728 0.615766 0.242283
Si Si5 0.375082 0.996219 0.743837
Si Si6 0.241582 0.823264 0.490990
Si Si7 0.684660 0.324744 0.063489
Si Si8 0.874149 0.635721 0.028896
O O1 0.559831 0.117432 0.327359
O O2 0.400006 0.148271 0.581241
O O3 0.614957 0.182415 0.534541
O O4 0.698471 0.844778 0.788424
O O5 0.821743 0.844252 0.354101
O O6 0.000000 0.500000 0.500000
O O7 0.123770 0.500806 0.718882
O O8 0.064123 0.714076 0.253318
O O9 0.781024 0.383845 0.948817
O O10 0.087492 0.998786 0.235687
O O11 0.052632 0.295082 0.962229
O O12 0.500000 0.500000 0.500000
O O13 0.671269 0.409292 0.331315
O O14 0.347026 0.712949 0.060721
O O15 0.468764 0.818255 0.040367
O O16 0.201180 0.860989 0.645495
O O17 0.500000 0.500000 0.000000
O O18 0.000000 0.500000 0.000000
#
# Coordination Sequence:
#
# PCOD9102718 Si02
#       8
#     2   2   2   2   2   2   2   2
#     4  10  22  39  70 101 128 173 225 282 323 389
#     4  10  22  40  61  93 137 175 213 271 340 404
#     4  10  22  40  63  92 134 180 219 273 340 400
#     4  11  24  42  65  97 139 174 219 282 336 403
#     4  11  22  41  67 100 134 170 226 278 330 389
#     4  10  21  43  65  97 133 177 229 269 335 408
#     4  10  22  40  65  91 125 176 227 270 328 400
#     4  10  20  38  63  99 132 170 226 273 326 400
#
# _framework density 25.245902999999998
#
# number of rings (size 3 to 8) (size 9 to 14) (size 15 to 20)
#    0.000    1.750    2.500    1.125    0.000    7.000 
#    0.000   12.500    0.000    0.000    0.000    0.000 
#    0.000    0.000    0.000    0.000    0.000    0.000 
#
# Total GULP energy -89329.104348 kJ/mol
# GULP energy per Si atom -5583.069022 kJ/mol
# Density = 2.518844 g / cm^3
# Si number density = 25.245903 Si / 1000 Ang^3
#
#
#
# Elastic Constant Matrix: (Units=GPa)
#
#
# Indices 1 2 3 4 5 6 
#
# 1 71.3296 11.4537 16.9881 4.5490 -17.5934 -16.5399
# 2 11.4537 45.1047 30.5825 -0.6713 -5.6936 -7.3525
# 3 16.9881 30.5825 202.8729 17.5676 -8.8616 -7.1745
# 4 4.5490 -0.6713 17.5676 44.7249 -1.0856 -8.7697
# 5 -17.5934 -5.6936 -8.8616 -1.0856 28.0115 4.7426
# 6 -16.5399 -7.3525 -7.1745 -8.7697 4.7426 30.9199
#
#
#
# Elastic Compliance Matrix: (Units=1/GPa)
#
#
# Indices 1 2 3 4 5 6 
#
# 1 0.018723 -0.001809 -0.000592 0.000102 0.009860 0.007965
# 2 -0.001809 0.026359 -0.003816 0.003103 0.002298 0.004943
# 3 -0.000592 -0.003816 0.005767 -0.002376 0.000698 -0.000667
# 4 0.000102 0.003103 -0.002376 0.024754 -0.000336 0.007314
# 5 0.009860 0.002298 0.000698 -0.000336 0.042679 -0.000659
# 6 0.007965 0.004943 -0.000667 0.007314 -0.000659 0.039798
#
#
# Mechanical properties :
#
#
# Convention : Reuss Voigt Hill
#
# Bulk Modulus (GPa) = 26.03040 48.59506 37.31273
# Shear Modulus (GPa) = 27.27502 38.08345 32.67924
#
# Velocity S-wave (km/s) = 3.29047 3.88816 3.60173
# Velocity P-wave (km/s) = 4.97689 6.28072 5.66643
#
# Compressibility (1/GPa) = 0.03841662
#
# Stress axis : x y z
#
# Youngs Moduli (GPa) = 53.40989 37.93760 173.41297
#
# Poissons Ratio (x) = 0.06862 0.10259
# Poissons Ratio (y) = 0.09661 0.66168
# Poissons Ratio (z) = 0.03160 0.14476
#
# Static dielectric constant tensor:
#      x y z
#    x 2.099040 0.054150 -0.053590 
#    y 0.054150 2.036160 0.024860 
#    z -0.053590 0.024860 2.083410 
# 
# From -- ./inp_files/271507.got.cif
#   From: 2010.05.17/outbox.cif.g08.bks.cpg/sg2_136_cif.got.tgz:271507.got - 2010.06.03 11:33:40.
