data_PCOD9102834
_publ_section_title
;
Structure prediction by ZEFSAII (Michael W. Deem and Ramdas Pophale) SiO2 
 PCOD9102834
Probable space group: P -1
;
_chemical_formula_sum "Si O2"
_cell_formula_units_Z 12
_cell_length_a 9.428382
_cell_length_b 9.167638
_cell_length_c 11.238581
_cell_angle_alpha 74.706242
_cell_angle_beta 108.709188
_cell_angle_gamma 49.506451
_cell_volume 528.493235
_symmetry_space_group_name_H-M "P -1"
_symmetry_group_IT_number 2
_symmetry_cell_setting 'triclinic'
loop_
_space_group_symop_operation_xyz
x,y,z
-x,-y,-z
loop_
_atom_site_type_symbol
_atom_site_label
_atom_site_fract_x
_atom_site_fract_y
_atom_site_fract_z
Si Si1 0.316583 0.748483 0.730290
Si Si2 0.272121 0.653871 0.262002
Si Si3 0.142426 0.109661 0.091115
Si Si4 0.257844 0.492132 0.919318
Si Si5 0.676409 0.759730 0.230084
Si Si6 0.058047 0.697728 0.428818
O O1 0.469337 0.592386 0.684073
O O2 0.246489 0.650110 0.798714
O O3 0.084015 0.050977 0.597022
O O4 0.519170 0.659689 0.894513
O O5 0.221193 0.874935 0.200326
O O6 0.239454 0.613129 0.392846
O O7 0.051169 0.760123 0.097645
O O8 0.390237 0.997021 0.144874
O O9 0.995858 0.309255 0.115567
O O10 0.309251 0.312884 0.884158
O O11 0.840094 0.775225 0.290809
O O12 0.803508 0.526710 0.396363
#
# Coordination Sequence:
#
# PCOD9102834 Si02
#       6
#     2   2   2   2   2   2
#     4  10  20  38  64  90 116 150 197 249 294 344
#     4  10  20  38  64  90 116 150 197 249 294 344
#     4  10  20  38  64  90 116 150 197 249 294 344
#     4  10  20  38  64  90 116 150 197 249 294 344
#     4  11  25  41  57  85 126 163 194 237 293 352
#     4  11  25  41  57  85 126 163 194 237 293 352
#
# _framework density 22.706064000000001
#
# number of rings (size 3 to 8) (size 9 to 14) (size 15 to 20)
#    0.000    1.667    3.333    1.000    0.000    6.667 
#    0.000    6.667    0.000    0.000    0.000    0.000 
#    0.000    0.000    0.000    0.000    0.000    0.000 
#
# Total GULP energy -67259.831660 kJ/mol
# GULP energy per Si atom -5604.985972 kJ/mol
# Density = 2.265438 g / cm^3
# Si number density = 22.706064 Si / 1000 Ang^3
#
#
#
# Elastic Constant Matrix: (Units=GPa)
#
#
# Indices 1 2 3 4 5 6 
#
# 1 111.1401 65.8708 42.9641 1.0220 -2.6668 -24.5240
# 2 65.8708 137.1395 33.2016 7.2016 -2.1775 -49.5964
# 3 42.9641 33.2016 69.9081 1.4189 -3.6014 -17.7221
# 4 1.0220 7.2016 1.4189 43.3897 5.2623 4.2097
# 5 -2.6668 -2.1775 -3.6014 5.2623 47.3102 -1.5609
# 6 -24.5240 -49.5964 -17.7221 4.2097 -1.5609 36.3234
#
#
#
# Elastic Compliance Matrix: (Units=1/GPa)
#
#
# Indices 1 2 3 4 5 6 
#
# 1 0.014859 -0.006284 -0.006669 0.001117 -0.000148 -0.001938
# 2 -0.006284 0.018317 0.000920 -0.005274 0.001868 0.021908
# 3 -0.006669 0.000920 0.019757 -0.001473 0.001553 0.006630
# 4 0.001117 -0.005274 -0.001473 0.025358 -0.003451 -0.010254
# 5 -0.000148 0.001868 0.001553 -0.003451 0.021867 0.004549
# 6 -0.001938 0.021908 0.006630 -0.010254 0.004549 0.060754
#
#
# Mechanical properties :
#
#
# Convention : Reuss Voigt Hill
#
# Bulk Modulus (GPa) = 34.64249 66.91783 50.78016
# Shear Modulus (GPa) = 25.69360 37.14807 31.42084
#
# Velocity S-wave (km/s) = 3.36754 4.04919 3.72399
# Velocity P-wave (km/s) = 5.51457 7.16914 6.39559
#
# Compressibility (1/GPa) = 0.02886628
#
# Stress axis : x y z
#
# Youngs Moduli (GPa) = 67.29994 54.59281 50.61520
#
# Poissons Ratio (x) = 0.34309 0.33755
# Poissons Ratio (y) = 0.42294 -0.04656
# Poissons Ratio (z) = 0.44882 -0.05022
#
# Static dielectric constant tensor:
#      x y z
#    x 1.794110 0.015010 0.021040 
#    y 0.015010 1.791720 -0.000650 
#    z 0.021040 -0.000650 1.875940 
# 
# From -- ./inp_files/151967.got.cif
#   From: 2010.05.17/outbox.cif.g08.bks.cpg/sg2_76_cif.got.tgz:151967.got - 2010.06.03 11:33:40.
