data_PCOD9102566
_publ_section_title
;
Structure prediction by ZEFSAII (Michael W. Deem and Ramdas Pophale) SiO2 
 PCOD9102566
Probable space group: P -1
;
_chemical_formula_sum "Si O2"
_cell_formula_units_Z 16
_cell_length_a 8.760186
_cell_length_b 8.509845
_cell_length_c 20.785225
_cell_angle_alpha 34.934428
_cell_angle_beta 51.971958
_cell_angle_gamma 56.876311
_cell_volume 695.983024
_symmetry_space_group_name_H-M "P -1"
_symmetry_group_IT_number 2
_symmetry_cell_setting 'triclinic'
loop_
_space_group_symop_operation_xyz
x,y,z
-x,-y,-z
loop_
_atom_site_type_symbol
_atom_site_label
_atom_site_fract_x
_atom_site_fract_y
_atom_site_fract_z
Si Si1 0.816464 0.059687 0.576196
Si Si2 0.315305 0.985646 0.236577
Si Si3 0.333176 0.781113 0.872450
Si Si4 0.194172 0.410182 0.658068
Si Si5 0.509923 0.654498 0.742146
Si Si6 0.636744 0.481550 0.294182
Si Si7 0.059661 0.207318 0.970007
Si Si8 0.193230 0.855774 0.175862
O O1 0.829621 0.004966 0.667829
O O2 0.739766 0.383775 0.481875
O O3 0.656203 0.867597 0.657413
O O4 0.000000 0.000000 0.500000
O O5 0.451485 0.692756 0.292730
O O6 0.205287 0.009551 0.189098
O O7 0.474688 0.201796 0.139422
O O8 0.361509 0.637923 0.844643
O O9 0.152190 0.668416 0.993143
O O10 0.283302 0.102526 0.755615
O O11 0.236072 0.579545 0.654987
O O12 0.977726 0.349442 0.714813
O O13 0.436635 0.741322 0.660796
O O14 0.614044 0.348384 0.812484
O O15 0.785239 0.621226 0.161571
O O16 0.156190 0.050821 0.058936
O O17 0.000000 0.000000 0.000000
#
# Coordination Sequence:
#
# PCOD9102566 Si02
#       8
#     2   2   2   2   2   2   2   2
#     4  11  22  40  62  87 122 160 196 252 307 345
#     4   9  20  36  59  87 120 150 202 243 288 356
#     4   9  20  39  60  87 123 157 199 247 289 358
#     4  10  20  39  62  85 117 166 198 236 305 354
#     4  10  22  39  58  91 126 146 204 257 288 347
#     4  10  21  40  63  88 123 156 200 250 289 360
#     4  11  19  39  67  84 119 169 197 231 306 361
#     4  10  20  38  63  91 118 160 197 248 294 358
#
# _framework density 22.989066999999999
#
# number of rings (size 3 to 8) (size 9 to 14) (size 15 to 20)
#    0.000    2.000    5.000    0.000    0.000    8.000 
#    4.500    0.625    5.500    0.000    0.000    0.000 
#    0.000    0.000    0.000    0.000    0.000    0.000 
#
# Total GULP energy -89211.130410 kJ/mol
# GULP energy per Si atom -5575.695651 kJ/mol
# Density = 2.293674 g / cm^3
# Si number density = 22.989067 Si / 1000 Ang^3
#
#
#
# Elastic Constant Matrix: (Units=GPa)
#
#
# Indices 1 2 3 4 5 6 
#
# 1 118.6724 36.8841 13.9021 15.2973 25.3513 23.5792
# 2 36.8841 87.7725 16.7717 31.8731 3.3367 19.1427
# 3 13.9021 16.7717 64.0023 20.5874 14.9931 -1.3356
# 4 15.2973 31.8731 20.5874 37.7760 -2.2056 1.0630
# 5 25.3513 3.3367 14.9931 -2.2056 23.9710 10.7925
# 6 23.5792 19.1427 -1.3356 1.0630 10.7925 30.3884
#
#
#
# Elastic Compliance Matrix: (Units=1/GPa)
#
#
# Indices 1 2 3 4 5 6 
#
# 1 0.013476 -0.003146 0.003005 -0.005228 -0.014881 -0.002875
# 2 -0.003146 0.020834 -0.001578 -0.014777 0.005550 -0.012206
# 3 0.003005 -0.001578 0.026758 -0.016219 -0.025437 0.009440
# 4 -0.005228 -0.014777 -0.016219 0.051017 0.020869 0.003456
# 5 -0.014881 0.005550 -0.025437 0.020869 0.085371 -0.024118
# 6 -0.002875 -0.012206 0.009440 0.003456 -0.024118 0.051687
#
#
# Mechanical properties :
#
#
# Convention : Reuss Voigt Hill
#
# Bulk Modulus (GPa) = 17.35187 45.06256 31.20722
# Shear Modulus (GPa) = 18.39647 31.95303 25.17475
#
# Velocity S-wave (km/s) = 2.83190 3.73221 3.31278
# Velocity P-wave (km/s) = 4.27284 6.18198 5.31385
#
# Compressibility (1/GPa) = 0.05763067
#
# Stress axis : x y z
#
# Youngs Moduli (GPa) = 74.20381 47.99908 37.37164
#
# Poissons Ratio (x) = 0.15100 -0.11230
# Poissons Ratio (y) = 0.23344 0.05896
# Poissons Ratio (z) = -0.22297 0.07573
#
# Static dielectric constant tensor:
#      x y z
#    x 2.012070 -0.040040 -0.020550 
#    y -0.040040 1.921140 0.012420 
#    z -0.020550 0.012420 1.899630 
# 
# From -- ./inp_files/195875.got.cif
#   From: 2010.05.17/outbox.cif.g08.bks.cpg/sg2_98_cif.got.tgz:195875.got - 2010.06.03 11:33:40.
