data_PCOD9102092
_publ_section_title
;
Structure prediction by ZEFSAII (Michael W. Deem and Ramdas Pophale) SiO2 
 PCOD9102092
Probable space group: P -1
;
_chemical_formula_sum "Si O2"
_cell_formula_units_Z 14
_cell_length_a 5.081253
_cell_length_b 8.474588
_cell_length_c 17.212869
_cell_angle_alpha 51.548271
_cell_angle_beta 101.891024
_cell_angle_gamma 93.587882
_cell_volume 565.929229
_symmetry_space_group_name_H-M "P -1"
_symmetry_group_IT_number 2
_symmetry_cell_setting 'triclinic'
loop_
_space_group_symop_operation_xyz
x,y,z
-x,-y,-z
loop_
_atom_site_type_symbol
_atom_site_label
_atom_site_fract_x
_atom_site_fract_y
_atom_site_fract_z
Si Si1 0.744367 0.586992 0.036949
Si Si2 0.558864 0.756521 0.490442
Si Si3 0.864868 0.924801 0.591683
Si Si4 0.126497 0.192067 0.159956
Si Si5 0.152028 0.505577 0.762941
Si Si6 0.406478 0.605907 0.302635
Si Si7 0.341104 0.026703 0.721157
O O1 0.698139 0.600751 0.121663
O O2 0.996261 0.416938 0.101951
O O3 0.500000 0.500000 0.000000
O O4 0.823011 0.786250 0.936175
O O5 0.637315 0.808920 0.568703
O O6 0.593665 0.516940 0.577814
O O7 0.720868 0.849667 0.400891
O O8 0.273269 0.887977 0.426246
O O9 0.054912 0.744832 0.697361
O O10 0.000000 0.000000 0.500000
O O11 0.423959 0.152046 0.227147
O O12 0.908884 0.043529 0.222855
O O13 0.351065 0.488250 0.707626
O O14 0.880628 0.402939 0.753872
O O15 0.489811 0.825864 0.262206
#
# Coordination Sequence:
#
# PCOD9102092 Si02
#       7
#     2   2   2   2   2   2   2
#     4  11  25  47  76 101 130 164 222 291 351 394
#     4  10  23  38  65  98 136 180 222 268 327 392
#     4  10  20  38  62 101 134 165 224 277 335 389
#     4  11  26  43  69 105 127 165 230 279 338 396
#     4  11  25  42  70  96 136 175 219 283 339 384
#     4  11  25  45  63  99 139 185 225 258 324 406
#     4  12  25  44  68  96 141 183 223 268 317 401
#
# _framework density 24.738074999999998
#
# number of rings (size 3 to 8) (size 9 to 14) (size 15 to 20)
#    0.000    1.143    2.857    2.143    8.000    0.000 
#    0.000    7.857    0.000    0.000    0.000    0.000 
#    0.000    0.000    0.000    0.000    0.000    0.000 
#
# Total GULP energy -78170.450037 kJ/mol
# GULP energy per Si atom -5583.603574 kJ/mol
# Density = 2.468177 g / cm^3
# Si number density = 24.738075 Si / 1000 Ang^3
#
#
#
# Elastic Constant Matrix: (Units=GPa)
#
#
# Indices 1 2 3 4 5 6 
#
# 1 164.3820 23.2300 59.7952 0.7917 -4.7372 21.5308
# 2 23.2300 37.2619 28.3165 1.9470 1.1018 17.6304
# 3 59.7952 28.3165 197.7314 10.6217 -17.7634 17.2898
# 4 0.7917 1.9470 10.6217 29.2353 7.1518 2.3286
# 5 -4.7372 1.1018 -17.7634 7.1518 46.4406 1.2392
# 6 21.5308 17.6304 17.2898 2.3286 1.2392 27.0717
#
#
#
# Elastic Compliance Matrix: (Units=1/GPa)
#
#
# Indices 1 2 3 4 5 6 
#
# 1 0.007435 -0.001531 -0.001722 0.000808 0.000116 -0.003891
# 2 -0.001531 0.041789 -0.003696 0.000993 -0.002084 -0.023627
# 3 -0.001722 -0.003696 0.006536 -0.002755 0.002844 -0.000291
# 4 0.000808 0.000993 -0.002755 0.036928 -0.006617 -0.002403
# 5 0.000116 -0.002084 0.002844 -0.006617 0.023730 -0.001068
# 6 -0.003891 -0.023627 -0.000291 -0.002403 -0.001068 0.055862
#
#
# Mechanical properties :
#
#
# Convention : Reuss Voigt Hill
#
# Bulk Modulus (GPa) = 23.88794 69.11764 46.50279
# Shear Modulus (GPa) = 24.98339 39.75176 32.36758
#
# Velocity S-wave (km/s) = 3.18137 4.01297 3.62112
# Velocity P-wave (km/s) = 4.81374 7.03366 6.02679
#
# Compressibility (1/GPa) = 0.04186212
#
# Stress axis : x y z
#
# Youngs Moduli (GPa) = 134.49409 23.92976 152.99111
#
# Poissons Ratio (x) = 0.03664 0.26344
# Poissons Ratio (y) = 0.20595 0.56546
# Poissons Ratio (z) = 0.23159 0.08844
#
# Static dielectric constant tensor:
#      x y z
#    x 1.999080 0.102540 0.013360 
#    y 0.102540 2.189800 -0.008140 
#    z 0.013360 -0.008140 2.120910 
# 
# From -- ./inp_files/547780.got.cif
#   From: 2010.05.17/outbox.cif.g08.bks.cpg/sg2_274_cif.got.tgz:547780.got - 2010.06.03 11:33:40.
