data_PCOD9102706
_publ_section_title
;
Structure prediction by ZEFSAII (Michael W. Deem and Ramdas Pophale) SiO2 
 PCOD9102706
Probable space group: P -1
;
_chemical_formula_sum "Si O2"
_cell_formula_units_Z 14
_cell_length_a 10.434561
_cell_length_b 10.440533
_cell_length_c 10.979092
_cell_angle_alpha 68.204637
_cell_angle_beta 44.984924
_cell_angle_gamma 98.640726
_cell_volume 610.354731
_symmetry_space_group_name_H-M "P -1"
_symmetry_group_IT_number 2
_symmetry_cell_setting 'triclinic'
loop_
_space_group_symop_operation_xyz
x,y,z
-x,-y,-z
loop_
_atom_site_type_symbol
_atom_site_label
_atom_site_fract_x
_atom_site_fract_y
_atom_site_fract_z
Si Si1 0.139982 0.126609 0.716421
Si Si2 0.190821 0.497016 0.232621
Si Si3 0.281431 0.783395 0.460059
Si Si4 0.236386 0.827176 0.012184
Si Si5 0.510419 0.480789 0.197226
Si Si6 0.599850 0.674584 0.294945
Si Si7 0.219765 0.852705 0.735883
O O1 0.355521 0.294078 0.437107
O O2 0.218328 0.169290 0.790477
O O3 0.124473 0.961592 0.745768
O O4 0.921248 0.123386 0.847920
O O5 0.329860 0.501135 0.250599
O O6 0.932105 0.311847 0.455871
O O7 0.190890 0.662646 0.169429
O O8 0.337533 0.517030 0.009304
O O9 0.403528 0.694160 0.397428
O O10 0.178281 0.745401 0.680206
O O11 0.491892 0.995086 0.228997
O O12 0.158598 0.770734 0.941761
O O13 0.663356 0.636500 0.137707
O O14 0.500000 0.500000 0.500000
O O15 0.500000 0.000000 0.500000
#
# Coordination Sequence:
#
# PCOD9102706 Si02
#       7
#     2   2   2   2   2   2   2
#     4  11  21  41  67  99 135 171 212 278 330 384
#     4  11  25  46  66  95 131 180 221 269 325 389
#     4  11  24  41  66 100 132 175 218 268 330 391
#     4  11  24  40  68  98 136 171 216 270 328 393
#     4  10  24  44  67  92 135 173 225 273 321 395
#     4  10  21  37  64  98 127 168 214 266 330 382
#     4  10  20  38  63  97 136 164 215 270 321 388
#
# _framework density 22.937481999999999
#
# number of rings (size 3 to 8) (size 9 to 14) (size 15 to 20)
#    0.000    1.429    2.857    3.857    4.000    2.857 
#    0.000    9.286    0.000    0.000    0.000    0.000 
#    0.000    0.000    0.000    0.000    0.000    0.000 
#
# Total GULP energy -78336.101856 kJ/mol
# GULP energy per Si atom -5595.435847 kJ/mol
# Density = 2.288528 g / cm^3
# Si number density = 22.937482 Si / 1000 Ang^3
#
#
#
# Elastic Constant Matrix: (Units=GPa)
#
#
# Indices 1 2 3 4 5 6 
#
# 1 76.8657 29.6962 18.5326 -14.9299 -12.7274 3.4016
# 2 29.6962 92.6128 29.2451 -2.4693 0.0094 -1.7631
# 3 18.5326 29.2451 70.1883 -1.4987 -20.9636 16.1797
# 4 -14.9299 -2.4693 -1.4987 38.4645 5.5160 -8.4956
# 5 -12.7274 0.0094 -20.9636 5.5160 31.3856 3.2561
# 6 3.4016 -1.7631 16.1797 -8.4956 3.2561 34.0772
#
#
#
# Elastic Compliance Matrix: (Units=1/GPa)
#
#
# Indices 1 2 3 4 5 6 
#
# 1 0.017178 -0.005379 -0.000052 0.005156 0.006159 -0.001271
# 2 -0.005379 0.015756 -0.009671 0.001534 -0.009667 0.007250
# 3 -0.000052 -0.009671 0.029012 -0.006720 0.022418 -0.018087
# 4 0.005156 0.001534 -0.006720 0.031698 -0.009166 0.011534
# 5 0.006159 -0.009667 0.022418 -0.009166 0.052928 -0.019101
# 6 -0.001271 0.007250 -0.018087 0.011534 -0.019101 0.043135
#
#
# Mechanical properties :
#
#
# Convention : Reuss Voigt Hill
#
# Bulk Modulus (GPa) = 31.50282 43.84608 37.67445
# Shear Modulus (GPa) = 21.69280 31.59832 26.64556
#
# Velocity S-wave (km/s) = 3.07862 3.71561 3.41201
# Velocity P-wave (km/s) = 5.13821 6.12900 5.65534
#
# Compressibility (1/GPa) = 0.03174319
#
# Stress axis : x y z
#
# Youngs Moduli (GPa) = 58.21454 63.46742 34.46844
#
# Poissons Ratio (x) = 0.34140 0.00178
# Poissons Ratio (y) = 0.31314 0.33333
# Poissons Ratio (z) = 0.00301 0.61377
#
# Static dielectric constant tensor:
#      x y z
#    x 1.819890 0.024750 -0.011250 
#    y 0.024750 1.811040 0.000990 
#    z -0.011250 0.000990 1.925670 
# 
# From -- ./inp_files/425592.got.cif
#   From: 2010.05.17/outbox.cif.g08.bks.cpg/sg2_213_cif.got.tgz:425592.got - 2010.06.03 11:33:40.
