data_PCOD9102745
_publ_section_title
;
Structure prediction by ZEFSAII (Michael W. Deem and Ramdas Pophale) SiO2 
 PCOD9102745
Probable space group: P -1
;
_chemical_formula_sum "Si O2"
_cell_formula_units_Z 14
_cell_length_a 14.941080
_cell_length_b 7.083155
_cell_length_c 8.736147
_cell_angle_alpha 86.272036
_cell_angle_beta 115.380438
_cell_angle_gamma 118.289903
_cell_volume 724.371989
_symmetry_space_group_name_H-M "P -1"
_symmetry_group_IT_number 2
_symmetry_cell_setting 'triclinic'
loop_
_space_group_symop_operation_xyz
x,y,z
-x,-y,-z
loop_
_atom_site_type_symbol
_atom_site_label
_atom_site_fract_x
_atom_site_fract_y
_atom_site_fract_z
Si Si1 0.182142 0.643599 0.162966
Si Si2 0.980148 0.190657 0.913291
Si Si3 0.395489 0.785001 0.102407
Si Si4 0.049334 0.207842 0.633162
Si Si5 0.199279 0.610284 0.537360
Si Si6 0.641331 0.962774 0.215934
Si Si7 0.696664 0.598571 0.177241
O O1 0.304238 0.727972 0.171425
O O2 0.186111 0.601384 0.347823
O O3 0.130107 0.805649 0.101358
O O4 0.089623 0.420567 0.026227
O O5 0.972792 0.179596 0.724292
O O6 0.000000 0.000000 0.000000
O O7 0.528283 0.900578 0.235117
O O8 0.368308 0.568490 0.997569
O O9 0.374715 0.934632 0.958053
O O10 0.086557 0.423803 0.548274
O O11 0.171592 0.250902 0.784464
O O12 0.000000 0.000000 0.500000
O O13 0.291561 0.540471 0.667044
O O14 0.246772 0.850271 0.628585
O O15 0.649381 0.751272 0.191623
#
# Coordination Sequence:
#
# PCOD9102745 Si02
#       7
#     2   2   2   2   2   2   2
#     4  11  23  39  56  84 123 146 186 243 280 340
#     4  11  24  39  58  85 113 156 189 230 290 339
#     4  10  21  39  59  88 114 149 196 236 286 339
#     4  10  21  40  59  84 116 147 193 233 279 345
#     4   9  22  38  57  88 117 145 197 228 287 341
#     4  10  20  38  64  83 112 155 192 239 284 331
#     4   9  20  39  59  84 114 150 194 235 276 342
#
# _framework density 19.327086999999999
#
# number of rings (size 3 to 8) (size 9 to 14) (size 15 to 20)
#    0.857    1.143    1.429    1.286    4.000    1.143 
#    0.000    0.714    0.000    0.000    0.000    0.000 
#    0.000    0.000    0.000    0.000    0.000    0.000 
#
# Total GULP energy -78078.974638 kJ/mol
# GULP energy per Si atom -5577.069617 kJ/mol
# Density = 1.928310 g / cm^3
# Si number density = 19.327087 Si / 1000 Ang^3
#
#
#
# Elastic Constant Matrix: (Units=GPa)
#
#
# Indices 1 2 3 4 5 6 
#
# 1 97.3867 51.7888 17.3583 -2.2481 -20.1295 -8.0646
# 2 51.7888 107.7931 39.9550 9.0529 -12.5009 -15.6147
# 3 17.3583 39.9550 75.2140 3.7477 -15.5348 -6.8503
# 4 -2.2481 9.0529 3.7477 21.5912 7.0125 -2.5711
# 5 -20.1295 -12.5009 -15.5348 7.0125 24.1640 5.9093
# 6 -8.0646 -15.6147 -6.8503 -2.5711 5.9093 28.2472
#
#
#
# Elastic Compliance Matrix: (Units=1/GPa)
#
#
# Indices 1 2 3 4 5 6 
#
# 1 0.016085 -0.007589 0.002484 0.000635 0.011200 -0.001286
# 2 -0.007589 0.016341 -0.006571 -0.005294 -0.001821 0.005172
# 3 0.002484 -0.006571 0.018880 -0.004463 0.012433 -0.001352
# 4 0.000635 -0.005294 -0.004463 0.057719 -0.023374 0.006316
# 5 0.011200 -0.001821 0.012433 -0.023374 0.067235 -0.010987
# 6 -0.001286 0.005172 -0.001352 0.006316 -0.010987 0.040439
#
#
# Mechanical properties :
#
#
# Convention : Reuss Voigt Hill
#
# Bulk Modulus (GPa) = 35.77289 55.39978 45.58633
# Shear Modulus (GPa) = 20.05059 26.21992 23.13525
#
# Velocity S-wave (km/s) = 3.22442 3.68726 3.46358
# Velocity P-wave (km/s) = 5.69314 6.84502 6.29548
#
# Compressibility (1/GPa) = 0.02795413
#
# Stress axis : x y z
#
# Youngs Moduli (GPa) = 62.17119 61.19408 52.96678
#
# Poissons Ratio (x) = 0.46442 -0.13157
# Poissons Ratio (y) = 0.47183 0.34802
# Poissons Ratio (z) = -0.15443 0.40208
#
# Static dielectric constant tensor:
#      x y z
#    x 1.710580 -0.004960 0.027580 
#    y -0.004960 1.681650 -0.000390 
#    z 0.027580 -0.000390 1.655180 
# 
# From -- ./inp_files/288016.got.cif
#   From: 2010.05.17/outbox.cif.g08.bks.cpg/sg2_145_cif.got.tgz:288016.got - 2010.06.03 11:33:40.
