data_PCOD9102169
_publ_section_title
;
Structure prediction by ZEFSAII (Michael W. Deem and Ramdas Pophale) SiO2 
 PCOD9102169
Probable space group: P -1
;
_chemical_formula_sum "Si O2"
_cell_formula_units_Z 16
_cell_length_a 14.481826
_cell_length_b 8.550075
_cell_length_c 14.420425
_cell_angle_alpha 62.447850
_cell_angle_beta 142.767912
_cell_angle_gamma 90.702724
_cell_volume 716.458342
_symmetry_space_group_name_H-M "P -1"
_symmetry_group_IT_number 2
_symmetry_cell_setting 'triclinic'
loop_
_space_group_symop_operation_xyz
x,y,z
-x,-y,-z
loop_
_atom_site_type_symbol
_atom_site_label
_atom_site_fract_x
_atom_site_fract_y
_atom_site_fract_z
Si Si1 0.892631 0.103962 0.508407
Si Si2 0.335295 0.155611 0.017011
Si Si3 0.168356 0.230379 0.676689
Si Si4 0.408340 0.572996 0.662499
Si Si5 0.262424 0.309323 0.532927
Si Si6 0.245618 0.630743 0.859233
Si Si7 0.051613 0.213289 0.914014
Si Si8 0.658903 0.266769 0.625173
O O1 0.774335 0.211354 0.479797
O O2 0.749879 0.261950 0.262889
O O3 0.065645 0.120929 0.636412
O O4 0.021038 0.830768 0.668101
O O5 0.547757 0.936352 0.292768
O O6 0.343889 0.121858 0.922679
O O7 0.289023 0.393902 0.936364
O O8 0.156559 0.165818 0.910525
O O9 0.206781 0.243687 0.597835
O O10 0.000000 0.500000 0.500000
O O11 0.351200 0.424895 0.616473
O O12 0.447081 0.664470 0.578675
O O13 0.595343 0.422629 0.923547
O O14 0.079120 0.503815 0.263932
O O15 0.866880 0.218672 0.782788
O O16 0.243961 0.988928 0.187180
O O17 0.500000 0.500000 0.500000
#
# Coordination Sequence:
#
# PCOD9102169 Si02
#       8
#     2   2   2   2   2   2   2   2
#     4  11  23  41  60  89 129 171 207 247 307 367
#     4  12  23  39  60  91 125 164 210 252 309 366
#     4  12  19  38  61  90 125 160 213 261 302 360
#     4  11  22  40  62  91 123 161 204 256 313 372
#     4  11  22  36  63  91 120 162 206 263 307 362
#     4  11  25  39  59  89 133 170 202 244 303 383
#     4  10  20  38  62  87 119 150 198 257 307 362
#     4  10  22  40  66  97 120 153 205 269 322 360
#
# _framework density 22.332072
#
# number of rings (size 3 to 8) (size 9 to 14) (size 15 to 20)
#    0.000    1.000    3.750    3.750    0.000    7.000 
#    0.000    0.625    0.000    2.250    0.000    0.000 
#    0.000    0.000    0.000    0.000    0.000    0.000 
#
# Total GULP energy -89257.768319 kJ/mol
# GULP energy per Si atom -5578.610520 kJ/mol
# Density = 2.228124 g / cm^3
# Si number density = 22.332072 Si / 1000 Ang^3
#
#
#
# Elastic Constant Matrix: (Units=GPa)
#
#
# Indices 1 2 3 4 5 6 
#
# 1 96.1006 29.6257 35.0533 -20.5530 -10.6571 -7.9187
# 2 29.6257 85.3822 56.7470 -11.6742 -10.7801 -7.8107
# 3 35.0533 56.7470 148.1767 -31.9759 -13.1671 -8.7789
# 4 -20.5530 -11.6742 -31.9759 35.8159 -8.8912 5.5632
# 5 -10.6571 -10.7801 -13.1671 -8.8912 32.4055 -0.6712
# 6 -7.9187 -7.8107 -8.7789 5.5632 -0.6712 21.7988
#
#
#
# Elastic Compliance Matrix: (Units=1/GPa)
#
#
# Indices 1 2 3 4 5 6 
#
# 1 0.013844 -0.002900 0.000334 0.008476 0.006093 0.002149
# 2 -0.002900 0.016864 -0.005657 -0.001175 0.002099 0.003075
# 3 0.000334 -0.005657 0.011511 0.009971 0.005648 0.000359
# 4 0.008476 -0.001175 0.009971 0.046794 0.019190 -0.004678
# 5 0.006093 0.002099 0.005648 0.019190 0.041155 0.001610
# 6 0.002149 0.003075 0.000359 -0.004678 0.001610 0.049144
#
#
# Mechanical properties :
#
#
# Convention : Reuss Voigt Hill
#
# Bulk Modulus (GPa) = 38.80329 63.61238 51.20784
# Shear Modulus (GPa) = 24.46790 31.88628 28.17709
#
# Velocity S-wave (km/s) = 3.31364 3.78276 3.55594
# Velocity P-wave (km/s) = 5.66159 6.90113 6.31186
#
# Compressibility (1/GPa) = 0.02577101
#
# Stress axis : x y z
#
# Youngs Moduli (GPa) = 72.23533 59.29829 86.87274
#
# Poissons Ratio (x) = 0.17199 -0.02898
# Poissons Ratio (y) = 0.20951 0.49144
# Poissons Ratio (z) = -0.02410 0.33545
#
# Static dielectric constant tensor:
#      x y z
#    x 1.874170 0.046810 0.002500 
#    y 0.046810 1.893480 -0.001110 
#    z 0.002500 -0.001110 1.945980 
# 
# From -- ./inp_files/528293.got.cif
#   From: 2010.05.17/outbox.cif.g08.bks.cpg/sg2_265_cif.got.tgz:528293.got - 2010.06.03 11:33:40.
