data_PCOD9102587
_publ_section_title
;
Structure prediction by ZEFSAII (Michael W. Deem and Ramdas Pophale) SiO2 
 PCOD9102587
Probable space group: P -1
;
_chemical_formula_sum "Si O2"
_cell_formula_units_Z 15
_cell_length_a 9.153480
_cell_length_b 12.885995
_cell_length_c 11.530524
_cell_angle_alpha 135.324800
_cell_angle_beta 111.993542
_cell_angle_gamma 100.287631
_cell_volume 648.079150
_symmetry_space_group_name_H-M "P -1"
_symmetry_group_IT_number 2
_symmetry_cell_setting 'triclinic'
loop_
_space_group_symop_operation_xyz
x,y,z
-x,-y,-z
loop_
_atom_site_type_symbol
_atom_site_label
_atom_site_fract_x
_atom_site_fract_y
_atom_site_fract_z
Si Si1 0.069371 0.353395 0.819538
Si Si2 0.432571 0.809023 0.264097
Si Si3 0.796447 0.796800 0.714064
Si Si4 0.534294 0.352607 0.328696
Si Si5 0.682679 0.022851 0.305174
Si Si6 0.500000 0.000000 0.000000
Si Si7 0.731037 0.725426 0.020708
Si Si8 0.696774 0.701925 0.347484
O O1 0.184565 0.322562 0.731248
O O2 0.831794 0.210544 0.585465
O O3 0.203631 0.589883 0.051597
O O4 0.091229 0.276475 0.884880
O O5 0.606730 0.794079 0.337948
O O6 0.500000 0.000000 0.500000
O O7 0.456723 0.855893 0.171643
O O8 0.738762 0.590082 0.566350
O O9 0.579160 0.738604 0.651931
O O10 0.815508 0.813258 0.593420
O O11 0.000000 0.000000 0.000000
O O12 0.341055 0.305362 0.158152
O O13 0.567291 0.216665 0.174114
O O14 0.660068 0.089248 0.230618
O O15 0.777648 0.919367 0.233045
O O16 0.512831 0.525057 0.855943
#
# Coordination Sequence:
#
# PCOD9102587 Si02
#       8
#     2   2   2   2   2   1   2   2
#     4  11  21  39  67  93 111 153 219 246 293 361
#     4  11  24  41  60  89 130 156 188 255 317 355
#     4  10  22  38  61  91 120 154 208 253 298 355
#     4   9  21  41  59  86 123 165 195 248 309 358
#     4  11  22  39  64  88 119 161 201 245 298 360
#     4  10  24  42  62  86 130 168 198 246 310 366
#     4   9  17  37  65  87 115 148 200 261 287 337
#     4  10  20  38  63  92 115 157 204 252 298 353
#
# _framework density 23.145320999999999
#
# number of rings (size 3 to 8) (size 9 to 14) (size 15 to 20)
#    0.000    1.867    2.667    1.200    5.600    0.533 
#    2.400    1.333    0.000    0.000    0.000    0.000 
#    0.000    0.000    0.000    0.000    0.000    0.000 
#
# Total GULP energy -83526.550985 kJ/mol
# GULP energy per Si atom -5568.436732 kJ/mol
# Density = 2.309264 g / cm^3
# Si number density = 23.145321 Si / 1000 Ang^3
#
#
#
# Elastic Constant Matrix: (Units=GPa)
#
#
# Indices 1 2 3 4 5 6 
#
# 1 28.7591 15.6793 17.1598 9.7681 -8.9767 8.7198
# 2 15.6793 92.7883 48.4538 -13.1347 5.7135 -9.7240
# 3 17.1598 48.4538 181.2969 4.8984 -11.5144 -15.8231
# 4 9.7681 -13.1347 4.8984 31.8077 0.1310 -0.0997
# 5 -8.9767 5.7135 -11.5144 0.1310 31.3530 -1.2044
# 6 8.7198 -9.7240 -15.8231 -0.0997 -1.2044 25.4829
#
#
#
# Elastic Compliance Matrix: (Units=1/GPa)
#
#
# Indices 1 2 3 4 5 6 
#
# 1 0.076874 -0.021579 -0.002157 -0.032394 0.023946 -0.034873
# 2 -0.021579 0.020406 -0.003416 0.015663 -0.010733 0.012603
# 3 -0.002157 -0.003416 0.007215 -0.001858 0.002818 0.004040
# 4 -0.032394 0.015663 -0.001858 0.048241 -0.012417 0.015510
# 5 0.023946 -0.010733 0.002818 -0.012417 0.041462 -0.008629
# 6 -0.034873 0.012603 0.004040 0.015510 -0.008629 0.058146
#
#
# Mechanical properties :
#
#
# Convention : Reuss Voigt Hill
#
# Bulk Modulus (GPa) = 19.92352 51.71446 35.81899
# Shear Modulus (GPa) = 15.46182 32.49879 23.98031
#
# Velocity S-wave (km/s) = 2.58744 3.75122 3.22231
# Velocity P-wave (km/s) = 4.18965 6.41515 5.41790
#
# Compressibility (1/GPa) = 0.05019194
#
# Stress axis : x y z
#
# Youngs Moduli (GPa) = 13.00837 49.00420 138.60478
#
# Poissons Ratio (x) = 1.05744 0.29891
# Poissons Ratio (y) = 0.28070 0.47351
# Poissons Ratio (z) = 0.02805 0.16741
#
# Static dielectric constant tensor:
#      x y z
#    x 1.930730 0.068490 -0.010250 
#    y 0.068490 1.857450 -0.026880 
#    z -0.010250 -0.026880 1.902090 
# 
# From -- ./inp_files/428965.got.cif
#   From: 2010.05.17/outbox.cif.g08.bks.cpg/sg2_215_cif.got.tgz:428965.got - 2010.06.03 11:33:40.
