data_PCOD9102940
_publ_section_title
;
Structure prediction by ZEFSAII (Michael W. Deem and Ramdas Pophale) SiO2 
 PCOD9102940
Probable space group: P -1
;
_chemical_formula_sum "Si O2"
_cell_formula_units_Z 15
_cell_length_a 14.149725
_cell_length_b 8.389836
_cell_length_c 7.979792
_cell_angle_alpha 54.637176
_cell_angle_beta 111.123089
_cell_angle_gamma 130.989580
_cell_volume 582.847661
_symmetry_space_group_name_H-M "P -1"
_symmetry_group_IT_number 2
_symmetry_cell_setting 'triclinic'
loop_
_space_group_symop_operation_xyz
x,y,z
-x,-y,-z
loop_
_atom_site_type_symbol
_atom_site_label
_atom_site_fract_x
_atom_site_fract_y
_atom_site_fract_z
Si Si1 0.500000 0.000000 0.000000
Si Si2 0.919811 0.265446 0.385767
Si Si3 0.461902 0.370778 0.303499
Si Si4 0.852742 0.235074 0.733999
Si Si5 0.252707 0.562856 0.921837
Si Si6 0.230293 0.275753 0.401122
Si Si7 0.693778 0.739710 0.066421
Si Si8 0.642281 0.266457 0.592857
O O1 0.594939 0.133979 0.821176
O O2 0.390179 0.783653 0.934727
O O3 0.916777 0.231179 0.607673
O O4 0.828077 0.337355 0.228554
O O5 0.055797 0.503298 0.284294
O O6 0.869163 0.002633 0.447541
O O7 0.363825 0.323316 0.409582
O O8 0.586860 0.647562 0.195418
O O9 0.523338 0.230070 0.452834
O O10 0.385263 0.301979 0.126850
O O11 0.727304 0.197969 0.610339
O O12 0.809153 0.018363 0.965771
O O13 0.263393 0.432152 0.846247
O O14 0.198534 0.366890 0.159114
O O15 0.262958 0.451318 0.468116
#
# Coordination Sequence:
#
# PCOD9102940 Si02
#       8
#     1   2   2   2   2   2   2   2
#     4  10  24  36  66  94 128 160 220 252 322 402
#     4  11  23  45  69  89 129 176 221 263 321 380
#     4  10  20  38  64  93 127 168 203 269 337 378
#     4  11  25  42  63  98 128 170 227 262 306 399
#     4  10  21  41  65  95 126 173 203 276 324 369
#     4  10  22  43  62  95 127 166 216 266 317 395
#     4  10  22  38  62 100 133 159 220 269 323 397
#     4  11  24  40  64  96 131 171 210 270 331 374
#
# _framework density 25.735711999999999
#
# number of rings (size 3 to 8) (size 9 to 14) (size 15 to 20)
#    0.000    1.600    2.667    2.000    7.467    3.733 
#    4.800    2.667    0.000    0.000    0.000    0.000 
#    0.000    0.000    0.000    0.000    0.000    0.000 
#
# Total GULP energy -83696.697531 kJ/mol
# GULP energy per Si atom -5579.779835 kJ/mol
# Density = 2.567714 g / cm^3
# Si number density = 25.735712 Si / 1000 Ang^3
#
#
#
# Elastic Constant Matrix: (Units=GPa)
#
#
# Indices 1 2 3 4 5 6 
#
# 1 52.4190 20.0932 9.4388 -2.8948 11.8593 7.4303
# 2 20.0932 116.9419 45.6436 -49.1017 -5.0401 25.8206
# 3 9.4388 45.6436 78.5394 -14.6201 1.8714 1.4113
# 4 -2.8948 -49.1017 -14.6201 51.0738 -4.9580 -13.3801
# 5 11.8593 -5.0401 1.8714 -4.9580 35.4656 -4.1038
# 6 7.4303 25.8206 1.4113 -13.3801 -4.1038 16.0314
#
#
#
# Elastic Compliance Matrix: (Units=1/GPa)
#
#
# Indices 1 2 3 4 5 6 
#
# 1 0.025339 -0.004798 -0.001276 -0.008333 -0.011860 -0.013895
# 2 -0.004798 0.025829 -0.011232 0.015551 0.005257 -0.024063
# 3 -0.001276 -0.011232 0.018883 -0.001403 -0.000544 0.015710
# 4 -0.008333 0.015551 -0.001403 0.038556 0.012106 0.014218
# 5 -0.011860 0.005257 -0.000544 0.012106 0.036544 0.016536
# 6 -0.013895 -0.024063 0.015710 0.014218 0.016536 0.122291
#
#
# Mechanical properties :
#
#
# Convention : Reuss Voigt Hill
#
# Bulk Modulus (GPa) = 28.21760 44.25017 36.23388
# Shear Modulus (GPa) = 15.93043 32.02915 23.97979
#
# Velocity S-wave (km/s) = 2.49067 3.53163 3.05580
# Velocity P-wave (km/s) = 4.38856 5.81905 5.15368
#
# Compressibility (1/GPa) = 0.03543887
#
# Stress axis : x y z
#
# Youngs Moduli (GPa) = 39.46548 38.71665 52.95796
#
# Poissons Ratio (x) = 0.18576 0.06756
# Poissons Ratio (y) = 0.18935 0.59482
# Poissons Ratio (z) = 0.05035 0.43487
#
# Static dielectric constant tensor:
#      x y z
#    x 2.018280 -0.019340 0.056200 
#    y -0.019340 2.036510 -0.064320 
#    z 0.056200 -0.064320 2.136370 
# 
# From -- ./inp_files/294230.got.cif
#   From: 2010.05.17/outbox.cif.g08.bks.cpg/sg2_148_cif.got.tgz:294230.got - 2010.06.03 11:33:40.
