data_PCOD9102902
_publ_section_title
;
Structure prediction by ZEFSAII (Michael W. Deem and Ramdas Pophale) SiO2 
 PCOD9102902
Probable space group: P -1
;
_chemical_formula_sum "Si O2"
_cell_formula_units_Z 15
_cell_length_a 10.125375
_cell_length_b 25.204119
_cell_length_c 14.160598
_cell_angle_alpha 17.399001
_cell_angle_beta 138.687699
_cell_angle_gamma 146.014387
_cell_volume 586.391183
_symmetry_space_group_name_H-M "P -1"
_symmetry_group_IT_number 2
_symmetry_cell_setting 'triclinic'
loop_
_space_group_symop_operation_xyz
x,y,z
-x,-y,-z
loop_
_atom_site_type_symbol
_atom_site_label
_atom_site_fract_x
_atom_site_fract_y
_atom_site_fract_z
Si Si1 0.751112 0.771939 0.767402
Si Si2 0.986628 0.781398 0.549319
Si Si3 0.543944 0.713699 0.316362
Si Si4 0.500000 0.500000 0.500000
Si Si5 0.213645 0.757714 0.183399
Si Si6 0.027912 0.449454 0.250808
Si Si7 0.682147 0.342142 0.403738
Si Si8 0.790190 0.780031 0.981704
O O1 0.554679 0.743964 0.637412
O O2 0.654673 0.738006 0.880633
O O3 0.789654 0.586275 0.077571
O O4 0.000000 0.000000 0.500000
O O5 0.732317 0.749830 0.436716
O O6 0.050533 0.707803 0.613575
O O7 0.168347 0.022685 0.273812
O O8 0.975964 0.626036 0.889475
O O9 0.652288 0.747354 0.214457
O O10 0.387850 0.804398 0.109092
O O11 0.346651 0.445958 0.649293
O O12 0.301011 0.542956 0.269643
O O13 0.366390 0.781849 0.315794
O O14 0.000000 0.500000 0.500000
O O15 0.053415 0.846015 0.973444
O O16 0.869488 0.331762 0.457861
#
# Coordination Sequence:
#
# PCOD9102902 Si02
#       8
#     2   2   2   1   2   2   2   2
#     4  11  24  38  63 101 129 167 216 267 324 387
#     4  10  23  41  64  91 127 172 217 262 312 396
#     4  10  21  42  63  92 128 172 211 259 329 372
#     4  10  22  40  70  92 122 172 220 262 312 398
#     4  10  20  38  64  92 127 172 208 260 332 377
#     4  10  21  42  66  92 129 174 215 266 331 373
#     4  11  22  42  65  92 134 169 210 274 325 383
#     4  11  22  41  64  94 130 168 215 266 320 390
#
# _framework density 25.580193999999999
#
# number of rings (size 3 to 8) (size 9 to 14) (size 15 to 20)
#    0.000    1.600    2.667    3.200    3.733    0.533 
#    0.000   20.667    0.000    0.000    0.000    0.000 
#    0.000    0.000    0.000    0.000    0.000    0.000 
#
# Total GULP energy -83762.414165 kJ/mol
# GULP energy per Si atom -5584.160944 kJ/mol
# Density = 2.552197 g / cm^3
# Si number density = 25.580194 Si / 1000 Ang^3
#
#
#
# Elastic Constant Matrix: (Units=GPa)
#
#
# Indices 1 2 3 4 5 6 
#
# 1 69.5859 0.8323 19.8128 -3.8017 16.2888 3.4682
# 2 0.8323 137.4886 21.4920 5.8047 1.7631 -13.3700
# 3 19.8128 21.4920 100.1044 -20.2706 -0.7544 -8.3410
# 4 -3.8017 5.8047 -20.2706 33.6738 3.7278 9.3348
# 5 16.2888 1.7631 -0.7544 3.7278 23.4169 1.0338
# 6 3.4682 -13.3700 -8.3410 9.3348 1.0338 38.9859
#
#
#
# Elastic Compliance Matrix: (Units=1/GPa)
#
#
# Indices 1 2 3 4 5 6 
#
# 1 0.018793 0.000307 -0.003683 0.002027 -0.013427 -0.002484
# 2 0.000307 0.008082 -0.002254 -0.003528 -0.000471 0.003119
# 3 -0.003683 -0.002254 0.012733 0.007287 0.001961 0.000482
# 4 0.002027 -0.003528 0.007287 0.038081 -0.006584 -0.008775
# 5 -0.013427 -0.000471 0.001961 -0.006584 0.053120 0.001620
# 6 -0.002484 0.003119 0.000482 -0.008775 0.001620 0.029102
#
#
# Mechanical properties :
#
#
# Convention : Reuss Voigt Hill
#
# Bulk Modulus (GPa) = 35.27573 43.49477 39.38525
# Shear Modulus (GPa) = 27.68215 36.88477 32.28346
#
# Velocity S-wave (km/s) = 3.29321 3.80139 3.55639
# Velocity P-wave (km/s) = 5.31794 6.02558 5.68279
#
# Compressibility (1/GPa) = 0.02834810
#
# Stress axis : x y z
#
# Youngs Moduli (GPa) = 53.21003 123.72956 78.53602
#
# Poissons Ratio (x) = -0.03800 0.28928
# Poissons Ratio (y) = -0.01634 0.17702
# Poissons Ratio (z) = 0.19599 0.27889
#
# Static dielectric constant tensor:
#      x y z
#    x 1.405180 0.223930 0.015550 
#    y 0.223930 1.936690 -0.011430 
#    z 0.015550 -0.011430 2.094350 
# 
# From -- ./inp_files/524362.got.cif
#   From: 2010.05.17/outbox.cif.g08.bks.cpg/sg2_263_cif.got.tgz:524362.got - 2010.06.03 11:33:40.
