data_PCOD9102332
_publ_section_title
;
Structure prediction by ZEFSAII (Michael W. Deem and Ramdas Pophale) SiO2 
 PCOD9102332
Probable space group: P -1
;
_chemical_formula_sum "Si O2"
_cell_formula_units_Z 16
_cell_length_a 8.597747
_cell_length_b 16.104141
_cell_length_c 15.563408
_cell_angle_alpha 30.981946
_cell_angle_beta 132.667336
_cell_angle_gamma 143.681600
_cell_volume 656.389852
_symmetry_space_group_name_H-M "P -1"
_symmetry_group_IT_number 2
_symmetry_cell_setting 'triclinic'
loop_
_space_group_symop_operation_xyz
x,y,z
-x,-y,-z
loop_
_atom_site_type_symbol
_atom_site_label
_atom_site_fract_x
_atom_site_fract_y
_atom_site_fract_z
Si Si1 0.695758 0.860394 0.529701
Si Si2 0.084381 0.368734 0.485479
Si Si3 0.438610 0.780203 0.665787
Si Si4 0.220527 0.902419 0.936610
Si Si5 0.599152 0.729551 0.430597
Si Si6 0.285807 0.761262 0.801333
Si Si7 0.732724 0.389692 0.883990
Si Si8 0.121160 0.104212 0.861114
O O1 0.638727 0.783842 0.673708
O O2 0.567711 0.703439 0.543954
O O3 0.612404 0.009897 0.359282
O O4 0.000000 0.000000 0.500000
O O5 0.312614 0.589732 0.406035
O O6 0.220322 0.322765 0.501925
O O7 0.016985 0.216377 0.673525
O O8 0.836756 0.347925 0.373684
O O9 0.424601 0.726782 0.806872
O O10 0.500000 0.000000 0.500000
O O11 0.141608 0.696414 0.050425
O O12 0.268952 0.043534 0.749244
O O13 0.070708 0.935176 0.924761
O O14 0.500000 0.000000 0.000000
O O15 0.319062 0.696824 0.962589
O O16 0.975098 0.622699 0.782024
O O17 0.438415 0.282785 0.830447
O O18 0.000000 0.000000 0.000000
#
# Coordination Sequence:
#
# PCOD9102332 Si02
#       8
#     2   2   2   2   2   2   2   2
#     4  11  23  40  63  90 122 161 202 257 319 370
#     4  10  23  38  63  93 122 162 206 254 318 364
#     4  10  23  39  62  90 123 161 201 258 311 368
#     4   9  19  36  60  85 118 161 202 245 303 358
#     4  10  20  38  62  92 121 159 204 259 301 374
#     4  10  22  40  65  87 123 164 210 254 301 373
#     4  10  21  41  63  89 119 170 213 243 308 370
#     4  10  23  38  63  90 128 161 201 260 309 372
#
# _framework density 24.375758000000001
#
# number of rings (size 3 to 8) (size 9 to 14) (size 15 to 20)
#    0.000    2.000    1.250    1.500   12.250    0.500 
#    2.250    0.000    0.000    3.000    0.000    0.000 
#    0.000    0.000    0.000    0.000    0.000    0.000 
#
# Total GULP energy -89445.695586 kJ/mol
# GULP energy per Si atom -5590.355974 kJ/mol
# Density = 2.432028 g / cm^3
# Si number density = 24.375758 Si / 1000 Ang^3
#
#
#
# Elastic Constant Matrix: (Units=GPa)
#
#
# Indices 1 2 3 4 5 6 
#
# 1 110.8502 40.7632 28.3830 9.1889 -35.5593 -19.2877
# 2 40.7632 108.4120 14.4730 3.3640 3.4259 -9.5537
# 3 28.3830 14.4730 64.9949 10.2022 -25.3330 -16.8521
# 4 9.1889 3.3640 10.2022 38.6633 -13.4574 -5.4908
# 5 -35.5593 3.4259 -25.3330 -13.4574 35.6092 14.5228
# 6 -19.2877 -9.5537 -16.8521 -5.4908 14.5228 46.7070
#
#
#
# Elastic Compliance Matrix: (Units=1/GPa)
#
#
# Indices 1 2 3 4 5 6 
#
# 1 0.017921 -0.007687 0.001587 0.003305 0.020894 0.000292
# 2 -0.007687 0.013343 -0.003978 -0.002750 -0.013663 0.002045
# 3 0.001587 -0.003978 0.023001 0.000322 0.017312 0.002795
# 4 0.003305 -0.002750 0.000322 0.030576 0.015471 -0.000297
# 5 0.020894 -0.013663 0.017312 0.015471 0.071871 -0.008449
# 6 0.000292 0.002045 0.002795 -0.000297 -0.008449 0.025550
#
#
# Mechanical properties :
#
#
# Convention : Reuss Voigt Hill
#
# Bulk Modulus (GPa) = 29.31903 50.16614 39.74258
# Shear Modulus (GPa) = 23.38777 37.57177 30.47977
#
# Velocity S-wave (km/s) = 3.10089 3.93027 3.53995
# Velocity P-wave (km/s) = 4.98746 6.42036 5.74873
#
# Compressibility (1/GPa) = 0.03410754
#
# Stress axis : x y z
#
# Youngs Moduli (GPa) = 55.79924 74.94641 43.47723
#
# Poissons Ratio (x) = 0.57614 -0.06898
# Poissons Ratio (y) = 0.42895 0.17295
# Poissons Ratio (z) = -0.08853 0.29813
#
# Static dielectric constant tensor:
#      x y z
#    x 1.984510 0.011980 -0.011550 
#    y 0.011980 1.929100 -0.006900 
#    z -0.011550 -0.006900 2.003460 
# 
# From -- ./inp_files/346127.got.cif
#   From: 2010.05.17/outbox.cif.g08.bks.cpg/sg2_174_cif.got.tgz:346127.got - 2010.06.03 11:33:40.
