data_PCOD9102173
_publ_section_title
;
Structure prediction by ZEFSAII (Michael W. Deem and Ramdas Pophale) SiO2 
 PCOD9102173
Probable space group: P -1
;
_chemical_formula_sum "Si O2"
_cell_formula_units_Z 16
_cell_length_a 15.050517
_cell_length_b 14.539429
_cell_length_c 10.849951
_cell_angle_alpha 146.734065
_cell_angle_beta 108.773715
_cell_angle_gamma 47.161636
_cell_volume 754.281576
_symmetry_space_group_name_H-M "P -1"
_symmetry_group_IT_number 2
_symmetry_cell_setting 'triclinic'
loop_
_space_group_symop_operation_xyz
x,y,z
-x,-y,-z
loop_
_atom_site_type_symbol
_atom_site_label
_atom_site_fract_x
_atom_site_fract_y
_atom_site_fract_z
Si Si1 0.087187 0.970574 0.196476
Si Si2 0.365980 0.157506 0.718331
Si Si3 0.461381 0.860813 0.829340
Si Si4 0.759112 0.074878 0.289886
Si Si5 0.797699 0.245834 0.272608
Si Si6 0.057789 0.768644 0.177608
Si Si7 0.644210 0.183741 0.756033
Si Si8 0.488487 0.285457 0.048459
O O1 0.100507 0.791246 0.090745
O O2 0.193541 0.954081 0.298283
O O3 0.151168 0.855577 0.958283
O O4 0.903881 0.235242 0.379256
O O5 0.500000 0.000000 0.500000
O O6 0.346090 0.986472 0.523495
O O7 0.205967 0.464380 0.949887
O O8 0.418025 0.199785 0.901830
O O9 0.331301 0.970251 0.807153
O O10 0.621648 0.544044 0.519184
O O11 0.420804 0.855767 0.942822
O O12 0.500000 0.000000 0.000000
O O13 0.807562 0.071446 0.171238
O O14 0.644651 0.385456 0.632576
O O15 0.911651 0.856636 0.193256
O O16 0.000000 0.000000 0.500000
O O17 0.500000 0.500000 0.000000
O O18 0.592342 0.186018 0.868155
#
# Coordination Sequence:
#
# PCOD9102173 Si02
#       8
#     2   2   2   2   2   2   2   2
#     4  10  20  38  62  87 119 161 213 261 310 378
#     4  10  22  39  60  91 124 166 208 256 310 376
#     4  11  23  37  60  94 123 162 210 262 314 376
#     4  10  20  38  66  86 124 167 206 257 325 371
#     4   9  20  38  61  86 117 164 213 254 312 369
#     4  11  22  40  65  92 127 167 210 259 318 377
#     4  11  23  37  62  92 128 168 215 257 319 379
#     4  10  20  40  62  86 127 164 213 262 312 373
#
# _framework density 21.212236999999998
#
# number of rings (size 3 to 8) (size 9 to 14) (size 15 to 20)
#    0.000    1.750    1.250    4.500    0.000    5.000 
#    0.000    0.625    0.000    8.250    0.000    0.000 
#    0.000    0.000    0.000    0.000    0.000    0.000 
#
# Total GULP energy -89245.655379 kJ/mol
# GULP energy per Si atom -5577.853461 kJ/mol
# Density = 2.116396 g / cm^3
# Si number density = 21.212237 Si / 1000 Ang^3
#
#
#
# Elastic Constant Matrix: (Units=GPa)
#
#
# Indices 1 2 3 4 5 6 
#
# 1 113.6754 44.2806 26.8217 -7.9113 12.6850 -45.7843
# 2 44.2806 75.3243 28.1428 -1.7769 -2.7524 -42.6771
# 3 26.8217 28.1428 70.5635 1.3944 14.2995 -15.8490
# 4 -7.9113 -1.7769 1.3944 25.7268 -4.3175 -1.9314
# 5 12.6850 -2.7524 14.2995 -4.3175 23.4110 -13.8662
# 6 -45.7843 -42.6771 -15.8490 -1.9314 -13.8662 58.3583
#
#
#
# Elastic Compliance Matrix: (Units=1/GPa)
#
#
# Indices 1 2 3 4 5 6 
#
# 1 0.014258 -0.002193 -0.002593 0.005027 -0.000135 0.009012
# 2 -0.002193 0.041032 -0.015913 0.011838 0.037638 0.033299
# 3 -0.002593 -0.015913 0.023599 -0.008249 -0.024282 -0.013305
# 4 0.005027 0.011838 -0.008249 0.046763 0.022559 0.017269
# 5 -0.000135 0.037638 -0.024282 0.022559 0.091917 0.043411
# 6 0.009012 0.033299 -0.013305 0.017269 0.043411 0.055830
#
#
# Mechanical properties :
#
#
# Convention : Reuss Voigt Hill
#
# Bulk Modulus (GPa) = 26.67337 50.89482 38.78410
# Shear Modulus (GPa) = 15.27683 32.18707 23.73195
#
# Velocity S-wave (km/s) = 2.68655 3.89958 3.34845
# Velocity P-wave (km/s) = 4.71436 6.65740 5.76828
#
# Compressibility (1/GPa) = 0.03749057
#
# Stress axis : x y z
#
# Youngs Moduli (GPa) = 70.13751 24.37146 42.37445
#
# Poissons Ratio (x) = 0.05345 0.10986
# Poissons Ratio (y) = 0.15383 0.67431
# Poissons Ratio (z) = 0.18184 0.38782
#
# Static dielectric constant tensor:
#      x y z
#    x 1.805100 0.001590 0.007610 
#    y 0.001590 1.666560 -0.047910 
#    z 0.007610 -0.047910 1.761190 
# 
# From -- ./inp_files/455251.got.cif
#   From: 2010.05.17/outbox.cif.g08.bks.cpg/sg2_228_cif.got.tgz:455251.got - 2010.06.03 11:33:40.
