data_PCOD9102546
_publ_section_title
;
Structure prediction by ZEFSAII (Michael W. Deem and Ramdas Pophale) SiO2 
 PCOD9102546
Probable space group: P -1
;
_chemical_formula_sum "Si O2"
_cell_formula_units_Z 14
_cell_length_a 14.692768
_cell_length_b 9.292665
_cell_length_c 14.430776
_cell_angle_alpha 31.326449
_cell_angle_beta 35.797174
_cell_angle_gamma 38.391243
_cell_volume 571.766099
_symmetry_space_group_name_H-M "P -1"
_symmetry_group_IT_number 2
_symmetry_cell_setting 'triclinic'
loop_
_space_group_symop_operation_xyz
x,y,z
-x,-y,-z
loop_
_atom_site_type_symbol
_atom_site_label
_atom_site_fract_x
_atom_site_fract_y
_atom_site_fract_z
Si Si1 0.414214 0.767293 0.494321
Si Si2 0.284541 0.371739 0.314113
Si Si3 0.022204 0.190717 0.747990
Si Si4 0.539524 0.458053 0.747472
Si Si5 0.964023 0.612222 0.173052
Si Si6 0.274882 0.148561 0.117689
Si Si7 0.184395 0.440790 0.846973
O O1 0.500000 0.500000 0.500000
O O2 0.474344 0.696378 0.589904
O O3 0.234975 0.727931 0.656805
O O4 0.396741 0.104814 0.307025
O O5 0.169539 0.654983 0.201077
O O6 0.386919 0.445874 0.273899
O O7 0.143910 0.248550 0.540761
O O8 0.068708 0.333471 0.723266
O O9 0.044206 0.856926 0.936663
O O10 0.670561 0.193979 0.731371
O O11 0.395930 0.313748 0.968993
O O12 0.809056 0.652382 0.213306
O O13 0.095121 0.302793 0.217865
O O14 0.283754 0.210770 0.965606
O O15 0.000000 0.500000 0.000000
#
# Coordination Sequence:
#
# PCOD9102546 Si02
#       7
#     2   2   2   2   2   2   2
#     4  11  25  39  60  92 127 157 208 254 303 373
#     4  11  23  43  61  87 129 164 200 249 321 361
#     4  10  23  38  62  92 120 161 206 261 296 366
#     4  10  21  38  63  86 123 167 193 243 319 367
#     4  10  20  38  63  90 120 155 213 255 298 353
#     4   9  19  37  63  92 121 155 206 247 302 376
#     4   9  18  37  63  85 116 163 199 250 302 360
#
# _framework density 24.485534999999999
#
# number of rings (size 3 to 8) (size 9 to 14) (size 15 to 20)
#    0.000    2.000    0.000    3.857    4.000    3.429 
#    2.571    2.143    0.000    0.000    0.000    0.000 
#    0.000    0.000    0.000    0.000    0.000    0.000 
#
# Total GULP energy -78208.784486 kJ/mol
# GULP energy per Si atom -5586.341749 kJ/mol
# Density = 2.442980 g / cm^3
# Si number density = 24.485535 Si / 1000 Ang^3
#
#
#
# Elastic Constant Matrix: (Units=GPa)
#
#
# Indices 1 2 3 4 5 6 
#
# 1 155.1151 26.3922 7.0259 -9.1831 -14.3170 9.7264
# 2 26.3922 91.8014 17.9769 -19.5972 -6.1861 7.5826
# 3 7.0259 17.9769 28.6670 -9.1329 -4.0068 -0.6865
# 4 -9.1831 -19.5972 -9.1329 24.1132 2.7272 5.9986
# 5 -14.3170 -6.1861 -4.0068 2.7272 26.2443 1.3806
# 6 9.7264 7.5826 -0.6865 5.9986 1.3806 26.4904
#
#
#
# Elastic Compliance Matrix: (Units=1/GPa)
#
#
# Indices 1 2 3 4 5 6 
#
# 1 0.007297 -0.001139 0.000072 0.002225 0.003652 -0.003045
# 2 -0.001139 0.015449 -0.005724 0.011504 0.001310 -0.006825
# 3 0.000072 -0.005724 0.042533 0.011026 0.004038 0.000007
# 4 0.002225 0.011504 0.011026 0.060156 0.000276 -0.017460
# 5 0.003652 0.001310 0.004038 0.000276 0.041193 -0.003821
# 6 -0.003045 -0.006825 0.000007 -0.017460 -0.003821 0.044974
#
#
# Mechanical properties :
#
#
# Convention : Reuss Voigt Hill
#
# Bulk Modulus (GPa) = 19.34368 42.04151 30.69259
# Shear Modulus (GPa) = 20.62549 30.31548 25.47049
#
# Velocity S-wave (km/s) = 2.90548 3.52248 3.22875
# Velocity P-wave (km/s) = 4.37869 5.80956 5.14412
#
# Compressibility (1/GPa) = 0.05169648
#
# Stress axis : x y z
#
# Youngs Moduli (GPa) = 137.03881 64.72736 23.51132
#
# Poissons Ratio (x) = 0.07375 -0.00170
# Poissons Ratio (y) = 0.15615 0.13459
# Poissons Ratio (z) = -0.00993 0.37053
#
# Static dielectric constant tensor:
#      x y z
#    x 1.979910 -0.033480 0.010670 
#    y -0.033480 2.035640 0.048960 
#    z 0.010670 0.048960 1.950860 
# 
# From -- ./inp_files/505203.got.cif
#   From: 2010.05.17/outbox.cif.g08.bks.cpg/sg2_253_cif.got.tgz:505203.got - 2010.06.03 11:33:40.
