data_PCOD9102742
_publ_section_title
;
Structure prediction by ZEFSAII (Michael W. Deem and Ramdas Pophale) SiO2 
 PCOD9102742
Probable space group: P -1
;
_chemical_formula_sum "Si O2"
_cell_formula_units_Z 15
_cell_length_a 17.981107
_cell_length_b 6.869387
_cell_length_c 9.688980
_cell_angle_alpha 121.715195
_cell_angle_beta 139.132442
_cell_angle_gamma 82.521088
_cell_volume 584.236381
_symmetry_space_group_name_H-M "P -1"
_symmetry_group_IT_number 2
_symmetry_cell_setting 'triclinic'
loop_
_space_group_symop_operation_xyz
x,y,z
-x,-y,-z
loop_
_atom_site_type_symbol
_atom_site_label
_atom_site_fract_x
_atom_site_fract_y
_atom_site_fract_z
Si Si1 0.311166 0.249872 0.548940
Si Si2 0.890778 0.290758 0.066912
Si Si3 0.000000 0.500000 0.000000
Si Si4 0.719291 0.537542 0.881685
Si Si5 0.233366 0.123912 0.700462
Si Si6 0.493548 0.012418 0.661738
Si Si7 0.956869 0.952304 0.204957
Si Si8 0.363745 0.810241 0.810184
O O1 0.266833 0.241886 0.640552
O O2 0.433607 0.199405 0.691185
O O3 0.334460 0.522507 0.627615
O O4 0.202603 0.001145 0.227294
O O5 0.961690 0.462279 0.097184
O O6 0.797861 0.410421 0.023432
O O7 0.968092 0.221857 0.262632
O O8 0.025231 0.242278 0.947985
O O9 0.606505 0.289618 0.553976
O O10 0.671490 0.668411 0.978802
O O11 0.817188 0.772629 0.010061
O O12 0.088493 0.045052 0.512298
O O13 0.252121 0.869284 0.619888
O O14 0.500000 0.000000 0.500000
O O15 0.618234 0.120346 0.975256
O O16 0.500000 0.000000 0.000000
#
# Coordination Sequence:
#
# PCOD9102742 Si02
#       8
#     2   2   1   2   2   2   2   2
#     4  11  25  44  71 107 143 183 248 297 364 435
#     4  10  23  42  71 103 145 191 233 296 361 428
#     4  10  20  38  64 106 134 186 236 284 346 432
#     4  10  26  45  70 104 148 183 246 295 358 447
#     4  12  26  46  70 110 143 192 237 300 363 437
#     4  11  25  50  75 104 144 194 243 309 363 430
#     4  11  24  41  72 105 149 187 237 293 364 432
#     4  12  28  45  77 105 143 193 243 306 362 421
#
# _framework density 25.67454
#
# number of rings (size 3 to 8) (size 9 to 14) (size 15 to 20)
#    0.000    1.067    2.667    2.000    5.600    5.333 
#    0.000    0.000    0.000    0.000    0.000    0.000 
#    0.000    0.000    0.000    0.000    0.000    0.000 
#
# Total GULP energy -83709.940368 kJ/mol
# GULP energy per Si atom -5580.662691 kJ/mol
# Density = 2.561610 g / cm^3
# Si number density = 25.674540 Si / 1000 Ang^3
#
#
#
# Elastic Constant Matrix: (Units=GPa)
#
#
# Indices 1 2 3 4 5 6 
#
# 1 69.4445 17.8674 -1.0528 10.1994 -6.4137 16.2005
# 2 17.8674 162.1572 20.4050 23.8036 10.3225 1.0924
# 3 -1.0528 20.4050 48.0891 16.6047 1.4934 4.9252
# 4 10.1994 23.8036 16.6047 42.2515 -9.1574 -7.0847
# 5 -6.4137 10.3225 1.4934 -9.1574 36.7881 7.3894
# 6 16.2005 1.0924 4.9252 -7.0847 7.3894 38.5943
#
#
#
# Elastic Compliance Matrix: (Units=1/GPa)
#
#
# Indices 1 2 3 4 5 6 
#
# 1 0.018560 -0.001909 0.004134 -0.005821 0.004191 -0.010135
# 2 -0.001909 0.007342 -0.001929 -0.003504 -0.003356 0.000839
# 3 0.004134 -0.001929 0.026535 -0.011802 -0.001352 -0.006975
# 4 -0.005821 -0.003504 -0.011802 0.034780 0.007290 0.009037
# 5 0.004191 -0.003356 -0.001352 0.007290 0.031985 -0.006277
# 6 -0.010135 0.000839 -0.006975 0.009037 -0.006277 0.033892
#
#
# Mechanical properties :
#
#
# Convention : Reuss Voigt Hill
#
# Bulk Modulus (GPa) = 18.85749 39.34779 29.10264
# Shear Modulus (GPa) = 29.38057 39.69154 34.53605
#
# Velocity S-wave (km/s) = 3.38649 3.93612 3.67160
# Velocity P-wave (km/s) = 4.75940 6.00136 5.41609
#
# Compressibility (1/GPa) = 0.05302932
#
# Stress axis : x y z
#
# Youngs Moduli (GPa) = 53.87843 136.19701 37.68582
#
# Poissons Ratio (x) = 0.26005 -0.15580
# Poissons Ratio (y) = 0.10287 0.07270
# Poissons Ratio (z) = -0.22275 0.26274
#
# Static dielectric constant tensor:
#      x y z
#    x 1.671380 -0.228110 0.625150 
#    y -0.228110 1.868110 0.387830 
#    z 0.625150 0.387830 1.096440 
# 
# From -- ./inp_files/340589.got.cif
#   From: 2010.05.17/outbox.cif.g08.bks.cpg/sg2_171_cif.got.tgz:340589.got - 2010.06.03 11:33:40.
