data_PCOD9102781
_publ_section_title
;
Structure prediction by ZEFSAII (Michael W. Deem and Ramdas Pophale) SiO2 
 PCOD9102781
Probable space group: P -1
;
_chemical_formula_sum "Si O2"
_cell_formula_units_Z 14
_cell_length_a 18.618504
_cell_length_b 14.591255
_cell_length_c 7.202211
_cell_angle_alpha 116.284133
_cell_angle_beta 65.058941
_cell_angle_gamma 158.447726
_cell_volume 644.159078
_symmetry_space_group_name_H-M "P -1"
_symmetry_group_IT_number 2
_symmetry_cell_setting 'triclinic'
loop_
_space_group_symop_operation_xyz
x,y,z
-x,-y,-z
loop_
_atom_site_type_symbol
_atom_site_label
_atom_site_fract_x
_atom_site_fract_y
_atom_site_fract_z
Si Si1 0.787160 0.995848 0.263031
Si Si2 0.586392 0.436244 0.294735
Si Si3 0.955061 0.349139 0.702250
Si Si4 0.565271 0.335025 0.818099
Si Si5 0.832503 0.200085 0.113997
Si Si6 0.801923 0.893061 0.491489
Si Si7 0.791473 0.531673 0.408948
O O1 0.882320 0.147658 0.102903
O O2 0.852429 0.162442 0.485879
O O3 0.556525 0.726369 0.226114
O O4 0.824434 0.937536 0.283730
O O5 0.735980 0.701330 0.432735
O O6 0.374730 0.240373 0.372103
O O7 0.624195 0.379871 0.324594
O O8 0.622088 0.449133 0.054137
O O9 0.017642 0.536579 0.748331
O O10 0.152088 0.520313 0.701371
O O11 0.832649 0.205064 0.896537
O O12 0.732440 0.487686 0.645171
O O13 0.388997 0.046694 0.792923
O O14 0.006908 0.173014 0.597812
#
# Coordination Sequence:
#
# PCOD9102781 Si02
#       7
#     2   2   2   2   2   2   2
#     4   9  19  37  59  86 117 152 190 246 284 347
#     4  11  22  43  59  87 123 155 197 249 282 359
#     4  10  20  38  64  87 119 153 204 235 299 349
#     4  10  22  36  59  86 123 152 195 240 301 339
#     4   9  20  37  63  90 111 163 194 240 296 355
#     4  10  22  41  65  83 117 164 197 237 304 334
#     4  11  23  39  58  92 119 155 193 251 288 351
#
# _framework density 21.733763
#
# number of rings (size 3 to 8) (size 9 to 14) (size 15 to 20)
#    0.857    1.143    1.429    2.571    0.000    4.000 
#    0.000    0.714    0.000    0.000    0.000    0.000 
#    0.000    0.000    0.000    0.000    0.000    0.000 
#
# Total GULP energy -77983.383061 kJ/mol
# GULP energy per Si atom -5570.241647 kJ/mol
# Density = 2.168430 g / cm^3
# Si number density = 21.733763 Si / 1000 Ang^3
#
#
#
# Elastic Constant Matrix: (Units=GPa)
#
#
# Indices 1 2 3 4 5 6 
#
# 1 61.8855 -3.5583 0.4151 -15.8770 7.1908 7.6430
# 2 -3.5583 44.7138 18.3141 -21.2555 -7.9704 1.9589
# 3 0.4151 18.3141 81.8061 -9.7253 5.6765 7.5833
# 4 -15.8770 -21.2555 -9.7253 24.0621 -0.7287 1.1304
# 5 7.1908 -7.9704 5.6765 -0.7287 12.9333 3.3175
# 6 7.6430 1.9589 7.5833 1.1304 3.3175 30.8456
#
#
#
# Elastic Compliance Matrix: (Units=1/GPa)
#
#
# Indices 1 2 3 4 5 6 
#
# 1 0.027872 0.020267 0.000538 0.037015 0.001363 -0.009829
# 2 0.020267 0.072557 -0.009090 0.075882 0.045579 -0.015078
# 3 0.000538 -0.009090 0.015050 -0.001871 -0.012129 -0.001883
# 4 0.037015 0.075882 -0.001871 0.134553 0.040436 -0.022811
# 5 0.001363 0.045579 -0.012129 0.040436 0.115894 -0.014197
# 6 -0.009829 -0.015078 -0.001883 -0.022811 -0.014197 0.038638
#
#
# Mechanical properties :
#
#
# Convention : Reuss Voigt Hill
#
# Bulk Modulus (GPa) = 7.19895 24.30523 15.75209
# Shear Modulus (GPa) = 11.69756 25.11716 18.40736
#
# Velocity S-wave (km/s) = 2.32248 3.40321 2.91339
# Velocity P-wave (km/s) = 3.24213 5.16235 4.31053
#
# Compressibility (1/GPa) = 0.13890913
#
# Stress axis : x y z
#
# Youngs Moduli (GPa) = 35.87792 13.78220 66.44431
#
# Poissons Ratio (x) = -0.27932 -0.03577
# Poissons Ratio (y) = -0.72713 0.60401
# Poissons Ratio (z) = -0.01931 0.12529
#
# Static dielectric constant tensor:
#      x y z
#    x 1.809520 0.016690 0.028310 
#    y 0.016690 1.818330 -0.017470 
#    z 0.028310 -0.017470 1.801900 
# 
# From -- ./inp_files/120099.got.cif
#   From: 2010.05.17/outbox.cif.g08.bks.cpg/sg2_61_cif.got.tgz:120099.got - 2010.06.03 11:33:40.
