data_PCOD9102848
_publ_section_title
;
Structure prediction by ZEFSAII (Michael W. Deem and Ramdas Pophale) SiO2 
 PCOD9102848
Probable space group: P -1
;
_chemical_formula_sum "Si O2"
_cell_formula_units_Z 14
_cell_length_a 17.086848
_cell_length_b 5.409206
_cell_length_c 7.922289
_cell_angle_alpha 119.596402
_cell_angle_beta 109.559640
_cell_angle_gamma 74.634292
_cell_volume 595.497785
_symmetry_space_group_name_H-M "P -1"
_symmetry_group_IT_number 2
_symmetry_cell_setting 'triclinic'
loop_
_space_group_symop_operation_xyz
x,y,z
-x,-y,-z
loop_
_atom_site_type_symbol
_atom_site_label
_atom_site_fract_x
_atom_site_fract_y
_atom_site_fract_z
Si Si1 0.449323 0.197052 0.172493
Si Si2 0.280404 0.487639 0.227770
Si Si3 0.098290 0.731625 0.092952
Si Si4 0.127796 0.263209 0.481116
Si Si5 0.483698 0.308912 0.760004
Si Si6 0.695861 0.840215 0.507202
Si Si7 0.996119 0.622996 0.310750
O O1 0.351472 0.299000 0.105592
O O2 0.491909 0.488083 0.303159
O O3 0.459502 0.993843 0.275582
O O4 0.500000 0.000000 0.000000
O O5 0.184345 0.518986 0.107222
O O6 0.287227 0.333074 0.363042
O O7 0.304418 0.814589 0.363817
O O8 0.033520 0.709317 0.191535
O O9 0.125516 0.042876 0.248740
O O10 0.051463 0.653546 0.865270
O O11 0.224160 0.272545 0.588806
O O12 0.076318 0.177033 0.577208
O O13 0.072966 0.542955 0.465292
O O14 0.389474 0.242321 0.658655
O O15 0.500000 0.500000 0.000000
#
# Coordination Sequence:
#
# PCOD9102848 Si02
#       7
#     2   2   2   2   2   2   2
#     4  10  22  40  62  87 122 160 204 257 311 378
#     4  11  23  40  64  93 127 164 210 263 322 378
#     4  10  21  38  62  91 128 164 214 260 318 377
#     4  10  21  38  62  91 128 164 214 260 318 377
#     4  10  22  40  62  87 122 160 204 257 311 378
#     4  11  23  40  64  93 127 164 210 263 322 378
#     4  10  20  38  64  90 124 170 212 258 320 380
#
# _framework density 23.509741000000002
#
# number of rings (size 3 to 8) (size 9 to 14) (size 15 to 20)
#    0.000    1.714    1.429    2.571    0.000    5.714 
#    0.000    2.857    6.286    0.000    0.000    0.000 
#    0.000    0.000    0.000    0.000    0.000    0.000 
#
# Total GULP energy -78145.182977 kJ/mol
# GULP energy per Si atom -5581.798784 kJ/mol
# Density = 2.345623 g / cm^3
# Si number density = 23.509741 Si / 1000 Ang^3
#
#
#
# Elastic Constant Matrix: (Units=GPa)
#
#
# Indices 1 2 3 4 5 6 
#
# 1 135.2482 48.1394 36.2368 0.3346 -4.9251 -32.1177
# 2 48.1394 142.2819 20.8697 -1.1991 -0.4168 9.1560
# 3 36.2368 20.8697 81.0088 -0.6140 -0.0079 -5.9368
# 4 0.3346 -1.1991 -0.6140 24.5325 -2.8032 5.0156
# 5 -4.9251 -0.4168 -0.0079 -2.8032 36.7619 3.1121
# 6 -32.1177 9.1560 -5.9368 5.0156 3.1121 50.2800
#
#
#
# Elastic Compliance Matrix: (Units=1/GPa)
#
#
# Indices 1 2 3 4 5 6 
#
# 1 0.011680 -0.003940 -0.003645 -0.001979 0.000700 0.007902
# 2 -0.003940 0.008771 -0.000805 0.001356 0.000043 -0.004347
# 3 -0.003645 -0.000805 0.014147 0.000425 -0.000417 -0.000528
# 4 -0.001979 0.001356 0.000425 0.042474 0.003490 -0.005914
# 5 0.000700 0.000043 -0.000417 0.003490 0.027704 -0.001673
# 6 0.007902 -0.004347 -0.000528 -0.005914 -0.001673 0.026359
#
#
# Mechanical properties :
#
#
# Convention : Reuss Voigt Hill
#
# Bulk Modulus (GPa) = 56.12983 63.22563 59.67773
# Shear Modulus (GPa) = 32.49822 39.20108 35.84965
#
# Velocity S-wave (km/s) = 3.72200 4.08786 3.90921
# Velocity P-wave (km/s) = 6.51138 7.01659 6.76870
#
# Compressibility (1/GPa) = 0.01781584
#
# Stress axis : x y z
#
# Youngs Moduli (GPa) = 85.61794 114.01443 70.68668
#
# Poissons Ratio (x) = 0.44923 0.25768
# Poissons Ratio (y) = 0.33735 0.05693
# Poissons Ratio (z) = 0.31211 0.09182
#
# Static dielectric constant tensor:
#      x y z
#    x 1.673020 -0.158970 0.288780 
#    y -0.158970 1.833430 0.254010 
#    z 0.288780 0.254010 1.567220 
# 
# From -- ./inp_files/52864.got.cif
#   From: 2010.05.17/outbox.cif.g08.bks.cpg/sg2_27_cif.got.tgz:52864.got - 2010.06.03 11:33:40.
