data_PCOD9102949
_publ_section_title
;
Structure prediction by ZEFSAII (Michael W. Deem and Ramdas Pophale) SiO2 
 PCOD9102949
Probable space group: P -1
;
_chemical_formula_sum "Si O2"
_cell_formula_units_Z 14
_cell_length_a 8.959957
_cell_length_b 8.110506
_cell_length_c 20.724400
_cell_angle_alpha 62.462863
_cell_angle_beta 132.392276
_cell_angle_gamma 146.215766
_cell_volume 600.621656
_symmetry_space_group_name_H-M "P -1"
_symmetry_group_IT_number 2
_symmetry_cell_setting 'triclinic'
loop_
_space_group_symop_operation_xyz
x,y,z
-x,-y,-z
loop_
_atom_site_type_symbol
_atom_site_label
_atom_site_fract_x
_atom_site_fract_y
_atom_site_fract_z
Si Si1 0.864446 0.292087 0.702551
Si Si2 0.413230 0.585544 0.258873
Si Si3 0.473114 0.300792 0.246205
Si Si4 0.628890 0.995330 0.137959
Si Si5 0.331869 0.446775 0.065495
Si Si6 0.392679 0.273410 0.562328
Si Si7 0.797793 0.518728 0.105668
O O1 0.574391 0.213072 0.608369
O O2 0.212908 0.573207 0.717151
O O3 0.936575 0.368255 0.786656
O O4 0.741379 0.991112 0.719708
O O5 0.605947 0.564709 0.280204
O O6 0.540075 0.861553 0.208490
O O7 0.483705 0.608984 0.349885
O O8 0.022504 0.266196 0.190085
O O9 0.263427 0.246312 0.137580
O O10 0.439350 0.714384 0.085575
O O11 0.572624 0.175739 0.083184
O O12 0.616116 0.546024 0.089185
O O13 0.085827 0.318370 0.958766
O O14 0.500000 0.500000 0.500000
O O15 0.000000 0.000000 0.500000
#
# Coordination Sequence:
#
# PCOD9102949 Si02
#       7
#     2   2   2   2   2   2   2
#     4  11  23  42  67  94 127 174 217 262 331 387
#     4  11  23  43  67  94 128 171 212 268 331 381
#     4  10  22  42  66  93 133 172 215 261 318 388
#     4  11  22  40  64  93 134 178 222 259 322 386
#     4   9  21  37  61  99 134 176 220 271 300 378
#     4  12  26  44  68  98 126 160 216 273 328 401
#     4  10  20  38  64  93 136 176 223 261 322 374
#
# _framework density 23.309184999999999
#
# number of rings (size 3 to 8) (size 9 to 14) (size 15 to 20)
#    0.000    1.429    1.429    4.714    4.000    0.571 
#    0.000   17.857    0.000    0.000    0.000    0.000 
#    0.000    0.000    0.000    0.000    0.000    0.000 
#
# Total GULP energy -78207.141774 kJ/mol
# GULP energy per Si atom -5586.224412 kJ/mol
# Density = 2.325613 g / cm^3
# Si number density = 23.309185 Si / 1000 Ang^3
#
#
#
# Elastic Constant Matrix: (Units=GPa)
#
#
# Indices 1 2 3 4 5 6 
#
# 1 94.1277 23.7261 22.5052 -2.7497 -0.2579 0.3154
# 2 23.7261 90.0153 22.5050 -16.1726 11.8981 21.0002
# 3 22.5052 22.5050 98.1115 -19.6942 7.8378 15.9634
# 4 -2.7497 -16.1726 -19.6942 35.4731 4.1321 1.0630
# 5 -0.2579 11.8981 7.8378 4.1321 31.6663 -8.6966
# 6 0.3154 21.0002 15.9634 1.0630 -8.6966 40.5702
#
#
#
# Elastic Compliance Matrix: (Units=1/GPa)
#
#
# Indices 1 2 3 4 5 6 
#
# 1 0.012661 -0.004958 -0.003813 -0.004114 0.004852 0.005116
# 2 -0.004958 0.018774 0.002382 0.011414 -0.012933 -0.013688
# 3 -0.003813 0.002382 0.014714 0.010208 -0.008388 -0.009058
# 4 -0.004114 0.011414 0.010208 0.041059 -0.016171 -0.014435
# 5 0.004852 -0.012933 -0.008388 -0.016171 0.046237 0.020292
# 6 0.005116 -0.013688 -0.009058 -0.014435 0.020292 0.039987
#
#
# Mechanical properties :
#
#
# Convention : Reuss Voigt Hill
#
# Bulk Modulus (GPa) = 29.96532 46.63635 38.30084
# Shear Modulus (GPa) = 25.33797 35.77646 30.55721
#
# Velocity S-wave (km/s) = 3.30060 3.92199 3.62463
# Velocity P-wave (km/s) = 5.23534 6.36871 5.82963
#
# Compressibility (1/GPa) = 0.03337191
#
# Stress axis : x y z
#
# Youngs Moduli (GPa) = 78.98160 53.26516 67.96425
#
# Poissons Ratio (x) = 0.26409 0.25914
# Poissons Ratio (y) = 0.39159 -0.16192
# Poissons Ratio (z) = 0.30115 -0.12690
#
# Static dielectric constant tensor:
#      x y z
#    x 1.954760 -0.059490 0.046220 
#    y -0.059490 1.872720 0.015610 
#    z 0.046220 0.015610 1.902840 
# 
# From -- ./inp_files/311405.got.cif
#   From: 2010.05.17/outbox.cif.g08.bks.cpg/sg2_156_cif.got.tgz:311405.got - 2010.06.03 11:33:40.
