data_PCOD9102689
_publ_section_title
;
Structure prediction by ZEFSAII (Michael W. Deem and Ramdas Pophale) SiO2 
 PCOD9102689
Probable space group: P -1
;
_chemical_formula_sum "Si O2"
_cell_formula_units_Z 14
_cell_length_a 10.430540
_cell_length_b 10.146954
_cell_length_c 10.390407
_cell_angle_alpha 75.988650
_cell_angle_beta 75.052656
_cell_angle_gamma 38.746537
_cell_volume 663.462059
_symmetry_space_group_name_H-M "P -1"
_symmetry_group_IT_number 2
_symmetry_cell_setting 'triclinic'
loop_
_space_group_symop_operation_xyz
x,y,z
-x,-y,-z
loop_
_atom_site_type_symbol
_atom_site_label
_atom_site_fract_x
_atom_site_fract_y
_atom_site_fract_z
Si Si1 0.325139 0.816630 0.896896
Si Si2 0.375680 0.068763 0.797499
Si Si3 0.125398 0.464451 0.592544
Si Si4 0.633269 0.516571 0.122573
Si Si5 0.788174 0.920168 0.700695
Si Si6 0.078464 0.185300 0.031265
Si Si7 0.506192 0.649746 0.420022
O O1 0.326920 0.677210 0.850614
O O2 0.415277 0.881223 0.790915
O O3 0.459190 0.686741 0.022517
O O4 0.106441 0.047084 0.948717
O O5 0.586335 0.985786 0.761329
O O6 0.215463 0.271017 0.699654
O O7 0.255219 0.150851 0.945756
O O8 0.000000 0.500000 0.500000
O O9 0.326876 0.398340 0.528678
O O10 0.967922 0.686010 0.654712
O O11 0.577672 0.599007 0.262847
O O12 0.846336 0.418831 0.044837
O O13 0.711116 0.100884 0.585083
O O14 0.865827 0.912444 0.819557
O O15 0.500000 0.500000 0.500000
#
# Coordination Sequence:
#
# PCOD9102689 Si02
#       7
#     2   2   2   2   2   2   2
#     4   9  22  37  61  98 130 160 199 260 318 375
#     4   9  23  38  64  96 123 165 203 254 325 372
#     4  11  26  46  64  92 124 170 220 262 305 373
#     4  11  20  40  64  94 133 162 205 258 312 378
#     4  11  22  43  65  90 129 156 210 267 309 380
#     4  10  20  38  63  96 125 160 202 252 319 377
#     4  11  25  45  65  93 125 174 212 258 316 369
#
# _framework density 21.101433
#
# number of rings (size 3 to 8) (size 9 to 14) (size 15 to 20)
#    0.857    0.857    2.857    0.857    2.000    5.714 
#    5.143    0.000    0.000    0.000    0.000    0.000 
#    0.000    0.000    0.000    0.000    0.000    0.000 
#
# Total GULP energy -78073.566889 kJ/mol
# GULP energy per Si atom -5576.683349 kJ/mol
# Density = 2.105340 g / cm^3
# Si number density = 21.101433 Si / 1000 Ang^3
#
#
#
# Elastic Constant Matrix: (Units=GPa)
#
#
# Indices 1 2 3 4 5 6 
#
# 1 43.3536 -2.5963 9.6121 -15.3907 7.6241 13.7257
# 2 -2.5963 75.2685 11.1699 -8.6566 -1.2739 14.8625
# 3 9.6121 11.1699 20.7252 -20.1406 2.1157 1.7079
# 4 -15.3907 -8.6566 -20.1406 29.1822 6.5727 -5.9154
# 5 7.6241 -1.2739 2.1157 6.5727 31.4864 -4.6261
# 6 13.7257 14.8625 1.7079 -5.9154 -4.6261 39.2173
#
#
#
# Elastic Compliance Matrix: (Units=1/GPa)
#
#
# Indices 1 2 3 4 5 6 
#
# 1 0.040592 0.005496 0.016852 0.036438 -0.020392 -0.013933
# 2 0.005496 0.016851 -0.014872 -0.004039 -0.000022 -0.008274
# 3 0.016852 -0.014872 0.214720 0.166372 -0.052475 0.009292
# 4 0.036438 -0.004039 0.166372 0.180471 -0.057550 0.001965
# 5 -0.020392 -0.000022 -0.052475 -0.057550 0.053269 0.007034
# 6 -0.013933 -0.008274 0.009292 0.001965 0.007034 0.034233
#
#
# Mechanical properties :
#
#
# Convention : Reuss Voigt Hill
#
# Bulk Modulus (GPa) = 3.48292 19.52428 11.50360
# Shear Modulus (GPa) = 8.05295 28.05462 18.05379
#
# Velocity S-wave (km/s) = 1.95566 3.65020 2.92819
# Velocity P-wave (km/s) = 2.59877 5.19981 4.11045
#
# Compressibility (1/GPa) = 0.28711544
#
# Stress axis : x y z
#
# Youngs Moduli (GPa) = 24.63553 59.34276 4.65722
#
# Poissons Ratio (x) = -0.32616 -0.07848
# Poissons Ratio (y) = -0.13540 0.06926
# Poissons Ratio (z) = -0.41515 0.88254
#
# Static dielectric constant tensor:
#      x y z
#    x 1.798010 0.009620 -0.022750 
#    y 0.009620 1.790660 0.004630 
#    z -0.022750 0.004630 1.758950 
# 
# From -- ./inp_files/381944.got.cif
#   From: 2010.05.17/outbox.cif.g08.bks.cpg/sg2_191_cif.got.tgz:381944.got - 2010.06.03 11:33:40.
