data_PCOD9102616
_publ_section_title
;
Structure prediction by ZEFSAII (Michael W. Deem and Ramdas Pophale) SiO2 
 PCOD9102616
Probable space group: P -1
;
_chemical_formula_sum "Si O2"
_cell_formula_units_Z 13
_cell_length_a 16.330892
_cell_length_b 14.461916
_cell_length_c 19.579676
_cell_angle_alpha 19.464758
_cell_angle_beta 162.457264
_cell_angle_gamma 154.150620
_cell_volume 464.440401
_symmetry_space_group_name_H-M "P -1"
_symmetry_group_IT_number 2
_symmetry_cell_setting 'triclinic'
loop_
_space_group_symop_operation_xyz
x,y,z
-x,-y,-z
loop_
_atom_site_type_symbol
_atom_site_label
_atom_site_fract_x
_atom_site_fract_y
_atom_site_fract_z
Si Si1 0.184111 0.191025 0.427331
Si Si2 0.696887 0.517108 0.217211
Si Si3 0.726962 0.140375 0.844033
Si Si4 0.500000 0.000000 0.500000
Si Si5 0.619330 0.179724 0.032141
Si Si6 0.839996 0.049276 0.568376
Si Si7 0.695865 0.293625 0.572158
O O1 0.286981 0.010792 0.698139
O O2 0.094030 0.013895 0.412892
O O3 0.468191 0.322801 0.534428
O O4 0.903411 0.331006 0.128890
O O5 0.510234 0.297317 0.261972
O O6 0.756933 0.369116 0.294860
O O7 0.000000 0.500000 0.500000
O O8 0.626622 0.835493 0.951557
O O9 0.849195 0.282529 0.774495
O O10 0.923259 0.062834 0.115440
O O11 0.751910 0.124551 0.666091
O O12 0.393853 0.392682 0.730298
O O13 0.500000 0.000000 0.000000
O O14 0.592240 0.860296 0.531788
#
# Coordination Sequence:
#
# PCOD9102616 Si02
#       7
#     2   2   2   1   2   2   2
#     4  10  22  38  62  85 112 165 212 258 322 374
#     4   9  19  37  61  93 131 171 214 261 322 381
#     4  10  20  38  63  92 128 169 210 264 326 389
#     4  10  20  38  64  94 128 164 210 268 312 382
#     4  11  24  42  59  88 127 164 215 272 321 381
#     4   9  20  39  60  89 124 162 211 264 318 386
#     4  10  23  39  62  94 126 165 213 263 329 388
#
# _framework density 27.990673999999999
#
# number of rings (size 3 to 8) (size 9 to 14) (size 15 to 20)
#    0.000    2.154    0.000    1.846    0.000   12.923 
#    0.000   13.077    0.000    0.000    0.000    0.000 
#    0.000    0.000    0.000    0.000    0.000    0.000 
#
# Total GULP energy -72391.472362 kJ/mol
# GULP energy per Si atom -5568.574797 kJ/mol
# Density = 2.792697 g / cm^3
# Si number density = 27.990674 Si / 1000 Ang^3
#
#
#
# Elastic Constant Matrix: (Units=GPa)
#
#
# Indices 1 2 3 4 5 6 
#
# 1 71.3508 16.8854 28.1250 25.6285 -16.3089 -23.1322
# 2 16.8854 88.2042 18.4712 -5.6344 -14.9615 -23.0547
# 3 28.1250 18.4712 112.7471 5.4016 -4.8347 -0.3851
# 4 25.6285 -5.6344 5.4016 38.7373 -1.8686 -2.9609
# 5 -16.3089 -14.9615 -4.8347 -1.8686 58.5285 15.4391
# 6 -23.1322 -23.0547 -0.3851 -2.9609 15.4391 64.1196
#
#
#
# Elastic Compliance Matrix: (Units=1/GPa)
#
#
# Indices 1 2 3 4 5 6 
#
# 1 0.025114 -0.002426 -0.004937 -0.015600 0.003748 0.006535
# 2 -0.002426 0.013746 -0.001758 0.004229 0.001822 0.003813
# 3 -0.004937 -0.001758 0.010300 0.001389 -0.000349 -0.002203
# 4 -0.015600 0.004229 0.001389 0.036329 -0.001444 -0.002074
# 5 0.003748 0.001822 -0.000349 -0.001444 0.019231 -0.002692
# 6 0.006535 0.003813 -0.002203 -0.002074 -0.002692 0.019864
#
#
# Mechanical properties :
#
#
# Convention : Reuss Voigt Hill
#
# Bulk Modulus (GPa) = 32.34457 44.36283 38.35370
# Shear Modulus (GPa) = 32.65143 46.19844 39.42493
#
# Velocity S-wave (km/s) = 3.41913 4.06703 3.75707
# Velocity P-wave (km/s) = 5.21228 6.15938 5.70551
#
# Compressibility (1/GPa) = 0.03091709
#
# Stress axis : x y z
#
# Youngs Moduli (GPa) = 39.81794 72.74926 97.08795
#
# Poissons Ratio (x) = 0.17652 0.47931
# Poissons Ratio (y) = 0.09662 0.17070
# Poissons Ratio (z) = 0.19658 0.12791
#
# Static dielectric constant tensor:
#      x y z
#    x 2.455690 -0.105210 0.022680 
#    y -0.105210 2.313180 0.094640 
#    z 0.022680 0.094640 2.173160 
# 
# From -- ./inp_files/536976.got.cif
#   From: 2010.05.17/outbox.cif.g08.bks.cpg/sg2_269_cif.got.tgz:536976.got - 2010.06.03 11:33:40.
