data_PCOD9102553
_publ_section_title
;
Structure prediction by ZEFSAII (Michael W. Deem and Ramdas Pophale) SiO2 
 PCOD9102553
Probable space group: P -1
;
_chemical_formula_sum "Si O2"
_cell_formula_units_Z 14
_cell_length_a 15.856427
_cell_length_b 9.936436
_cell_length_c 8.847192
_cell_angle_alpha 60.031388
_cell_angle_beta 111.958597
_cell_angle_gamma 143.999265
_cell_volume 708.551353
_symmetry_space_group_name_H-M "P -1"
_symmetry_group_IT_number 2
_symmetry_cell_setting 'triclinic'
loop_
_space_group_symop_operation_xyz
x,y,z
-x,-y,-z
loop_
_atom_site_type_symbol
_atom_site_label
_atom_site_fract_x
_atom_site_fract_y
_atom_site_fract_z
Si Si1 0.883798 0.241002 0.979684
Si Si2 0.965507 0.993348 0.150948
Si Si3 0.204706 0.819195 0.390092
Si Si4 0.505534 0.705133 0.549653
Si Si5 0.919155 0.091869 0.516942
Si Si6 0.661578 0.828924 0.282619
Si Si7 0.776757 0.504041 0.449927
O O1 0.854437 0.248281 0.782064
O O2 0.000000 0.500000 0.000000
O O3 0.944673 0.146651 0.070510
O O4 0.732948 0.029759 0.089473
O O5 0.083830 0.067465 0.295086
O O6 0.822563 0.706397 0.258891
O O7 0.000000 0.000000 0.000000
O O8 0.112589 0.804002 0.451770
O O9 0.216260 0.653860 0.536002
O O10 0.367018 0.096662 0.358233
O O11 0.577353 0.802384 0.376716
O O12 0.439158 0.446558 0.679168
O O13 0.377639 0.660276 0.497042
O O14 0.084186 0.316550 0.446041
O O15 0.800600 0.936177 0.397659
#
# Coordination Sequence:
#
# PCOD9102553 Si02
#       7
#     2   2   2   2   2   2   2
#     4  12  24  40  64  99 129 158 215 274 311 358
#     4  10  21  39  64  95 125 159 209 265 310 367
#     4  11  22  39  62  96 122 173 203 259 319 379
#     4  10  22  39  63  86 131 170 209 245 318 390
#     4   9  20  36  68  86 124 164 214 253 312 371
#     4  10  21  41  60  95 122 170 207 262 309 376
#     4  10  20  38  63  90 123 162 214 253 309 377
#
# _framework density 19.758624999999999
#
# number of rings (size 3 to 8) (size 9 to 14) (size 15 to 20)
#    0.857    0.857    2.857    1.714    0.000    7.429 
#    0.000    0.714    0.000    0.000    0.000    0.000 
#    0.000    0.000    0.000    0.000    0.000    0.000 
#
# Total GULP energy -78056.442236 kJ/mol
# GULP energy per Si atom -5575.460160 kJ/mol
# Density = 1.971365 g / cm^3
# Si number density = 19.758625 Si / 1000 Ang^3
#
#
#
# Elastic Constant Matrix: (Units=GPa)
#
#
# Indices 1 2 3 4 5 6 
#
# 1 132.2723 43.0337 32.3415 -5.9409 -1.1787 -2.7531
# 2 43.0337 126.7796 26.0776 5.8400 -2.5390 -9.4357
# 3 32.3415 26.0776 61.7142 1.3807 -5.7919 -14.4813
# 4 -5.9409 5.8400 1.3807 27.5245 1.3347 6.1386
# 5 -1.1787 -2.5390 -5.7919 1.3347 28.5873 -7.3510
# 6 -2.7531 -9.4357 -14.4813 6.1386 -7.3510 44.1446
#
#
#
# Elastic Compliance Matrix: (Units=1/GPa)
#
#
# Indices 1 2 3 4 5 6 
#
# 1 0.009672 -0.002676 -0.004684 0.003464 -0.001526 -0.002241
# 2 -0.002676 0.009501 -0.002052 -0.002924 0.000904 0.001748
# 3 -0.004684 -0.002052 0.022112 -0.003803 0.006368 0.008112
# 4 0.003464 -0.002924 -0.003803 0.039909 -0.004810 -0.008007
# 5 -0.001526 0.000904 0.006368 -0.004810 0.038913 0.009336
# 6 -0.002241 0.001748 0.008112 -0.008007 0.009336 0.028216
#
#
# Mechanical properties :
#
#
# Convention : Reuss Voigt Hill
#
# Bulk Modulus (GPa) = 44.52394 58.18576 51.35485
# Shear Modulus (GPa) = 28.63132 34.67216 31.65174
#
# Velocity S-wave (km/s) = 3.81077 4.19356 4.00674
# Velocity P-wave (km/s) = 6.47654 7.27737 6.88860
#
# Compressibility (1/GPa) = 0.02245982
#
# Stress axis : x y z
#
# Youngs Moduli (GPa) = 103.39618 105.25113 45.22487
#
# Poissons Ratio (x) = 0.28169 0.21184
# Poissons Ratio (y) = 0.27672 0.09279
# Poissons Ratio (z) = 0.48432 0.21595
#
# Static dielectric constant tensor:
#      x y z
#    x 1.726350 0.001070 -0.005940 
#    y 0.001070 1.720810 -0.023200 
#    z -0.005940 -0.023200 1.710160 
# 
# From -- ./inp_files/297934.got.cif
#   From: 2010.05.17/outbox.cif.g08.bks.cpg/sg2_149_cif.got.tgz:297934.got - 2010.06.03 11:33:40.
