data_PCOD9102738
_publ_section_title
;
Structure prediction by ZEFSAII (Michael W. Deem and Ramdas Pophale) SiO2 
 PCOD9102738
Probable space group: P -1
;
_chemical_formula_sum "Si O2"
_cell_formula_units_Z 14
_cell_length_a 16.036758
_cell_length_b 15.939338
_cell_length_c 8.336660
_cell_angle_alpha 51.726045
_cell_angle_beta 34.971643
_cell_angle_gamma 35.826644
_cell_volume 708.484948
_symmetry_space_group_name_H-M "P -1"
_symmetry_group_IT_number 2
_symmetry_cell_setting 'triclinic'
loop_
_space_group_symop_operation_xyz
x,y,z
-x,-y,-z
loop_
_atom_site_type_symbol
_atom_site_label
_atom_site_fract_x
_atom_site_fract_y
_atom_site_fract_z
Si Si1 0.194948 0.657037 0.013354
Si Si2 0.459853 0.198279 0.342534
Si Si3 0.465001 0.339021 0.487944
Si Si4 0.530557 0.664947 0.158617
Si Si5 0.175315 0.143168 0.858444
Si Si6 0.727535 0.397206 0.708507
Si Si7 0.894644 0.165540 0.487041
O O1 0.331548 0.693842 0.780715
O O2 0.325576 0.507134 0.887153
O O3 0.161671 0.623032 0.282813
O O4 0.988876 0.782411 0.108281
O O5 0.468060 0.262376 0.417677
O O6 0.277141 0.207429 0.626598
O O7 0.655589 0.028927 0.226111
O O8 0.446569 0.272581 0.109868
O O9 0.435108 0.304988 0.752992
O O10 0.291867 0.510013 0.516131
O O11 0.303516 0.738661 0.419569
O O12 0.053860 0.173163 0.172610
O O13 0.814239 0.242692 0.693968
O O14 0.500000 0.500000 0.000000
O O15 0.000000 0.000000 0.500000
#
# Coordination Sequence:
#
# PCOD9102738 Si02
#       7
#     2   2   2   2   2   2   2
#     4  11  21  40  71  98 132 172 229 281 330 396
#     4  11  26  48  61  97 146 184 210 284 347 401
#     4  11  21  39  72  95 128 176 229 275 332 390
#     4  12  21  42  73  97 129 176 229 281 330 397
#     4  11  26  44  64  95 148 174 220 283 347 391
#     4  10  20  38  64 103 138 165 217 290 333 382
#     4  12  22  39  69 103 130 177 230 278 331 402
#
# _framework density 19.760476000000001
#
# number of rings (size 3 to 8) (size 9 to 14) (size 15 to 20)
#    0.000    0.857    7.143    2.143    0.000    2.286 
#    2.571    2.857    0.000    0.000    0.000    0.000 
#    0.000    0.000    0.000    0.000    0.000    0.000 
#
# Total GULP energy -78090.519154 kJ/mol
# GULP energy per Si atom -5577.894225 kJ/mol
# Density = 1.971550 g / cm^3
# Si number density = 19.760476 Si / 1000 Ang^3
#
#
#
# Elastic Constant Matrix: (Units=GPa)
#
#
# Indices 1 2 3 4 5 6 
#
# 1 121.8593 41.9232 48.9953 -12.4534 31.0585 4.1910
# 2 41.9232 86.9892 41.9712 1.4123 9.1349 6.1176
# 3 48.9953 41.9712 101.9781 -11.0701 10.2579 8.7114
# 4 -12.4534 1.4123 -11.0701 27.1198 3.3407 2.8418
# 5 31.0585 9.1349 10.2579 3.3407 31.0093 1.0488
# 6 4.1910 6.1176 8.7114 2.8418 1.0488 33.2232
#
#
#
# Elastic Compliance Matrix: (Units=1/GPa)
#
#
# Indices 1 2 3 4 5 6 
#
# 1 0.015397 -0.004474 -0.003286 0.007716 -0.013831 -0.000480
# 2 -0.004474 0.016064 -0.005174 -0.005185 0.002041 -0.000658
# 3 -0.003286 -0.005174 0.014327 0.004947 -0.000362 -0.002801
# 4 0.007716 -0.005185 0.004947 0.044743 -0.012496 -0.004748
# 5 -0.013831 0.002041 -0.000362 -0.012496 0.046931 0.001051
# 6 -0.000480 -0.000658 -0.002801 -0.004748 0.001051 0.031389
#
#
# Mechanical properties :
#
#
# Convention : Reuss Voigt Hill
#
# Bulk Modulus (GPa) = 50.20120 64.06733 57.13426
# Shear Modulus (GPa) = 24.83135 30.13294 27.48214
#
# Velocity S-wave (km/s) = 3.54872 3.90925 3.73334
# Velocity P-wave (km/s) = 6.50010 7.27108 6.89637
#
# Compressibility (1/GPa) = 0.01991984
#
# Stress axis : x y z
#
# Youngs Moduli (GPa) = 64.94875 62.24961 69.79765
#
# Poissons Ratio (x) = 0.27849 0.22937
# Poissons Ratio (y) = 0.29056 0.36115
# Poissons Ratio (z) = 0.21344 0.32209
#
# Static dielectric constant tensor:
#      x y z
#    x 1.719230 -0.014600 0.053210 
#    y -0.014600 1.714950 -0.041900 
#    z 0.053210 -0.041900 1.748630 
# 
# From -- ./inp_files/312600.got.cif
#   From: 2010.05.17/outbox.cif.g08.bks.cpg/sg2_157_cif.got.tgz:312600.got - 2010.06.03 11:33:40.
