data_PCOD9102593
_publ_section_title
;
Structure prediction by ZEFSAII (Michael W. Deem and Ramdas Pophale) SiO2 
 PCOD9102593
Probable space group: P -1
;
_chemical_formula_sum "Si O2"
_cell_formula_units_Z 16
_cell_length_a 14.505867
_cell_length_b 11.392353
_cell_length_c 9.728932
_cell_angle_alpha 72.308337
_cell_angle_beta 47.712373
_cell_angle_gamma 46.332907
_cell_volume 820.654020
_symmetry_space_group_name_H-M "P -1"
_symmetry_group_IT_number 2
_symmetry_cell_setting 'triclinic'
loop_
_space_group_symop_operation_xyz
x,y,z
-x,-y,-z
loop_
_atom_site_type_symbol
_atom_site_label
_atom_site_fract_x
_atom_site_fract_y
_atom_site_fract_z
Si Si1 0.034460 0.832081 0.509751
Si Si2 0.244745 0.642570 0.636364
Si Si3 0.348136 0.282647 0.064383
Si Si4 0.622133 0.303632 0.279355
Si Si5 0.179921 0.427429 0.900108
Si Si6 0.321068 0.580770 0.084755
Si Si7 0.689508 0.954396 0.691490
Si Si8 0.528609 0.106077 0.513591
O O1 0.108938 0.740900 0.615095
O O2 0.174771 0.708609 0.296348
O O3 0.862420 0.882620 0.614321
O O4 0.000000 0.000000 0.500000
O O5 0.432246 0.489454 0.435214
O O6 0.268840 0.744021 0.674474
O O7 0.195926 0.562731 0.812807
O O8 0.333324 0.427312 0.093146
O O9 0.324899 0.182616 0.223097
O O10 0.210549 0.371296 0.047198
O O11 0.533272 0.132048 0.861463
O O12 0.592057 0.178941 0.334265
O O13 0.700051 0.323534 0.066019
O O14 0.343455 0.264684 0.709444
O O15 0.000000 0.500000 0.000000
O O16 0.500000 0.500000 0.000000
O O17 0.662975 0.999040 0.541746
O O18 0.500000 0.000000 0.500000
#
# Coordination Sequence:
#
# PCOD9102593 Si02
#       8
#     2   2   2   2   2   2   2   2
#     4  12  25  41  62  95 131 165 208 263 319 369
#     4  10  20  39  66  88 123 163 203 258 311 368
#     4  10  22  42  66  91 125 166 210 256 312 377
#     4  10  21  41  66  91 120 165 213 254 305 375
#     4  10  20  38  63  92 120 158 209 252 309 367
#     4  12  24  40  66  95 124 167 215 258 308 378
#     4  10  23  42  63  93 130 166 202 260 320 372
#     4  10  23  40  62  87 126 168 202 251 317 373
#
# _framework density 19.496644
#
# number of rings (size 3 to 8) (size 9 to 14) (size 15 to 20)
#    0.000    1.500    2.500    2.250    3.500    1.500 
#    4.500    1.250    0.000    0.000    0.000    0.000 
#    0.000    0.000    0.000    0.000    0.000    0.000 
#
# Total GULP energy -89381.877727 kJ/mol
# GULP energy per Si atom -5586.367358 kJ/mol
# Density = 1.945227 g / cm^3
# Si number density = 19.496644 Si / 1000 Ang^3
#
#
#
# Elastic Constant Matrix: (Units=GPa)
#
#
# Indices 1 2 3 4 5 6 
#
# 1 142.8684 57.2853 26.8686 13.4456 -2.4891 0.8733
# 2 57.2853 104.5373 35.3193 -7.5356 10.9508 13.8577
# 3 26.8686 35.3193 41.0429 -7.5003 1.7529 2.9832
# 4 13.4456 -7.5356 -7.5003 17.0447 -8.4429 -1.6030
# 5 -2.4891 10.9508 1.7529 -8.4429 22.4055 4.1131
# 6 0.8733 13.8577 2.9832 -1.6030 4.1131 58.9883
#
#
#
# Elastic Compliance Matrix: (Units=1/GPa)
#
#
# Indices 1 2 3 4 5 6 
#
# 1 0.011606 -0.005570 -0.005490 -0.014545 -0.001243 0.001106
# 2 -0.005570 0.017347 -0.010012 0.004340 -0.006139 -0.002940
# 3 -0.005490 -0.010012 0.040227 0.022339 0.009491 0.000344
# 4 -0.014545 0.004340 0.022339 0.097339 0.031467 -0.001483
# 5 -0.001243 -0.006139 0.009491 0.031467 0.059028 -0.002280
# 6 0.001106 -0.002940 0.000344 -0.001483 -0.002280 0.017728
#
#
# Mechanical properties :
#
#
# Convention : Reuss Voigt Hill
#
# Bulk Modulus (GPa) = 36.98908 58.59946 47.79427
# Shear Modulus (GPa) = 16.98204 30.95272 23.96738
#
# Velocity S-wave (km/s) = 2.95451 3.98878 3.50995
# Velocity P-wave (km/s) = 5.53643 7.16486 6.40263
#
# Compressibility (1/GPa) = 0.02703500
#
# Stress axis : x y z
#
# Youngs Moduli (GPa) = 86.16537 57.64807 24.85920
#
# Poissons Ratio (x) = 0.32109 0.13647
# Poissons Ratio (y) = 0.47993 0.24890
# Poissons Ratio (z) = 0.47302 0.57719
#
# Static dielectric constant tensor:
#      x y z
#    x 1.666400 -0.002590 0.003990 
#    y -0.002590 1.693630 -0.017720 
#    z 0.003990 -0.017720 1.669300 
# 
# From -- ./inp_files/306909.got.cif
#   From: 2010.05.17/outbox.cif.g08.bks.cpg/sg2_154_cif.got.tgz:306909.got - 2010.06.03 11:33:40.
