data_PCOD9102878
_publ_section_title
;
Structure prediction by ZEFSAII (Michael W. Deem and Ramdas Pophale) SiO2 
 PCOD9102878
Probable space group: P -1
;
_chemical_formula_sum "Si O2"
_cell_formula_units_Z 13
_cell_length_a 14.578942
_cell_length_b 8.330213
_cell_length_c 27.804419
_cell_angle_alpha 150.962621
_cell_angle_beta 159.552899
_cell_angle_gamma 28.800106
_cell_volume 539.144715
_symmetry_space_group_name_H-M "P -1"
_symmetry_group_IT_number 2
_symmetry_cell_setting 'triclinic'
loop_
_space_group_symop_operation_xyz
x,y,z
-x,-y,-z
loop_
_atom_site_type_symbol
_atom_site_label
_atom_site_fract_x
_atom_site_fract_y
_atom_site_fract_z
Si Si1 0.772002 0.702667 0.133702
Si Si2 0.177393 0.572585 0.207905
Si Si3 0.484121 0.233069 0.821809
Si Si4 0.000000 0.000000 0.500000
Si Si5 0.573315 0.725589 0.380977
Si Si6 0.065770 0.961359 0.419877
Si Si7 0.331752 0.476342 0.107655
O O1 0.999437 0.655291 0.190716
O O2 0.557849 0.092002 0.122848
O O3 0.599457 0.440757 0.972567
O O4 0.921106 0.703629 0.257970
O O5 0.373995 0.793400 0.347046
O O6 0.380880 0.175082 0.207207
O O7 0.959738 0.573699 0.059245
O O8 0.602482 0.337087 0.858266
O O9 0.162819 0.277902 0.668176
O O10 0.808302 0.115134 0.485437
O O11 0.726942 0.982469 0.503802
O O12 0.380263 0.683451 0.231442
O O13 0.822358 0.345503 0.410276
#
# Coordination Sequence:
#
# PCOD9102878 Si02
#       7
#     2   2   2   1   2   2   2
#     4  10  23  41  66  96 127 163 212 264 303 372
#     4  11  21  38  65  95 129 166 205 258 318 367
#     4  11  22  39  67  90 128 165 209 255 314 370
#     4  12  22  42  66  88 124 174 206 254 328 372
#     4  10  20  38  64  91 125 170 211 249 313 382
#     4  10  22  41  64  89 126 166 214 257 308 376
#     4  10  20  40  65  92 127 168 212 255 305 375
#
# _framework density 24.112264
#
# number of rings (size 3 to 8) (size 9 to 14) (size 15 to 20)
#    0.000    1.538    3.077    4.154    0.000    1.231 
#    0.000    2.308    3.385    0.000    0.000    0.000 
#    0.000    0.000    0.000    0.000    0.000    0.000 
#
# Total GULP energy -72406.687224 kJ/mol
# GULP energy per Si atom -5569.745171 kJ/mol
# Density = 2.405738 g / cm^3
# Si number density = 24.112264 Si / 1000 Ang^3
#
#
#
# Elastic Constant Matrix: (Units=GPa)
#
#
# Indices 1 2 3 4 5 6 
#
# 1 59.4015 22.6986 71.8387 17.3217 11.4349 -19.9693
# 2 22.6986 2.6441 4.0930 5.3746 3.2057 27.9648
# 3 71.8387 4.0930 176.7471 24.2326 10.1375 -8.1989
# 4 17.3217 5.3746 24.2326 21.1466 0.5791 -9.7705
# 5 11.4349 3.2057 10.1375 0.5791 62.4194 -10.9086
# 6 -19.9693 27.9648 -8.1989 -9.7705 -10.9086 -17.7252
#
#
#
# Elastic Compliance Matrix: (Units=1/GPa)
#
#
# Indices 1 2 3 4 5 6 
#
# 1 0.031821 -0.002836 -0.010309 -0.022108 -0.007123 -0.018986
# 2 -0.002836 0.024689 0.000358 0.010774 0.004869 0.033046
# 3 -0.010309 0.000358 0.010090 -0.000141 0.001408 0.006723
# 4 -0.022108 0.010774 -0.000141 0.064622 0.003639 0.004110
# 5 -0.007123 0.004869 0.001408 0.003639 0.017239 0.002439
# 6 -0.018986 0.033046 0.006723 0.004110 0.002439 0.010233
#
#
# Mechanical properties :
#
#
# Convention : Reuss Voigt Hill
#
# Bulk Modulus (GPa) = 24.37564 48.45038 36.41301
# Shear Modulus (GPa) = 25.25960 22.51231 23.88596
#
# Velocity S-wave (km/s) = 3.24015 3.05888 3.15082
# Velocity P-wave (km/s) = 4.91216 5.71077 5.32645
#
# Compressibility (1/GPa) = 0.04102457
#
# Stress axis : x y z
#
# Youngs Moduli (GPa) = 31.42543 40.50428 99.10620
#
# Poissons Ratio (x) = 0.11489 1.02170
# Poissons Ratio (y) = 0.08913 -0.03545
# Poissons Ratio (z) = 0.32397 -0.01449
#
# Static dielectric constant tensor:
#      x y z
#    x 1.970650 0.036440 -0.016790 
#    y 0.036440 1.937100 -0.055150 
#    z -0.016790 -0.055150 1.981720 
# 
# From -- ./inp_files/623353.got.cif
#   From: 2010.05.17/outbox.cif.g08.bks.cpg/sg2_312_cif.got.tgz:623353.got - 2010.06.03 11:33:40.
