data_PCOD9102246
_publ_section_title
;
Structure prediction by ZEFSAII (Michael W. Deem and Ramdas Pophale) SiO2 
 PCOD9102246
Probable space group: P -1
;
_chemical_formula_sum "Si O2"
_cell_formula_units_Z 14
_cell_length_a 6.963989
_cell_length_b 12.229722
_cell_length_c 7.834633
_cell_angle_alpha 69.993813
_cell_angle_beta 122.176238
_cell_angle_gamma 76.862088
_cell_volume 454.952518
_symmetry_space_group_name_H-M "P -1"
_symmetry_group_IT_number 2
_symmetry_cell_setting 'triclinic'
loop_
_space_group_symop_operation_xyz
x,y,z
-x,-y,-z
loop_
_atom_site_type_symbol
_atom_site_label
_atom_site_fract_x
_atom_site_fract_y
_atom_site_fract_z
Si Si1 0.118804 0.228935 0.240860
Si Si2 0.287477 0.452716 0.280410
Si Si3 0.256319 0.440779 0.902337
Si Si4 0.629074 0.250069 0.803391
Si Si5 0.410608 0.872182 0.711620
Si Si6 0.929183 0.715989 0.430823
Si Si7 0.106581 0.030552 0.813275
O O1 0.213855 0.337800 0.258885
O O2 0.349116 0.130371 0.272708
O O3 0.097977 0.206206 0.443655
O O4 0.850173 0.253083 0.019099
O O5 0.548474 0.365481 0.559653
O O6 0.024731 0.555692 0.207598
O O7 0.305874 0.497675 0.074645
O O8 0.168721 0.561852 0.659049
O O9 0.488898 0.285013 0.107483
O O10 0.333459 0.294030 0.705858
O O11 0.767845 0.088812 0.920225
O O12 0.167247 0.932842 0.430150
O O13 0.321201 0.951096 0.805277
O O14 0.925971 0.823935 0.240615
#
# Coordination Sequence:
#
# PCOD9102246 Si02
#       7
#     2   2   2   2   2   2   2
#     4   9  18  37  63  88 115 151 199 249 291 340
#     4   8  17  36  62  92 117 146 197 255 298 342
#     4   8  16  38  63  85 116 152 201 249 289 344
#     4  10  20  38  62  89 121 156 193 244 303 355
#     4  10  21  38  62  89 118 161 203 241 295 353
#     4  10  22  41  63  89 120 156 197 246 298 354
#     4  11  23  37  56  87 129 162 191 238 299 361
#
# _framework density 30.772442000000002
#
# number of rings (size 3 to 8) (size 9 to 14) (size 15 to 20)
#    0.000    2.857    0.000    3.000    0.000    2.857 
#    0.000   44.286    0.000    0.000    0.000    0.000 
#    0.000    0.000    0.000    0.000    0.000    0.000 
#
# Total GULP energy -78255.899117 kJ/mol
# GULP energy per Si atom -5589.707080 kJ/mol
# Density = 3.070240 g / cm^3
# Si number density = 30.772442 Si / 1000 Ang^3
#
#
#
# Elastic Constant Matrix: (Units=GPa)
#
#
# Indices 1 2 3 4 5 6 
#
# 1 96.6553 44.4855 57.2826 -7.8378 37.8887 11.1577
# 2 44.4855 120.2393 30.6340 -56.0362 -7.5681 10.8688
# 3 57.2826 30.6340 235.0283 -40.2128 1.8304 3.2952
# 4 -7.8378 -56.0362 -40.2128 78.4525 10.9019 -9.5598
# 5 37.8887 -7.5681 1.8304 10.9019 66.6658 -10.0583
# 6 11.1577 10.8688 3.2952 -9.5598 -10.0583 51.6201
#
#
#
# Elastic Compliance Matrix: (Units=1/GPa)
#
#
# Indices 1 2 3 4 5 6 
#
# 1 0.025448 -0.011802 -0.005734 -0.007536 -0.015478 -0.007061
# 2 -0.011802 0.017996 0.002546 0.012278 0.007011 0.002239
# 3 -0.005734 0.002546 0.005975 0.004099 0.002964 0.001658
# 4 -0.007536 0.012278 0.004099 0.022965 0.002335 0.003490
# 5 -0.015478 0.007011 0.002964 0.002335 0.025189 0.007021
# 6 -0.007061 0.002239 0.001658 0.003490 0.007021 0.022336
#
#
# Mechanical properties :
#
#
# Convention : Reuss Voigt Hill
#
# Bulk Modulus (GPa) = 51.44584 79.63635 65.54110
# Shear Modulus (GPa) = 31.97585 60.64908 46.31246
#
# Velocity S-wave (km/s) = 3.22701 4.44429 3.88364
# Velocity P-wave (km/s) = 5.53528 7.22986 6.43856
#
# Compressibility (1/GPa) = 0.01943792
#
# Stress axis : x y z
#
# Youngs Moduli (GPa) = 39.29655 55.56913 167.35292
#
# Poissons Ratio (x) = 0.65584 0.95957
# Poissons Ratio (y) = 0.46379 -0.42603
# Poissons Ratio (z) = 0.22532 -0.14146
#
# Static dielectric constant tensor:
#      x y z
#    x 2.639580 -0.078410 -0.202600 
#    y -0.078410 2.497920 -0.045990 
#    z -0.202600 -0.045990 2.503980 
# 
# From -- ./inp_files/201587.got.cif
#   From: 2010.05.17/outbox.cif.g08.bks.cpg/sg2_101_cif.got.tgz:201587.got - 2010.06.03 11:33:40.
