data_PCOD9102339
_publ_section_title
;
Structure prediction by ZEFSAII (Michael W. Deem and Ramdas Pophale) SiO2 
 PCOD9102339
Probable space group: P -1
;
_chemical_formula_sum "Si O2"
_cell_formula_units_Z 16
_cell_length_a 12.464848
_cell_length_b 9.685976
_cell_length_c 8.800842
_cell_angle_alpha 114.362212
_cell_angle_beta 112.852543
_cell_angle_gamma 104.790836
_cell_volume 775.050207
_symmetry_space_group_name_H-M "P -1"
_symmetry_group_IT_number 2
_symmetry_cell_setting 'triclinic'
loop_
_space_group_symop_operation_xyz
x,y,z
-x,-y,-z
loop_
_atom_site_type_symbol
_atom_site_label
_atom_site_fract_x
_atom_site_fract_y
_atom_site_fract_z
Si Si1 0.364207 0.970427 0.837417
Si Si2 0.144295 0.397994 0.981296
Si Si3 0.932259 0.813883 0.464945
Si Si4 0.102691 0.699571 0.688745
Si Si5 0.387349 0.035384 0.519454
Si Si6 0.635595 0.645751 0.305106
Si Si7 0.621352 0.674866 0.945812
Si Si8 0.135966 0.744303 0.085645
O O1 0.246711 0.778455 0.725836
O O2 0.370385 0.992042 0.669351
O O3 0.500000 0.000000 0.000000
O O4 0.340077 0.124812 0.960476
O O5 0.106132 0.327688 0.755355
O O6 0.008125 0.291170 0.952419
O O7 0.269072 0.370830 0.083386
O O8 0.169594 0.594205 0.090796
O O9 0.796209 0.749766 0.458095
O O10 0.039838 0.809739 0.632306
O O11 0.000000 0.000000 0.500000
O O12 0.000000 0.500000 0.500000
O O13 0.128909 0.732266 0.895590
O O14 0.251200 0.920094 0.300727
O O15 0.500000 0.000000 0.500000
O O16 0.424327 0.234695 0.616667
O O17 0.536081 0.456520 0.234545
O O18 0.627330 0.643225 0.115633
#
# Coordination Sequence:
#
# PCOD9102339 Si02
#       8
#     2   2   2   2   2   2   2   2
#     4  11  25  42  67  95 134 175 222 276 328 392
#     4  10  20  38  62  92 124 173 217 271 328 388
#     4  11  21  40  66  92 129 173 223 268 325 399
#     4  12  25  42  65  99 132 172 225 274 326 396
#     4  11  22  40  65  97 131 170 219 270 338 392
#     4   9  19  35  63  90 120 170 217 261 315 397
#     4   9  19  38  62  90 124 169 222 264 319 395
#     4  11  23  38  64  95 134 167 218 278 334 392
#
# _framework density 20.643823000000001
#
# number of rings (size 3 to 8) (size 9 to 14) (size 15 to 20)
#    0.000    1.500    1.250    5.250    3.500    2.000 
#    0.000    6.875    0.000    4.500    0.000    0.000 
#    0.000    0.000    0.000    0.000    0.000    0.000 
#
# Total GULP energy -89302.146180 kJ/mol
# GULP energy per Si atom -5581.384136 kJ/mol
# Density = 2.059684 g / cm^3
# Si number density = 20.643823 Si / 1000 Ang^3
#
#
#
# Elastic Constant Matrix: (Units=GPa)
#
#
# Indices 1 2 3 4 5 6 
#
# 1 118.0299 32.2782 21.1814 13.8160 9.9375 -0.1898
# 2 32.2782 68.7526 33.9307 13.0732 13.4120 6.7800
# 3 21.1814 33.9307 81.3267 4.4158 14.3537 9.4975
# 4 13.8160 13.0732 4.4158 33.3421 -0.8885 6.6935
# 5 9.9375 13.4120 14.3537 -0.8885 38.2924 3.1725
# 6 -0.1898 6.7800 9.4975 6.6935 3.1725 20.4068
#
#
#
# Elastic Compliance Matrix: (Units=1/GPa)
#
#
# Indices 1 2 3 4 5 6 
#
# 1 0.010167 -0.003675 -0.001071 -0.003285 -0.001282 0.003091
# 2 -0.003675 0.021740 -0.006899 -0.005901 -0.004090 -0.001475
# 3 -0.001071 -0.006899 0.016526 0.002005 -0.002990 -0.005602
# 4 -0.003285 -0.005901 0.002005 0.035785 0.003939 -0.011353
# 5 -0.001282 -0.004090 -0.002990 0.003939 0.029350 -0.003116
# 6 0.003091 -0.001475 -0.005602 -0.011353 -0.003116 0.056338
#
#
# Mechanical properties :
#
#
# Convention : Reuss Voigt Hill
#
# Bulk Modulus (GPa) = 39.77038 49.20998 44.49018
# Shear Modulus (GPa) = 24.80434 30.45618 27.63026
#
# Velocity S-wave (km/s) = 3.47008 3.84515 3.66242
# Velocity P-wave (km/s) = 5.94661 6.60325 6.28351
#
# Compressibility (1/GPa) = 0.02514434
#
# Stress axis : x y z
#
# Youngs Moduli (GPa) = 98.35717 45.99819 60.50926
#
# Poissons Ratio (x) = 0.16903 0.06481
# Poissons Ratio (y) = 0.36143 0.41744
# Poissons Ratio (z) = 0.10535 0.31733
#
# Static dielectric constant tensor:
#      x y z
#    x 1.774960 0.007350 0.014970 
#    y 0.007350 1.751970 0.032890 
#    z 0.014970 0.032890 1.706990 
# 
# From -- ./inp_files/245153.got.cif
#   From: 2010.05.17/outbox.cif.g08.bks.cpg/sg2_123_cif.got.tgz:245153.got - 2010.06.03 11:33:40.
