data_PCOD9102222
_publ_section_title
;
Structure prediction by ZEFSAII (Michael W. Deem and Ramdas Pophale) SiO2 
 PCOD9102222
Probable space group: P -1
;
_chemical_formula_sum "Si O2"
_cell_formula_units_Z 14
_cell_length_a 11.210052
_cell_length_b 9.335928
_cell_length_c 11.693089
_cell_angle_alpha 132.839349
_cell_angle_beta 130.542417
_cell_angle_gamma 39.096170
_cell_volume 545.725283
_symmetry_space_group_name_H-M "P -1"
_symmetry_group_IT_number 2
_symmetry_cell_setting 'triclinic'
loop_
_space_group_symop_operation_xyz
x,y,z
-x,-y,-z
loop_
_atom_site_type_symbol
_atom_site_label
_atom_site_fract_x
_atom_site_fract_y
_atom_site_fract_z
Si Si1 0.260620 0.313808 0.140687
Si Si2 0.383832 0.390373 0.021136
Si Si3 0.028574 0.194671 0.662221
Si Si4 0.570268 0.218270 0.659641
Si Si5 0.906557 0.385916 0.444497
Si Si6 0.439678 0.057849 0.690179
Si Si7 0.171410 0.979827 0.859145
O O1 0.332455 0.299693 0.050000
O O2 0.143856 0.592110 0.252814
O O3 0.435701 0.144834 0.245704
O O4 0.117305 0.230059 0.017104
O O5 0.334949 0.649249 0.166865
O O6 0.619296 0.221131 0.064369
O O7 0.325094 0.315415 0.829114
O O8 0.995471 0.330984 0.597255
O O9 0.000000 0.000000 0.500000
O O10 0.199828 0.028034 0.770839
O O11 0.333865 0.422950 0.598549
O O12 0.650657 0.044969 0.503421
O O13 0.575203 0.070350 0.690552
O O14 0.940817 0.142650 0.279536
O O15 0.000000 0.500000 0.500000
#
# Coordination Sequence:
#
# PCOD9102222 Si02
#       7
#     2   2   2   2   2   2   2
#     4  11  21  40  63  92 123 155 206 253 308 363
#     4  10  22  39  64  96 123 153 206 255 302 373
#     4  10  21  41  59  85 123 161 199 257 299 360
#     4  10  21  40  60  89 128 161 196 253 310 355
#     4  10  21  39  59  84 120 163 207 242 295 370
#     4  10  20  38  62  88 127 159 194 254 311 355
#     4   9  20  39  61  86 122 159 191 253 308 349
#
# _framework density 25.653932999999999
#
# number of rings (size 3 to 8) (size 9 to 14) (size 15 to 20)
#    0.000    2.000    1.429    2.571    0.000    2.857 
#   15.429    0.714    0.000    0.000    0.000    0.000 
#    0.000    0.000    0.000    0.000    0.000    0.000 
#
# Total GULP energy -78058.569253 kJ/mol
# GULP energy per Si atom -5575.612090 kJ/mol
# Density = 2.559554 g / cm^3
# Si number density = 25.653933 Si / 1000 Ang^3
#
#
#
# Elastic Constant Matrix: (Units=GPa)
#
#
# Indices 1 2 3 4 5 6 
#
# 1 75.0296 23.2212 57.8729 6.4454 -3.6847 13.4149
# 2 23.2212 53.2855 30.2761 26.0244 0.4290 15.5814
# 3 57.8729 30.2761 202.6124 44.7572 -5.2316 -2.7078
# 4 6.4454 26.0244 44.7572 47.6992 4.1547 -7.9579
# 5 -3.6847 0.4290 -5.2316 4.1547 52.1201 0.8767
# 6 13.4149 15.5814 -2.7078 -7.9579 0.8767 34.9606
#
#
#
# Elastic Compliance Matrix: (Units=1/GPa)
#
#
# Indices 1 2 3 4 5 6 
#
# 1 0.020576 -0.007650 -0.006233 0.006626 0.000422 -0.003471
# 2 -0.007650 0.039750 0.001726 -0.025855 0.001712 -0.020575
# 3 -0.006233 0.001726 0.008217 -0.007819 0.000986 0.000454
# 4 0.006626 -0.025855 -0.007819 0.044984 -0.004004 0.018715
# 5 0.000422 0.001712 0.000986 -0.004004 0.019658 -0.002253
# 6 -0.003471 -0.020575 0.000454 0.018715 -0.002253 0.043457
#
#
# Mechanical properties :
#
#
# Convention : Reuss Voigt Hill
#
# Bulk Modulus (GPa) = 22.61001 61.51866 42.06433
# Shear Modulus (GPa) = 23.18051 41.59313 32.38682
#
# Velocity S-wave (km/s) = 3.00923 4.03092 3.55695
# Velocity P-wave (km/s) = 4.57237 6.75994 5.77076
#
# Compressibility (1/GPa) = 0.04422820
#
# Stress axis : x y z
#
# Youngs Moduli (GPa) = 48.60125 25.15730 121.70018
#
# Poissons Ratio (x) = 0.19244 0.75859
# Poissons Ratio (y) = 0.37178 -0.21003
# Poissons Ratio (z) = 0.30294 -0.04342
#
# Static dielectric constant tensor:
#      x y z
#    x 2.057450 -0.049970 0.026940 
#    y -0.049970 2.150530 0.022220 
#    z 0.026940 0.022220 2.104030 
# 
# From -- ./inp_files/179020.got.cif
#   From: 2010.05.17/outbox.cif.g08.bks.cpg/sg2_90_cif.got.tgz:179020.got - 2010.06.03 11:33:40.
