data_PCOD9102778
_publ_section_title
;
Structure prediction by ZEFSAII (Michael W. Deem and Ramdas Pophale) SiO2 
 PCOD9102778
Probable space group: P -1
;
_chemical_formula_sum "Si O2"
_cell_formula_units_Z 16
_cell_length_a 9.279101
_cell_length_b 9.640467
_cell_length_c 12.106918
_cell_angle_alpha 91.588037
_cell_angle_beta 81.744219
_cell_angle_gamma 46.627235
_cell_volume 766.985766
_symmetry_space_group_name_H-M "P -1"
_symmetry_group_IT_number 2
_symmetry_cell_setting 'triclinic'
loop_
_space_group_symop_operation_xyz
x,y,z
-x,-y,-z
loop_
_atom_site_type_symbol
_atom_site_label
_atom_site_fract_x
_atom_site_fract_y
_atom_site_fract_z
Si Si1 0.363878 0.510631 0.301896
Si Si2 0.438345 0.393262 0.052750
Si Si3 0.546120 0.045832 0.109829
Si Si4 0.700869 0.906195 0.678667
Si Si5 0.804332 0.622136 0.100677
Si Si6 0.591034 0.648621 0.310436
Si Si7 0.481616 0.823395 0.563914
Si Si8 0.038400 0.137177 0.518767
O O1 0.313413 0.510750 0.180257
O O2 0.504888 0.553380 0.296725
O O3 0.487129 0.306810 0.344196
O O4 0.155705 0.673140 0.394333
O O5 0.593782 0.173875 0.080891
O O6 0.500000 0.500000 0.000000
O O7 0.339297 0.375463 0.962658
O O8 0.343757 0.155326 0.209210
O O9 0.724322 0.832355 0.135732
O O10 0.500000 0.000000 0.000000
O O11 0.578466 0.131197 0.714154
O O12 0.246230 0.003658 0.563968
O O13 0.912909 0.812415 0.599503
O O14 0.794095 0.550649 0.217827
O O15 0.000000 0.500000 0.000000
O O16 0.589654 0.686809 0.440625
O O17 0.587825 0.891778 0.596511
O O18 0.000000 0.000000 0.500000
#
# Coordination Sequence:
#
# PCOD9102778 Si02
#       8
#     2   2   2   2   2   2   2   2
#     4  12  23  41  66  97 128 170 218 263 325 386
#     4  11  22  42  66  89 125 170 216 263 321 384
#     4   9  20  40  64  86 124 171 206 254 325 378
#     4  10  20  40  63  91 128 166 210 267 322 373
#     4  10  22  41  66  93 125 165 218 265 318 384
#     4  10  20  38  64  86 129 174 197 260 336 370
#     4  11  23  41  65  93 132 165 214 270 322 377
#     4  11  23  39  64  96 130 172 215 255 325 391
#
# _framework density 20.860882
#
# number of rings (size 3 to 8) (size 9 to 14) (size 15 to 20)
#    0.000    1.500    5.000    1.875    0.000    3.500 
#    4.500    1.875    0.000    0.000    0.000    0.000 
#    0.000    0.000    0.000    0.000    0.000    0.000 
#
# Total GULP energy -89158.307326 kJ/mol
# GULP energy per Si atom -5572.394208 kJ/mol
# Density = 2.081340 g / cm^3
# Si number density = 20.860882 Si / 1000 Ang^3
#
#
#
# Elastic Constant Matrix: (Units=GPa)
#
#
# Indices 1 2 3 4 5 6 
#
# 1 62.5723 34.2022 19.4090 -5.7483 -17.2901 22.6617
# 2 34.2022 96.1228 15.4597 -15.0120 -25.1239 28.9320
# 3 19.4090 15.4597 135.3896 -5.8820 -19.5880 -0.2088
# 4 -5.7483 -15.0120 -5.8820 34.4397 5.6107 -7.1124
# 5 -17.2901 -25.1239 -19.5880 5.6107 41.2572 1.3922
# 6 22.6617 28.9320 -0.2088 -7.1124 1.3922 32.9775
#
#
#
# Elastic Compliance Matrix: (Units=1/GPa)
#
#
# Indices 1 2 3 4 5 6 
#
# 1 0.026515 -0.001346 -0.002302 -0.001887 0.010060 -0.017886
# 2 -0.001346 0.018915 -0.000278 0.002992 0.010938 -0.015487
# 3 -0.002302 -0.000278 0.008158 0.000876 0.002554 0.001959
# 4 -0.001887 0.002992 0.000876 0.031848 -0.003075 0.005676
# 5 0.010060 0.010938 0.002554 -0.003075 0.037378 -0.018734
# 6 -0.017886 -0.015487 0.001959 0.005676 -0.018734 0.058230
#
#
# Mechanical properties :
#
#
# Convention : Reuss Voigt Hill
#
# Bulk Modulus (GPa) = 21.86439 48.02517 34.94478
# Shear Modulus (GPa) = 24.49271 36.73580 30.61426
#
# Velocity S-wave (km/s) = 3.43023 4.20097 3.83501
# Velocity P-wave (km/s) = 5.11785 6.82660 6.03303
#
# Compressibility (1/GPa) = 0.04573647
#
# Stress axis : x y z
#
# Youngs Moduli (GPa) = 37.71382 52.86843 122.57250
#
# Poissons Ratio (x) = 0.07118 0.28211
# Poissons Ratio (y) = 0.05078 0.03411
# Poissons Ratio (z) = 0.08680 0.01471
#
# Static dielectric constant tensor:
#      x y z
#    x 1.741260 -0.013900 -0.029720 
#    y -0.013900 1.781020 0.030600 
#    z -0.029720 0.030600 1.682250 
# 
# From -- ./inp_files/382234.got.cif
#   From: 2010.05.17/outbox.cif.g08.bks.cpg/sg2_192_cif.got.tgz:382234.got - 2010.06.03 11:33:40.
