data_PCOD9102865
_publ_section_title
;
Structure prediction by ZEFSAII (Michael W. Deem and Ramdas Pophale) SiO2 
 PCOD9102865
Probable space group: P -1
;
_chemical_formula_sum "Si O2"
_cell_formula_units_Z 16
_cell_length_a 10.514014
_cell_length_b 7.859175
_cell_length_c 10.542388
_cell_angle_alpha 126.730660
_cell_angle_beta 107.475334
_cell_angle_gamma 77.889633
_cell_volume 665.431324
_symmetry_space_group_name_H-M "P -1"
_symmetry_group_IT_number 2
_symmetry_cell_setting 'triclinic'
loop_
_space_group_symop_operation_xyz
x,y,z
-x,-y,-z
loop_
_atom_site_type_symbol
_atom_site_label
_atom_site_fract_x
_atom_site_fract_y
_atom_site_fract_z
Si Si1 0.931975 0.935341 0.084144
Si Si2 0.886189 0.507855 0.769657
Si Si3 0.848851 0.765672 0.327528
Si Si4 0.366766 0.902858 0.971800
Si Si5 0.092918 0.294340 0.404921
Si Si6 0.440731 0.975626 0.313807
Si Si7 0.393699 0.441543 0.838486
Si Si8 0.305460 0.846786 0.457117
O O1 0.776225 0.007133 0.077674
O O2 0.931273 0.679999 0.963030
O O3 0.013792 0.074580 0.270721
O O4 0.000000 0.000000 0.000000
O O5 0.855918 0.644333 0.691899
O O6 0.755338 0.376927 0.693279
O O7 0.006115 0.329339 0.706403
O O8 0.824261 0.709074 0.442790
O O9 0.741210 0.625838 0.163304
O O10 0.798273 0.012145 0.422088
O O11 0.370911 0.649096 0.839941
O O12 0.377305 0.948106 0.145733
O O13 0.500000 0.000000 0.000000
O O14 0.000000 0.500000 0.500000
O O15 0.538989 0.773606 0.290432
O O16 0.328285 0.958472 0.377710
O O17 0.548824 0.158349 0.434442
O O18 0.500000 0.500000 0.000000
#
# Coordination Sequence:
#
# PCOD9102865 Si02
#       8
#     2   2   2   2   2   2   2   2
#     4  10  22  39  61  90 132 164 202 266 325 375
#     4  10  21  37  62  90 128 160 214 266 310 382
#     4  10  20  38  64  91 117 171 210 260 323 381
#     4  11  23  38  65  91 121 166 218 259 315 392
#     4   9  19  36  61  88 123 163 202 261 319 370
#     4   9  22  40  61  86 126 169 206 264 322 379
#     4   9  19  39  61  83 123 162 201 252 323 378
#     4  10  21  39  62  89 125 164 216 264 320 377
#
# _framework density 24.044554999999999
#
# number of rings (size 3 to 8) (size 9 to 14) (size 15 to 20)
#    0.000    2.250    0.000    2.625    5.250    3.000 
#    0.000    2.500    0.000    0.000    0.000    0.000 
#    0.000    0.000    0.000    0.000    0.000    0.000 
#
# Total GULP energy -89216.565546 kJ/mol
# GULP energy per Si atom -5576.035347 kJ/mol
# Density = 2.398983 g / cm^3
# Si number density = 24.044555 Si / 1000 Ang^3
#
#
#
# Elastic Constant Matrix: (Units=GPa)
#
#
# Indices 1 2 3 4 5 6 
#
# 1 105.4760 24.3509 21.8645 18.5934 12.0588 5.2468
# 2 24.3509 44.3065 25.1939 14.8175 -1.5645 11.8337
# 3 21.8645 25.1939 110.9411 22.1552 28.0511 23.3711
# 4 18.5934 14.8175 22.1552 47.2902 8.5928 7.2914
# 5 12.0588 -1.5645 28.0511 8.5928 38.8463 8.3953
# 6 5.2468 11.8337 23.3711 7.2914 8.3953 25.1631
#
#
#
# Elastic Compliance Matrix: (Units=1/GPa)
#
#
# Indices 1 2 3 4 5 6 
#
# 1 0.011705 -0.006566 0.000121 -0.002260 -0.004034 0.002535
# 2 -0.006566 0.035092 -0.005947 -0.005921 0.011598 -0.011765
# 3 0.000121 -0.005947 0.014501 -0.002298 -0.008699 -0.007128
# 4 -0.002260 -0.005921 -0.002298 0.025723 -0.003364 -0.000941
# 5 -0.004034 0.011598 -0.008699 -0.003364 0.036133 -0.007614
# 6 0.002535 -0.011765 -0.007128 -0.000941 -0.007614 0.054178
#
#
# Mechanical properties :
#
#
# Convention : Reuss Voigt Hill
#
# Bulk Modulus (GPa) = 27.38613 44.83802 36.11207
# Shear Modulus (GPa) = 23.33328 34.88087 29.10708
#
# Velocity S-wave (km/s) = 3.11853 3.81291 3.48307
# Velocity P-wave (km/s) = 4.93776 6.17031 5.58812
#
# Compressibility (1/GPa) = 0.03651483
#
# Stress axis : x y z
#
# Youngs Moduli (GPa) = 85.43441 28.49639 68.96306
#
# Poissons Ratio (x) = 0.18710 -0.00837
# Poissons Ratio (y) = 0.56095 0.41011
# Poissons Ratio (z) = -0.01036 0.16946
#
# Static dielectric constant tensor:
#      x y z
#    x 2.093220 -0.041740 -0.074480 
#    y -0.041740 1.986240 0.014450 
#    z -0.074480 0.014450 2.045070 
# 
# From -- ./inp_files/383596.got.cif
#   From: 2010.05.17/outbox.cif.g08.bks.cpg/sg2_192_cif.got.tgz:383596.got - 2010.06.03 11:33:40.
