data_PCOD9102426
_publ_section_title
;
Structure prediction by ZEFSAII (Michael W. Deem and Ramdas Pophale) SiO2 
 PCOD9102426
Probable space group: P -1
;
_chemical_formula_sum "Si O2"
_cell_formula_units_Z 12
_cell_length_a 8.182349
_cell_length_b 18.343404
_cell_length_c 6.562233
_cell_angle_alpha 124.456832
_cell_angle_beta 85.634256
_cell_angle_gamma 131.346215
_cell_volume 534.590819
_symmetry_space_group_name_H-M "P -1"
_symmetry_group_IT_number 2
_symmetry_cell_setting 'triclinic'
loop_
_space_group_symop_operation_xyz
x,y,z
-x,-y,-z
loop_
_atom_site_type_symbol
_atom_site_label
_atom_site_fract_x
_atom_site_fract_y
_atom_site_fract_z
Si Si1 0.252143 0.405498 0.242273
Si Si2 0.031948 0.033351 0.284907
Si Si3 0.775292 0.223211 0.299614
Si Si4 0.696083 0.766975 0.119742
Si Si5 0.724799 0.393659 0.446652
Si Si6 0.349641 0.962159 0.656832
O O1 0.500000 0.500000 0.500000
O O2 0.279102 0.511379 0.297852
O O3 0.021486 0.312446 0.276414
O O4 0.255496 0.316484 0.974874
O O5 0.848837 0.040907 0.358545
O O6 0.291574 0.170139 0.575368
O O7 0.929981 0.903778 0.194464
O O8 0.000000 0.000000 0.000000
O O9 0.705832 0.298394 0.432334
O O10 0.779981 0.174352 0.437241
O O11 0.555068 0.086988 0.982958
O O12 0.468670 0.686621 0.853939
O O13 0.000000 0.500000 0.500000
O O14 0.500000 0.000000 0.500000
#
# Coordination Sequence:
#
# PCOD9102426 Si02
#       6
#     2   2   2   2   2   2
#     4   9  18  35  68  95 132 179 221 281 335 402
#     4  11  23  39  65  96 136 174 221 284 334 405
#     4  10  20  38  62  97 131 173 223 271 351 399
#     4  10  20  38  62  98 127 172 221 266 343 399
#     4   9  18  37  66  96 131 176 217 281 336 400
#     4  11  23  39  65  96 135 177 220 285 337 406
#
# _framework density 22.447074000000001
#
# number of rings (size 3 to 8) (size 9 to 14) (size 15 to 20)
#    0.000    2.000    1.667    2.000    0.000    4.000 
#    0.000    0.000    0.000   80.000    0.000    0.000 
#    0.000    0.000    0.000    0.000    0.000    0.000 
#
# Total GULP energy -66937.501101 kJ/mol
# GULP energy per Si atom -5578.125092 kJ/mol
# Density = 2.239598 g / cm^3
# Si number density = 22.447074 Si / 1000 Ang^3
#
#
#
# Elastic Constant Matrix: (Units=GPa)
#
#
# Indices 1 2 3 4 5 6 
#
# 1 91.3694 41.3346 27.5314 13.9827 2.1781 -18.1791
# 2 41.3346 98.6677 40.7875 11.7295 -6.7075 -21.1508
# 3 27.5314 40.7875 105.6372 20.1296 -0.6199 -9.8368
# 4 13.9827 11.7295 20.1296 39.8267 -3.8339 -4.4380
# 5 2.1781 -6.7075 -0.6199 -3.8339 31.8079 13.6372
# 6 -18.1791 -21.1508 -9.8368 -4.4380 13.6372 42.2036
#
#
#
# Elastic Compliance Matrix: (Units=1/GPa)
#
#
# Indices 1 2 3 4 5 6 
#
# 1 0.014981 -0.004705 -0.001033 -0.003235 -0.004568 0.004990
# 2 -0.004705 0.014743 -0.004091 -0.000029 0.001694 0.003858
# 3 -0.001033 -0.004091 0.012228 -0.004703 -0.001231 0.000258
# 4 -0.003235 -0.000029 -0.004703 0.028926 0.003923 -0.000730
# 5 -0.004568 0.001694 -0.001231 0.003923 0.038288 -0.013365
# 6 0.004990 0.003858 0.000258 -0.000730 -0.013365 0.032079
#
#
# Mechanical properties :
#
#
# Convention : Reuss Voigt Hill
#
# Bulk Modulus (GPa) = 44.85747 57.22012 51.03880
# Shear Modulus (GPa) = 29.70233 35.16902 32.43567
#
# Velocity S-wave (km/s) = 3.64155 3.96252 3.80542
# Velocity P-wave (km/s) = 6.14070 6.81776 6.48807
#
# Compressibility (1/GPa) = 0.02229283
#
# Stress axis : x y z
#
# Youngs Moduli (GPa) = 66.74967 67.82839 81.77743
#
# Poissons Ratio (x) = 0.31914 0.08451
# Poissons Ratio (y) = 0.31406 0.33459
# Poissons Ratio (z) = 0.06898 0.27752
#
# Static dielectric constant tensor:
#      x y z
#    x 1.869530 -0.008650 -0.010640 
#    y -0.008650 1.900370 -0.014620 
#    z -0.010640 -0.014620 1.887870 
# 
# From -- ./inp_files/45787.got.cif
#   From: 2010.05.17/outbox.cif.g08.bks.cpg/sg2_23_cif.got.tgz:45787.got - 2010.06.03 11:33:40.
