data_PCOD9102334
_publ_section_title
;
Structure prediction by ZEFSAII (Michael W. Deem and Ramdas Pophale) SiO2 
 PCOD9102334
Probable space group: P -1
;
_chemical_formula_sum "Si O2"
_cell_formula_units_Z 14
_cell_length_a 9.271272
_cell_length_b 11.174193
_cell_length_c 14.442198
_cell_angle_alpha 148.288978
_cell_angle_beta 69.450126
_cell_angle_gamma 112.455499
_cell_volume 725.774029
_symmetry_space_group_name_H-M "P -1"
_symmetry_group_IT_number 2
_symmetry_cell_setting 'triclinic'
loop_
_space_group_symop_operation_xyz
x,y,z
-x,-y,-z
loop_
_atom_site_type_symbol
_atom_site_label
_atom_site_fract_x
_atom_site_fract_y
_atom_site_fract_z
Si Si1 0.520587 0.992682 0.237230
Si Si2 0.165791 0.121912 0.820356
Si Si3 0.403468 0.491859 0.920604
Si Si4 0.530727 0.370864 0.619262
Si Si5 0.898274 0.401262 0.547282
Si Si6 0.958972 0.216579 0.093000
Si Si7 0.407467 0.785985 0.823023
O O1 0.476416 0.116430 0.421571
O O2 0.541906 0.174739 0.269186
O O3 0.690770 0.923376 0.174245
O O4 0.403239 0.762975 0.082780
O O5 0.243199 0.318918 0.861773
O O6 0.103478 0.872777 0.625966
O O7 0.035964 0.202485 0.966550
O O8 0.492078 0.396095 0.752283
O O9 0.500000 0.500000 0.000000
O O10 0.716832 0.428561 0.597635
O O11 0.447895 0.553061 0.703035
O O12 0.000000 0.500000 0.500000
O O13 0.967875 0.550769 0.717088
O O14 0.774738 0.204084 0.122241
O O15 0.000000 0.000000 0.000000
O O16 0.500000 0.000000 0.000000
#
# Coordination Sequence:
#
# PCOD9102334 Si02
#       7
#     2   2   2   2   2   2   2
#     4  10  20  38  62  92 122 157 205 251 303 359
#     4  10  22  37  62  91 117 157 208 250 297 358
#     4  10  21  38  61  90 124 163 207 250 298 359
#     4  11  23  39  62  93 127 159 204 254 306 363
#     4  11  21  36  62  90 121 154 201 255 303 354
#     4  12  21  39  62  87 124 154 199 255 305 360
#     4  12  23  39  64  93 123 162 199 254 316 361
#
# _framework density 19.289752
#
# number of rings (size 3 to 8) (size 9 to 14) (size 15 to 20)
#    0.000    1.143    4.286    3.857    0.000    6.286 
#    0.000    0.714    0.000    1.714    0.000    0.000 
#    0.000    0.000    0.000    0.000    0.000    0.000 
#
# Total GULP energy -78197.612953 kJ/mol
# GULP energy per Si atom -5585.543782 kJ/mol
# Density = 1.924585 g / cm^3
# Si number density = 19.289752 Si / 1000 Ang^3
#
#
#
# Elastic Constant Matrix: (Units=GPa)
#
#
# Indices 1 2 3 4 5 6 
#
# 1 72.2870 28.3011 48.8629 1.7427 -3.0543 15.6089
# 2 28.3011 119.0212 64.3959 -12.5615 -8.1807 20.9899
# 3 48.8629 64.3959 163.3808 -8.2226 11.0719 26.5240
# 4 1.7427 -12.5615 -8.2226 34.4503 6.9131 10.2824
# 5 -3.0543 -8.1807 11.0719 6.9131 26.7989 1.7253
# 6 15.6089 20.9899 26.5240 10.2824 1.7253 27.3770
#
#
#
# Elastic Compliance Matrix: (Units=1/GPa)
#
#
# Indices 1 2 3 4 5 6 
#
# 1 0.018780 -0.000819 -0.004915 -0.001908 0.004729 -0.004899
# 2 -0.000819 0.012831 -0.003478 0.005502 0.004378 -0.008344
# 3 -0.004915 -0.003478 0.010679 0.004767 -0.006862 -0.006235
# 4 -0.001908 0.005502 0.004767 0.040916 -0.009613 -0.022510
# 5 0.004729 0.004378 -0.006862 -0.009613 0.044415 0.001407
# 6 -0.004899 -0.008344 -0.006235 -0.022510 0.001407 0.060124
#
#
# Mechanical properties :
#
#
# Convention : Reuss Voigt Hill
#
# Bulk Modulus (GPa) = 41.89910 70.86765 56.38338
# Shear Modulus (GPa) = 23.35100 31.93387 27.64243
#
# Velocity S-wave (km/s) = 3.48305 4.07318 3.78962
# Velocity P-wave (km/s) = 6.15984 7.67719 6.95999
#
# Compressibility (1/GPa) = 0.02386686
#
# Stress axis : x y z
#
# Youngs Moduli (GPa) = 53.24694 77.93501 93.64485
#
# Poissons Ratio (x) = 0.06380 0.46029
# Poissons Ratio (y) = 0.04359 0.32568
# Poissons Ratio (z) = 0.26172 0.27104
#
# Static dielectric constant tensor:
#      x y z
#    x 1.616750 -0.026410 0.008950 
#    y -0.026410 1.697980 0.015440 
#    z 0.008950 0.015440 1.681540 
# 
# From -- ./inp_files/248023.got.cif
#   From: 2010.05.17/outbox.cif.g08.bks.cpg/sg2_125_cif.got.tgz:248023.got - 2010.06.03 11:33:40.
