data_PCOD9102320
_publ_section_title
;
Structure prediction by ZEFSAII (Michael W. Deem and Ramdas Pophale) SiO2 
 PCOD9102320
Probable space group: P -1
;
_chemical_formula_sum "Si O2"
_cell_formula_units_Z 16
_cell_length_a 13.789089
_cell_length_b 14.232541
_cell_length_c 13.086459
_cell_angle_alpha 44.713912
_cell_angle_beta 145.694081
_cell_angle_gamma 149.636251
_cell_volume 731.676088
_symmetry_space_group_name_H-M "P -1"
_symmetry_group_IT_number 2
_symmetry_cell_setting 'triclinic'
loop_
_space_group_symop_operation_xyz
x,y,z
-x,-y,-z
loop_
_atom_site_type_symbol
_atom_site_label
_atom_site_fract_x
_atom_site_fract_y
_atom_site_fract_z
Si Si1 0.786687 0.874354 0.718643
Si Si2 0.360649 0.823480 0.440749
Si Si3 0.293601 0.504239 0.379791
Si Si4 0.769752 0.750076 0.102145
Si Si5 0.284095 0.586544 0.735089
Si Si6 0.824026 0.827153 0.556775
Si Si7 0.540286 0.478814 0.798661
Si Si8 0.963406 0.541168 0.174967
O O1 0.567260 0.858023 0.532665
O O2 0.882022 0.895729 0.671156
O O3 0.678188 0.677851 0.815970
O O4 0.982250 0.042128 0.832151
O O5 0.240148 0.654024 0.546597
O O6 0.158405 0.746874 0.239154
O O7 0.500000 0.000000 0.500000
O O8 0.535902 0.699833 0.391927
O O9 0.162079 0.325143 0.332330
O O10 0.405973 0.470747 0.592693
O O11 0.114943 0.512653 0.268828
O O12 0.796293 0.611215 0.196117
O O13 0.654310 0.677812 0.170669
O O14 0.571000 0.726602 0.887442
O O15 0.183287 0.588831 0.752229
O O16 0.000000 0.000000 0.500000
O O17 0.756651 0.492357 0.962206
#
# Coordination Sequence:
#
# PCOD9102320 Si02
#       8
#     2   2   2   2   2   2   2   2
#     4  11  22  40  64  90 125 164 206 261 311 371
#     4  12  24  37  57  94 128 167 209 253 309 368
#     4  10  21  43  65  91 127 156 209 262 309 383
#     4  10  20  38  62  91 127 169 212 255 299 370
#     4  10  22  38  59  92 129 171 210 250 309 364
#     4  10  21  39  68  93 116 165 207 256 326 371
#     4  10  21  40  65  91 128 165 207 253 316 369
#     4  11  22  41  64  91 128 168 206 257 312 368
#
# _framework density 21.867598000000001
#
# number of rings (size 3 to 8) (size 9 to 14) (size 15 to 20)
#    0.000    1.500    3.750    1.875    1.750    2.500 
#    0.000    5.625    0.000    6.750    0.000    0.000 
#    0.000    0.000    0.000    0.000    0.000    0.000 
#
# Total GULP energy -89321.338585 kJ/mol
# GULP energy per Si atom -5582.583662 kJ/mol
# Density = 2.181783 g / cm^3
# Si number density = 21.867598 Si / 1000 Ang^3
#
#
#
# Elastic Constant Matrix: (Units=GPa)
#
#
# Indices 1 2 3 4 5 6 
#
# 1 133.4402 29.0230 22.4720 1.4419 28.2771 7.4773
# 2 29.0230 80.8004 -3.8289 9.8018 1.9732 0.8093
# 3 22.4720 -3.8289 71.4733 4.5604 16.3196 2.6802
# 4 1.4419 9.8018 4.5604 16.5526 5.7668 -0.5443
# 5 28.2771 1.9732 16.3196 5.7668 36.9892 -6.2774
# 6 7.4773 0.8093 2.6802 -0.5443 -6.2774 27.7770
#
#
#
# Elastic Compliance Matrix: (Units=1/GPa)
#
#
# Indices 1 2 3 4 5 6 
#
# 1 0.010787 -0.004306 -0.001769 0.005009 -0.008779 -0.004493
# 2 -0.004306 0.015175 0.002011 -0.010309 0.003387 0.001087
# 3 -0.001769 0.002011 0.016309 -0.003585 -0.005823 -0.002542
# 4 0.005009 -0.010309 -0.003585 0.071611 -0.013251 -0.002293
# 5 -0.008779 0.003387 -0.005823 -0.013251 0.040178 0.011647
# 6 -0.004493 0.001087 -0.002542 -0.002293 0.011647 0.040011
#
#
# Mechanical properties :
#
#
# Convention : Reuss Voigt Hill
#
# Bulk Modulus (GPa) = 29.28968 42.33844 35.81406
# Shear Modulus (GPa) = 23.41043 32.13361 27.77202
#
# Velocity S-wave (km/s) = 3.27548 3.83752 3.56758
# Velocity P-wave (km/s) = 5.26576 6.24809 5.77784
#
# Compressibility (1/GPa) = 0.03414172
#
# Stress axis : x y z
#
# Youngs Moduli (GPa) = 92.70773 65.89650 61.31698
#
# Poissons Ratio (x) = 0.28378 0.10844
# Poissons Ratio (y) = 0.39924 -0.12328
# Poissons Ratio (z) = 0.16396 -0.13249
#
# Static dielectric constant tensor:
#      x y z
#    x 1.845310 -0.008080 -0.000010 
#    y -0.008080 1.818480 0.023700 
#    z -0.000010 0.023700 1.817270 
# 
# From -- ./inp_files/399097.got.cif
#   From: 2010.05.17/outbox.cif.g08.bks.cpg/sg2_200_cif.got.tgz:399097.got - 2010.06.03 11:33:40.
