data_PCOD9102992
_publ_section_title
;
Structure prediction by ZEFSAII (Michael W. Deem and Ramdas Pophale) SiO2 
 PCOD9102992
Probable space group: P -1
;
_chemical_formula_sum "Si O2"
_cell_formula_units_Z 16
_cell_length_a 8.558350
_cell_length_b 11.869801
_cell_length_c 13.195786
_cell_angle_alpha 129.311640
_cell_angle_beta 56.669586
_cell_angle_gamma 129.873302
_cell_volume 772.456640
_symmetry_space_group_name_H-M "P -1"
_symmetry_group_IT_number 2
_symmetry_cell_setting 'triclinic'
loop_
_space_group_symop_operation_xyz
x,y,z
-x,-y,-z
loop_
_atom_site_type_symbol
_atom_site_label
_atom_site_fract_x
_atom_site_fract_y
_atom_site_fract_z
Si Si1 0.923407 0.043254 0.655931
Si Si2 0.334138 0.340532 0.680818
Si Si3 0.036826 0.453032 0.571329
Si Si4 0.731431 0.249280 0.203083
Si Si5 0.419185 0.817285 0.379942
Si Si6 0.521447 0.102501 0.820684
Si Si7 0.320359 0.295105 0.416175
Si Si8 0.236133 0.621388 0.947860
O O1 0.717981 0.062193 0.715330
O O2 0.107461 0.205821 0.724327
O O3 0.855652 0.883714 0.656162
O O4 0.000000 0.000000 0.500000
O O5 0.497547 0.285739 0.639252
O O6 0.325713 0.321582 0.551178
O O7 0.344855 0.510919 0.807301
O O8 0.088800 0.605598 0.714352
O O9 0.238420 0.418014 0.473445
O O10 0.000000 0.500000 0.500000
O O11 0.833869 0.291735 0.591535
O O12 0.532671 0.288403 0.308555
O O13 0.782404 0.273444 0.079941
O O14 0.661985 0.067024 0.166782
O O15 0.510891 0.842827 0.247979
O O16 0.500000 0.000000 0.500000
O O17 0.612184 0.253484 0.951649
O O18 0.000000 0.500000 0.000000
#
# Coordination Sequence:
#
# PCOD9102992 Si02
#       8
#     2   2   2   2   2   2   2   2
#     4   9  17  34  62  91 119 159 211 266 312 371
#     4  11  21  38  67  96 130 170 216 262 327 381
#     4  12  23  36  62 100 134 162 205 271 339 379
#     4  11  24  42  68  92 130 172 221 267 322 380
#     4  12  24  41  66  99 136 167 209 273 333 383
#     4  11  23  42  63  94 128 172 218 266 322 380
#     4  10  20  38  64  95 127 163 218 271 322 379
#     4  12  24  42  68  92 129 175 224 264 312 392
#
# _framework density 20.713139000000002
#
# number of rings (size 3 to 8) (size 9 to 14) (size 15 to 20)
#    0.000    1.000    2.500    7.500    1.750    0.500 
#    0.000    0.000    0.000    1.500    0.000    0.000 
#    0.000    0.000    0.000    0.000    0.000    0.000 
#
# Total GULP energy -89332.094651 kJ/mol
# GULP energy per Si atom -5583.255916 kJ/mol
# Density = 2.066599 g / cm^3
# Si number density = 20.713139 Si / 1000 Ang^3
#
#
#
# Elastic Constant Matrix: (Units=GPa)
#
#
# Indices 1 2 3 4 5 6 
#
# 1 67.4470 26.4100 14.4328 -1.2265 13.3224 -16.1825
# 2 26.4100 143.8747 43.5059 11.3932 22.0671 6.4823
# 3 14.4328 43.5059 93.7111 10.2389 25.5947 -9.2787
# 4 -1.2265 11.3932 10.2389 37.9314 0.1316 6.3375
# 5 13.3224 22.0671 25.5947 0.1316 39.9926 -0.2481
# 6 -16.1825 6.4823 -9.2787 6.3375 -0.2481 38.1855
#
#
#
# Elastic Compliance Matrix: (Units=1/GPa)
#
#
# Indices 1 2 3 4 5 6 
#
# 1 0.019077 -0.003398 0.000887 -0.000064 -0.004992 0.008855
# 2 -0.003398 0.009155 -0.003476 -0.001309 -0.001714 -0.003633
# 3 0.000887 -0.003476 0.015322 -0.003918 -0.008138 0.005286
# 4 -0.000064 -0.001309 -0.003918 0.028721 0.003122 -0.005503
# 5 -0.004992 -0.001714 -0.008138 0.003122 0.032786 -0.004107
# 6 0.008855 -0.003633 0.005286 -0.005503 -0.004107 0.032729
#
#
# Mechanical properties :
#
#
# Convention : Reuss Voigt Hill
#
# Bulk Modulus (GPa) = 31.66530 52.63670 42.15100
# Shear Modulus (GPa) = 31.19335 37.93417 34.56376
#
# Velocity S-wave (km/s) = 3.88489 4.28414 4.08939
# Velocity P-wave (km/s) = 5.95348 7.06676 6.53388
#
# Compressibility (1/GPa) = 0.03158031
#
# Stress axis : x y z
#
# Youngs Moduli (GPa) = 52.41969 109.22485 65.26395
#
# Poissons Ratio (x) = 0.37116 -0.05787
# Poissons Ratio (y) = 0.17813 0.22684
# Poissons Ratio (z) = -0.04648 0.37964
#
# Static dielectric constant tensor:
#      x y z
#    x 1.776590 0.045570 -0.005410 
#    y 0.045570 1.863650 -0.005770 
#    z -0.005410 -0.005770 1.730870 
# 
# From -- ./inp_files/393028.got.cif
#   From: 2010.05.17/outbox.cif.g08.bks.cpg/sg2_197_cif.got.tgz:393028.got - 2010.06.03 11:33:40.
