data_PCOD9102732
_publ_section_title
;
Structure prediction by ZEFSAII (Michael W. Deem and Ramdas Pophale) SiO2 
 PCOD9102732
Probable space group: P -1
;
_chemical_formula_sum "Si O2"
_cell_formula_units_Z 16
_cell_length_a 20.041414
_cell_length_b 9.377904
_cell_length_c 11.578643
_cell_angle_alpha 69.089632
_cell_angle_beta 43.898768
_cell_angle_gamma 35.753522
_cell_volume 729.007732
_symmetry_space_group_name_H-M "P -1"
_symmetry_group_IT_number 2
_symmetry_cell_setting 'triclinic'
loop_
_space_group_symop_operation_xyz
x,y,z
-x,-y,-z
loop_
_atom_site_type_symbol
_atom_site_label
_atom_site_fract_x
_atom_site_fract_y
_atom_site_fract_z
Si Si1 0.227902 0.698957 0.817167
Si Si2 0.421789 0.276098 0.484049
Si Si3 0.105538 0.510781 0.771169
Si Si4 0.818358 0.379712 0.703454
Si Si5 0.115777 0.171653 0.810935
Si Si6 0.553954 0.164685 0.111084
Si Si7 0.150576 0.005051 0.226310
Si Si8 0.803652 0.537112 0.918265
O O1 0.349513 0.474827 0.622838
O O2 0.251036 0.848033 0.762790
O O3 0.266643 0.525600 0.919241
O O4 0.000000 0.000000 0.000000
O O5 0.230902 0.485263 0.599066
O O6 0.534899 0.203647 0.262753
O O7 0.500000 0.000000 0.500000
O O8 0.204232 0.218315 0.699368
O O9 0.931652 0.766953 0.831196
O O10 0.042432 0.604277 0.955958
O O11 0.642184 0.601855 0.774243
O O12 0.796076 0.525152 0.794875
O O13 0.002774 0.181960 0.462265
O O14 0.836210 0.182826 0.786830
O O15 0.008332 0.290485 0.790120
O O16 0.658295 0.171354 0.928029
O O17 0.677157 0.848316 0.024849
#
# Coordination Sequence:
#
# PCOD9102732 Si02
#       8
#     2   2   2   2   2   2   2   2
#     4  10  20  38  64 102 132 171 220 275 335 403
#     4  12  23  41  69  99 138 179 216 276 348 401
#     4  11  20  41  67  96 131 176 220 270 340 403
#     4  11  26  43  70  92 131 182 225 280 339 388
#     4  10  21  36  67  98 130 171 220 274 330 404
#     4  12  24  45  68  98 133 177 228 278 332 400
#     4  11  25  45  68  99 128 176 235 276 332 402
#     4  11  21  41  63  98 135 172 219 277 334 399
#
# _framework density 21.947642999999999
#
# number of rings (size 3 to 8) (size 9 to 14) (size 15 to 20)
#    0.000    1.000    6.250    1.500    3.500    0.500 
#    0.000    1.875    0.000    0.000    0.000    0.000 
#    0.000    0.000    0.000    0.000    0.000    0.000 
#
# Total GULP energy -89312.038552 kJ/mol
# GULP energy per Si atom -5582.002410 kJ/mol
# Density = 2.189769 g / cm^3
# Si number density = 21.947643 Si / 1000 Ang^3
#
#
#
# Elastic Constant Matrix: (Units=GPa)
#
#
# Indices 1 2 3 4 5 6 
#
# 1 84.8568 18.0017 49.9852 -2.3534 12.6842 8.5504
# 2 18.0017 89.9954 21.6209 7.7726 3.9938 15.9321
# 3 49.9852 21.6209 113.5609 -1.4887 3.7150 10.1998
# 4 -2.3534 7.7726 -1.4887 25.6960 8.4856 7.5836
# 5 12.6842 3.9938 3.7150 8.4856 35.1658 4.7019
# 6 8.5504 15.9321 10.1998 7.5836 4.7019 17.9907
#
#
#
# Elastic Compliance Matrix: (Units=1/GPa)
#
#
# Indices 1 2 3 4 5 6 
#
# 1 0.017523 -0.001348 -0.006870 0.004696 -0.006090 -0.003628
# 2 -0.001348 0.013570 -0.001110 -0.001513 0.000807 -0.010321
# 3 -0.006870 -0.001110 0.012321 0.000956 0.001546 -0.003545
# 4 0.004696 -0.001513 0.000956 0.049158 -0.010904 -0.019306
# 5 -0.006090 0.000807 0.001546 -0.010904 0.033387 -0.002826
# 6 -0.003628 -0.010321 -0.003545 -0.019306 -0.002826 0.077335
#
#
# Mechanical properties :
#
#
# Convention : Reuss Voigt Hill
#
# Bulk Modulus (GPa) = 40.38783 51.95872 46.17327
# Shear Modulus (GPa) = 21.72002 29.02421 25.37211
#
# Velocity S-wave (km/s) = 3.14925 3.64047 3.40373
# Velocity P-wave (km/s) = 5.62721 6.43397 6.04407
#
# Compressibility (1/GPa) = 0.02475993
#
# Stress axis : x y z
#
# Youngs Moduli (GPa) = 57.06692 73.69327 81.16019
#
# Poissons Ratio (x) = 0.09933 0.55756
# Poissons Ratio (y) = 0.07692 0.09005
# Poissons Ratio (z) = 0.39204 0.08177
#
# Static dielectric constant tensor:
#      x y z
#    x 1.835730 -0.009640 -0.071130 
#    y -0.009640 1.847910 0.012650 
#    z -0.071130 0.012650 1.836770 
# 
# From -- ./inp_files/469940.got.cif
#   From: 2010.05.17/outbox.cif.g08.bks.cpg/sg2_235_cif.got.tgz:469940.got - 2010.06.03 11:33:40.
