data_PCOD9102447
_publ_section_title
;
Structure prediction by ZEFSAII (Michael W. Deem and Ramdas Pophale) SiO2 
 PCOD9102447
Probable space group: P -1
;
_chemical_formula_sum "Si O2"
_cell_formula_units_Z 14
_cell_length_a 19.582656
_cell_length_b 10.813571
_cell_length_c 7.461647
_cell_angle_alpha 57.639328
_cell_angle_beta 49.551018
_cell_angle_gamma 29.962486
_cell_volume 599.024019
_symmetry_space_group_name_H-M "P -1"
_symmetry_group_IT_number 2
_symmetry_cell_setting 'triclinic'
loop_
_space_group_symop_operation_xyz
x,y,z
-x,-y,-z
loop_
_atom_site_type_symbol
_atom_site_label
_atom_site_fract_x
_atom_site_fract_y
_atom_site_fract_z
Si Si1 0.249103 0.450519 0.382022
Si Si2 0.150943 0.821372 0.995523
Si Si3 0.532453 0.131554 0.327656
Si Si4 0.981642 0.859877 0.710261
Si Si5 0.712028 0.799220 0.805346
Si Si6 0.562279 0.686303 0.261426
Si Si7 0.133473 0.274262 0.084855
O O1 0.160070 0.665876 0.224850
O O2 0.403955 0.334593 0.241797
O O3 0.261919 0.282093 0.383616
O O4 0.155898 0.571854 0.632235
O O5 0.112638 0.006466 0.049357
O O6 0.310462 0.599731 0.790173
O O7 0.000000 0.000000 0.000000
O O8 0.488990 0.263848 0.485217
O O9 0.500000 0.000000 0.500000
O O10 0.702137 0.930399 0.129317
O O11 0.898223 0.855574 0.727815
O O12 0.000000 0.000000 0.500000
O O13 0.589588 0.091954 0.771439
O O14 0.638372 0.749273 0.057714
O O15 0.850464 0.662679 0.802853
O O16 0.000000 0.500000 0.000000
#
# Coordination Sequence:
#
# PCOD9102447 Si02
#       7
#     2   2   2   2   2   2   2
#     4  10  21  39  70  94 130 178 220 271 333 401
#     4  10  21  38  65  91 127 178 224 265 323 398
#     4  12  20  39  66 100 136 170 217 274 345 393
#     4  10  24  46  61  93 136 182 218 264 340 394
#     4  10  20  38  63 102 130 167 223 277 336 389
#     4  10  20  38  67  96 133 173 220 272 334 399
#     4  12  26  39  65 103 136 169 224 284 333 397
#
# _framework density 23.371348999999999
#
# number of rings (size 3 to 8) (size 9 to 14) (size 15 to 20)
#    0.000    1.429    2.857    3.429    4.000    0.571 
#    0.000    7.143    0.000    0.000    0.000    0.000 
#    0.000    0.000    0.000    0.000    0.000    0.000 
#
# Total GULP energy -78068.897772 kJ/mol
# GULP energy per Si atom -5576.349841 kJ/mol
# Density = 2.331816 g / cm^3
# Si number density = 23.371349 Si / 1000 Ang^3
#
#
#
# Elastic Constant Matrix: (Units=GPa)
#
#
# Indices 1 2 3 4 5 6 
#
# 1 105.6268 44.0167 26.8609 14.6579 13.6575 -17.1888
# 2 44.0167 140.8312 37.1476 29.5529 21.9601 -23.5026
# 3 26.8609 37.1476 73.2041 30.8029 13.0432 7.2446
# 4 14.6579 29.5529 30.8029 46.5252 13.2381 14.0869
# 5 13.6575 21.9601 13.0432 13.2381 50.8322 10.6622
# 6 -17.1888 -23.5026 7.2446 14.0869 10.6622 39.2442
#
#
#
# Elastic Compliance Matrix: (Units=1/GPa)
#
#
# Indices 1 2 3 4 5 6 
#
# 1 0.012615 -0.000790 -0.003293 -0.002676 -0.003070 0.007455
# 2 -0.000790 0.012565 -0.003063 -0.007927 -0.004864 0.011912
# 3 -0.003293 -0.003063 0.020867 -0.009770 0.000167 -0.003667
# 4 -0.002676 -0.007927 -0.009770 0.039308 0.000251 -0.018295
# 5 -0.003070 -0.004864 0.000167 0.000251 0.024824 -0.011123
# 6 0.007455 0.011912 -0.003667 -0.018295 -0.011123 0.046146
#
#
# Mechanical properties :
#
#
# Convention : Reuss Voigt Hill
#
# Bulk Modulus (GPa) = 31.48947 59.52361 45.50654
# Shear Modulus (GPa) = 27.59336 41.42945 34.51141
#
# Velocity S-wave (km/s) = 3.43979 4.21486 3.84689
# Velocity P-wave (km/s) = 5.41100 7.01503 6.26457
#
# Compressibility (1/GPa) = 0.03175665
#
# Stress axis : x y z
#
# Youngs Moduli (GPa) = 79.26860 79.58321 47.92266
#
# Poissons Ratio (x) = 0.06286 0.15780
# Poissons Ratio (y) = 0.06261 0.14678
# Poissons Ratio (z) = 0.26101 0.24376
#
# Static dielectric constant tensor:
#      x y z
#    x 1.954530 -0.072090 0.052980 
#    y -0.072090 2.254690 0.059940 
#    z 0.052980 0.059940 1.978480 
# 
# From -- ./inp_files/331811.got.cif
#   From: 2010.05.17/outbox.cif.g08.bks.cpg/sg2_166_cif.got.tgz:331811.got - 2010.06.03 11:33:40.
