data_PCOD9102388
_publ_section_title
;
Structure prediction by ZEFSAII (Michael W. Deem and Ramdas Pophale) SiO2 
 PCOD9102388
Probable space group: P -1
;
_chemical_formula_sum "Si O2"
_cell_formula_units_Z 11
_cell_length_a 11.848622
_cell_length_b 9.786782
_cell_length_c 8.303423
_cell_angle_alpha 29.096291
_cell_angle_beta 69.312309
_cell_angle_gamma 81.939091
_cell_volume 406.887815
_symmetry_space_group_name_H-M "P -1"
_symmetry_group_IT_number 2
_symmetry_cell_setting 'triclinic'
loop_
_space_group_symop_operation_xyz
x,y,z
-x,-y,-z
loop_
_atom_site_type_symbol
_atom_site_label
_atom_site_fract_x
_atom_site_fract_y
_atom_site_fract_z
Si Si1 0.539056 0.506514 0.704773
Si Si2 0.263538 0.464766 0.878913
Si Si3 0.913219 0.420140 0.875196
Si Si4 0.500000 0.000000 0.000000
Si Si5 0.808539 0.115065 0.703812
Si Si6 0.810640 0.830724 0.341726
O O1 0.397770 0.468714 0.875883
O O2 0.533959 0.190962 0.961724
O O3 0.658276 0.641243 0.626454
O O4 0.562764 0.750512 0.296930
O O5 0.300898 0.742691 0.439757
O O6 0.179047 0.541997 0.976649
O O7 0.198088 0.146340 0.149461
O O8 0.884433 0.599124 0.553453
O O9 0.060478 0.586211 0.684973
O O10 0.871580 0.076295 0.196577
O O11 0.822974 0.992075 0.997942
#
# Coordination Sequence:
#
# PCOD9102388 Si02
#       6
#     2   2   2   1   2   2
#     4  11  22  39  64  99 128 168 213 265 335 381
#     4  12  25  42  70  96 133 170 220 275 321 389
#     4  12  26  44  64  98 135 176 214 268 333 385
#     4  10  20  38  62  94 132 160 216 266 308 388
#     4  12  24  45  69  95 127 178 228 268 313 384
#     4  12  25  42  68  95 135 171 217 272 325 395
#
# _framework density 27.034476000000002
#
# number of rings (size 3 to 8) (size 9 to 14) (size 15 to 20)
#    0.000    0.364    0.000   10.909    0.000    1.455 
#    0.000    0.000    0.000    0.000    0.000    0.000 
#    0.000    0.000    0.000    0.000    0.000    0.000 
#
# Total GULP energy -61594.621590 kJ/mol
# GULP energy per Si atom -5599.511054 kJ/mol
# Density = 2.697294 g / cm^3
# Si number density = 27.034476 Si / 1000 Ang^3
#
#
#
# Elastic Constant Matrix: (Units=GPa)
#
#
# Indices 1 2 3 4 5 6 
#
# 1 103.9971 -5.7664 39.8191 -1.2050 -0.7447 11.4199
# 2 -5.7664 76.6593 47.9703 3.8491 -10.1154 -1.1280
# 3 39.8191 47.9703 121.2290 -48.4236 2.2643 18.8662
# 4 -1.2050 3.8491 -48.4236 48.9750 1.2600 1.6715
# 5 -0.7447 -10.1154 2.2643 1.2600 46.7930 -20.0650
# 6 11.4199 -1.1280 18.8662 1.6715 -20.0650 32.5398
#
#
#
# Elastic Compliance Matrix: (Units=1/GPa)
#
#
# Indices 1 2 3 4 5 6 
#
# 1 -0.024938 -0.089932 0.111941 0.122978 -0.077066 -0.113106
# 2 -0.089932 -0.219070 0.288385 0.314456 -0.189721 -0.276375
# 3 0.111941 0.288385 -0.357199 -0.391084 0.240350 0.346107
# 4 0.122978 0.314456 -0.391084 -0.407524 0.261295 0.376544
# 5 -0.077066 -0.189721 0.240350 0.261295 -0.130872 -0.213004
# 6 -0.113106 -0.276375 0.346107 0.376544 -0.213004 -0.290510
#
#
# Mechanical properties :
#
#
# Convention : Reuss Voigt Hill
#
# Bulk Modulus (GPa) = 51.07061 51.77015 51.42038
# Shear Modulus (GPa) = -2.44574 40.31905 18.93666
#
# Velocity S-wave (km/s) = -0.95217 3.86605 2.64950
# Velocity P-wave (km/s) = 4.20988 6.25457 5.33117
#
# Compressibility (1/GPa) = 0.01958073
#
# Stress axis : x y z
#
# Youngs Moduli (GPa) = -40.09910 -4.56475 -2.79956
#
# Poissons Ratio (x) = -0.41052 0.31338
# Poissons Ratio (y) = -3.60619 0.80735
# Poissons Ratio (z) = 4.48872 1.31641
#
# Static dielectric constant tensor:
#      x y z
#    x 2.094260 0.016880 -0.010980 
#    y 0.016880 1.964780 0.034540 
#    z -0.010980 0.034540 1.960640 
# 
# From -- ./inp_files/179662.got.cif
#   From: 2010.05.17/outbox.cif.g08.bks.cpg/sg2_90_cif.got.tgz:179662.got - 2010.06.03 11:33:40.
