data_PCOD9102603
_publ_section_title
;
Structure prediction by ZEFSAII (Michael W. Deem and Ramdas Pophale) SiO2 
 PCOD9102603
Probable space group: P -1
;
_chemical_formula_sum "Si O2"
_cell_formula_units_Z 14
_cell_length_a 9.019597
_cell_length_b 8.818954
_cell_length_c 12.957820
_cell_angle_alpha 104.700083
_cell_angle_beta 53.907825
_cell_angle_gamma 125.979494
_cell_volume 667.241973
_symmetry_space_group_name_H-M "P -1"
_symmetry_group_IT_number 2
_symmetry_cell_setting 'triclinic'
loop_
_space_group_symop_operation_xyz
x,y,z
-x,-y,-z
loop_
_atom_site_type_symbol
_atom_site_label
_atom_site_fract_x
_atom_site_fract_y
_atom_site_fract_z
Si Si1 0.897124 0.610081 0.105763
Si Si2 0.527868 0.601263 0.113838
Si Si3 0.302767 0.905481 0.681126
Si Si4 0.819616 0.601254 0.370677
Si Si5 0.402230 0.207451 0.540546
Si Si6 0.807641 0.026036 0.048524
Si Si7 0.061479 0.472140 0.356144
O O1 0.710682 0.595631 0.105093
O O2 0.798654 0.547573 0.249486
O O3 0.000000 0.500000 0.000000
O O4 0.099756 0.832554 0.060785
O O5 0.299987 0.508671 0.253630
O O6 0.500000 0.500000 0.000000
O O7 0.398221 0.187511 0.911098
O O8 0.522807 0.906633 0.576546
O O9 0.228822 0.875291 0.823547
O O10 0.116196 0.734236 0.656682
O O11 0.346113 0.101913 0.655107
O O12 0.617281 0.423838 0.486657
O O13 0.792213 0.774757 0.417617
O O14 0.037655 0.619801 0.324301
O O15 0.000000 0.000000 0.000000
O O16 0.000000 0.500000 0.500000
#
# Coordination Sequence:
#
# PCOD9102603 Si02
#       7
#     2   2   2   2   2   2   2
#     4  11  22  40  67  94 123 166 220 265 306 383
#     4  11  24  42  67  95 130 169 211 266 335 377
#     4  10  20  38  63  92 124 163 224 249 307 390
#     4  10  21  38  61  90 127 161 218 253 313 376
#     4   9  19  33  64  84 119 162 215 250 293 365
#     4  10  21  38  67  91 120 167 218 253 309 387
#     4  11  25  41  62  94 137 167 207 268 334 375
#
# _framework density 20.981892999999999
#
# number of rings (size 3 to 8) (size 9 to 14) (size 15 to 20)
#    0.000    1.714    0.000    6.000   12.000    0.000 
#    0.000    5.000    0.000    0.000    0.000    0.000 
#    0.000    0.000    0.000    0.000    0.000    0.000 
#
# Total GULP energy -78119.758920 kJ/mol
# GULP energy per Si atom -5579.982780 kJ/mol
# Density = 2.093414 g / cm^3
# Si number density = 20.981893 Si / 1000 Ang^3
#
#
#
# Elastic Constant Matrix: (Units=GPa)
#
#
# Indices 1 2 3 4 5 6 
#
# 1 114.5877 26.6026 38.6904 4.2968 -13.9107 -20.9997
# 2 26.6026 87.3052 33.5629 0.7571 -0.7173 -9.1095
# 3 38.6904 33.5629 110.9200 4.5204 -7.4513 11.4375
# 4 4.2968 0.7571 4.5204 28.7825 -0.1283 3.7670
# 5 -13.9107 -0.7173 -7.4513 -0.1283 36.3084 4.7253
# 6 -20.9997 -9.1095 11.4375 3.7670 4.7253 35.0044
#
#
#
# Elastic Compliance Matrix: (Units=1/GPa)
#
#
# Indices 1 2 3 4 5 6 
#
# 1 0.012552 -0.001085 -0.004670 -0.002232 0.002696 0.008650
# 2 -0.001085 0.013964 -0.004434 -0.000127 -0.001658 0.004669
# 3 -0.004670 -0.004434 0.012988 -0.000113 0.001887 -0.008442
# 4 -0.002232 -0.000127 -0.000113 0.035774 -0.000081 -0.005174
# 5 0.002696 -0.001658 0.001887 -0.000081 0.029370 -0.003387
# 6 0.008650 0.004669 -0.008442 -0.005174 -0.003387 0.038744
#
#
# Mechanical properties :
#
#
# Convention : Reuss Voigt Hill
#
# Bulk Modulus (GPa) = 52.28795 56.72497 54.50646
# Shear Modulus (GPa) = 29.38650 34.28287 31.83469
#
# Velocity S-wave (km/s) = 3.74647 4.04657 3.89941
# Velocity P-wave (km/s) = 6.60979 6.99478 6.80501
#
# Compressibility (1/GPa) = 0.01912486
#
# Stress axis : x y z
#
# Youngs Moduli (GPa) = 79.67036 71.61151 76.99429
#
# Poissons Ratio (x) = 0.07773 0.35954
# Poissons Ratio (y) = 0.08648 0.34143
# Poissons Ratio (z) = 0.37203 0.31756
#
# Static dielectric constant tensor:
#      x y z
#    x 1.785820 -0.005900 -0.010140 
#    y -0.005900 1.804780 -0.011020 
#    z -0.010140 -0.011020 1.687590 
# 
# From -- ./inp_files/382877.got.cif
#   From: 2010.05.17/outbox.cif.g08.bks.cpg/sg2_192_cif.got.tgz:382877.got - 2010.06.03 11:33:40.
