data_PCOD9102396
_publ_section_title
;
Structure prediction by ZEFSAII (Michael W. Deem and Ramdas Pophale) SiO2 
 PCOD9102396
Probable space group: P -1
;
_chemical_formula_sum "Si O2"
_cell_formula_units_Z 14
_cell_length_a 10.679998
_cell_length_b 8.435144
_cell_length_c 11.278422
_cell_angle_alpha 89.522821
_cell_angle_beta 71.557817
_cell_angle_gamma 137.165898
_cell_volume 608.120731
_symmetry_space_group_name_H-M "P -1"
_symmetry_group_IT_number 2
_symmetry_cell_setting 'triclinic'
loop_
_space_group_symop_operation_xyz
x,y,z
-x,-y,-z
loop_
_atom_site_type_symbol
_atom_site_label
_atom_site_fract_x
_atom_site_fract_y
_atom_site_fract_z
Si Si1 0.003739 0.540393 0.198008
Si Si2 0.511893 0.347189 0.929015
Si Si3 0.818439 0.625182 0.627051
Si Si4 0.197829 0.859340 0.905967
Si Si5 0.712180 0.875855 0.563232
Si Si6 0.572170 0.961010 0.824639
Si Si7 0.624510 0.279321 0.475544
O O1 0.928739 0.299121 0.173781
O O2 0.823444 0.453338 0.328982
O O3 0.216420 0.749002 0.206925
O O4 0.049882 0.683089 0.063387
O O5 0.717201 0.535455 0.786637
O O6 0.317831 0.133386 0.897832
O O7 0.500000 0.500000 0.000000
O O8 0.495009 0.197369 0.036227
O O9 0.760187 0.739953 0.583499
O O10 0.709245 0.390617 0.580242
O O11 0.068115 0.842634 0.545262
O O12 0.384200 0.902460 0.848948
O O13 0.627173 0.890941 0.703722
O O14 0.536499 0.736131 0.517604
O O15 0.500000 0.000000 0.500000
#
# Coordination Sequence:
#
# PCOD9102396 Si02
#       7
#     2   2   2   2   2   2   2
#     4  10  20  38  62  95 126 165 211 264 315 383
#     4  11  22  40  66  96 126 164 214 271 317 382
#     4  11  25  45  66  94 135 172 217 265 330 388
#     4  10  22  38  66  92 128 170 213 263 326 375
#     4  11  24  43  69  93 129 182 212 263 331 387
#     4  11  21  42  68  93 125 173 219 262 325 383
#     4  12  25  41  67  98 134 166 222 269 323 388
#
# _framework density 23.021747000000001
#
# number of rings (size 3 to 8) (size 9 to 14) (size 15 to 20)
#    0.000    1.143    4.286    3.000    0.000    2.857 
#    0.000    0.000    0.000   18.000    0.000    0.000 
#    0.000    0.000    0.000    0.000    0.000    0.000 
#
# Total GULP energy -78420.906328 kJ/mol
# GULP energy per Si atom -5601.493309 kJ/mol
# Density = 2.296935 g / cm^3
# Si number density = 23.021747 Si / 1000 Ang^3
#
#
#
# Elastic Constant Matrix: (Units=GPa)
#
#
# Indices 1 2 3 4 5 6 
#
# 1 77.5793 38.2502 38.4530 -10.9849 -8.2955 16.4216
# 2 38.2502 137.3017 37.4941 4.4833 -9.8447 9.0201
# 3 38.4530 37.4941 165.1554 -7.1654 -31.5125 19.0614
# 4 -10.9849 4.4833 -7.1654 41.8930 2.4002 -5.8660
# 5 -8.2955 -9.8447 -31.5125 2.4002 30.9881 2.9073
# 6 16.4216 9.0201 19.0614 -5.8660 2.9073 36.0272
#
#
#
# Elastic Compliance Matrix: (Units=1/GPa)
#
#
# Indices 1 2 3 4 5 6 
#
# 1 0.017810 -0.004036 -0.002141 0.003883 0.001520 -0.005465
# 2 -0.004036 0.008829 -0.000940 -0.002265 0.000974 -0.000321
# 3 -0.002141 -0.000940 0.008880 -0.000017 0.008552 -0.004180
# 4 0.003883 -0.002265 -0.000017 0.025682 -0.001982 0.003148
# 5 0.001520 0.000974 0.008552 -0.001982 0.042703 -0.009230
# 6 -0.005465 -0.000321 -0.004180 0.003148 -0.009230 0.033797
#
#
# Mechanical properties :
#
#
# Convention : Reuss Voigt Hill
#
# Bulk Modulus (GPa) = 46.97994 67.60344 57.29169
# Shear Modulus (GPa) = 31.44010 39.50427 35.47219
#
# Velocity S-wave (km/s) = 3.69951 4.14690 3.92958
# Velocity P-wave (km/s) = 6.22089 7.23587 6.74749
#
# Compressibility (1/GPa) = 0.02128568
#
# Stress axis : x y z
#
# Youngs Moduli (GPa) = 56.14666 113.26131 112.60757
#
# Poissons Ratio (x) = 0.45710 0.24112
# Poissons Ratio (y) = 0.22660 0.10587
# Poissons Ratio (z) = 0.12023 0.10648
#
# Static dielectric constant tensor:
#      x y z
#    x 1.861580 -0.002100 0.038510 
#    y -0.002100 1.891570 -0.011830 
#    z 0.038510 -0.011830 1.833530 
# 
# From -- ./inp_files/417345.got.cif
#   From: 2010.05.17/outbox.cif.g08.bks.cpg/sg2_209_cif.got.tgz:417345.got - 2010.06.03 11:33:40.
