data_PCOD9102912
_publ_section_title
;
Structure prediction by ZEFSAII (Michael W. Deem and Ramdas Pophale) SiO2 
 PCOD9102912
Probable space group: P -1
;
_chemical_formula_sum "Si O2"
_cell_formula_units_Z 14
_cell_length_a 5.456290
_cell_length_b 7.637620
_cell_length_c 18.813316
_cell_angle_alpha 44.056257
_cell_angle_beta 84.364546
_cell_angle_gamma 92.114137
_cell_volume 535.955139
_symmetry_space_group_name_H-M "P -1"
_symmetry_group_IT_number 2
_symmetry_cell_setting 'triclinic'
loop_
_space_group_symop_operation_xyz
x,y,z
-x,-y,-z
loop_
_atom_site_type_symbol
_atom_site_label
_atom_site_fract_x
_atom_site_fract_y
_atom_site_fract_z
Si Si1 0.979358 0.612938 0.045208
Si Si2 0.571665 0.220798 0.202213
Si Si3 0.558824 0.659872 0.556716
Si Si4 0.935425 0.088455 0.396823
Si Si5 0.474991 0.122767 0.066502
Si Si6 0.658482 0.483988 0.755097
Si Si7 0.269965 0.743700 0.413086
O O1 0.858212 0.355796 0.164712
O O2 0.752350 0.775544 0.997001
O O3 0.249947 0.776444 0.003921
O O4 0.000000 0.500000 0.000000
O O5 0.429904 0.393473 0.206700
O O6 0.499190 0.934128 0.314832
O O7 0.493356 0.215695 0.122247
O O8 0.523493 0.585925 0.660621
O O9 0.329774 0.608673 0.524350
O O10 0.762689 0.487238 0.574210
O O11 0.652205 0.953887 0.446891
O O12 0.074356 0.930521 0.382121
O O13 0.053290 0.383246 0.301456
O O14 0.000000 0.000000 0.500000
O O15 0.592595 0.181722 0.844024
#
# Coordination Sequence:
#
# PCOD9102912 Si02
#       7
#     2   2   2   2   2   2   2
#     4  10  23  46  76  99 140 176 226 285 345 403
#     4  10  21  41  65  98 128 180 225 280 345 404
#     4  10  20  40  62  92 133 174 223 276 332 395
#     4   9  20  37  55  89 127 171 218 270 327 386
#     4  11  23  49  69 104 138 178 225 286 340 407
#     4  10  22  41  63  97 136 173 233 273 342 408
#     4  10  20  38  64  92 130 175 225 272 335 401
#
# _framework density 26.121590999999999
#
# number of rings (size 3 to 8) (size 9 to 14) (size 15 to 20)
#    0.000    2.000    1.429    2.143    0.000    6.286 
#   25.714    0.000    0.000    0.000    0.000    0.000 
#    0.000    0.000    0.000    0.000    0.000    0.000 
#
# Total GULP energy -78163.432221 kJ/mol
# GULP energy per Si atom -5583.102302 kJ/mol
# Density = 2.606214 g / cm^3
# Si number density = 26.121591 Si / 1000 Ang^3
#
#
#
# Elastic Constant Matrix: (Units=GPa)
#
#
# Indices 1 2 3 4 5 6 
#
# 1 124.3881 48.8119 60.3440 -20.4318 -23.0857 1.3300
# 2 48.8119 160.4243 57.2145 -23.3480 -13.9473 -2.4671
# 3 60.3440 57.2145 125.7923 -24.0880 -20.0159 24.7770
# 4 -20.4318 -23.3480 -24.0880 72.1555 19.9519 -6.1729
# 5 -23.0857 -13.9473 -20.0159 19.9519 50.9801 -5.8696
# 6 1.3300 -2.4671 24.7770 -6.1729 -5.8696 26.7194
#
#
#
# Elastic Compliance Matrix: (Units=1/GPa)
#
#
# Indices 1 2 3 4 5 6 
#
# 1 0.011843 -0.001159 -0.005560 0.000691 0.003205 0.005323
# 2 -0.001159 0.008247 -0.003823 0.001407 0.000225 0.004739
# 3 -0.005560 -0.003823 0.015380 0.000994 0.000473 -0.014004
# 4 0.000691 0.001407 0.000994 0.016416 -0.005125 0.001841
# 5 0.003205 0.000225 0.000473 -0.005125 0.023717 0.003448
# 6 0.005323 0.004739 -0.014004 0.001841 0.003448 0.051767
#
#
# Mechanical properties :
#
#
# Convention : Reuss Voigt Hill
#
# Bulk Modulus (GPa) = 69.51676 82.59394 76.05535
# Shear Modulus (GPa) = 32.62643 46.25329 39.43986
#
# Velocity S-wave (km/s) = 3.53798 4.21252 3.88990
# Velocity P-wave (km/s) = 6.58485 7.43963 7.02526
#
# Compressibility (1/GPa) = 0.01438502
#
# Stress axis : x y z
#
# Youngs Moduli (GPa) = 84.43704 121.25794 65.02116
#
# Poissons Ratio (x) = 0.14058 0.36152
# Poissons Ratio (y) = 0.09789 0.24857
# Poissons Ratio (z) = 0.46947 0.46355
#
# Static dielectric constant tensor:
#      x y z
#    x 2.237290 0.142050 -0.050170 
#    y 0.142050 2.227500 -0.004970 
#    z -0.050170 -0.004970 2.070730 
# 
# From -- ./inp_files/546898.got.cif
#   From: 2010.05.17/outbox.cif.g08.bks.cpg/sg2_274_cif.got.tgz:546898.got - 2010.06.03 11:33:40.
