data_PCOD9102915
_publ_section_title
;
Structure prediction by ZEFSAII (Michael W. Deem and Ramdas Pophale) SiO2 
 PCOD9102915
Probable space group: P -1
;
_chemical_formula_sum "Si O2"
_cell_formula_units_Z 16
_cell_length_a 11.508414
_cell_length_b 18.610684
_cell_length_c 7.273920
_cell_angle_alpha 50.816921
_cell_angle_beta 91.697753
_cell_angle_gamma 130.047412
_cell_volume 714.010679
_symmetry_space_group_name_H-M "P -1"
_symmetry_group_IT_number 2
_symmetry_cell_setting 'triclinic'
loop_
_space_group_symop_operation_xyz
x,y,z
-x,-y,-z
loop_
_atom_site_type_symbol
_atom_site_label
_atom_site_fract_x
_atom_site_fract_y
_atom_site_fract_z
Si Si1 0.426165 0.071516 0.392480
Si Si2 0.631093 0.503795 0.908049
Si Si3 0.057245 0.826376 0.384175
Si Si4 0.493042 0.384728 0.708303
Si Si5 0.742855 0.434382 0.349176
Si Si6 0.471668 0.086639 0.925398
Si Si7 0.845330 0.952235 0.691901
Si Si8 0.179845 0.750214 0.798317
O O1 0.278946 0.890543 0.711924
O O2 0.300694 0.082161 0.387460
O O3 0.633352 0.196992 0.301646
O O4 0.531536 0.908200 0.859235
O O5 0.517942 0.387484 0.921761
O O6 0.836211 0.672752 0.556463
O O7 0.500000 0.500000 0.000000
O O8 0.687856 0.466407 0.126072
O O9 0.117223 0.769172 0.585446
O O10 0.052637 0.905663 0.404878
O O11 0.249681 0.971008 0.038123
O O12 0.500000 0.500000 0.500000
O O13 0.656241 0.433746 0.522342
O O14 0.285537 0.203305 0.944507
O O15 0.634564 0.266816 0.591190
O O16 0.979005 0.576877 0.140624
O O17 0.500000 0.000000 0.000000
O O18 0.000000 0.000000 0.500000
#
# Coordination Sequence:
#
# PCOD9102915 Si02
#       8
#     2   2   2   2   2   2   2   2
#     4   9  18  38  59  91 129 166 221 267 321 408
#     4  11  23  42  67  98 132 173 221 272 336 400
#     4   9  20  42  62  88 137 169 216 278 325 402
#     4  12  24  41  68  98 133 171 221 277 327 402
#     4  11  22  44  65  95 135 175 222 279 335 396
#     4  10  21  41  61  89 130 177 220 279 329 389
#     4  10  20  38  64  92 132 178 213 265 333 396
#     4   8  18  36  64  87 123 172 207 273 330 380
#
# _framework density 22.408626999999999
#
# number of rings (size 3 to 8) (size 9 to 14) (size 15 to 20)
#    0.000    2.250    3.750    0.750    3.500    1.500 
#   11.250    6.875    0.000    0.000    0.000    0.000 
#    0.000    0.000    0.000    0.000    0.000    0.000 
#
# Total GULP energy -89284.365435 kJ/mol
# GULP energy per Si atom -5580.272840 kJ/mol
# Density = 2.235762 g / cm^3
# Si number density = 22.408627 Si / 1000 Ang^3
#
#
#
# Elastic Constant Matrix: (Units=GPa)
#
#
# Indices 1 2 3 4 5 6 
#
# 1 157.1354 32.6713 51.4080 -24.2138 -7.3239 -6.2706
# 2 32.6713 64.4992 17.7921 -2.5881 -1.5639 -10.8197
# 3 51.4080 17.7921 123.9688 -42.2857 -10.5457 1.7983
# 4 -24.2138 -2.5881 -42.2857 33.9079 3.4896 -3.3143
# 5 -7.3239 -1.5639 -10.5457 3.4896 32.5218 -2.1356
# 6 -6.2706 -10.8197 1.7983 -3.3143 -2.1356 27.6694
#
#
#
# Elastic Compliance Matrix: (Units=1/GPa)
#
#
# Indices 1 2 3 4 5 6 
#
# 1 0.008243 -0.003360 -0.001656 0.003591 0.000849 0.001158
# 2 -0.003360 0.018856 -0.002638 -0.003639 0.000103 0.006355
# 3 -0.001656 -0.002638 0.015291 0.017408 0.002583 -0.000116
# 4 0.003591 -0.003639 0.017408 0.053871 0.000812 0.004775
# 5 0.000849 0.000103 0.002583 0.000812 0.031867 0.002621
# 6 0.001158 0.006355 -0.000116 0.004775 0.002621 0.039670
#
#
# Mechanical properties :
#
#
# Convention : Reuss Voigt Hill
#
# Bulk Modulus (GPa) = 36.92242 61.03845 48.98044
# Shear Modulus (GPa) = 26.02353 35.06863 30.54608
#
# Velocity S-wave (km/s) = 3.41151 3.96025 3.69608
# Velocity P-wave (km/s) = 5.65955 6.94330 6.33403
#
# Compressibility (1/GPa) = 0.02708382
#
# Stress axis : x y z
#
# Youngs Moduli (GPa) = 121.30964 53.03297 65.39744
#
# Poissons Ratio (x) = 0.17819 0.10829
# Poissons Ratio (y) = 0.40759 0.17249
# Poissons Ratio (z) = 0.20088 0.13988
#
# Static dielectric constant tensor:
#      x y z
#    x 1.866770 0.006580 0.016610 
#    y 0.006580 1.836190 0.021270 
#    z 0.016610 0.021270 1.901760 
# 
# From -- ./inp_files/282749.got.cif
#   From: 2010.05.17/outbox.cif.g08.bks.cpg/sg2_142_cif.got.tgz:282749.got - 2010.06.03 11:33:40.
