data_PCOD9102688
_publ_section_title
;
Structure prediction by ZEFSAII (Michael W. Deem and Ramdas Pophale) SiO2 
 PCOD9102688
Probable space group: P -1
;
_chemical_formula_sum "Si O2"
_cell_formula_units_Z 16
_cell_length_a 20.925812
_cell_length_b 11.988546
_cell_length_c 7.721997
_cell_angle_alpha 74.722591
_cell_angle_beta 44.559118
_cell_angle_gamma 41.239328
_cell_volume 724.282960
_symmetry_space_group_name_H-M "P -1"
_symmetry_group_IT_number 2
_symmetry_cell_setting 'triclinic'
loop_
_space_group_symop_operation_xyz
x,y,z
-x,-y,-z
loop_
_atom_site_type_symbol
_atom_site_label
_atom_site_fract_x
_atom_site_fract_y
_atom_site_fract_z
Si Si1 0.187570 0.260113 0.776426
Si Si2 0.180560 0.324382 0.145788
Si Si3 0.101244 0.660257 0.097961
Si Si4 0.568760 0.260134 0.063229
Si Si5 0.249985 0.724493 0.599013
Si Si6 0.091864 0.991415 0.447765
Si Si7 0.513816 0.908553 0.684807
Si Si8 0.750473 0.027105 0.445663
O O1 0.318026 0.225335 0.498899
O O2 0.261591 0.066651 0.623296
O O3 0.184287 0.246185 0.995304
O O4 0.000000 0.500000 0.000000
O O5 0.199252 0.438805 0.012893
O O6 0.000000 0.500000 0.500000
O O7 0.340152 0.119384 0.031686
O O8 0.187383 0.677742 0.836171
O O9 0.037186 0.770056 0.362436
O O10 0.932911 0.812568 0.258076
O O11 0.426002 0.504101 0.270239
O O12 0.495693 0.216185 0.286342
O O13 0.734391 0.133647 0.885270
O O14 0.624739 0.171895 0.792426
O O15 0.135480 0.881376 0.592062
O O16 0.253089 0.835655 0.668453
O O17 0.000000 0.000000 0.500000
O O18 0.500000 0.000000 0.500000
#
# Coordination Sequence:
#
# PCOD9102688 Si02
#       8
#     2   2   2   2   2   2   2   2
#     4  11  23  41  66  93 126 168 226 270 314 389
#     4  11  22  44  66  91 130 177 212 264 340 383
#     4  10  20  41  63  90 130 172 210 258 327 394
#     4  10  21  42  67  87 131 173 209 264 329 391
#     4  10  20  41  68  89 128 172 208 260 332 387
#     4  10  21  40  63  99 127 159 219 265 319 386
#     4  10  23  42  60  91 132 172 214 266 332 384
#     4  10  20  38  63  96 121 158 217 269 313 383
#
# _framework density 22.090813000000001
#
# number of rings (size 3 to 8) (size 9 to 14) (size 15 to 20)
#    0.000    2.000    1.250    6.000    0.000    0.500 
#   18.000    0.625    0.000    0.000    0.000    0.000 
#    0.000    0.000    0.000    0.000    0.000    0.000 
#
# Total GULP energy -89222.180907 kJ/mol
# GULP energy per Si atom -5576.386307 kJ/mol
# Density = 2.204053 g / cm^3
# Si number density = 22.090813 Si / 1000 Ang^3
#
#
#
# Elastic Constant Matrix: (Units=GPa)
#
#
# Indices 1 2 3 4 5 6 
#
# 1 124.5170 36.5491 48.8100 10.4055 -10.7861 38.8117
# 2 36.5491 115.1121 31.2709 15.2726 -6.7745 36.5375
# 3 48.8100 31.2709 128.1354 23.1017 -19.5045 11.0879
# 4 10.4055 15.2726 23.1017 48.9202 8.1968 -0.2882
# 5 -10.7861 -6.7745 -19.5045 8.1968 30.0416 3.9828
# 6 38.8117 36.5375 11.0879 -0.2882 3.9828 33.1382
#
#
#
# Elastic Compliance Matrix: (Units=1/GPa)
#
#
# Indices 1 2 3 4 5 6 
#
# 1 0.017144 0.004900 -0.002888 -0.005701 0.010363 -0.025810
# 2 0.004900 0.017246 -0.000747 -0.008033 0.010785 -0.025870
# 3 -0.002888 -0.000747 0.011392 -0.005854 0.007868 -0.000603
# 4 -0.005701 -0.008033 -0.005854 0.030150 -0.018535 0.019983
# 5 0.010363 0.010785 0.007868 -0.018535 0.054022 -0.033315
# 6 -0.025810 -0.025870 -0.000603 0.019983 -0.033315 0.093309
#
#
# Mechanical properties :
#
#
# Convention : Reuss Voigt Hill
#
# Bulk Modulus (GPa) = 20.69852 66.78049 43.73950
# Shear Modulus (GPa) = 21.11164 39.16232 30.13698
#
# Velocity S-wave (km/s) = 3.09475 4.21502 3.69756
# Velocity P-wave (km/s) = 4.70745 7.34739 6.17026
#
# Compressibility (1/GPa) = 0.04831264
#
# Stress axis : x y z
#
# Youngs Moduli (GPa) = 58.33035 57.98353 87.78304
#
# Poissons Ratio (x) = -0.28410 0.25348
# Poissons Ratio (y) = -0.28580 0.06554
# Poissons Ratio (z) = 0.16843 0.04329
#
# Static dielectric constant tensor:
#      x y z
#    x 1.880890 0.016330 0.011590 
#    y 0.016330 1.841480 -0.013690 
#    z 0.011590 -0.013690 1.938850 
# 
# From -- ./inp_files/345245.got.cif
#   From: 2010.05.17/outbox.cif.g08.bks.cpg/sg2_173_cif.got.tgz:345245.got - 2010.06.03 11:33:40.
