data_PCOD9102380
_publ_section_title
;
Structure prediction by ZEFSAII (Michael W. Deem and Ramdas Pophale) SiO2 
 PCOD9102380
Probable space group: P -1
;
_chemical_formula_sum "Si O2"
_cell_formula_units_Z 14
_cell_length_a 9.619400
_cell_length_b 7.900180
_cell_length_c 14.891464
_cell_angle_alpha 151.202147
_cell_angle_beta 113.875825
_cell_angle_gamma 73.898587
_cell_volume 490.753254
_symmetry_space_group_name_H-M "P -1"
_symmetry_group_IT_number 2
_symmetry_cell_setting 'triclinic'
loop_
_space_group_symop_operation_xyz
x,y,z
-x,-y,-z
loop_
_atom_site_type_symbol
_atom_site_label
_atom_site_fract_x
_atom_site_fract_y
_atom_site_fract_z
Si Si1 0.427025 0.297532 0.231261
Si Si2 0.165745 0.729000 0.903085
Si Si3 0.657325 0.997150 0.261303
Si Si4 0.180815 0.937152 0.327809
Si Si5 0.841338 0.236626 0.573392
Si Si6 0.556621 0.398514 0.821408
Si Si7 0.015014 0.103558 0.896543
O O1 0.290741 0.514835 0.325668
O O2 0.471894 0.433076 0.205230
O O3 0.571514 0.295013 0.333827
O O4 0.349688 0.870557 0.020769
O O5 0.020592 0.403147 0.712938
O O6 0.114915 0.901507 0.062764
O O7 0.136896 0.901770 0.880488
O O8 0.568742 0.795718 0.230828
O O9 0.817220 0.138283 0.417739
O O10 0.663732 0.703782 0.050518
O O11 0.195623 0.046167 0.485825
O O12 0.348244 0.916075 0.324259
O O13 0.069285 0.086416 0.299987
O O14 0.098450 0.515329 0.105324
#
# Coordination Sequence:
#
# PCOD9102380 Si02
#       7
#     2   2   2   2   2   2   2
#     4  11  19  38  63  83 106 150 190 227 272 336
#     4  10  16  32  56  87 109 133 183 232 283 325
#     4  11  24  38  56  78 122 148 184 228 279 322
#     4   9  17  30  57  80 106 140 187 227 271 320
#     4  10  20  36  54  89 113 136 181 244 278 319
#     4  10  22  39  55  78 111 160 189 213 271 351
#     4   9  14  28  54  84 106 138 175 233 271 329
#
# _framework density 28.527573
#
# number of rings (size 3 to 8) (size 9 to 14) (size 15 to 20)
#    0.000    2.000    5.714    1.714    0.000    2.286 
#    2.571    0.714    0.000   18.000    0.000    0.000 
#    0.000    0.000    0.000    0.000    0.000    0.000 
#
# Total GULP energy -78165.573348 kJ/mol
# GULP energy per Si atom -5583.255239 kJ/mol
# Density = 2.846264 g / cm^3
# Si number density = 28.527573 Si / 1000 Ang^3
#
#
#
# Elastic Constant Matrix: (Units=GPa)
#
#
# Indices 1 2 3 4 5 6 
#
# 1 98.4086 36.6352 29.2172 -5.2344 -23.4497 11.1193
# 2 36.6352 156.5184 61.2570 -31.8251 -1.8320 -3.2849
# 3 29.2172 61.2570 121.7118 -43.5753 -0.5986 3.0274
# 4 -5.2344 -31.8251 -43.5753 62.4036 1.0578 9.1799
# 5 -23.4497 -1.8320 -0.5986 1.0578 36.1325 -1.0865
# 6 11.1193 -3.2849 3.0274 9.1799 -1.0865 42.2967
#
#
#
# Elastic Compliance Matrix: (Units=1/GPa)
#
#
# Indices 1 2 3 4 5 6 
#
# 1 0.014351 -0.002644 -0.002570 -0.001621 0.009088 -0.003209
# 2 -0.002644 0.008593 -0.003050 0.001887 -0.001352 0.001136
# 3 -0.002570 -0.003050 0.013214 0.007820 -0.001901 -0.002253
# 4 -0.001621 0.001887 0.007820 0.023081 -0.001654 -0.005039
# 5 0.009088 -0.001352 -0.001901 -0.001654 0.033488 -0.001139
# 6 -0.003209 0.001136 -0.002253 -0.005039 -0.001139 0.025800
#
#
# Mechanical properties :
#
#
# Convention : Reuss Voigt Hill
#
# Bulk Modulus (GPa) = 50.93960 70.09530 60.51745
# Shear Modulus (GPa) = 35.31112 44.80187 40.05649
#
# Velocity S-wave (km/s) = 3.52204 3.96722 3.75124
# Velocity P-wave (km/s) = 5.86811 6.75348 6.32630
#
# Compressibility (1/GPa) = 0.01963109
#
# Stress axis : x y z
#
# Youngs Moduli (GPa) = 69.68197 116.37348 75.67445
#
# Poissons Ratio (x) = 0.30766 0.19451
# Poissons Ratio (y) = 0.18422 0.23078
# Poissons Ratio (z) = 0.17911 0.35489
#
# Static dielectric constant tensor:
#      x y z
#    x 2.260970 -0.060320 0.039090 
#    y -0.060320 2.250800 0.141200 
#    z 0.039090 0.141200 2.501680 
# 
# From -- ./inp_files/445218.got.cif
#   From: 2010.05.17/outbox.cif.g08.bks.cpg/sg2_223_cif.got.tgz:445218.got - 2010.06.03 11:33:40.
