data_PCOD9102144
_publ_section_title
;
Structure prediction by ZEFSAII (Michael W. Deem and Ramdas Pophale) SiO2 
 PCOD9102144
Probable space group: P -1
;
_chemical_formula_sum "Si O2"
_cell_formula_units_Z 15
_cell_length_a 11.606007
_cell_length_b 14.735759
_cell_length_c 14.642199
_cell_angle_alpha 31.091703
_cell_angle_beta 43.458141
_cell_angle_gamma 64.390988
_cell_volume 752.518279
_symmetry_space_group_name_H-M "P -1"
_symmetry_group_IT_number 2
_symmetry_cell_setting 'triclinic'
loop_
_space_group_symop_operation_xyz
x,y,z
-x,-y,-z
loop_
_atom_site_type_symbol
_atom_site_label
_atom_site_fract_x
_atom_site_fract_y
_atom_site_fract_z
Si Si1 0.694617 0.830638 0.259718
Si Si2 0.906126 0.159857 0.004450
Si Si3 0.635921 0.577320 0.263600
Si Si4 0.500000 0.500000 0.000000
Si Si5 0.690446 0.991444 0.921862
Si Si6 0.333360 0.023134 0.525265
Si Si7 0.957130 0.391410 0.021518
Si Si8 0.916285 0.561652 0.714048
O O1 0.497768 0.601367 0.579303
O O2 0.881329 0.802784 0.173566
O O3 0.682772 0.924696 0.089095
O O4 0.745129 0.998736 0.163966
O O5 0.920694 0.377861 0.816886
O O6 0.834515 0.045347 0.241679
O O7 0.500000 0.500000 0.500000
O O8 0.685908 0.809954 0.020692
O O9 0.839965 0.586338 0.149188
O O10 0.431251 0.255785 0.237577
O O11 0.269545 0.427351 0.216844
O O12 0.883982 0.216791 0.602394
O O13 0.500000 0.000000 0.000000
O O14 0.500000 0.000000 0.500000
O O15 0.220070 0.848451 0.664365
O O16 0.893542 0.494359 0.891809
O O17 0.000000 0.500000 0.000000
#
# Coordination Sequence:
#
# PCOD9102144 Si02
#       8
#     2   2   2   1   2   2   2   2
#     4  10  21  37  64  90 119 163 210 257 321 375
#     4  10  21  40  62  89 122 164 210 260 313 379
#     4  10  20  38  62  86 119 164 208 251 317 381
#     4  12  22  38  66  92 120 170 218 252 312 392
#     4  11  21  39  60  89 123 160 207 266 323 378
#     4  11  22  43  64  87 128 172 210 254 323 378
#     4  11  24  42  65  92 129 172 216 264 324 386
#     4  11  22  39  62  90 127 165 209 263 323 376
#
# _framework density 19.933071999999999
#
# number of rings (size 3 to 8) (size 9 to 14) (size 15 to 20)
#    0.000    1.333    2.667    7.200    1.867    0.533 
#    0.000    6.667    0.000    0.000    0.000    0.000 
#    0.000    0.000    0.000    0.000    0.000    0.000 
#
# Total GULP energy -83518.523646 kJ/mol
# GULP energy per Si atom -5567.901576 kJ/mol
# Density = 1.988770 g / cm^3
# Si number density = 19.933072 Si / 1000 Ang^3
#
#
#
# Elastic Constant Matrix: (Units=GPa)
#
#
# Indices 1 2 3 4 5 6 
#
# 1 54.1073 39.4847 20.9774 -21.5384 -24.3997 11.6177
# 2 39.4847 88.9694 47.3909 -31.8079 -9.8313 8.1823
# 3 20.9774 47.3909 135.8678 -44.5520 -35.8649 7.9245
# 4 -21.5384 -31.8079 -44.5520 45.8847 0.4955 -15.7253
# 5 -24.3997 -9.8313 -35.8649 0.4955 36.8078 -1.3925
# 6 11.6177 8.1823 7.9245 -15.7253 -1.3925 37.1848
#
#
#
# Elastic Compliance Matrix: (Units=1/GPa)
#
#
# Indices 1 2 3 4 5 6 
#
# 1 0.084429 -0.028288 0.036665 0.054039 0.083335 -0.001994
# 2 -0.028288 0.025247 -0.014125 -0.008640 -0.025592 0.001681
# 3 0.036665 -0.014125 0.033898 0.041055 0.053153 0.003781
# 4 0.054039 -0.008640 0.041055 0.085429 0.072939 0.015128
# 5 0.083335 -0.025592 0.053153 0.072939 0.126530 0.003851
# 6 -0.001994 0.001681 0.003781 0.015128 0.003851 0.032882
#
#
# Mechanical properties :
#
#
# Convention : Reuss Voigt Hill
#
# Bulk Modulus (GPa) = 7.57128 54.96115 31.26621
# Shear Modulus (GPa) = 11.26283 35.38156 23.32219
#
# Velocity S-wave (km/s) = 2.37962 4.21767 3.42427
# Velocity P-wave (km/s) = 3.36997 7.16596 5.59945
#
# Compressibility (1/GPa) = 0.13207809
#
# Stress axis : x y z
#
# Youngs Moduli (GPa) = 11.84422 39.60897 29.50005
#
# Poissons Ratio (x) = 1.12048 -1.08163
# Poissons Ratio (y) = 0.33505 0.41669
# Poissons Ratio (z) = -0.43427 0.55948
#
# Static dielectric constant tensor:
#      x y z
#    x 1.728680 0.017810 -0.024430 
#    y 0.017810 1.731870 -0.002110 
#    z -0.024430 -0.002110 1.711490 
# 
# From -- ./inp_files/331449.got.cif
#   From: 2010.05.17/outbox.cif.g08.bks.cpg/sg2_166_cif.got.tgz:331449.got - 2010.06.03 11:33:40.
