data_PCOD9102023
_publ_section_title
;
Structure prediction by ZEFSAII (Michael W. Deem and Ramdas Pophale) SiO2 
 PCOD9102023
Probable space group: P -1
;
_chemical_formula_sum "Si O2"
_cell_formula_units_Z 14
_cell_length_a 15.498192
_cell_length_b 15.868383
_cell_length_c 11.195810
_cell_angle_alpha 55.505540
_cell_angle_beta 139.862656
_cell_angle_gamma 153.978626
_cell_volume 704.206526
_symmetry_space_group_name_H-M "P -1"
_symmetry_group_IT_number 2
_symmetry_cell_setting 'triclinic'
loop_
_space_group_symop_operation_xyz
x,y,z
-x,-y,-z
loop_
_atom_site_type_symbol
_atom_site_label
_atom_site_fract_x
_atom_site_fract_y
_atom_site_fract_z
Si Si1 0.632506 0.144227 0.673856
Si Si2 0.678535 0.268198 0.385525
Si Si3 0.981959 0.082275 0.512494
Si Si4 0.565020 0.146419 0.877565
Si Si5 0.216439 0.533313 0.028107
Si Si6 0.201099 0.345679 0.336071
Si Si7 0.713584 0.876697 0.090287
O O1 0.615269 0.224232 0.495852
O O2 0.626138 0.164309 0.790930
O O3 0.947100 0.316387 0.845877
O O4 0.411995 0.907344 0.607844
O O5 0.000000 0.500000 0.500000
O O6 0.468578 0.204047 0.147026
O O7 0.157017 0.291544 0.471637
O O8 0.110608 0.111132 0.739505
O O9 0.684066 0.936095 0.325195
O O10 0.000000 0.000000 0.500000
O O11 0.798773 0.359813 0.031625
O O12 0.500000 0.000000 0.000000
O O13 0.219012 0.469904 0.202851
O O14 0.481810 0.702017 0.088076
O O15 0.500000 0.500000 0.500000
O O16 0.938309 0.113917 0.178469
#
# Coordination Sequence:
#
# PCOD9102023 Si02
#       7
#     2   2   2   2   2   2   2
#     4  11  25  39  63  97 125 176 223 260 333 381
#     4  11  23  43  66  89 129 175 229 272 305 385
#     4  10  20  38  61  91 133 169 203 263 324 391
#     4  12  24  41  64  99 142 165 207 276 337 393
#     4  12  20  38  64  96 132 164 206 271 332 391
#     4  11  19  33  60  94 128 160 209 255 323 390
#     4  11  20  38  63  95 125 168 221 266 313 381
#
# _framework density 19.880531000000001
#
# number of rings (size 3 to 8) (size 9 to 14) (size 15 to 20)
#    0.000    0.857    7.143    3.000    0.000    0.000 
#    0.000    0.714    0.000    0.857    0.000    0.000 
#    0.000    0.000    0.000    0.000    0.000    0.000 
#
# Total GULP energy -77939.495249 kJ/mol
# GULP energy per Si atom -5567.106804 kJ/mol
# Density = 1.983528 g / cm^3
# Si number density = 19.880531 Si / 1000 Ang^3
#
#
#
# Elastic Constant Matrix: (Units=GPa)
#
#
# Indices 1 2 3 4 5 6 
#
# 1 39.8439 19.7683 21.2298 2.6225 5.1493 11.4748
# 2 19.7683 155.3753 54.8401 -3.7098 2.3007 4.7219
# 3 21.2298 54.8401 146.7016 -20.3043 10.2146 8.1646
# 4 2.6225 -3.7098 -20.3043 56.1600 6.4243 3.2846
# 5 5.1493 2.3007 10.2146 6.4243 23.2231 -2.8712
# 6 11.4748 4.7219 8.1646 3.2846 -2.8712 24.6051
#
#
#
# Elastic Compliance Matrix: (Units=1/GPa)
#
#
# Indices 1 2 3 4 5 6 
#
# 1 0.033134 -0.002782 -0.002531 -0.000916 -0.007539 -0.014836
# 2 -0.002782 0.007677 -0.002684 -0.000537 0.001302 0.000938
# 3 -0.002531 -0.002684 0.009185 0.003929 -0.004598 -0.002413
# 4 -0.000916 -0.000537 0.003929 0.020365 -0.007647 -0.004384
# 5 -0.007539 0.001302 -0.004598 -0.007647 0.050183 0.011668
# 6 -0.014836 0.000938 -0.002413 -0.004384 0.011668 0.050128
#
#
# Mechanical properties :
#
#
# Convention : Reuss Voigt Hill
#
# Bulk Modulus (GPa) = 29.41128 59.28858 44.34993
# Shear Modulus (GPa) = 25.25249 37.20315 31.22782
#
# Velocity S-wave (km/s) = 3.56787 4.33059 3.96760
# Velocity P-wave (km/s) = 5.63907 7.40895 6.58375
#
# Compressibility (1/GPa) = 0.03400056
#
# Stress axis : x y z
#
# Youngs Moduli (GPa) = 30.18053 130.26287 108.87880
#
# Poissons Ratio (x) = 0.36233 0.27561
# Poissons Ratio (y) = 0.08395 0.29228
# Poissons Ratio (z) = 0.07640 0.34968
#
# Static dielectric constant tensor:
#      x y z
#    x 1.731850 -0.001780 -0.003860 
#    y -0.001780 1.776800 0.008970 
#    z -0.003860 0.008970 1.843040 
# 
# From -- ./inp_files/466329.got.cif
#   From: 2010.05.17/outbox.cif.g08.bks.cpg/sg2_234_cif.got.tgz:466329.got - 2010.06.03 11:33:40.
