data_PCOD9102591
_publ_section_title
;
Structure prediction by ZEFSAII (Michael W. Deem and Ramdas Pophale) SiO2 
 PCOD9102591
Probable space group: P -1
;
_chemical_formula_sum "Si O2"
_cell_formula_units_Z 16
_cell_length_a 19.449837
_cell_length_b 11.284502
_cell_length_c 9.054094
_cell_angle_alpha 42.554148
_cell_angle_beta 128.141368
_cell_angle_gamma 149.493974
_cell_volume 681.370492
_symmetry_space_group_name_H-M "P -1"
_symmetry_group_IT_number 2
_symmetry_cell_setting 'triclinic'
loop_
_space_group_symop_operation_xyz
x,y,z
-x,-y,-z
loop_
_atom_site_type_symbol
_atom_site_label
_atom_site_fract_x
_atom_site_fract_y
_atom_site_fract_z
Si Si1 0.397438 0.607474 0.294308
Si Si2 0.669142 0.076859 0.064845
Si Si3 0.415194 0.054417 0.246002
Si Si4 0.820516 0.262589 0.543171
Si Si5 0.822672 0.882335 0.766319
Si Si6 0.917721 0.894896 0.195916
Si Si7 0.637066 0.426742 0.398724
Si Si8 0.934825 0.523388 0.166189
O O1 0.301058 0.375083 0.258001
O O2 0.381123 0.508298 0.528757
O O3 0.552507 0.829283 0.245741
O O4 0.351161 0.741782 0.117966
O O5 0.821643 0.275079 0.136428
O O6 0.640781 0.963006 0.967529
O O7 0.549950 0.356484 0.206833
O O8 0.306915 0.894991 0.380525
O O9 0.429259 0.868585 0.400328
O O10 0.857063 0.448868 0.286822
O O11 0.947007 0.424328 0.671308
O O12 0.801270 0.049435 0.629452
O O13 0.849289 0.824540 0.009861
O O14 0.961409 0.058400 0.699254
O O15 0.795094 0.657921 0.357779
O O16 0.992346 0.192346 0.060047
#
# Coordination Sequence:
#
# PCOD9102591 Si02
#       8
#     2   2   2   2   2   2   2   2
#     4  10  20  38  63  92 118 155 208 254 298 347
#     4  10  20  38  64  88 120 159 205 252 294 357
#     4  10  22  40  61  91 123 158 204 249 303 357
#     4  10  23  39  62  89 127 161 195 246 305 364
#     4  10  21  38  60  94 119 162 197 248 302 355
#     4  10  21  37  63  91 122 158 205 245 297 358
#     4  10  22  38  64  93 117 158 204 259 294 350
#     4  10  21  40  59  92 120 167 198 242 303 358
#
# _framework density 23.482085000000001
#
# number of rings (size 3 to 8) (size 9 to 14) (size 15 to 20)
#    0.000    2.000    1.250    1.500    7.000    3.000 
#    0.000   10.625    0.000    0.000    0.000    0.000 
#    0.000    0.000    0.000    0.000    0.000    0.000 
#
# Total GULP energy -89456.335194 kJ/mol
# GULP energy per Si atom -5591.020950 kJ/mol
# Density = 2.342864 g / cm^3
# Si number density = 23.482085 Si / 1000 Ang^3
#
#
#
# Elastic Constant Matrix: (Units=GPa)
#
#
# Indices 1 2 3 4 5 6 
#
# 1 29.3540 33.1838 8.7185 -3.2738 -9.2057 12.7205
# 2 33.1838 175.2156 26.2351 19.4388 -12.4963 5.6264
# 3 8.7185 26.2351 36.9247 0.0281 -5.9189 -3.7124
# 4 -3.2738 19.4388 0.0281 29.6993 -2.0497 -3.9548
# 5 -9.2057 -12.4963 -5.9189 -2.0497 29.6969 -12.0788
# 6 12.7205 5.6264 -3.7124 -3.9548 -12.0788 25.0989
#
#
#
# Elastic Compliance Matrix: (Units=1/GPa)
#
#
# Indices 1 2 3 4 5 6 
#
# 1 0.063040 -0.010517 -0.009894 0.010231 0.002331 -0.028322
# 2 -0.010517 0.008951 -0.003701 -0.006788 -0.000007 0.001703
# 3 -0.009894 -0.003701 0.035144 0.004082 0.009219 0.016122
# 4 0.010231 -0.006788 0.004082 0.040555 0.006568 0.006491
# 5 0.002331 -0.000007 0.009219 0.006568 0.046228 0.023466
# 6 -0.028322 0.001703 0.016122 0.006491 0.023466 0.068515
#
#
# Mechanical properties :
#
#
# Convention : Reuss Voigt Hill
#
# Bulk Modulus (GPa) = 16.97498 41.97433 29.47466
# Shear Modulus (GPa) = 15.13796 28.45615 21.79706
#
# Velocity S-wave (km/s) = 2.54177 3.48490 3.05001
# Velocity P-wave (km/s) = 3.98230 5.84008 4.99827
#
# Compressibility (1/GPa) = 0.05891023
#
# Stress axis : x y z
#
# Youngs Moduli (GPa) = 15.86292 111.71734 28.45456
#
# Poissons Ratio (x) = 1.17494 0.28153
# Poissons Ratio (y) = 0.16683 0.10532
# Poissons Ratio (z) = 0.15695 0.41350
#
# Static dielectric constant tensor:
#      x y z
#    x 1.858280 -0.010710 0.027590 
#    y -0.010710 1.896740 0.015090 
#    z 0.027590 0.015090 1.977570 
# 
# From -- ./inp_files/345965.got.cif
#   From: 2010.05.17/outbox.cif.g08.bks.cpg/sg2_173_cif.got.tgz:345965.got - 2010.06.03 11:33:40.
