data_PCOD9102863
_publ_section_title
;
Structure prediction by ZEFSAII (Michael W. Deem and Ramdas Pophale) SiO2 
 PCOD9102863
Probable space group: P -1
;
_chemical_formula_sum "Si O2"
_cell_formula_units_Z 15
_cell_length_a 10.620446
_cell_length_b 12.463071
_cell_length_c 10.201937
_cell_angle_alpha 143.182550
_cell_angle_beta 61.983423
_cell_angle_gamma 125.926680
_cell_volume 655.287715
_symmetry_space_group_name_H-M "P -1"
_symmetry_group_IT_number 2
_symmetry_cell_setting 'triclinic'
loop_
_space_group_symop_operation_xyz
x,y,z
-x,-y,-z
loop_
_atom_site_type_symbol
_atom_site_label
_atom_site_fract_x
_atom_site_fract_y
_atom_site_fract_z
Si Si1 0.316868 0.413997 0.654969
Si Si2 0.055148 0.277546 0.999994
Si Si3 0.683106 0.597158 0.655014
Si Si4 0.215511 0.734955 0.073316
Si Si5 0.167085 0.051497 0.537424
Si Si6 0.500000 0.000000 0.000000
Si Si7 0.784461 0.019443 0.073362
Si Si8 0.832902 0.384442 0.537447
O O1 0.499984 0.539449 0.682481
O O2 0.257133 0.378508 0.499939
O O3 0.287490 0.210570 0.537749
O O4 0.234045 0.532995 0.888154
O O5 0.937942 0.300893 0.971889
O O6 0.155737 0.164483 0.782907
O O7 0.937938 0.137016 0.028130
O O8 0.155763 0.491198 0.217053
O O9 0.712514 0.423102 0.537733
O O10 0.765897 0.798941 0.888222
O O11 0.204568 0.860823 0.326702
O O12 0.362574 0.862539 0.035640
O O13 0.000000 0.000000 0.500000
O O14 0.637420 0.999974 0.035660
O O15 0.795398 0.156279 0.326759
O O16 0.000000 0.500000 0.500000
#
# Coordination Sequence:
#
# PCOD9102863 Si02
#       8
#     2   2   2   2   2   1   2   2
#     4  11  22  34  58  92 117 144 192 251 299 339
#     4   9  20  39  57  82 115 162 196 226 285 358
#     4  11  22  34  58  92 117 144 192 251 299 339
#     4  10  20  35  60  85 117 147 188 247 295 336
#     4  10  22  38  58  84 119 158 194 235 290 350
#     4  10  16  32  58  86 112 140 184 240 300 334
#     4  10  20  35  60  85 117 147 188 247 295 336
#     4  10  22  38  58  84 119 158 194 235 290 350
#
# _framework density 22.890709000000001
#
# number of rings (size 3 to 8) (size 9 to 14) (size 15 to 20)
#    0.000    1.867    1.333    4.800    5.600    4.267 
#    0.000    7.333    0.000    1.600    0.000    0.000 
#    0.000    0.000    0.000    0.000    0.000    0.000 
#
# Total GULP energy -83581.938178 kJ/mol
# GULP energy per Si atom -5572.129212 kJ/mol
# Density = 2.283861 g / cm^3
# Si number density = 22.890709 Si / 1000 Ang^3
#
#
#
# Elastic Constant Matrix: (Units=GPa)
#
#
# Indices 1 2 3 4 5 6 
#
# 1 59.4606 4.4098 22.8560 -7.5508 -7.2536 7.3497
# 2 4.4098 49.9278 26.3990 5.2176 7.7743 9.6606
# 3 22.8560 26.3990 163.9554 5.0175 -13.5474 -5.9069
# 4 -7.5508 5.2176 5.0175 28.6559 -6.0715 -1.3837
# 5 -7.2536 7.7743 -13.5474 -6.0715 27.2661 4.7307
# 6 7.3497 9.6606 -5.9069 -1.3837 4.7307 17.3961
#
#
#
# Elastic Compliance Matrix: (Units=1/GPa)
#
#
# Indices 1 2 3 4 5 6 
#
# 1 0.021243 -0.000072 -0.002939 0.007226 0.007813 -0.011483
# 2 -0.000072 0.028309 -0.005702 -0.006999 -0.009790 -0.015521
# 3 -0.002939 -0.005702 0.007956 -0.000045 0.003730 0.006092
# 4 0.007226 -0.006999 -0.000045 0.040842 0.012893 0.000561
# 5 0.007813 -0.009790 0.003730 0.012893 0.047755 -0.008559
# 6 -0.011483 -0.015521 0.006092 0.000561 -0.008559 0.075396
#
#
# Mechanical properties :
#
#
# Convention : Reuss Voigt Hill
#
# Bulk Modulus (GPa) = 24.94893 42.29704 33.62298
# Shear Modulus (GPa) = 19.81869 29.30888 24.56379
#
# Velocity S-wave (km/s) = 2.94563 3.58213 3.27936
# Velocity P-wave (km/s) = 4.74255 5.96882 5.39067
#
# Compressibility (1/GPa) = 0.04008188
#
# Stress axis : x y z
#
# Youngs Moduli (GPa) = 47.07433 35.32435 125.69001
#
# Poissons Ratio (x) = 0.00255 0.36940
# Poissons Ratio (y) = 0.00340 0.71668
# Poissons Ratio (z) = 0.13835 0.20142
#
# Static dielectric constant tensor:
#      x y z
#    x 1.894120 -0.060560 -0.006960 
#    y -0.060560 1.918140 -0.001280 
#    z -0.006960 -0.001280 1.931500 
# 
# From -- ./inp_files/431555.got.cif
#   From: 2010.05.17/outbox.cif.g08.bks.cpg/sg2_216_cif.got.tgz:431555.got - 2010.06.03 11:33:40.
