data_PCOD9102840
_publ_section_title
;
Structure prediction by ZEFSAII (Michael W. Deem and Ramdas Pophale) SiO2 
 PCOD9102840
Probable space group: P -1
;
_chemical_formula_sum "Si O2"
_cell_formula_units_Z 14
_cell_length_a 16.450017
_cell_length_b 7.187076
_cell_length_c 5.190550
_cell_angle_alpha 85.434756
_cell_angle_beta 101.885474
_cell_angle_gamma 116.974319
_cell_volume 535.112881
_symmetry_space_group_name_H-M "P -1"
_symmetry_group_IT_number 2
_symmetry_cell_setting 'triclinic'
loop_
_space_group_symop_operation_xyz
x,y,z
-x,-y,-z
loop_
_atom_site_type_symbol
_atom_site_label
_atom_site_fract_x
_atom_site_fract_y
_atom_site_fract_z
Si Si1 0.267234 0.409532 0.234944
Si Si2 0.958132 0.158541 0.036930
Si Si3 0.786608 0.223827 0.902779
Si Si4 0.837177 0.815013 0.332678
Si Si5 0.526149 0.275592 0.735387
Si Si6 0.417204 0.107257 0.175382
Si Si7 0.919812 0.531360 0.306145
O O1 0.241236 0.602754 0.255003
O O2 0.232872 0.250667 0.469116
O O3 0.376838 0.519316 0.244518
O O4 0.215291 0.291528 0.955074
O O5 0.869612 0.179488 0.849234
O O6 0.041979 0.370204 0.963458
O O7 0.907568 0.052144 0.284937
O O8 0.000000 0.000000 0.000000
O O9 0.693924 0.008365 0.885524
O O10 0.825865 0.327818 0.197860
O O11 0.900076 0.696062 0.436526
O O12 0.464246 0.233069 0.447268
O O13 0.555334 0.085593 0.793653
O O14 0.463408 0.250341 0.944636
O O15 0.000000 0.500000 0.500000
#
# Coordination Sequence:
#
# PCOD9102840 Si02
#       7
#     2   2   2   2   2   2   2
#     4  10  20  38  64  90 120 157 200 243 292 356
#     4  10  22  39  57  86 121 160 200 248 301 352
#     4  10  21  37  60  88 120 157 203 248 295 352
#     4  10  22  38  59  88 121 160 198 243 299 353
#     4   9  17  32  56  88 118 148 188 241 296 346
#     4   9  18  31  55  88 119 147 188 244 295 344
#     4  10  21  37  60  87 117 156 205 253 297 350
#
# _framework density 26.162704000000002
#
# number of rings (size 3 to 8) (size 9 to 14) (size 15 to 20)
#    0.000    2.286    0.000    2.143    0.000   11.429 
#    0.000    8.571    0.000    5.143    0.000    0.000 
#    0.000    0.000    0.000    0.000    0.000    0.000 
#
# Total GULP energy -78284.799733 kJ/mol
# GULP energy per Si atom -5591.771409 kJ/mol
# Density = 2.610316 g / cm^3
# Si number density = 26.162704 Si / 1000 Ang^3
#
#
#
# Elastic Constant Matrix: (Units=GPa)
#
#
# Indices 1 2 3 4 5 6 
#
# 1 129.5177 48.5604 30.4502 -6.4398 3.7800 23.6881
# 2 48.5604 115.6958 61.2411 15.4289 -6.4284 49.2116
# 3 30.4502 61.2411 145.5852 -7.1417 -31.6872 44.4302
# 4 -6.4398 15.4289 -7.1417 34.7068 13.1686 6.8775
# 5 3.7800 -6.4284 -31.6872 13.1686 37.4468 -9.3451
# 6 23.6881 49.2116 44.4302 6.8775 -9.3451 75.0990
#
#
#
# Elastic Compliance Matrix: (Units=1/GPa)
#
#
# Indices 1 2 3 4 5 6 
#
# 1 0.010165 -0.004536 -0.000651 0.005699 -0.004595 -0.000942
# 2 -0.004536 0.016563 -0.004391 -0.008324 0.001032 -0.005934
# 3 -0.000651 -0.004391 0.011510 0.001879 0.007655 -0.002946
# 4 0.005699 -0.008324 0.001879 0.040405 -0.015389 -0.003070
# 5 -0.004595 0.001032 0.007655 -0.015389 0.039888 0.002617
# 6 -0.000942 -0.005934 -0.002946 -0.003070 0.002617 0.019851
#
#
# Mechanical properties :
#
#
# Convention : Reuss Voigt Hill
#
# Bulk Modulus (GPa) = 52.40929 74.58910 63.49920
# Shear Modulus (GPa) = 30.50667 46.15366 38.33016
#
# Velocity S-wave (km/s) = 3.41843 4.20468 3.83177
# Velocity P-wave (km/s) = 5.97130 7.22108 6.62573
#
# Compressibility (1/GPa) = 0.01908059
#
# Stress axis : x y z
#
# Youngs Moduli (GPa) = 98.38142 60.37386 86.88401
#
# Poissons Ratio (x) = 0.27388 0.05653
# Poissons Ratio (y) = 0.44630 0.38155
# Poissons Ratio (z) = 0.06401 0.26513
#
# Static dielectric constant tensor:
#      x y z
#    x 2.046210 -0.061790 0.025010 
#    y -0.061790 2.026290 0.000960 
#    z 0.025010 0.000960 2.033120 
# 
# From -- ./inp_files/104797.got.cif
#   From: 2010.05.17/outbox.cif.g08.bks.cpg/sg2_53_cif.got.tgz:104797.got - 2010.06.03 11:33:40.
