data_PCOD9102713
_publ_section_title
;
Structure prediction by ZEFSAII (Michael W. Deem and Ramdas Pophale) SiO2 
 PCOD9102713
Probable space group: P -1
;
_chemical_formula_sum "Si O2"
_cell_formula_units_Z 10
_cell_length_a 6.924207
_cell_length_b 10.185542
_cell_length_c 14.364459
_cell_angle_alpha 28.201263
_cell_angle_beta 73.512558
_cell_angle_gamma 86.498609
_cell_volume 417.208925
_symmetry_space_group_name_H-M "P -1"
_symmetry_group_IT_number 2
_symmetry_cell_setting 'triclinic'
loop_
_space_group_symop_operation_xyz
x,y,z
-x,-y,-z
loop_
_atom_site_type_symbol
_atom_site_label
_atom_site_fract_x
_atom_site_fract_y
_atom_site_fract_z
Si Si1 0.214366 0.451264 0.117888
Si Si2 0.095118 0.917502 0.130178
Si Si3 0.347086 0.185777 0.097489
Si Si4 0.895387 0.697373 0.481168
Si Si5 0.253003 0.963830 0.557346
O O1 0.288715 0.421884 0.021158
O O2 0.233188 0.172834 0.345716
O O3 0.401704 0.746291 0.955296
O O4 0.955342 0.367810 0.213263
O O5 0.182475 0.654858 0.265018
O O6 0.897673 0.766900 0.327918
O O7 0.285439 0.181794 0.999861
O O8 0.000000 0.000000 0.000000
O O9 0.162359 0.860947 0.360599
O O10 0.789899 0.878595 0.442624
O O11 0.500000 0.000000 0.500000
#
# Coordination Sequence:
#
# PCOD9102713 Si02
#       5
#     2   2   2   2   2
#     4   9  18  37  61  94 132 168 213 278 328 390
#     4   9  17  36  68 101 128 173 226 272 328 387
#     4   8  16  36  61  94 131 167 212 282 327 374
#     4   8  18  37  63  99 133 167 223 276 323 387
#     4  10  20  38  63  98 134 176 214 265 338 399
#
# _framework density 23.968805
#
# number of rings (size 3 to 8) (size 9 to 14) (size 15 to 20)
#    1.200    2.000    0.000    0.000    0.000    0.000 
#   10.800   14.000    0.000    3.600    0.000    0.000 
#    0.000    0.000    0.000    0.000    0.000    0.000 
#
# Total GULP energy -55765.116762 kJ/mol
# GULP energy per Si atom -5576.511676 kJ/mol
# Density = 2.391425 g / cm^3
# Si number density = 23.968805 Si / 1000 Ang^3
#
#
#
# Elastic Constant Matrix: (Units=GPa)
#
#
# Indices 1 2 3 4 5 6 
#
# 1 176.4985 70.3134 58.5880 -3.2142 -25.5134 13.7962
# 2 70.3134 140.8561 40.7174 6.3080 -5.1919 21.7565
# 3 58.5880 40.7174 64.5585 9.5219 -10.1139 7.6066
# 4 -3.2142 6.3080 9.5219 30.0145 12.2262 -4.1336
# 5 -25.5134 -5.1919 -10.1139 12.2262 39.9399 6.0292
# 6 13.7962 21.7565 7.6066 -4.1336 6.0292 31.1917
#
#
#
# Elastic Compliance Matrix: (Units=1/GPa)
#
#
# Indices 1 2 3 4 5 6 
#
# 1 0.009569 -0.002634 -0.006599 0.002007 0.003670 -0.001229
# 2 -0.002634 0.010289 -0.002971 -0.002507 0.000534 -0.005723
# 3 -0.006599 -0.002971 0.026573 -0.011686 0.006348 -0.004265
# 4 0.002007 -0.002507 -0.011686 0.047159 -0.018482 0.013533
# 5 0.003670 0.000534 0.006348 -0.018482 0.036692 -0.013086
# 6 -0.001229 -0.005723 -0.004265 0.013533 -0.013086 0.041958
#
#
# Mechanical properties :
#
#
# Convention : Reuss Voigt Hill
#
# Bulk Modulus (GPa) = 45.40757 80.12783 62.76770
# Shear Modulus (GPa) = 24.51123 34.38216 29.44670
#
# Velocity S-wave (km/s) = 3.20133 3.79153 3.50886
# Velocity P-wave (km/s) = 5.71404 7.25742 6.53148
#
# Compressibility (1/GPa) = 0.02202276
#
# Stress axis : x y z
#
# Youngs Moduli (GPa) = 104.50817 97.19107 37.63206
#
# Poissons Ratio (x) = 0.25597 0.24833
# Poissons Ratio (y) = 0.27525 0.11182
# Poissons Ratio (z) = 0.68963 0.28879
#
# Static dielectric constant tensor:
#      x y z
#    x 1.926940 0.021350 -0.017630 
#    y 0.021350 1.998610 -0.015500 
#    z -0.017630 -0.015500 1.976420 
# 
# From -- ./inp_files/415317.got.cif
#   From: 2010.05.17/outbox.cif.g08.bks.cpg/sg2_208_cif.got.tgz:415317.got - 2010.06.03 11:33:40.
