data_PCOD9102969
_publ_section_title
;
Structure prediction by ZEFSAII (Michael W. Deem and Ramdas Pophale) SiO2 
 PCOD9102969
Probable space group: P -1
;
_chemical_formula_sum "Si O2"
_cell_formula_units_Z 14
_cell_length_a 22.183240
_cell_length_b 10.915580
_cell_length_c 8.372209
_cell_angle_alpha 44.814279
_cell_angle_beta 137.145881
_cell_angle_gamma 156.048351
_cell_volume 554.013545
_symmetry_space_group_name_H-M "P -1"
_symmetry_group_IT_number 2
_symmetry_cell_setting 'triclinic'
loop_
_space_group_symop_operation_xyz
x,y,z
-x,-y,-z
loop_
_atom_site_type_symbol
_atom_site_label
_atom_site_fract_x
_atom_site_fract_y
_atom_site_fract_z
Si Si1 0.832305 0.856165 0.890388
Si Si2 0.374015 0.675652 0.255059
Si Si3 0.907988 0.788866 0.669952
Si Si4 0.153974 0.654548 0.218373
Si Si5 0.958107 0.303187 0.462692
Si Si6 0.432758 0.339100 0.343417
Si Si7 0.647336 0.955037 0.017059
O O1 0.714887 0.516643 0.908278
O O2 0.742016 0.871731 0.785164
O O3 0.913362 0.063423 0.699042
O O4 0.964758 0.024898 0.117710
O O5 0.255078 0.398332 0.411231
O O6 0.526199 0.800424 0.448581
O O7 0.392321 0.912469 0.110902
O O8 0.843998 0.505117 0.745730
O O9 0.000000 0.000000 0.500000
O O10 0.101489 0.515073 0.422432
O O11 0.311819 0.995233 0.140812
O O12 0.000000 0.500000 0.000000
O O13 0.805606 0.137451 0.236483
O O14 0.000000 0.500000 0.500000
O O15 0.500000 0.500000 0.500000
O O16 0.518130 0.607842 0.139077
#
# Coordination Sequence:
#
# PCOD9102969 Si02
#       7
#     2   2   2   2   2   2   2
#     4  11  22  40  62  96 132 171 223 266 329 389
#     4  10  21  39  66  94 130 172 222 269 319 385
#     4  11  23  38  64  94 127 169 221 275 332 378
#     4   9  20  36  61  89 125 168 209 270 328 375
#     4  11  20  37  65  95 129 166 222 269 325 394
#     4  10  21  40  64  92 140 176 214 267 325 397
#     4  10  20  38  64  94 130 178 215 260 335 382
#
# _framework density 25.270140000000001
#
# number of rings (size 3 to 8) (size 9 to 14) (size 15 to 20)
#    0.000    1.714    2.857    3.857    2.000    3.429 
#    0.000    0.714    0.000    1.714    0.000    0.000 
#    0.000    0.000    0.000    0.000    0.000    0.000 
#
# Total GULP energy -78044.651348 kJ/mol
# GULP energy per Si atom -5574.617953 kJ/mol
# Density = 2.521262 g / cm^3
# Si number density = 25.270140 Si / 1000 Ang^3
#
#
#
# Elastic Constant Matrix: (Units=GPa)
#
#
# Indices 1 2 3 4 5 6 
#
# 1 141.4338 39.2938 56.3806 -7.9570 10.0846 21.0733
# 2 39.2938 89.3217 38.4159 -14.7207 -0.3324 15.2216
# 3 56.3806 38.4159 108.0984 -10.3584 -14.8541 17.1149
# 4 -7.9570 -14.7207 -10.3584 40.7441 3.1082 -0.7946
# 5 10.0846 -0.3324 -14.8541 3.1082 36.6996 -3.8831
# 6 21.0733 15.2216 17.1149 -0.7946 -3.8831 48.2991
#
#
#
# Elastic Compliance Matrix: (Units=1/GPa)
#
#
# Indices 1 2 3 4 5 6 
#
# 1 0.010372 -0.001932 -0.004993 0.000404 -0.005193 -0.002558
# 2 -0.001932 0.014703 -0.003617 0.004073 -0.001415 -0.002556
# 3 -0.004993 -0.003617 0.014364 0.000816 0.006957 -0.001199
# 4 0.000404 0.004073 0.000816 0.026436 -0.002140 -0.001486
# 5 -0.005193 -0.001415 0.006957 -0.002140 0.031954 0.002780
# 6 -0.002558 -0.002556 -0.001199 -0.001486 0.002780 0.023250
#
#
# Mechanical properties :
#
#
# Convention : Reuss Voigt Hill
#
# Bulk Modulus (GPa) = 54.48048 67.44827 60.96437
# Shear Modulus (GPa) = 33.72010 38.79946 36.25978
#
# Velocity S-wave (km/s) = 3.65689 3.92265 3.79210
# Velocity P-wave (km/s) = 6.27985 6.87496 6.58413
#
# Compressibility (1/GPa) = 0.01835520
#
# Stress axis : x y z
#
# Youngs Moduli (GPa) = 96.41607 68.01561 69.61735
#
# Poissons Ratio (x) = 0.13141 0.34758
# Poissons Ratio (y) = 0.18628 0.25179
# Poissons Ratio (z) = 0.48138 0.24600
#
# Static dielectric constant tensor:
#      x y z
#    x 1.838270 0.050340 -0.109290 
#    y 0.050340 2.558590 -0.296230 
#    z -0.109290 -0.296230 2.139600 
# 
# From -- ./inp_files/345008.got.cif
#   From: 2010.05.17/outbox.cif.g08.bks.cpg/sg2_173_cif.got.tgz:345008.got - 2010.06.03 11:33:40.
