data_PCOD9102812
_publ_section_title
;
Structure prediction by ZEFSAII (Michael W. Deem and Ramdas Pophale) SiO2 
 PCOD9102812
Probable space group: P -1
;
_chemical_formula_sum "Si O2"
_cell_formula_units_Z 16
_cell_length_a 14.139316
_cell_length_b 14.638366
_cell_length_c 9.363871
_cell_angle_alpha 148.497955
_cell_angle_beta 71.878724
_cell_angle_gamma 121.151931
_cell_volume 829.224805
_symmetry_space_group_name_H-M "P -1"
_symmetry_group_IT_number 2
_symmetry_cell_setting 'triclinic'
loop_
_space_group_symop_operation_xyz
x,y,z
-x,-y,-z
loop_
_atom_site_type_symbol
_atom_site_label
_atom_site_fract_x
_atom_site_fract_y
_atom_site_fract_z
Si Si1 0.288134 0.025718 0.277171
Si Si2 0.935892 0.638890 0.307319
Si Si3 0.812817 0.184550 0.666242
Si Si4 0.293204 0.954197 0.778905
Si Si5 0.530827 0.695158 0.651544
Si Si6 0.947472 0.609385 0.576347
Si Si7 0.121600 0.023811 0.143385
Si Si8 0.691356 0.306485 0.344010
O O1 0.375548 0.234808 0.429984
O O2 0.164615 0.962467 0.182670
O O3 0.263915 0.974188 0.385594
O O4 0.327389 0.874985 0.993961
O O5 0.979627 0.599370 0.384758
O O6 0.879647 0.773618 0.553765
O O7 0.055563 0.774336 0.346161
O O8 0.845257 0.418453 0.992292
O O9 0.742531 0.095692 0.434128
O O10 0.283247 0.757892 0.600181
O O11 0.416054 0.128492 0.016535
O O12 0.207156 0.021643 0.979815
O O13 0.500000 0.500000 0.500000
O O14 0.417303 0.667935 0.591791
O O15 0.810688 0.498477 0.499217
O O16 0.000000 0.500000 0.500000
O O17 0.998954 0.838765 0.908537
#
# Coordination Sequence:
#
# PCOD9102812 Si02
#       8
#     2   2   2   2   2   2   2   2
#     4  10  21  39  62  85 127 162 207 251 318 376
#     4  11  23  35  59  91 138 160 206 249 322 373
#     4  11  22  39  59  92 130 175 192 254 325 380
#     4  10  21  40  65  88 122 158 216 252 309 374
#     4  10  23  41  65  92 117 159 219 270 303 356
#     4  12  18  35  63  93 121 158 211 251 300 373
#     4  10  21  37  60  94 119 167 213 259 295 368
#     4  10  20  38  64  89 118 167 211 256 300 366
#
# _framework density 19.295127999999998
#
# number of rings (size 3 to 8) (size 9 to 14) (size 15 to 20)
#    0.000    1.750    5.000    1.875    3.500    1.500 
#    0.000    4.375    0.000    0.000    0.000    0.875 
#    0.000    0.000    0.000    0.000    0.000    0.000 
#
# Total GULP energy -89089.337863 kJ/mol
# GULP energy per Si atom -5568.083616 kJ/mol
# Density = 1.925121 g / cm^3
# Si number density = 19.295128 Si / 1000 Ang^3
#
#
#
# Elastic Constant Matrix: (Units=GPa)
#
#
# Indices 1 2 3 4 5 6 
#
# 1 65.5090 44.4470 32.3752 -4.1528 -0.3826 0.7421
# 2 44.4470 140.3115 38.8208 -14.2530 9.0097 -9.1944
# 3 32.3752 38.8208 83.6157 -6.8562 1.6664 -9.9295
# 4 -4.1528 -14.2530 -6.8562 30.9574 -5.8818 16.9864
# 5 -0.3826 9.0097 1.6664 -5.8818 23.2420 7.0849
# 6 0.7421 -9.1944 -9.9295 16.9864 7.0849 24.3104
#
#
#
# Elastic Compliance Matrix: (Units=1/GPa)
#
#
# Indices 1 2 3 4 5 6 
#
# 1 0.024231 -0.006293 -0.007800 0.009434 0.010664 -0.016005
# 2 -0.006293 0.010233 -0.001592 -0.000632 -0.005807 0.005546
# 3 -0.007800 -0.001592 0.016829 -0.006082 -0.006077 0.012531
# 4 0.009434 -0.000632 -0.006082 0.078277 0.041964 -0.069936
# 5 0.010664 -0.005807 -0.006077 0.041964 0.073501 -0.055746
# 6 -0.016005 0.005546 0.012531 -0.069936 -0.055746 0.113952
#
#
# Mechanical properties :
#
#
# Convention : Reuss Voigt Hill
#
# Bulk Modulus (GPa) = 50.19191 57.85800 54.02496
# Shear Modulus (GPa) = 14.08316 27.28816 20.68566
#
# Velocity S-wave (km/s) = 2.70456 3.76473 3.27779
# Velocity P-wave (km/s) = 5.98516 6.99632 6.51040
#
# Compressibility (1/GPa) = 0.01992353
#
# Stress axis : x y z
#
# Youngs Moduli (GPa) = 41.26888 97.72309 59.42100
#
# Poissons Ratio (x) = 0.61497 0.46349
# Poissons Ratio (y) = 0.25971 0.09459
# Poissons Ratio (z) = 0.32190 0.15556
#
# Static dielectric constant tensor:
#      x y z
#    x 1.695190 0.018570 -0.007100 
#    y 0.018570 1.763840 0.030220 
#    z -0.007100 0.030220 1.696370 
# 
# From -- ./inp_files/316188.got.cif
#   From: 2010.05.17/outbox.cif.g08.bks.cpg/sg2_159_cif.got.tgz:316188.got - 2010.06.03 11:33:40.
