data_PCOD9102858
_publ_section_title
;
Structure prediction by ZEFSAII (Michael W. Deem and Ramdas Pophale) SiO2 
 PCOD9102858
Probable space group: P -1
;
_chemical_formula_sum "Si O2"
_cell_formula_units_Z 16
_cell_length_a 8.072616
_cell_length_b 26.220786
_cell_length_c 6.109013
_cell_angle_alpha 103.105827
_cell_angle_beta 95.535720
_cell_angle_gamma 142.303517
_cell_volume 682.491474
_symmetry_space_group_name_H-M "P -1"
_symmetry_group_IT_number 2
_symmetry_cell_setting 'triclinic'
loop_
_space_group_symop_operation_xyz
x,y,z
-x,-y,-z
loop_
_atom_site_type_symbol
_atom_site_label
_atom_site_fract_x
_atom_site_fract_y
_atom_site_fract_z
Si Si1 0.864682 0.520683 0.464271
Si Si2 0.748586 0.153103 0.796711
Si Si3 0.219409 0.230319 0.584331
Si Si4 0.281477 0.106458 0.812822
Si Si5 0.155035 0.398753 0.779986
Si Si6 0.225022 0.325546 0.367913
Si Si7 0.274689 0.695941 0.998954
Si Si8 0.844571 0.035476 0.327963
O O1 0.942989 0.570968 0.300823
O O2 0.501599 0.420217 0.349047
O O3 0.000000 0.500000 0.500000
O O4 0.022690 0.597796 0.741730
O O5 0.498716 0.132210 0.690178
O O6 0.964490 0.189667 0.669427
O O7 0.512297 0.046520 0.753958
O O8 0.954854 0.231540 0.092657
O O9 0.332881 0.304277 0.504519
O O10 0.490178 0.279148 0.816361
O O11 0.043110 0.134974 0.354487
O O12 0.512671 0.210864 0.034705
O O13 0.021816 0.068466 0.610495
O O14 0.169186 0.025424 0.849238
O O15 0.143461 0.350773 0.548255
O O16 0.927235 0.325431 0.873926
O O17 0.500000 0.500000 0.000000
#
# Coordination Sequence:
#
# PCOD9102858 Si02
#       8
#     2   2   2   2   2   2   2   2
#     4  12  27  44  66  96 129 168 214 265 326 383
#     4  10  20  38  64  90 130 161 208 263 316 375
#     4  11  23  39  66  96 128 173 208 264 324 377
#     4   8  17  36  65  89 120 170 209 256 315 375
#     4  12  27  43  67  91 129 172 217 265 318 377
#     4  12  26  39  65  97 128 165 220 258 323 382
#     4  11  23  42  66  90 133 167 216 264 315 381
#     4   8  18  37  64  92 124 167 213 256 320 378
#
# _framework density 23.443517
#
# number of rings (size 3 to 8) (size 9 to 14) (size 15 to 20)
#    0.750    0.750    1.250    3.750    5.250    1.500 
#    0.000    0.000    0.000    9.000    0.000    0.000 
#    0.000    0.000    0.000    0.000    0.000    0.000 
#
# Total GULP energy -89259.684917 kJ/mol
# GULP energy per Si atom -5578.730307 kJ/mol
# Density = 2.339016 g / cm^3
# Si number density = 23.443517 Si / 1000 Ang^3
#
#
#
# Elastic Constant Matrix: (Units=GPa)
#
#
# Indices 1 2 3 4 5 6 
#
# 1 67.7606 14.1782 24.7456 10.3773 2.8001 -4.9286
# 2 14.1782 72.4892 35.6301 27.6307 -3.5698 -10.5864
# 3 24.7456 35.6301 47.5378 16.4043 3.4638 4.7005
# 4 10.3773 27.6307 16.4043 26.4408 6.2787 2.2785
# 5 2.8001 -3.5698 3.4638 6.2787 32.6750 2.8922
# 6 -4.9286 -10.5864 4.7005 2.2785 2.8922 50.6501
#
#
#
# Elastic Compliance Matrix: (Units=1/GPa)
#
#
# Indices 1 2 3 4 5 6 
#
# 1 0.019426 0.005386 -0.012560 -0.006086 0.001035 0.004396
# 2 0.005386 0.037880 -0.022249 -0.031501 0.011089 0.011290
# 3 -0.012560 -0.022249 0.044728 0.002637 -0.005734 -0.009815
# 4 -0.006086 -0.031501 0.002637 0.076380 -0.017002 -0.009886
# 5 0.001035 0.011089 -0.005734 -0.017002 0.035452 0.001691
# 6 0.004396 0.011290 -0.009815 -0.009886 0.001691 0.023790
#
#
# Mechanical properties :
#
#
# Convention : Reuss Voigt Hill
#
# Bulk Modulus (GPa) = 23.15385 37.43282 30.29334
# Shear Modulus (GPa) = 16.08243 29.50207 22.79225
#
# Velocity S-wave (km/s) = 2.62202 3.55129 3.12143
# Velocity P-wave (km/s) = 4.36629 5.72865 5.09323
#
# Compressibility (1/GPa) = 0.04318935
#
# Stress axis : x y z
#
# Youngs Moduli (GPa) = 51.47618 26.39933 22.35731
#
# Poissons Ratio (x) = -0.14220 0.28080
# Poissons Ratio (y) = -0.27727 0.49743
# Poissons Ratio (z) = 0.64652 0.58737
#
# Static dielectric constant tensor:
#      x y z
#    x 1.927890 -0.066620 -0.038250 
#    y -0.066620 1.941180 0.068210 
#    z -0.038250 0.068210 1.915590 
# 
# From -- ./inp_files/56969.got.cif
#   From: 2010.05.17/outbox.cif.g08.bks.cpg/sg2_29_cif.got.tgz:56969.got - 2010.06.03 11:33:40.
