data_PCOD9102774
_publ_section_title
;
Structure prediction by ZEFSAII (Michael W. Deem and Ramdas Pophale) SiO2 
 PCOD9102774
Probable space group: P -1
;
_chemical_formula_sum "Si O2"
_cell_formula_units_Z 16
_cell_length_a 15.470611
_cell_length_b 11.633473
_cell_length_c 9.348110
_cell_angle_alpha 121.770270
_cell_angle_beta 55.837416
_cell_angle_gamma 74.379427
_cell_volume 705.273285
_symmetry_space_group_name_H-M "P -1"
_symmetry_group_IT_number 2
_symmetry_cell_setting 'triclinic'
loop_
_space_group_symop_operation_xyz
x,y,z
-x,-y,-z
loop_
_atom_site_type_symbol
_atom_site_label
_atom_site_fract_x
_atom_site_fract_y
_atom_site_fract_z
Si Si1 0.527099 0.629394 0.355659
Si Si2 0.449876 0.199818 0.282136
Si Si3 0.062706 0.012414 0.593392
Si Si4 0.753085 0.398691 0.708246
Si Si5 0.457964 0.669645 0.932037
Si Si6 0.288971 0.064229 0.707180
Si Si7 0.374851 0.193998 0.951224
Si Si8 0.052101 0.583904 0.924769
O O1 0.557346 0.691807 0.503300
O O2 0.519782 0.478992 0.293693
O O3 0.350615 0.865669 0.599969
O O4 0.673788 0.495500 0.006692
O O5 0.515998 0.218210 0.100209
O O6 0.577079 0.948838 0.052720
O O7 0.251889 0.359413 0.547448
O O8 0.084049 0.872476 0.602854
O O9 0.261495 0.860921 0.296326
O O10 0.000000 0.000000 0.500000
O O11 0.956953 0.259552 0.885126
O O12 0.601846 0.499197 0.810256
O O13 0.765095 0.539438 0.731729
O O14 0.309040 0.165437 0.866685
O O15 0.095786 0.252439 0.951059
O O16 0.437291 0.940084 0.366427
O O17 0.000000 0.500000 0.000000
#
# Coordination Sequence:
#
# PCOD9102774 Si02
#       8
#     2   2   2   2   2   2   2   2
#     4   9  18  37  62  86 117 166 216 244 298 384
#     4  11  23  38  61  97 126 160 205 263 316 364
#     4  11  24  41  65  95 123 165 212 260 309 372
#     4  10  20  38  64  86 124 164 216 243 310 374
#     4  11  22  39  63  93 128 162 204 261 319 367
#     4   9  17  32  59  83 117 153 219 247 295 354
#     4   9  18  35  58  87 114 168 200 254 292 378
#     4  12  23  37  61  94 127 160 209 259 309 372
#
# _framework density 22.686242
#
# number of rings (size 3 to 8) (size 9 to 14) (size 15 to 20)
#    0.000    1.750    1.250    6.375    1.750    0.500 
#    0.000    5.000    0.000    1.500    0.000    0.000 
#    0.000    0.000    0.000    0.000    0.000    0.000 
#
# Total GULP energy -89379.709657 kJ/mol
# GULP energy per Si atom -5586.231854 kJ/mol
# Density = 2.263461 g / cm^3
# Si number density = 22.686242 Si / 1000 Ang^3
#
#
#
# Elastic Constant Matrix: (Units=GPa)
#
#
# Indices 1 2 3 4 5 6 
#
# 1 100.4450 34.3218 37.2017 13.7595 13.8514 1.0188
# 2 34.3218 145.7727 36.5523 25.4714 2.0900 15.4729
# 3 37.2017 36.5523 46.2322 17.7382 21.1290 0.3583
# 4 13.7595 25.4714 17.7382 31.1525 3.2611 4.4750
# 5 13.8514 2.0900 21.1290 3.2611 30.1950 14.6050
# 6 1.0188 15.4729 0.3583 4.4750 14.6050 48.7949
#
#
#
# Elastic Compliance Matrix: (Units=1/GPa)
#
#
# Indices 1 2 3 4 5 6 
#
# 1 0.014361 -0.000156 -0.013390 0.001246 0.003259 -0.001242
# 2 -0.000156 0.011200 -0.013834 -0.001511 0.012558 -0.007067
# 3 -0.013390 -0.013834 0.078475 -0.024897 -0.056368 0.023245
# 4 0.001246 -0.001511 -0.024897 0.046495 0.016005 -0.008419
# 5 0.003259 0.012558 -0.056368 0.016005 0.082946 -0.029931
# 6 -0.001242 -0.007067 0.023245 -0.008419 -0.029931 0.032321
#
#
# Mechanical properties :
#
#
# Convention : Reuss Voigt Hill
#
# Bulk Modulus (GPa) = 20.29414 56.51129 38.40272
# Shear Modulus (GPa) = 14.83755 34.32008 24.57882
#
# Velocity S-wave (km/s) = 2.56018 3.89371 3.29511
# Velocity P-wave (km/s) = 4.20766 6.72151 5.60727
#
# Compressibility (1/GPa) = 0.04927530
#
# Stress axis : x y z
#
# Youngs Moduli (GPa) = 69.63371 89.28861 12.74291
#
# Poissons Ratio (x) = 0.01397 0.17063
# Poissons Ratio (y) = 0.01089 0.17628
# Poissons Ratio (z) = 0.93239 1.23519
#
# Static dielectric constant tensor:
#      x y z
#    x 1.875620 0.028120 0.070720 
#    y 0.028120 1.873440 0.026730 
#    z 0.070720 0.026730 1.854190 
# 
# From -- ./inp_files/308282.got.cif
#   From: 2010.05.17/outbox.cif.g08.bks.cpg/sg2_155_cif.got.tgz:308282.got - 2010.06.03 11:33:40.
