data_PCOD9102629
_publ_section_title
;
Structure prediction by ZEFSAII (Michael W. Deem and Ramdas Pophale) SiO2 
 PCOD9102629
Probable space group: P -1
;
_chemical_formula_sum "Si O2"
_cell_formula_units_Z 16
_cell_length_a 15.576987
_cell_length_b 10.374755
_cell_length_c 7.642967
_cell_angle_alpha 44.674539
_cell_angle_beta 111.028133
_cell_angle_gamma 131.724284
_cell_volume 632.542350
_symmetry_space_group_name_H-M "P -1"
_symmetry_group_IT_number 2
_symmetry_cell_setting 'triclinic'
loop_
_space_group_symop_operation_xyz
x,y,z
-x,-y,-z
loop_
_atom_site_type_symbol
_atom_site_label
_atom_site_fract_x
_atom_site_fract_y
_atom_site_fract_z
Si Si1 0.497331 0.275992 0.239846
Si Si2 0.378798 0.533366 0.526029
Si Si3 0.050746 0.436358 0.947999
Si Si4 0.866872 0.683849 0.353945
Si Si5 0.243179 0.956171 0.448700
Si Si6 0.440422 0.178959 0.905475
Si Si7 0.187106 0.806973 0.167420
Si Si8 0.883683 0.854154 0.806020
O O1 0.601211 0.358727 0.368654
O O2 0.379102 0.080990 0.448778
O O3 0.500000 0.500000 0.000000
O O4 0.488304 0.182594 0.129652
O O5 0.239655 0.366231 0.563001
O O6 0.421171 0.375726 0.708250
O O7 0.460926 0.736189 0.249312
O O8 0.932459 0.247595 0.932284
O O9 0.152626 0.686974 0.696363
O O10 0.000000 0.500000 0.000000
O O11 0.104730 0.306757 0.153736
O O12 0.851600 0.446831 0.572809
O O13 0.860151 0.746344 0.088492
O O14 0.992754 0.887948 0.330296
O O15 0.227486 0.958927 0.225608
O O16 0.210339 0.111791 0.354298
O O17 0.305752 0.942425 0.006740
#
# Coordination Sequence:
#
# PCOD9102629 Si02
#       8
#     2   2   2   2   2   2   2   2
#     4   9  19  38  63  91 125 170 216 266 321 383
#     4  10  20  38  63  93 124 172 224 259 328 390
#     4  12  26  41  62  99 134 165 212 269 330 388
#     4  11  21  38  68  97 122 170 225 264 321 392
#     4  11  22  43  70  93 125 172 218 266 324 386
#     4   9  20  37  61  88 127 170 214 273 321 380
#     4  11  21  42  65  92 130 168 215 274 321 381
#     4  11  22  41  69  94 126 171 218 263 326 395
#
# _framework density 25.294750000000001
#
# number of rings (size 3 to 8) (size 9 to 14) (size 15 to 20)
#    0.000    1.500    2.500    4.875    1.750    1.000 
#    2.250    3.750    2.750    0.000    0.000    0.000 
#    0.000    0.000    0.000    0.000    0.000    0.000 
#
# Total GULP energy -89606.780297 kJ/mol
# GULP energy per Si atom -5600.423769 kJ/mol
# Density = 2.523718 g / cm^3
# Si number density = 25.294750 Si / 1000 Ang^3
#
#
#
# Elastic Constant Matrix: (Units=GPa)
#
#
# Indices 1 2 3 4 5 6 
#
# 1 95.0714 16.8424 37.4416 -5.1569 -13.8414 1.4144
# 2 16.8424 43.4295 28.7813 -4.8804 -15.2119 15.4340
# 3 37.4416 28.7813 101.5944 -27.0512 -25.4693 6.4722
# 4 -5.1569 -4.8804 -27.0512 29.6202 6.2818 -1.9972
# 5 -13.8414 -15.2119 -25.4693 6.2818 48.5672 -20.3547
# 6 1.4144 15.4340 6.4722 -1.9972 -20.3547 37.4903
#
#
#
# Elastic Compliance Matrix: (Units=1/GPa)
#
#
# Indices 1 2 3 4 5 6 
#
# 1 0.012759 -0.002485 -0.004313 -0.002364 0.001797 0.002136
# 2 -0.002485 0.033948 -0.008761 -0.003814 0.000718 -0.012183
# 3 -0.004313 -0.008761 0.018880 0.014080 0.006000 0.004518
# 4 -0.002364 -0.003814 0.014080 0.045621 0.000401 0.001877
# 5 0.001797 0.000718 0.006000 0.000401 0.030868 0.015381
# 6 0.002136 -0.012183 0.004518 0.001877 0.015381 0.039280
#
#
# Mechanical properties :
#
#
# Convention : Reuss Voigt Hill
#
# Bulk Modulus (GPa) = 29.01204 45.13621 37.07412
# Shear Modulus (GPa) = 22.32505 33.60420 27.96463
#
# Velocity S-wave (km/s) = 2.97408 3.64882 3.32859
# Velocity P-wave (km/s) = 4.82576 5.96948 5.42783
#
# Compressibility (1/GPa) = 0.03446845
#
# Stress axis : x y z
#
# Youngs Moduli (GPa) = 78.37657 29.45691 52.96575
#
# Poissons Ratio (x) = 0.07320 0.22846
# Poissons Ratio (y) = 0.19475 0.46403
# Poissons Ratio (z) = 0.33807 0.25807
#
# Static dielectric constant tensor:
#      x y z
#    x 2.021020 -0.018760 -0.026440 
#    y -0.018760 2.042040 -0.012670 
#    z -0.026440 -0.012670 2.030200 
# 
# From -- ./inp_files/273569.got.cif
#   From: 2010.05.17/outbox.cif.g08.bks.cpg/sg2_137_cif.got.tgz:273569.got - 2010.06.03 11:33:40.
