data_PCOD9102195
_publ_section_title
;
Structure prediction by ZEFSAII (Michael W. Deem and Ramdas Pophale) SiO2 
 PCOD9102195
Probable space group: P -1
;
_chemical_formula_sum "Si O2"
_cell_formula_units_Z 16
_cell_length_a 8.833160
_cell_length_b 12.506273
_cell_length_c 15.556208
_cell_angle_alpha 140.442134
_cell_angle_beta 144.863189
_cell_angle_gamma 48.915172
_cell_volume 628.209597
_symmetry_space_group_name_H-M "P -1"
_symmetry_group_IT_number 2
_symmetry_cell_setting 'triclinic'
loop_
_space_group_symop_operation_xyz
x,y,z
-x,-y,-z
loop_
_atom_site_type_symbol
_atom_site_label
_atom_site_fract_x
_atom_site_fract_y
_atom_site_fract_z
Si Si1 0.350325 0.598633 0.279930
Si Si2 0.799801 0.236407 0.859208
Si Si3 0.859235 0.007609 0.227942
Si Si4 0.593409 0.027399 0.440607
Si Si5 0.497404 0.075897 0.238984
Si Si6 0.817219 0.342297 0.308136
Si Si7 0.953551 0.307674 0.158951
Si Si8 0.223442 0.599805 0.409332
O O1 0.238663 0.630074 0.152402
O O2 0.499968 0.771813 0.474563
O O3 0.535970 0.430336 0.258113
O O4 0.173709 0.587696 0.276585
O O5 0.580301 0.099154 0.667448
O O6 0.075284 0.134032 0.901551
O O7 0.791005 0.298277 0.990339
O O8 0.585396 0.984086 0.135093
O O9 0.881818 0.186405 0.303996
O O10 0.107717 0.976716 0.389895
O O11 0.561250 0.976173 0.294411
O O12 0.211839 0.176437 0.181552
O O13 0.718945 0.212889 0.426642
O O14 0.000000 0.500000 0.500000
O O15 0.834424 0.276730 0.177055
O O16 0.023063 0.502511 0.311411
O O17 0.500000 0.500000 0.500000
#
# Coordination Sequence:
#
# PCOD9102195 Si02
#       8
#     2   2   2   2   2   2   2   2
#     4  10  21  39  63  87 118 160 208 251 292 350
#     4  11  24  41  58  88 130 163 193 243 308 368
#     4  11  22  38  64  90 118 159 206 248 294 358
#     4  10  21  40  63  91 123 157 198 249 303 356
#     4  10  20  38  62  88 117 155 205 252 294 351
#     4  12  21  36  63  90 113 153 206 252 297 353
#     4  11  24  38  59  90 127 159 194 249 309 359
#     4   9  18  36  58  84 115 151 199 252 292 337
#
# _framework density 25.469207000000001
#
# number of rings (size 3 to 8) (size 9 to 14) (size 15 to 20)
#    0.000    1.500    0.000    8.625    0.000    3.500 
#    0.000    1.250    0.000    0.000    0.000    0.000 
#    0.000    0.000    0.000    0.000    0.000    0.000 
#
# Total GULP energy -89493.555620 kJ/mol
# GULP energy per Si atom -5593.347226 kJ/mol
# Density = 2.541124 g / cm^3
# Si number density = 25.469207 Si / 1000 Ang^3
#
#
#
# Elastic Constant Matrix: (Units=GPa)
#
#
# Indices 1 2 3 4 5 6 
#
# 1 110.2494 3.0109 2.8953 4.0627 -22.4278 25.8628
# 2 3.0109 80.4743 -9.0752 -3.6147 0.3192 18.5638
# 3 2.8953 -9.0752 62.2637 -7.0694 -17.2018 13.9832
# 4 4.0627 -3.6147 -7.0694 26.3310 12.4107 -10.8125
# 5 -22.4278 0.3192 -17.2018 12.4107 42.8986 -2.8602
# 6 25.8628 18.5638 13.9832 -10.8125 -2.8602 50.6725
#
#
#
# Elastic Compliance Matrix: (Units=1/GPa)
#
#
# Indices 1 2 3 4 5 6 
#
# 1 0.014055 0.001823 0.003885 -0.010485 0.011225 -0.010517
# 2 0.001823 0.014514 0.004251 -0.001419 0.002454 -0.007585
# 3 0.003885 0.004251 0.021254 -0.003326 0.010850 -0.009502
# 4 -0.010485 -0.001419 -0.003326 0.055987 -0.021835 0.017503
# 5 0.011225 0.002454 0.010850 -0.021835 0.039023 -0.012079
# 6 -0.010517 -0.007585 -0.009502 0.017503 -0.012079 0.033556
#
#
# Mechanical properties :
#
#
# Convention : Reuss Voigt Hill
#
# Bulk Modulus (GPa) = 14.33896 27.40550 20.87223
# Shear Modulus (GPa) = 27.51501 41.05751 34.28626
#
# Velocity S-wave (km/s) = 3.29039 4.01938 3.67302
# Velocity P-wave (km/s) = 4.48082 5.68544 5.11869
#
# Compressibility (1/GPa) = 0.06974005
#
# Stress axis : x y z
#
# Youngs Moduli (GPa) = 71.14674 68.90045 47.05041
#
# Poissons Ratio (x) = -0.12559 -0.18278
# Poissons Ratio (y) = -0.12969 -0.20001
# Poissons Ratio (z) = -0.27638 -0.29290
#
# Static dielectric constant tensor:
#      x y z
#    x 2.019580 -0.044580 -0.021160 
#    y -0.044580 1.965830 0.023330 
#    z -0.021160 0.023330 2.140820 
# 
# From -- ./inp_files/500909.got.cif
#   From: 2010.05.17/outbox.cif.g08.bks.cpg/sg2_251_cif.got.tgz:500909.got - 2010.06.03 11:33:40.
