data_PCOD9102197
_publ_section_title
;
Structure prediction by ZEFSAII (Michael W. Deem and Ramdas Pophale) SiO2 
 PCOD9102197
Probable space group: P -1
;
_chemical_formula_sum "Si O2"
_cell_formula_units_Z 16
_cell_length_a 21.829940
_cell_length_b 17.653248
_cell_length_c 8.355191
_cell_angle_alpha 50.051250
_cell_angle_beta 38.908546
_cell_angle_gamma 20.979864
_cell_volume 671.056845
_symmetry_space_group_name_H-M "P -1"
_symmetry_group_IT_number 2
_symmetry_cell_setting 'triclinic'
loop_
_space_group_symop_operation_xyz
x,y,z
-x,-y,-z
loop_
_atom_site_type_symbol
_atom_site_label
_atom_site_fract_x
_atom_site_fract_y
_atom_site_fract_z
Si Si1 0.391023 0.702523 0.320994
Si Si2 0.018637 0.174346 0.321937
Si Si3 0.283654 0.510816 0.801833
Si Si4 0.120598 0.317239 0.376434
Si Si5 0.441495 0.178058 0.741538
Si Si6 0.965645 0.114428 0.053460
Si Si7 0.897846 0.488864 0.280104
Si Si8 0.697672 0.323272 0.961685
O O1 0.484917 0.662274 0.349711
O O2 0.218813 0.771821 0.615328
O O3 0.595221 0.463544 0.139058
O O4 0.262721 0.899319 0.204690
O O5 0.861858 0.317169 0.289141
O O6 0.029881 0.276081 0.222368
O O7 0.883206 0.230735 0.648014
O O8 0.356997 0.337390 0.823803
O O9 0.107478 0.705151 0.037206
O O10 0.000000 0.500000 0.500000
O O11 0.932254 0.451252 0.451942
O O12 0.292316 0.085846 0.430557
O O13 0.297625 0.214506 0.042178
O O14 0.349398 0.289955 0.599897
O O15 0.210313 0.872620 0.958327
O O16 0.000000 0.000000 0.000000
O O17 0.000000 0.500000 0.000000
O O18 0.500000 0.500000 0.000000
#
# Coordination Sequence:
#
# PCOD9102197 Si02
#       8
#     2   2   2   2   2   2   2   2
#     4  11  23  40  60  84 120 163 199 252 309 349
#     4  10  23  40  60  92 119 159 211 249 297 373
#     4  11  21  40  62  84 121 159 201 253 298 354
#     4  10  20  38  62  88 118 154 194 241 304 363
#     4   9  21  39  58  88 118 154 196 244 299 361
#     4  11  23  39  59  88 118 159 209 250 303 363
#     4   9  19  40  63  85 126 158 192 253 305 355
#     4  11  23  39  60  86 122 161 203 255 306 355
#
# _framework density 23.842988999999999
#
# number of rings (size 3 to 8) (size 9 to 14) (size 15 to 20)
#    0.000    1.750    1.250    2.625    1.750    3.500 
#    2.250    6.250    0.000    0.000    0.000    0.000 
#    0.000    0.000    0.000    0.000    0.000    0.000 
#
# Total GULP energy -89120.365989 kJ/mol
# GULP energy per Si atom -5570.022874 kJ/mol
# Density = 2.378872 g / cm^3
# Si number density = 23.842989 Si / 1000 Ang^3
#
#
#
# Elastic Constant Matrix: (Units=GPa)
#
#
# Indices 1 2 3 4 5 6 
#
# 1 161.0182 61.1013 3.0230 3.7423 5.9679 -9.9452
# 2 61.1013 180.4043 6.1319 19.8579 3.8944 1.3035
# 3 3.0230 6.1319 36.2633 6.5212 2.9136 7.5054
# 4 3.7423 19.8579 6.5212 29.2437 6.1888 4.1739
# 5 5.9679 3.8944 2.9136 6.1888 26.5423 0.1798
# 6 -9.9452 1.3035 7.5054 4.1739 0.1798 46.7268
#
#
#
# Elastic Compliance Matrix: (Units=1/GPa)
#
#
# Indices 1 2 3 4 5 6 
#
# 1 0.007321 -0.002550 -0.000581 0.000998 -0.001452 0.001639
# 2 -0.002550 0.006885 -0.000143 -0.004400 0.000607 -0.000321
# 3 -0.000581 -0.000143 0.029681 -0.005437 -0.001809 -0.004395
# 4 0.000998 -0.004400 -0.005437 0.040379 -0.008381 -0.002366
# 5 -0.001452 0.000607 -0.001809 -0.008381 0.040062 0.000559
# 6 0.001639 -0.000321 -0.004395 -0.002366 0.000559 0.022674
#
#
# Mechanical properties :
#
#
# Convention : Reuss Voigt Hill
#
# Bulk Modulus (GPa) = 26.78121 57.57759 42.17940
# Shear Modulus (GPa) = 30.12100 40.99786 35.55943
#
# Velocity S-wave (km/s) = 3.55816 4.15118 3.86605
# Velocity P-wave (km/s) = 5.30447 6.86858 6.13656
#
# Compressibility (1/GPa) = 0.03733961
#
# Stress axis : x y z
#
# Youngs Moduli (GPa) = 136.59463 145.23942 33.69121
#
# Poissons Ratio (x) = 0.37038 0.01958
# Poissons Ratio (y) = 0.34833 0.00481
# Poissons Ratio (z) = 0.07938 0.02073
#
# Static dielectric constant tensor:
#      x y z
#    x 2.173830 -0.129270 -0.003060 
#    y -0.129270 2.140610 -0.073660 
#    z -0.003060 -0.073660 1.942800 
# 
# From -- ./inp_files/112858.got.cif
#   From: 2010.05.17/outbox.cif.g08.bks.cpg/sg2_57_cif.got.tgz:112858.got - 2010.06.03 11:33:40.
