data_PCOD9102678
_publ_section_title
;
Structure prediction by ZEFSAII (Michael W. Deem and Ramdas Pophale) SiO2 
 PCOD9102678
Probable space group: P -1
;
_chemical_formula_sum "Si O2"
_cell_formula_units_Z 14
_cell_length_a 6.962698
_cell_length_b 12.132429
_cell_length_c 11.009366
_cell_angle_alpha 65.104651
_cell_angle_beta 135.374145
_cell_angle_gamma 123.591339
_cell_volume 543.620708
_symmetry_space_group_name_H-M "P -1"
_symmetry_group_IT_number 2
_symmetry_cell_setting 'triclinic'
loop_
_space_group_symop_operation_xyz
x,y,z
-x,-y,-z
loop_
_atom_site_type_symbol
_atom_site_label
_atom_site_fract_x
_atom_site_fract_y
_atom_site_fract_z
Si Si1 0.433716 0.407130 0.395931
Si Si2 0.088846 0.837190 0.024211
Si Si3 0.169728 0.873578 0.523988
Si Si4 0.728832 0.292502 0.162220
Si Si5 0.585306 0.848664 0.408583
Si Si6 0.175617 0.112246 0.864764
Si Si7 0.745777 0.533345 0.941070
O O1 0.500000 0.500000 0.500000
O O2 0.555850 0.293367 0.523735
O O3 0.507567 0.483589 0.265866
O O4 0.074922 0.335970 0.267866
O O5 0.413493 0.850038 0.207030
O O6 0.959487 0.867122 0.078048
O O7 0.892668 0.686818 0.971545
O O8 0.105095 0.956575 0.888109
O O9 0.318647 0.781316 0.694485
O O10 0.914178 0.866784 0.508691
O O11 0.982777 0.837191 0.333541
O O12 0.393584 0.027382 0.558260
O O13 0.524596 0.194283 0.012650
O O14 0.663631 0.424698 0.061570
O O15 0.000000 0.500000 0.000000
#
# Coordination Sequence:
#
# PCOD9102678 Si02
#       7
#     2   2   2   2   2   2   2
#     4  10  21  37  64  98 127 164 215 268 328 377
#     4  11  24  44  63  97 131 175 217 260 328 387
#     4  10  22  39  64  98 126 166 219 271 318 371
#     4  10  22  41  65  94 127 171 214 263 319 389
#     4  10  20  38  63  95 127 163 223 267 311 383
#     4  11  25  43  67  92 137 174 213 266 320 393
#     4  10  22  40  66  93 130 168 210 275 317 375
#
# _framework density 25.753247999999999
#
# number of rings (size 3 to 8) (size 9 to 14) (size 15 to 20)
#    0.000    1.714    1.429    2.571    8.000    2.857 
#    2.571    0.714    0.000    0.000    0.000    0.000 
#    0.000    0.000    0.000    0.000    0.000    0.000 
#
# Total GULP energy -78293.686813 kJ/mol
# GULP energy per Si atom -5592.406201 kJ/mol
# Density = 2.569463 g / cm^3
# Si number density = 25.753248 Si / 1000 Ang^3
#
#
#
# Elastic Constant Matrix: (Units=GPa)
#
#
# Indices 1 2 3 4 5 6 
#
# 1 37.3371 28.2228 7.8136 3.3054 6.4870 -10.2879
# 2 28.2228 201.2237 104.3723 -26.6056 -15.6774 -16.7333
# 3 7.8136 104.3723 205.3380 -21.3237 -28.7063 -1.9207
# 4 3.3054 -26.6056 -21.3237 57.8421 3.0648 6.3845
# 5 6.4870 -15.6774 -28.7063 3.0648 30.1834 6.5062
# 6 -10.2879 -16.7333 -1.9207 6.3845 6.5062 25.2754
#
#
#
# Elastic Compliance Matrix: (Units=1/GPa)
#
#
# Indices 1 2 3 4 5 6 
#
# 1 0.039475 -0.005331 -0.001521 -0.006427 -0.015960 0.018155
# 2 -0.005331 0.008102 -0.003443 0.002472 0.001409 0.001945
# 3 -0.001521 -0.003443 0.007726 0.001483 0.006685 -0.004407
# 4 -0.006427 0.002472 0.001483 0.019904 0.003521 -0.006800
# 5 -0.015960 0.001409 0.006685 0.003521 0.047193 -0.018093
# 6 0.018155 0.001945 -0.004407 -0.006800 -0.018093 0.054281
#
#
# Mechanical properties :
#
#
# Convention : Reuss Voigt Hill
#
# Bulk Modulus (GPa) = 28.80907 80.52402 54.66655
# Shear Modulus (GPa) = 23.94139 42.89286 33.41712
#
# Velocity S-wave (km/s) = 3.05232 4.08552 3.60611
# Velocity P-wave (km/s) = 4.86138 7.32057 6.21385
#
# Compressibility (1/GPa) = 0.03471129
#
# Stress axis : x y z
#
# Youngs Moduli (GPa) = 25.33222 123.43051 129.44056
#
# Poissons Ratio (x) = 0.65803 0.19690
# Poissons Ratio (y) = 0.13505 0.44570
# Poissons Ratio (z) = 0.03854 0.42501
#
# Static dielectric constant tensor:
#      x y z
#    x 2.203120 0.069390 -0.046390 
#    y 0.069390 2.083690 -0.062090 
#    z -0.046390 -0.062090 2.065570 
# 
# From -- ./inp_files/243455.got.cif
#   From: 2010.05.17/outbox.cif.g08.bks.cpg/sg2_122_cif.got.tgz:243455.got - 2010.06.03 11:33:40.
