data_PCOD9102734
_publ_section_title
;
Structure prediction by ZEFSAII (Michael W. Deem and Ramdas Pophale) SiO2 
 PCOD9102734
Probable space group: P -1
;
_chemical_formula_sum "Si O2"
_cell_formula_units_Z 16
_cell_length_a 19.746045
_cell_length_b 19.447999
_cell_length_c 9.444367
_cell_angle_alpha 140.902877
_cell_angle_beta 28.735026
_cell_angle_gamma 153.240732
_cell_volume 784.664440
_symmetry_space_group_name_H-M "P -1"
_symmetry_group_IT_number 2
_symmetry_cell_setting 'triclinic'
loop_
_space_group_symop_operation_xyz
x,y,z
-x,-y,-z
loop_
_atom_site_type_symbol
_atom_site_label
_atom_site_fract_x
_atom_site_fract_y
_atom_site_fract_z
Si Si1 0.423677 0.196598 0.663461
Si Si2 0.216605 0.572440 0.175267
Si Si3 0.835703 0.732180 0.658348
Si Si4 0.037610 0.895733 0.814598
Si Si5 0.614850 0.419739 0.403880
Si Si6 0.245652 0.339397 0.806279
Si Si7 0.967199 0.107986 0.718789
Si Si8 0.478146 0.116681 0.721394
O O1 0.528482 0.293442 0.482414
O O2 0.531395 0.201404 0.608123
O O3 0.267825 0.019702 0.618450
O O4 0.306274 0.239433 0.010800
O O5 0.384652 0.746886 0.198797
O O6 0.000000 0.500000 0.500000
O O7 0.246002 0.565348 0.941784
O O8 0.253967 0.474141 0.022590
O O9 0.715293 0.568288 0.550934
O O10 0.937892 0.764721 0.672460
O O11 0.014369 0.854012 0.418719
O O12 0.922724 0.807320 0.025337
O O13 0.000000 0.000000 0.000000
O O14 0.443915 0.385367 0.565796
O O15 0.155097 0.268699 0.704212
O O16 0.000000 0.000000 0.500000
O O17 0.754284 0.003526 0.010918
O O18 0.500000 0.000000 0.500000
#
# Coordination Sequence:
#
# PCOD9102734 Si02
#       8
#     2   2   2   2   2   2   2   2
#     4  11  23  42  67 105 136 171 221 283 338 399
#     4  12  29  48  66  97 140 183 227 280 336 402
#     4  11  22  38  66 105 142 171 214 281 341 395
#     4  10  20  38  64 102 145 168 212 281 344 388
#     4  12  25  42  71 104 135 175 226 278 343 401
#     4  12  22  42  70 102 137 177 227 281 335 396
#     4  12  22  39  69 103 134 173 230 278 332 391
#     4  12  27  47  72  96 133 181 229 278 336 408
#
# _framework density 20.390882999999999
#
# number of rings (size 3 to 8) (size 9 to 14) (size 15 to 20)
#    0.000    0.500    6.250    3.750    3.500    0.000 
#    0.000    2.500    0.000    0.000    0.000    0.000 
#    0.000    0.000    0.000    0.000    0.000    0.000 
#
# Total GULP energy -89254.239946 kJ/mol
# GULP energy per Si atom -5578.389997 kJ/mol
# Density = 2.034447 g / cm^3
# Si number density = 20.390883 Si / 1000 Ang^3
#
#
#
# Elastic Constant Matrix: (Units=GPa)
#
#
# Indices 1 2 3 4 5 6 
#
# 1 70.3281 13.7109 45.8347 -2.7881 17.8102 2.0168
# 2 13.7109 106.5516 46.8071 6.5168 -1.1784 9.3473
# 3 45.8347 46.8071 111.7772 -1.4768 2.1299 -3.1503
# 4 -2.7881 6.5168 -1.4768 35.3162 -4.5268 10.8245
# 5 17.8102 -1.1784 2.1299 -4.5268 22.2660 -2.3156
# 6 2.0168 9.3473 -3.1503 10.8245 -2.3156 47.7459
#
#
#
# Elastic Compliance Matrix: (Units=1/GPa)
#
#
# Indices 1 2 3 4 5 6 
#
# 1 0.026461 0.001589 -0.011219 -0.000344 -0.020399 -0.003080
# 2 0.001589 0.012023 -0.005765 -0.001668 -0.000678 -0.002456
# 3 -0.011219 -0.005765 0.015907 0.000962 0.007634 0.002804
# 4 -0.000344 -0.001668 0.000962 0.031348 0.005800 -0.006421
# 5 -0.020399 -0.000678 0.007634 0.005800 0.061973 0.003189
# 6 -0.003080 -0.002456 0.002804 -0.006421 0.003189 0.023350
#
#
# Mechanical properties :
#
#
# Convention : Reuss Voigt Hill
#
# Bulk Modulus (GPa) = 42.36807 55.70690 49.03749
# Shear Modulus (GPa) = 23.84140 33.21923 28.53032
#
# Velocity S-wave (km/s) = 3.42309 4.04062 3.74461
# Velocity P-wave (km/s) = 6.03709 7.01054 6.54195
#
# Compressibility (1/GPa) = 0.02360268
#
# Stress axis : x y z
#
# Youngs Moduli (GPa) = 37.79081 83.17422 62.86626
#
# Poissons Ratio (x) = -0.13215 0.70527
# Poissons Ratio (y) = -0.06004 0.36239
# Poissons Ratio (z) = 0.42396 0.47946
#
# Static dielectric constant tensor:
#      x y z
#    x 1.730870 0.011590 0.006130 
#    y 0.011590 1.745290 -0.000090 
#    z 0.006130 -0.000090 1.690040 
# 
# From -- ./inp_files/261440.got.cif
#   From: 2010.05.17/outbox.cif.g08.bks.cpg/sg2_131_cif.got.tgz:261440.got - 2010.06.03 11:33:40.
