data_PCOD9102744
_publ_section_title
;
Structure prediction by ZEFSAII (Michael W. Deem and Ramdas Pophale) SiO2 
 PCOD9102744
Probable space group: P -1
;
_chemical_formula_sum "Si O2"
_cell_formula_units_Z 16
_cell_length_a 8.262561
_cell_length_b 18.972786
_cell_length_c 13.994689
_cell_angle_alpha 161.203796
_cell_angle_beta 65.795460
_cell_angle_gamma 113.067520
_cell_volume 644.675263
_symmetry_space_group_name_H-M "P -1"
_symmetry_group_IT_number 2
_symmetry_cell_setting 'triclinic'
loop_
_space_group_symop_operation_xyz
x,y,z
-x,-y,-z
loop_
_atom_site_type_symbol
_atom_site_label
_atom_site_fract_x
_atom_site_fract_y
_atom_site_fract_z
Si Si1 0.157155 0.475371 0.744159
Si Si2 0.301897 0.366116 0.097244
Si Si3 0.533959 0.329157 0.186939
Si Si4 0.984749 0.308590 0.396421
Si Si5 0.915919 0.804829 0.332291
Si Si6 0.257803 0.016645 0.876786
Si Si7 0.785235 0.118584 0.501936
Si Si8 0.613214 0.570035 0.189717
O O1 0.267269 0.647462 0.870897
O O2 0.294787 0.390401 0.679289
O O3 0.083143 0.300049 0.463547
O O4 0.999894 0.593255 0.989309
O O5 0.415432 0.366733 0.168376
O O6 0.107630 0.458301 0.284433
O O7 0.405994 0.526392 0.203739
O O8 0.285758 0.117106 0.744455
O O9 0.500000 0.500000 0.500000
O O10 0.459089 0.097042 0.944287
O O11 0.821734 0.137788 0.220499
O O12 0.130787 0.229755 0.186445
O O13 0.708365 0.747856 0.325751
O O14 0.016408 0.841698 0.456046
O O15 0.000000 0.000000 0.500000
O O16 0.233447 0.911019 0.644020
O O17 0.678540 0.328362 0.832329
#
# Coordination Sequence:
#
# PCOD9102744 Si02
#       8
#     2   2   2   2   2   2   2   2
#     4  10  20  38  64  82 119 161 200 246 300 367
#     4  10  23  38  63  92 123 158 207 259 296 360
#     4  10  20  40  59  85 116 160 202 243 303 359
#     4  11  21  39  59  92 121 159 209 245 304 356
#     4  11  22  37  59  92 121 158 204 255 302 358
#     4  10  22  37  63  84 124 164 197 249 306 371
#     4  10  20  39  61  90 118 162 208 243 315 360
#     4  10  21  40  64  87 123 164 202 250 308 364
#
# _framework density 24.818697
#
# number of rings (size 3 to 8) (size 9 to 14) (size 15 to 20)
#    0.000    1.750    1.250    4.125    0.000    4.000 
#    2.250    5.000    0.000    0.000    0.000    0.000 
#    0.000    0.000    0.000    0.000    0.000    0.000 
#
# Total GULP energy -89400.646496 kJ/mol
# GULP energy per Si atom -5587.540406 kJ/mol
# Density = 2.476221 g / cm^3
# Si number density = 24.818697 Si / 1000 Ang^3
#
#
#
# Elastic Constant Matrix: (Units=GPa)
#
#
# Indices 1 2 3 4 5 6 
#
# 1 53.4946 18.5068 40.9534 -8.2796 11.1491 10.8083
# 2 18.5068 122.6840 23.6462 27.4732 10.9157 34.6891
# 3 40.9534 23.6462 97.4436 -5.5817 14.6870 -0.6025
# 4 -8.2796 27.4732 -5.5817 36.3705 0.6234 8.7031
# 5 11.1491 10.9157 14.6870 0.6234 42.4930 -6.2181
# 6 10.8083 34.6891 -0.6025 8.7031 -6.2181 44.1068
#
#
#
# Elastic Compliance Matrix: (Units=1/GPa)
#
#
# Indices 1 2 3 4 5 6 
#
# 1 0.033156 -0.001422 -0.012272 0.009176 -0.005659 -0.009783
# 2 -0.001422 0.013842 -0.002812 -0.008927 -0.003441 -0.009300
# 3 -0.012272 -0.002812 0.016312 0.000608 -0.000945 0.005188
# 4 0.009176 -0.008927 0.000608 0.037092 -0.001267 -0.002717
# 5 -0.005659 -0.003441 -0.000945 -0.001267 0.027447 0.008199
# 6 -0.009783 -0.009300 0.005188 -0.002717 0.008199 0.034147
#
#
# Mechanical properties :
#
#
# Convention : Reuss Voigt Hill
#
# Bulk Modulus (GPa) = 33.00341 48.87056 40.93698
# Shear Modulus (GPa) = 24.37748 37.29512 30.83630
#
# Velocity S-wave (km/s) = 3.13744 3.88068 3.52868
# Velocity P-wave (km/s) = 5.14309 6.30978 5.75607
#
# Compressibility (1/GPa) = 0.03029990
#
# Stress axis : x y z
#
# Youngs Moduli (GPa) = 30.16001 72.24234 61.30563
#
# Poissons Ratio (x) = 0.10270 0.75234
# Poissons Ratio (y) = 0.04288 0.17238
# Poissons Ratio (z) = 0.37012 0.20313
#
# Static dielectric constant tensor:
#      x y z
#    x 1.934960 -0.002650 -0.030640 
#    y -0.002650 2.065460 0.098980 
#    z -0.030640 0.098980 1.992910 
# 
# From -- ./inp_files/185747.got.cif
#   From: 2010.05.17/outbox.cif.g08.bks.cpg/sg2_93_cif.got.tgz:185747.got - 2010.06.03 11:33:40.
