data_PCOD9102053
_publ_section_title
;
Structure prediction by ZEFSAII (Michael W. Deem and Ramdas Pophale) SiO2 
 PCOD9102053
Probable space group: P -1
;
_chemical_formula_sum "Si O2"
_cell_formula_units_Z 16
_cell_length_a 14.409560
_cell_length_b 8.178113
_cell_length_c 13.352330
_cell_angle_alpha 147.219704
_cell_angle_beta 50.085079
_cell_angle_gamma 129.218318
_cell_volume 636.887008
_symmetry_space_group_name_H-M "P -1"
_symmetry_group_IT_number 2
_symmetry_cell_setting 'triclinic'
loop_
_space_group_symop_operation_xyz
x,y,z
-x,-y,-z
loop_
_atom_site_type_symbol
_atom_site_label
_atom_site_fract_x
_atom_site_fract_y
_atom_site_fract_z
Si Si1 0.486443 0.839532 0.663299
Si Si2 0.032063 0.816385 0.031000
Si Si3 0.376062 0.320862 0.932678
Si Si4 0.344166 0.194895 0.652646
Si Si5 0.116015 0.288215 0.574189
Si Si6 0.718121 0.141970 0.755663
Si Si7 0.899267 0.322162 0.398752
Si Si8 0.798459 0.321611 0.013271
O O1 0.500000 0.500000 0.500000
O O2 0.556791 0.906106 0.540780
O O3 0.363452 0.970424 0.801492
O O4 0.571495 0.021577 0.786428
O O5 0.076244 0.561562 0.802623
O O6 0.913177 0.615995 0.069228
O O7 0.147882 0.911878 0.075426
O O8 0.977745 0.098751 0.173718
O O9 0.381967 0.288897 0.790729
O O10 0.500000 0.500000 0.000000
O O11 0.268684 0.513642 0.122749
O O12 0.224533 0.906867 0.591223
O O13 0.310122 0.509042 0.793957
O O14 0.143376 0.440619 0.524959
O O15 0.219159 0.125935 0.467888
O O16 0.000000 0.000000 0.500000
O O17 0.764396 0.179100 0.855142
O O18 0.000000 0.500000 0.500000
#
# Coordination Sequence:
#
# PCOD9102053 Si02
#       8
#     2   2   2   2   2   2   2   2
#     4  11  24  42  72  99 127 166 232 291 343 398
#     4  10  20  38  61  93 139 177 222 265 322 389
#     4   9  21  45  68  93 132 177 224 285 340 403
#     4  10  22  42  70  94 136 177 217 279 346 400
#     4  12  24  39  67  97 136 178 228 273 327 401
#     4  10  21  40  66  93 131 176 217 271 344 400
#     4  11  26  41  64  99 141 183 223 265 335 417
#     4   9  18  36  64  92 128 178 213 267 324 403
#
# _framework density 25.122195000000001
#
# number of rings (size 3 to 8) (size 9 to 14) (size 15 to 20)
#    0.000    1.750    1.250    2.250    7.000    0.000 
#    0.000    5.625    8.250    0.000    0.000    0.000 
#    0.000    0.000    0.000    0.000    0.000    0.000 
#
# Total GULP energy -89232.402693 kJ/mol
# GULP energy per Si atom -5577.025168 kJ/mol
# Density = 2.506502 g / cm^3
# Si number density = 25.122195 Si / 1000 Ang^3
#
#
#
# Elastic Constant Matrix: (Units=GPa)
#
#
# Indices 1 2 3 4 5 6 
#
# 1 112.2819 24.0564 57.0073 11.7943 -18.6695 -23.0057
# 2 24.0564 67.7346 29.1220 11.3967 -13.7607 -8.9236
# 3 57.0073 29.1220 137.6760 15.5996 -36.2800 -15.3361
# 4 11.7943 11.3967 15.5996 34.3827 -16.7169 -13.6291
# 5 -18.6695 -13.7607 -36.2800 -16.7169 73.3689 15.9840
# 6 -23.0057 -8.9236 -15.3361 -13.6291 15.9840 30.9636
#
#
#
# Elastic Compliance Matrix: (Units=1/GPa)
#
#
# Indices 1 2 3 4 5 6 
#
# 1 0.012892 -0.001997 -0.004354 0.000886 -0.000701 0.007598
# 2 -0.001997 0.017206 -0.002167 -0.003479 0.000749 0.000483
# 3 -0.004354 -0.002167 0.010501 -0.001208 0.003635 -0.001067
# 4 0.000886 -0.003479 -0.001208 0.038088 0.004740 0.013376
# 5 -0.000701 0.000749 0.003635 0.004740 0.017677 -0.005543
# 6 0.007598 0.000483 -0.001067 0.013376 -0.005543 0.046301
#
#
# Mechanical properties :
#
#
# Convention : Reuss Voigt Hill
#
# Bulk Modulus (GPa) = 42.44200 59.78487 51.11344
# Shear Modulus (GPa) = 29.84073 41.57682 35.70878
#
# Velocity S-wave (km/s) = 3.45022 4.07256 3.77424
# Velocity P-wave (km/s) = 5.72738 6.77965 6.27561
#
# Compressibility (1/GPa) = 0.02356157
#
# Stress axis : x y z
#
# Youngs Moduli (GPa) = 77.56718 58.12016 95.23077
#
# Poissons Ratio (x) = 0.11607 0.41468
# Poissons Ratio (y) = 0.15490 0.20637
# Poissons Ratio (z) = 0.33776 0.12595
#
# Static dielectric constant tensor:
#      x y z
#    x 2.115440 0.092990 0.067750 
#    y 0.092990 2.135560 0.088050 
#    z 0.067750 0.088050 2.171250 
# 
# From -- ./inp_files/529198.got.cif
#   From: 2010.05.17/outbox.cif.g08.bks.cpg/sg2_265_cif.got.tgz:529198.got - 2010.06.03 11:33:40.
