data_PCOD9102292
_publ_section_title
;
Structure prediction by ZEFSAII (Michael W. Deem and Ramdas Pophale) SiO2 
 PCOD9102292
Probable space group: P -1
;
_chemical_formula_sum "Si O2"
_cell_formula_units_Z 15
_cell_length_a 11.571898
_cell_length_b 15.606313
_cell_length_c 19.119814
_cell_angle_alpha 160.050037
_cell_angle_beta 146.043362
_cell_angle_gamma 40.034649
_cell_volume 656.282440
_symmetry_space_group_name_H-M "P -1"
_symmetry_group_IT_number 2
_symmetry_cell_setting 'triclinic'
loop_
_space_group_symop_operation_xyz
x,y,z
-x,-y,-z
loop_
_atom_site_type_symbol
_atom_site_label
_atom_site_fract_x
_atom_site_fract_y
_atom_site_fract_z
Si Si1 0.816123 0.319959 0.030236
Si Si2 0.558801 0.294047 0.256054
Si Si3 0.782465 0.584049 0.480732
Si Si4 0.539096 0.077025 0.467961
Si Si5 0.220674 0.691347 0.367920
Si Si6 0.930962 0.236052 0.871803
Si Si7 0.000000 0.000000 0.000000
Si Si8 0.100839 0.795425 0.536646
O O1 0.938825 0.221976 0.948830
O O2 0.581427 0.198452 0.809342
O O3 0.886936 0.616142 0.292879
O O4 0.902001 0.204826 0.055213
O O5 0.660980 0.347155 0.272344
O O6 0.375657 0.481597 0.310056
O O7 0.722526 0.341353 0.437591
O O8 0.500000 0.000000 0.000000
O O9 0.641627 0.726944 0.466576
O O10 0.000000 0.500000 0.500000
O O11 0.829387 0.784512 0.719433
O O12 0.669089 0.151684 0.519301
O O13 0.699648 0.145198 0.662355
O O14 0.167140 0.844162 0.527364
O O15 0.012964 0.520407 0.110859
O O16 0.069349 0.046653 0.755995
#
# Coordination Sequence:
#
# PCOD9102292 Si02
#       8
#     2   2   2   2   2   2   1   2
#     4  10  23  41  64  94 127 169 209 261 319 371
#     4  11  21  40  63  95 125 166 212 261 324 372
#     4  10  23  41  65  94 126 165 209 263 324 370
#     4  10  23  43  64  96 129 169 213 261 314 380
#     4  10  23  43  63  93 129 168 213 262 314 374
#     4  11  23  43  67  91 132 170 213 258 314 382
#     4  10  20  38  62  90 126 158 200 262 308 364
#     4  11  23  40  64  93 128 170 208 264 316 382
#
# _framework density 22.856014999999999
#
# number of rings (size 3 to 8) (size 9 to 14) (size 15 to 20)
#    0.000    1.600    2.667    1.200    3.733    1.067 
#    7.200    6.667    0.000    0.000    0.000    0.000 
#    0.000    0.000    0.000    0.000    0.000    0.000 
#
# Total GULP energy -83542.459227 kJ/mol
# GULP energy per Si atom -5569.497282 kJ/mol
# Density = 2.280399 g / cm^3
# Si number density = 22.856015 Si / 1000 Ang^3
#
#
#
# Elastic Constant Matrix: (Units=GPa)
#
#
# Indices 1 2 3 4 5 6 
#
# 1 33.3842 -8.1676 1.4337 16.1782 10.9118 -13.4338
# 2 -8.1676 37.6189 -4.4076 -16.8337 -4.8777 -5.5150
# 3 1.4337 -4.4076 91.2449 4.2469 14.6691 -8.2360
# 4 16.1782 -16.8337 4.2469 44.8256 5.6991 5.5141
# 5 10.9118 -4.8777 14.6691 5.6991 37.0513 -0.8244
# 6 -13.4338 -5.5150 -8.2360 5.5141 -0.8244 16.2631
#
#
#
# Elastic Compliance Matrix: (Units=1/GPa)
#
#
# Indices 1 2 3 4 5 6 
#
# 1 0.121890 0.021812 0.018211 -0.050101 -0.029575 0.132792
# 2 0.021812 0.037111 0.004742 0.002043 -0.003014 0.032158
# 3 0.018211 0.004742 0.015125 -0.008386 -0.008843 0.026706
# 4 -0.050101 0.002043 -0.008386 0.048215 0.009575 -0.060801
# 5 -0.029575 -0.003014 -0.008843 0.009575 0.036634 -0.031320
# 6 0.132792 0.032158 0.026706 -0.060801 -0.031320 0.214636
#
#
# Mechanical properties :
#
#
# Convention : Reuss Voigt Hill
#
# Bulk Modulus (GPa) = 3.79282 15.55165 9.67223
# Shear Modulus (GPa) = 10.59397 31.18732 20.89064
#
# Velocity S-wave (km/s) = 2.15526 3.69794 3.02654
# Velocity P-wave (km/s) = 2.80296 5.00519 4.05639
#
# Compressibility (1/GPa) = 0.26365607
#
# Stress axis : x y z
#
# Youngs Moduli (GPa) = 8.20410 26.94600 66.11595
#
# Poissons Ratio (x) = -0.58773 -1.20405
# Poissons Ratio (y) = -0.17894 -0.31353
# Poissons Ratio (z) = -0.14941 -0.12778
#
# Static dielectric constant tensor:
#      x y z
#    x 1.999160 0.058870 0.046530 
#    y 0.058870 1.935810 -0.002060 
#    z 0.046530 -0.002060 1.864650 
# 
# From -- ./inp_files/521940.got.cif
#   From: 2010.05.17/outbox.cif.g08.bks.cpg/sg2_261_cif.got.tgz:521940.got - 2010.06.03 11:33:40.
