data_PCOD9102893
_publ_section_title
;
Structure prediction by ZEFSAII (Michael W. Deem and Ramdas Pophale) SiO2 
 PCOD9102893
Probable space group: P -1
;
_chemical_formula_sum "Si O2"
_cell_formula_units_Z 16
_cell_length_a 15.415460
_cell_length_b 8.639179
_cell_length_c 13.028635
_cell_angle_alpha 105.911020
_cell_angle_beta 124.716542
_cell_angle_gamma 36.835452
_cell_volume 794.823335
_symmetry_space_group_name_H-M "P -1"
_symmetry_group_IT_number 2
_symmetry_cell_setting 'triclinic'
loop_
_space_group_symop_operation_xyz
x,y,z
-x,-y,-z
loop_
_atom_site_type_symbol
_atom_site_label
_atom_site_fract_x
_atom_site_fract_y
_atom_site_fract_z
Si Si1 0.899641 0.837424 0.633195
Si Si2 0.457242 0.869858 0.477628
Si Si3 0.564263 0.342406 0.764592
Si Si4 0.211524 0.188004 0.051697
Si Si5 0.145384 0.963557 0.588553
Si Si6 0.126338 0.850452 0.156635
Si Si7 0.776594 0.564982 0.749612
Si Si8 0.071292 0.341927 0.764508
O O1 0.056331 0.517938 0.715370
O O2 0.717616 0.956244 0.543277
O O3 0.887262 0.922455 0.526400
O O4 0.904763 0.971566 0.747350
O O5 0.443876 0.779278 0.352654
O O6 0.636527 0.611564 0.616471
O O7 0.500000 0.000000 0.500000
O O8 0.352903 0.648776 0.694529
O O9 0.675247 0.356053 0.795946
O O10 0.688936 0.096353 0.889914
O O11 0.310779 0.211964 0.182423
O O12 0.205409 0.196650 0.925953
O O13 0.000000 0.500000 0.000000
O O14 0.105567 0.147184 0.680768
O O15 0.000000 0.000000 0.500000
O O16 0.086703 0.727540 0.158622
O O17 0.000000 0.000000 0.000000
O O18 0.878488 0.544981 0.729701
#
# Coordination Sequence:
#
# PCOD9102893 Si02
#       8
#     2   2   2   2   2   2   2   2
#     4  11  23  41  64  92 125 165 218 267 321 377
#     4  11  18  35  64  95 118 149 203 275 326 366
#     4  11  23  40  61  98 129 164 214 260 325 384
#     4  10  20  38  64  92 122 161 211 267 323 377
#     4  12  27  43  62  89 131 182 218 257 307 379
#     4  11  21  37  64  96 127 155 202 274 333 375
#     4  11  19  34  63  93 120 157 205 268 328 368
#     4  11  22  40  60  86 126 171 215 255 310 380
#
# _framework density 20.130258999999999
#
# number of rings (size 3 to 8) (size 9 to 14) (size 15 to 20)
#    0.000    1.000    2.500    7.875    0.000    2.500 
#    0.000    0.000    0.000    4.500    0.000    0.000 
#    0.000    0.000    0.000    0.000    0.000    0.000 
#
# Total GULP energy -89120.099873 kJ/mol
# GULP energy per Si atom -5570.006242 kJ/mol
# Density = 2.008444 g / cm^3
# Si number density = 20.130259 Si / 1000 Ang^3
#
#
#
# Elastic Constant Matrix: (Units=GPa)
#
#
# Indices 1 2 3 4 5 6 
#
# 1 101.3986 41.1882 45.2789 0.2675 -8.8869 14.0735
# 2 41.1882 92.9531 38.7545 1.6719 -12.7355 7.5950
# 3 45.2789 38.7545 135.4304 -7.6210 -20.3872 -7.0408
# 4 0.2675 1.6719 -7.6210 31.7350 7.2041 -4.1863
# 5 -8.8869 -12.7355 -20.3872 7.2041 36.7165 -5.9296
# 6 14.0735 7.5950 -7.0408 -4.1863 -5.9296 24.6977
#
#
#
# Elastic Compliance Matrix: (Units=1/GPa)
#
#
# Indices 1 2 3 4 5 6 
#
# 1 0.014667 -0.004028 -0.004551 -0.001868 -0.001475 -0.009087
# 2 -0.004028 0.014230 -0.002605 -0.002260 0.002538 -0.002597
# 3 -0.004551 -0.002605 0.010962 0.002782 0.004853 0.008156
# 4 -0.001868 -0.002260 0.002782 0.034457 -0.005302 0.007120
# 5 -0.001475 0.002538 0.004853 -0.005302 0.032856 0.008433
# 6 -0.009087 -0.002597 0.008156 0.007120 0.008433 0.052023
#
#
# Mechanical properties :
#
#
# Convention : Reuss Voigt Hill
#
# Bulk Modulus (GPa) = 57.17220 64.46947 60.82083
# Shear Modulus (GPa) = 26.68185 32.26720 29.47452
#
# Velocity S-wave (km/s) = 3.64464 4.00799 3.83062
# Velocity P-wave (km/s) = 6.79514 7.31535 7.06004
#
# Compressibility (1/GPa) = 0.01749102
#
# Stress axis : x y z
#
# Youngs Moduli (GPa) = 68.17949 70.27523 91.22393
#
# Poissons Ratio (x) = 0.28305 0.41514
# Poissons Ratio (y) = 0.27461 0.23768
# Poissons Ratio (z) = 0.31027 0.18310
#
# Static dielectric constant tensor:
#      x y z
#    x 1.746300 0.030980 -0.000240 
#    y 0.030980 1.842850 -0.216970 
#    z -0.000240 -0.216970 2.069850 
# 
# From -- ./inp_files/446112.got.cif
#   From: 2010.05.17/outbox.cif.g08.bks.cpg/sg2_224_cif.got.tgz:446112.got - 2010.06.03 11:33:40.
