data_PCOD9102141
_publ_section_title
;
Structure prediction by ZEFSAII (Michael W. Deem and Ramdas Pophale) SiO2 
 PCOD9102141
Probable space group: P -1
;
_chemical_formula_sum "Si O2"
_cell_formula_units_Z 16
_cell_length_a 19.302874
_cell_length_b 18.316844
_cell_length_c 6.316531
_cell_angle_alpha 103.115559
_cell_angle_beta 113.301919
_cell_angle_gamma 21.184545
_cell_volume 670.041412
_symmetry_space_group_name_H-M "P -1"
_symmetry_group_IT_number 2
_symmetry_cell_setting 'triclinic'
loop_
_space_group_symop_operation_xyz
x,y,z
-x,-y,-z
loop_
_atom_site_type_symbol
_atom_site_label
_atom_site_fract_x
_atom_site_fract_y
_atom_site_fract_z
Si Si1 0.386971 0.691268 0.857893
Si Si2 0.642014 0.572857 0.313460
Si Si3 0.899560 0.916065 0.464379
Si Si4 0.674654 0.015394 0.560010
Si Si5 0.972626 0.582918 0.329107
Si Si6 0.158414 0.792493 0.941324
Si Si7 0.673359 0.766413 0.847594
Si Si8 0.863214 0.457219 0.169654
O O1 0.234010 0.896072 0.697964
O O2 0.241968 0.757376 0.807489
O O3 0.493535 0.637374 0.149981
O O4 0.603950 0.457416 0.838132
O O5 0.508240 0.763578 0.393632
O O6 0.697649 0.550832 0.128003
O O7 0.881820 0.325410 0.540666
O O8 0.738430 0.003686 0.422029
O O9 0.012559 0.856230 0.755130
O O10 0.569744 0.031878 0.394547
O O11 0.908492 0.787416 0.820101
O O12 0.033668 0.602867 0.529006
O O13 0.000000 0.500000 0.500000
O O14 0.164289 0.387523 0.259911
O O15 0.738519 0.782277 0.057958
O O16 0.000000 0.000000 0.000000
O O17 0.748341 0.627842 0.001640
#
# Coordination Sequence:
#
# PCOD9102141 Si02
#       8
#     2   2   2   2   2   2   2   2
#     4  10  21  37  57  83 113 156 191 233 300 340
#     4  10  21  38  56  82 121 149 191 252 281 341
#     4  10  22  37  57  85 115 150 196 238 288 352
#     4  11  22  37  60  87 113 156 198 235 299 352
#     4   9  19  39  62  85 122 151 191 252 287 346
#     4  10  21  37  57  83 117 148 191 244 285 343
#     4  10  20  38  62  86 116 158 194 238 304 346
#     4  10  21  39  58  86 121 150 197 250 286 350
#
# _framework density 23.87912
#
# number of rings (size 3 to 8) (size 9 to 14) (size 15 to 20)
#    0.000    2.000    1.250    1.875    0.000    3.000 
#    2.250    5.625    0.000    0.000    0.000    0.000 
#    0.000    0.000    0.000    0.000    0.000    0.000 
#
# Total GULP energy -89333.618469 kJ/mol
# GULP energy per Si atom -5583.351154 kJ/mol
# Density = 2.382477 g / cm^3
# Si number density = 23.879120 Si / 1000 Ang^3
#
#
#
# Elastic Constant Matrix: (Units=GPa)
#
#
# Indices 1 2 3 4 5 6 
#
# 1 76.9725 -12.4084 3.5898 5.3575 6.5546 -5.5993
# 2 -12.4084 115.5953 12.8705 -3.7258 -0.0377 8.4323
# 3 3.5898 12.8705 42.1593 -1.6168 7.1189 -6.3001
# 4 5.3575 -3.7258 -1.6168 29.3989 11.1082 3.8153
# 5 6.5546 -0.0377 7.1189 11.1082 41.3233 -10.0468
# 6 -5.5993 8.4323 -6.3001 3.8153 -10.0468 41.7601
#
#
#
# Elastic Compliance Matrix: (Units=1/GPa)
#
#
# Indices 1 2 3 4 5 6 
#
# 1 0.013617 0.001445 -0.001315 -0.002142 -0.001045 0.001280
# 2 0.001445 0.009383 -0.003200 0.001300 -0.000615 -0.002450
# 3 -0.001315 -0.003200 0.026081 0.002430 -0.004168 0.003180
# 4 -0.002142 0.001300 0.002430 0.040363 -0.012606 -0.006903
# 5 -0.001045 -0.000615 -0.004168 -0.012606 0.030371 0.007814
# 6 0.001280 -0.002450 0.003180 -0.006903 0.007814 0.027603
#
#
# Mechanical properties :
#
#
# Convention : Reuss Voigt Hill
#
# Bulk Modulus (GPa) = 23.28775 26.98121 25.13448
# Shear Modulus (GPa) = 29.78494 37.87481 33.82987
#
# Velocity S-wave (km/s) = 3.53558 3.98691 3.76801
# Velocity P-wave (km/s) = 5.14204 5.70242 5.42946
#
# Compressibility (1/GPa) = 0.04294104
#
# Stress axis : x y z
#
# Youngs Moduli (GPa) = 73.43665 106.57860 38.34273
#
# Poissons Ratio (x) = -0.15405 0.05043
# Poissons Ratio (y) = -0.10615 0.12270
# Poissons Ratio (z) = 0.09658 0.34105
#
# Static dielectric constant tensor:
#      x y z
#    x 1.862440 0.002270 0.034230 
#    y 0.002270 2.017860 -0.030400 
#    z 0.034230 -0.030400 1.955250 
# 
# From -- ./inp_files/120425.got.cif
#   From: 2010.05.17/outbox.cif.g08.bks.cpg/sg2_61_cif.got.tgz:120425.got - 2010.06.03 11:33:40.
