data_PCOD9102860
_publ_section_title
;
Structure prediction by ZEFSAII (Michael W. Deem and Ramdas Pophale) SiO2 
 PCOD9102860
Probable space group: P -1
;
_chemical_formula_sum "Si O2"
_cell_formula_units_Z 15
_cell_length_a 13.752665
_cell_length_b 16.415681
_cell_length_c 8.795795
_cell_angle_alpha 58.594532
_cell_angle_beta 119.989886
_cell_angle_gamma 159.319900
_cell_volume 598.026294
_symmetry_space_group_name_H-M "P -1"
_symmetry_group_IT_number 2
_symmetry_cell_setting 'triclinic'
loop_
_space_group_symop_operation_xyz
x,y,z
-x,-y,-z
loop_
_atom_site_type_symbol
_atom_site_label
_atom_site_fract_x
_atom_site_fract_y
_atom_site_fract_z
Si Si1 0.495784 0.258390 0.186203
Si Si2 0.258804 0.360472 0.643062
Si Si3 0.349170 0.068866 0.920541
Si Si4 0.866206 0.796556 0.637047
Si Si5 0.805309 0.149709 0.534078
Si Si6 0.905753 0.490379 0.793285
Si Si7 0.000000 0.000000 0.000000
Si Si8 0.859033 0.273714 0.773081
O O1 0.823537 0.515028 0.181838
O O2 0.397322 0.098681 0.381629
O O3 0.389866 0.137831 0.055988
O O4 0.320407 0.218161 0.099573
O O5 0.580823 0.601090 0.681633
O O6 0.196751 0.309289 0.464163
O O7 0.106935 0.334950 0.614613
O O8 0.125786 0.166635 0.807666
O O9 0.610833 0.301986 0.797632
O O10 0.073480 0.899555 0.803314
O O11 0.307573 0.923385 0.049543
O O12 0.000000 0.000000 0.500000
O O13 0.859782 0.253676 0.325164
O O14 0.749390 0.171357 0.616794
O O15 0.858823 0.381658 0.722907
O O16 0.000000 0.500000 0.000000
#
# Coordination Sequence:
#
# PCOD9102860 Si02
#       8
#     2   2   2   2   2   2   1   2
#     4  10  22  43  65  96 133 172 216 269 328 392
#     4  10  23  42  65 102 135 173 214 270 323 395
#     4  11  24  42  67  97 129 170 225 272 328 391
#     4  11  23  40  68  99 136 172 217 266 331 391
#     4  10  25  43  66  97 133 171 221 267 334 393
#     4  12  25  45  69  94 130 175 225 282 330 378
#     4  10  20  38  64  90 130 170 206 252 326 388
#     4  11  24  46  66  94 131 177 218 275 331 391
#
# _framework density 25.082509999999999
#
# number of rings (size 3 to 8) (size 9 to 14) (size 15 to 20)
#    0.000    1.333    1.333    3.200    1.867    8.000 
#    2.400    6.000    0.000    0.000    0.000    0.000 
#    0.000    0.000    0.000    0.000    0.000    0.000 
#
# Total GULP energy -83805.250965 kJ/mol
# GULP energy per Si atom -5587.016731 kJ/mol
# Density = 2.502542 g / cm^3
# Si number density = 25.082510 Si / 1000 Ang^3
#
#
#
# Elastic Constant Matrix: (Units=GPa)
#
#
# Indices 1 2 3 4 5 6 
#
# 1 67.0163 10.5930 16.2376 8.3924 -11.7197 0.9122
# 2 10.5930 87.4672 48.5471 4.4321 -4.5297 29.4682
# 3 16.2376 48.5471 98.9037 -0.4542 3.3036 4.9356
# 4 8.3924 4.4321 -0.4542 54.9557 6.8272 -1.3296
# 5 -11.7197 -4.5297 3.3036 6.8272 21.8377 -1.0391
# 6 0.9122 29.4682 4.9356 -1.3296 -1.0391 34.1195
#
#
#
# Elastic Compliance Matrix: (Units=1/GPa)
#
#
# Indices 1 2 3 4 5 6 
#
# 1 0.018370 0.000970 -0.003885 -0.004421 0.012002 -0.000574
# 2 0.000970 0.025187 -0.011801 -0.003722 0.007743 -0.019981
# 3 -0.003885 -0.011801 0.016416 0.002804 -0.007521 0.007801
# 4 -0.004421 -0.003722 0.002804 0.020497 -0.009814 0.003427
# 5 0.012002 0.007743 -0.007521 -0.009814 0.057830 -0.004542
# 6 -0.000574 -0.019981 0.007801 0.003427 -0.004542 0.045448
#
#
# Mechanical properties :
#
#
# Convention : Reuss Voigt Hill
#
# Bulk Modulus (GPa) = 32.74182 44.90474 38.82328
# Shear Modulus (GPa) = 22.38555 34.04987 28.21771
#
# Velocity S-wave (km/s) = 2.99068 3.68844 3.35773
# Velocity P-wave (km/s) = 5.00075 6.00676 5.52669
#
# Compressibility (1/GPa) = 0.03054198
#
# Stress axis : x y z
#
# Youngs Moduli (GPa) = 54.43663 39.70375 60.91671
#
# Poissons Ratio (x) = -0.03853 0.23665
# Poissons Ratio (y) = -0.05282 0.71886
# Poissons Ratio (z) = 0.21147 0.46854
#
# Static dielectric constant tensor:
#      x y z
#    x 2.029540 -0.005810 0.006480 
#    y -0.005810 1.931300 0.029980 
#    z 0.006480 0.029980 1.935770 
# 
# From -- ./inp_files/27511.got.cif
#   From: 2010.05.17/outbox.cif.g08.bks.cpg/sg2_14_cif.got.tgz:27511.got - 2010.06.03 11:33:40.
