data_PCOD9102180
_publ_section_title
;
Structure prediction by ZEFSAII (Michael W. Deem and Ramdas Pophale) SiO2 
 PCOD9102180
Probable space group: P -1
;
_chemical_formula_sum "Si O2"
_cell_formula_units_Z 16
_cell_length_a 16.125222
_cell_length_b 19.712510
_cell_length_c 9.040862
_cell_angle_alpha 142.637843
_cell_angle_beta 140.687445
_cell_angle_gamma 27.417042
_cell_volume 778.779665
_symmetry_space_group_name_H-M "P -1"
_symmetry_group_IT_number 2
_symmetry_cell_setting 'triclinic'
loop_
_space_group_symop_operation_xyz
x,y,z
-x,-y,-z
loop_
_atom_site_type_symbol
_atom_site_label
_atom_site_fract_x
_atom_site_fract_y
_atom_site_fract_z
Si Si1 0.682884 0.360125 0.304525
Si Si2 0.046650 0.218027 0.051010
Si Si3 0.614673 0.028522 0.280986
Si Si4 0.525504 0.644380 0.386781
Si Si5 0.133576 0.820773 0.049351
Si Si6 0.670585 0.571261 0.125023
Si Si7 0.413310 0.127634 0.473809
Si Si8 0.994837 0.869460 0.449489
O O1 0.638306 0.508445 0.429855
O O2 0.800794 0.289856 0.494479
O O3 0.815026 0.218285 0.119093
O O4 0.493503 0.404230 0.128800
O O5 0.876174 0.400857 0.088142
O O6 0.239709 0.165837 0.230234
O O7 0.999708 0.196191 0.108924
O O8 0.035874 0.122055 0.753576
O O9 0.545974 0.187124 0.388220
O O10 0.563985 0.060821 0.439067
O O11 0.834174 0.884700 0.314484
O O12 0.500000 0.000000 0.000000
O O13 0.337544 0.686955 0.173750
O O14 0.631665 0.590401 0.282739
O O15 0.052121 0.984752 0.284920
O O16 0.652725 0.709516 0.286086
O O17 0.500000 0.000000 0.500000
#
# Coordination Sequence:
#
# PCOD9102180 Si02
#       8
#     2   2   2   2   2   2   2   2
#     4  11  20  40  65  96 117 156 212 246 298 359
#     4  12  22  41  60  87 132 158 199 246 315 358
#     4  10  21  45  61  83 125 161 201 246 306 363
#     4   9  18  38  67  87 113 164 204 242 300 357
#     4  10  20  38  62  87 121 163 202 246 299 362
#     4  10  21  41  64  87 126 161 199 252 299 362
#     4  11  26  41  65  90 114 165 214 249 295 360
#     4  11  25  36  61  96 122 160 195 256 311 349
#
# _framework density 20.544962999999999
#
# number of rings (size 3 to 8) (size 9 to 14) (size 15 to 20)
#    0.000    1.500    3.750    2.625    3.500    0.500 
#    2.250    0.625    0.000    0.000    0.000    0.000 
#    0.000    0.000    0.000    0.000    0.000    0.000 
#
# Total GULP energy -89339.522757 kJ/mol
# GULP energy per Si atom -5583.720172 kJ/mol
# Density = 2.049820 g / cm^3
# Si number density = 20.544963 Si / 1000 Ang^3
#
#
#
# Elastic Constant Matrix: (Units=GPa)
#
#
# Indices 1 2 3 4 5 6 
#
# 1 44.5305 16.3962 4.5863 -7.2309 6.9763 1.5482
# 2 16.3962 92.7320 31.0429 -7.4050 1.7910 12.7028
# 3 4.5863 31.0429 68.4419 -2.1685 13.4288 14.5937
# 4 -7.2309 -7.4050 -2.1685 33.7916 -1.1025 6.2984
# 5 6.9763 1.7910 13.4288 -1.1025 25.8021 7.4990
# 6 1.5482 12.7028 14.5937 6.2984 7.4990 25.6780
#
#
#
# Elastic Compliance Matrix: (Units=1/GPa)
#
#
# Indices 1 2 3 4 5 6 
#
# 1 0.025915 -0.004882 0.001920 0.004156 -0.007785 0.001015
# 2 -0.004882 0.014583 -0.005984 0.003016 0.005233 -0.005787
# 3 0.001920 -0.005984 0.020338 0.001328 -0.008747 -0.006485
# 4 0.004156 0.003016 0.001328 0.033463 0.002751 -0.011509
# 5 -0.007785 0.005233 -0.008747 0.002751 0.048666 -0.012035
# 6 0.001015 -0.005787 -0.006485 -0.011509 -0.012035 0.051769
#
#
# Mechanical properties :
#
#
# Convention : Reuss Voigt Hill
#
# Bulk Modulus (GPa) = 23.28625 34.41723 28.85174
# Shear Modulus (GPa) = 22.03222 27.29962 24.66592
#
# Velocity S-wave (km/s) = 3.27829 3.64919 3.46870
# Velocity P-wave (km/s) = 5.06838 5.87741 5.48783
#
# Compressibility (1/GPa) = 0.04294379
#
# Stress axis : x y z
#
# Youngs Moduli (GPa) = 38.58716 68.57428 49.16976
#
# Poissons Ratio (x) = 0.33477 -0.09442
# Poissons Ratio (y) = 0.18838 0.29425
# Poissons Ratio (z) = -0.07410 0.41038
#
# Static dielectric constant tensor:
#      x y z
#    x 1.750060 -0.003450 -0.036310 
#    y -0.003450 1.748920 0.027320 
#    z -0.036310 0.027320 1.745450 
# 
# From -- ./inp_files/204317.got.cif
#   From: 2010.05.17/outbox.cif.g08.bks.cpg/sg2_103_cif.got.tgz:204317.got - 2010.06.03 11:33:40.
