data_PCOD9102012
_publ_section_title
;
Structure prediction by ZEFSAII (Michael W. Deem and Ramdas Pophale) SiO2 
 PCOD9102012
Probable space group: P -1
;
_chemical_formula_sum "Si O2"
_cell_formula_units_Z 16
_cell_length_a 6.898258
_cell_length_b 13.143578
_cell_length_c 9.776515
_cell_angle_alpha 67.181427
_cell_angle_beta 125.426570
_cell_angle_gamma 102.820812
_cell_volume 665.769103
_symmetry_space_group_name_H-M "P -1"
_symmetry_group_IT_number 2
_symmetry_cell_setting 'triclinic'
loop_
_space_group_symop_operation_xyz
x,y,z
-x,-y,-z
loop_
_atom_site_type_symbol
_atom_site_label
_atom_site_fract_x
_atom_site_fract_y
_atom_site_fract_z
Si Si1 0.264386 0.524657 0.304275
Si Si2 0.299775 0.828652 0.551652
Si Si3 0.214978 0.038173 0.246554
Si Si4 0.504321 0.041935 0.826254
Si Si5 0.162525 0.867236 0.755346
Si Si6 0.426958 0.388512 0.209909
Si Si7 0.224517 0.408691 0.821924
Si Si8 0.512810 0.264240 0.841121
O O1 0.500000 0.500000 0.500000
O O2 0.244683 0.429551 0.230637
O O3 0.315457 0.639530 0.189176
O O4 0.035997 0.541010 0.295980
O O5 0.183538 0.913138 0.354497
O O6 0.128693 0.813809 0.621194
O O7 0.406890 0.710568 0.617606
O O8 0.540443 0.898199 0.649140
O O9 0.265469 0.012292 0.121787
O O10 0.023631 0.111438 0.210965
O O11 0.494479 0.172916 0.762997
O O12 0.268127 0.987907 0.695848
O O13 0.500000 0.000000 0.000000
O O14 0.365687 0.793350 0.948145
O O15 0.594626 0.492944 0.191733
O O16 0.298285 0.362252 0.026932
O O17 0.269646 0.317674 0.770795
#
# Coordination Sequence:
#
# PCOD9102012 Si02
#       8
#     2   2   2   2   2   2   2   2
#     4  11  26  42  63  97 129 162 213 268 325 388
#     4  10  21  39  60  91 128 159 209 268 318 379
#     4  10  22  36  61  92 127 162 209 262 317 376
#     4   9  21  38  56  87 125 160 209 256 302 387
#     4  10  20  38  61  91 122 164 214 257 317 376
#     4  10  22  41  68  94 122 168 216 261 321 382
#     4  10  22  44  66  91 125 164 219 268 313 381
#     4  10  22  38  62  87 122 166 213 257 319 381
#
# _framework density 24.032354000000002
#
# number of rings (size 3 to 8) (size 9 to 14) (size 15 to 20)
#    0.000    2.000    1.250    0.750    3.500    6.000 
#    2.250    0.000    0.000    0.000    0.000    0.000 
#    0.000    0.000    0.000    0.000    0.000    0.000 
#
# Total GULP energy -89300.631858 kJ/mol
# GULP energy per Si atom -5581.289491 kJ/mol
# Density = 2.397766 g / cm^3
# Si number density = 24.032354 Si / 1000 Ang^3
#
#
#
# Elastic Constant Matrix: (Units=GPa)
#
#
# Indices 1 2 3 4 5 6 
#
# 1 150.0476 22.9750 13.5149 -4.9847 24.2200 -48.6933
# 2 22.9750 61.2426 -7.6556 -18.9323 2.0613 -24.7111
# 3 13.5149 -7.6556 46.5439 -18.4436 3.3604 -2.7693
# 4 -4.9847 -18.9323 -18.4436 27.8380 -0.2848 4.3990
# 5 24.2200 2.0613 3.3604 -0.2848 38.4234 -13.1047
# 6 -48.6933 -24.7111 -2.7693 4.3990 -13.1047 35.1221
#
#
#
# Elastic Compliance Matrix: (Units=1/GPa)
#
#
# Indices 1 2 3 4 5 6 
#
# 1 0.012836 0.002223 -0.002438 -0.000769 -0.001642 0.018652
# 2 0.002223 0.045269 0.025301 0.042675 0.005781 0.033739
# 3 -0.002438 0.025301 0.044606 0.044320 0.000953 0.012743
# 4 -0.000769 0.042675 0.044320 0.090716 0.002504 0.022026
# 5 -0.001642 0.005781 0.000953 0.002504 0.031184 0.013188
# 6 0.018652 0.033739 0.012743 0.022026 0.013188 0.081236
#
#
# Mechanical properties :
#
#
# Convention : Reuss Voigt Hill
#
# Bulk Modulus (GPa) = 6.54093 35.05587 20.79840
# Shear Modulus (GPa) = 16.30607 35.54334 25.92470
#
# Velocity S-wave (km/s) = 2.60764 3.84992 3.28798
# Velocity P-wave (km/s) = 3.43424 5.86354 4.80495
#
# Compressibility (1/GPa) = 0.15288344
#
# Stress axis : x y z
#
# Youngs Moduli (GPa) = 77.90629 22.09032 22.41845
#
# Poissons Ratio (x) = -0.04911 0.05465
# Poissons Ratio (y) = -0.17321 -0.56721
# Poissons Ratio (z) = 0.18993 -0.55891
#
# Static dielectric constant tensor:
#      x y z
#    x 1.947380 -0.025370 -0.019560 
#    y -0.025370 2.034150 0.051570 
#    z -0.019560 0.051570 2.012650 
# 
# From -- ./inp_files/367639.got.cif
#   From: 2010.05.17/outbox.cif.g08.bks.cpg/sg2_184_cif.got.tgz:367639.got - 2010.06.03 11:33:40.
