data_PCOD9102271
_publ_section_title
;
Structure prediction by ZEFSAII (Michael W. Deem and Ramdas Pophale) SiO2 
 PCOD9102271
Probable space group: P -1
;
_chemical_formula_sum "Si O2"
_cell_formula_units_Z 15
_cell_length_a 12.491969
_cell_length_b 12.863226
_cell_length_c 14.894558
_cell_angle_alpha 132.559694
_cell_angle_beta 29.357090
_cell_angle_gamma 112.789824
_cell_volume 716.143994
_symmetry_space_group_name_H-M "P -1"
_symmetry_group_IT_number 2
_symmetry_cell_setting 'triclinic'
loop_
_space_group_symop_operation_xyz
x,y,z
-x,-y,-z
loop_
_atom_site_type_symbol
_atom_site_label
_atom_site_fract_x
_atom_site_fract_y
_atom_site_fract_z
Si Si1 0.196195 0.149868 0.787862
Si Si2 0.000000 0.500000 0.000000
Si Si3 0.140773 0.707229 0.704498
Si Si4 0.668634 0.903252 0.030857
Si Si5 0.923015 0.022399 0.786329
Si Si6 0.453865 0.220539 0.494872
Si Si7 0.674466 0.370216 0.065380
Si Si8 0.765250 0.167755 0.718036
O O1 0.220741 0.272125 0.769928
O O2 0.065571 0.064332 0.783576
O O3 0.500000 0.000000 0.500000
O O4 0.030028 0.250052 0.055089
O O5 0.288106 0.395856 0.666481
O O6 0.129647 0.579083 0.016753
O O7 0.286583 0.807199 0.668571
O O8 0.381078 0.516971 0.396083
O O9 0.939775 0.774496 0.808507
O O10 0.732538 0.978514 0.944440
O O11 0.496350 0.832229 0.090515
O O12 0.507679 0.058733 0.309770
O O13 0.762830 0.194614 0.946878
O O14 0.131857 0.866785 0.479382
O O15 0.705820 0.329213 0.912243
O O16 0.000000 0.000000 0.500000
#
# Coordination Sequence:
#
# PCOD9102271 Si02
#       8
#     2   1   2   2   2   2   2   2
#     4  12  20  35  61  91 124 158 208 249 312 364
#     4  10  20  38  62  90 118 162 196 258 318 354
#     4  11  24  38  60  96 129 162 206 259 312 369
#     4  12  22  39  64  91 126 164 208 259 307 363
#     4  11  22  39  66  94 119 168 210 253 306 372
#     4  11  20  35  59  90 124 161 199 256 305 366
#     4  10  23  42  63  91 128 163 207 258 313 370
#     4  10  22  43  64  90 123 165 212 255 307 371
#
# _framework density 20.945506999999999
#
# number of rings (size 3 to 8) (size 9 to 14) (size 15 to 20)
#    0.000    1.067    5.333    2.000    0.000    4.267 
#    0.000    3.333    0.000    0.000    0.000    0.000 
#    0.000    0.000    0.000    0.000    0.000    0.000 
#
# Total GULP energy -83594.108373 kJ/mol
# GULP energy per Si atom -5572.940558 kJ/mol
# Density = 2.089783 g / cm^3
# Si number density = 20.945507 Si / 1000 Ang^3
#
#
#
# Elastic Constant Matrix: (Units=GPa)
#
#
# Indices 1 2 3 4 5 6 
#
# 1 81.1445 31.1527 39.3896 13.4463 -1.1409 25.4546
# 2 31.1527 71.6504 28.9150 -7.7999 15.7754 17.5812
# 3 39.3896 28.9150 122.4510 18.1850 3.8359 11.6621
# 4 13.4463 -7.7999 18.1850 27.0056 4.6260 1.8394
# 5 -1.1409 15.7754 3.8359 4.6260 42.9026 -4.1639
# 6 25.4546 17.5812 11.6621 1.8394 -4.1639 30.3196
#
#
#
# Elastic Compliance Matrix: (Units=1/GPa)
#
#
# Indices 1 2 3 4 5 6 
#
# 1 0.022270 -0.007745 -0.002619 -0.011385 0.003738 -0.011994
# 2 -0.007745 0.026326 -0.005044 0.017610 -0.012263 -0.009576
# 3 -0.002619 -0.005044 0.011200 -0.008111 0.001809 0.001556
# 4 -0.011385 0.017610 -0.008111 0.055528 -0.012291 -0.002590
# 5 0.003738 -0.012263 0.001809 -0.012291 0.029869 0.008125
# 6 -0.011994 -0.009576 0.001556 -0.002590 0.008125 0.049278
#
#
# Mechanical properties :
#
#
# Convention : Reuss Voigt Hill
#
# Bulk Modulus (GPa) = 34.50686 52.68450 43.59568
# Shear Modulus (GPa) = 21.28128 31.76481 26.52305
#
# Velocity S-wave (km/s) = 3.19098 3.89851 3.56235
# Velocity P-wave (km/s) = 5.48515 6.74331 6.14651
#
# Compressibility (1/GPa) = 0.02897975
#
# Stress axis : x y z
#
# Youngs Moduli (GPa) = 44.90302 37.98463 89.28857
#
# Poissons Ratio (x) = 0.29420 0.23383
# Poissons Ratio (y) = 0.34779 0.45039
# Poissons Ratio (z) = 0.11759 0.19160
#
# Static dielectric constant tensor:
#      x y z
#    x 0.427770 1.577110 1.041160 
#    y 1.577110 -0.191650 -1.221800 
#    z 1.041160 -1.221800 1.025810 
# 
# From -- ./inp_files/428356.got.cif
#   From: 2010.05.17/outbox.cif.g08.bks.cpg/sg2_215_cif.got.tgz:428356.got - 2010.06.03 11:33:40.
