data_PCOD9102050
_publ_section_title
;
Structure prediction by ZEFSAII (Michael W. Deem and Ramdas Pophale) SiO2 
 PCOD9102050
Probable space group: P -1
;
_chemical_formula_sum "Si O2"
_cell_formula_units_Z 16
_cell_length_a 16.149780
_cell_length_b 13.460897
_cell_length_c 6.219905
_cell_angle_alpha 62.412444
_cell_angle_beta 55.725714
_cell_angle_gamma 34.902147
_cell_volume 639.318953
_symmetry_space_group_name_H-M "P -1"
_symmetry_group_IT_number 2
_symmetry_cell_setting 'triclinic'
loop_
_space_group_symop_operation_xyz
x,y,z
-x,-y,-z
loop_
_atom_site_type_symbol
_atom_site_label
_atom_site_fract_x
_atom_site_fract_y
_atom_site_fract_z
Si Si1 0.523721 0.887469 0.270426
Si Si2 0.055032 0.229038 0.626253
Si Si3 0.749234 0.825673 0.291131
Si Si4 0.655069 0.159550 0.589959
Si Si5 0.971467 0.393144 0.151796
Si Si6 0.788743 0.400421 0.142257
Si Si7 0.179108 0.829806 0.353871
Si Si8 0.363223 0.616399 0.914257
O O1 0.675606 0.790595 0.286502
O O2 0.486414 0.805115 0.279058
O O3 0.395850 0.000782 0.538511
O O4 0.500000 0.000000 0.000000
O O5 0.126324 0.279739 0.588074
O O6 0.952336 0.358949 0.448512
O O7 0.195037 0.032559 0.535791
O O8 0.948510 0.251374 0.922827
O O9 0.860033 0.797082 0.989551
O O10 0.714123 0.158781 0.731052
O O11 0.615893 0.302826 0.366214
O O12 0.829230 0.480961 0.119843
O O13 0.000000 0.500000 0.000000
O O14 0.774835 0.319552 0.427622
O O15 0.657631 0.483059 0.079029
O O16 0.211195 0.776964 0.113339
O O17 0.000000 0.000000 0.500000
O O18 0.500000 0.500000 0.000000
#
# Coordination Sequence:
#
# PCOD9102050 Si02
#       8
#     2   2   2   2   2   2   2   2
#     4  10  20  38  61  93 131 170 212 270 320 384
#     4  10  20  40  65  95 129 161 218 279 321 386
#     4   9  20  36  60  88 129 167 215 256 324 382
#     4  10  22  38  65  95 123 168 219 262 324 387
#     4  11  23  41  62  96 130 170 216 272 331 387
#     4  10  22  40  66  91 126 170 215 266 327 391
#     4  11  22  40  70  98 123 165 221 272 326 383
#     4  11  25  45  62  94 137 173 212 269 331 394
#
# _framework density 25.026633
#
# number of rings (size 3 to 8) (size 9 to 14) (size 15 to 20)
#    0.000    1.750    0.000    4.500    0.000   12.000 
#    9.000    0.000    0.000    0.000    0.000    0.000 
#    0.000    0.000    0.000    0.000    0.000    0.000 
#
# Total GULP energy -89271.716321 kJ/mol
# GULP energy per Si atom -5579.482270 kJ/mol
# Density = 2.496967 g / cm^3
# Si number density = 25.026633 Si / 1000 Ang^3
#
#
#
# Elastic Constant Matrix: (Units=GPa)
#
#
# Indices 1 2 3 4 5 6 
#
# 1 295.2405 41.6949 30.4926 -1.2733 7.5488 -1.4675
# 2 41.6949 59.2086 10.6429 8.9388 0.5030 -4.3826
# 3 30.4926 10.6429 71.3849 10.3150 -4.9803 9.8485
# 4 -1.2733 8.9388 10.3150 28.6632 -1.1463 -2.1893
# 5 7.5488 0.5030 -4.9803 -1.1463 33.9097 3.3818
# 6 -1.4675 -4.3826 9.8485 -2.1893 3.3818 41.2870
#
#
#
# Elastic Compliance Matrix: (Units=1/GPa)
#
#
# Indices 1 2 3 4 5 6 
#
# 1 0.003977 -0.002704 -0.001662 0.001607 -0.001077 0.000424
# 2 -0.002704 0.020053 -0.001307 -0.005757 -0.000288 0.002063
# 3 -0.001662 -0.001307 0.016634 -0.005889 0.003105 -0.004732
# 4 0.001607 -0.005757 -0.005889 0.039094 -0.000108 0.002933
# 5 -0.001077 -0.000288 0.003105 -0.000108 0.030517 -0.003315
# 6 0.000424 0.002063 -0.004732 0.002933 -0.003315 0.026011
#
#
# Mechanical properties :
#
#
# Convention : Reuss Voigt Hill
#
# Bulk Modulus (GPa) = 34.10916 65.72165 49.91541
# Shear Modulus (GPa) = 31.76532 43.63888 37.70210
#
# Velocity S-wave (km/s) = 3.56653 4.18029 3.88555
# Velocity P-wave (km/s) = 5.53344 7.04397 6.33389
#
# Compressibility (1/GPa) = 0.02931763
#
# Stress axis : x y z
#
# Youngs Moduli (GPa) = 251.43586 49.86777 60.11866
#
# Poissons Ratio (x) = 0.13485 0.09989
# Poissons Ratio (y) = 0.67992 0.07860
# Poissons Ratio (z) = 0.41779 0.06520
#
# Static dielectric constant tensor:
#      x y z
#    x 2.026350 0.013530 0.022090 
#    y 0.013530 2.061700 0.052700 
#    z 0.022090 0.052700 1.923580 
# 
# From -- ./inp_files/97548.got.cif
#   From: 2010.05.17/outbox.cif.g08.bks.cpg/sg2_49_cif.got.tgz:97548.got - 2010.06.03 11:33:40.
