data_PCOD9102585
_publ_section_title
;
Structure prediction by ZEFSAII (Michael W. Deem and Ramdas Pophale) SiO2 
 PCOD9102585
Probable space group: P -1
;
_chemical_formula_sum "Si O2"
_cell_formula_units_Z 16
_cell_length_a 14.279966
_cell_length_b 20.242359
_cell_length_c 6.114606
_cell_angle_alpha 108.350186
_cell_angle_beta 93.744900
_cell_angle_gamma 26.947529
_cell_volume 658.129638
_symmetry_space_group_name_H-M "P -1"
_symmetry_group_IT_number 2
_symmetry_cell_setting 'triclinic'
loop_
_space_group_symop_operation_xyz
x,y,z
-x,-y,-z
loop_
_atom_site_type_symbol
_atom_site_label
_atom_site_fract_x
_atom_site_fract_y
_atom_site_fract_z
Si Si1 0.816855 0.729815 0.174453
Si Si2 0.807646 0.452523 0.242686
Si Si3 0.573172 0.474717 0.734238
Si Si4 0.879206 0.947607 0.630459
Si Si5 0.568842 0.279131 0.871346
Si Si6 0.779331 0.903887 0.244946
Si Si7 0.183656 0.466629 0.285371
Si Si8 0.505034 0.132487 0.056090
O O1 0.755146 0.852661 0.341470
O O2 0.940152 0.612845 0.281964
O O3 0.617263 0.823272 0.118524
O O4 0.029287 0.598110 0.894156
O O5 0.540907 0.633218 0.296422
O O6 0.838868 0.447182 0.493463
O O7 0.954184 0.285392 0.012343
O O8 0.500000 0.500000 0.500000
O O9 0.853200 0.263109 0.550283
O O10 0.500000 0.500000 0.000000
O O11 0.476149 0.620258 0.893838
O O12 0.756419 0.991878 0.453137
O O13 0.822360 0.068107 0.715585
O O14 0.741472 0.012105 0.888715
O O15 0.383481 0.348719 0.013234
O O16 0.588359 0.026278 0.151723
O O17 0.306065 0.323737 0.297324
#
# Coordination Sequence:
#
# PCOD9102585 Si02
#       8
#     2   2   2   2   2   2   2   2
#     4   9  21  36  55  93 135 184 239 284 350 398
#     4   9  20  36  64  89 138 186 228 281 345 401
#     4  12  30  52  81 110 143 181 225 294 373 447
#     4  11  25  45  71 100 137 178 236 287 355 433
#     4  10  23  45  70 105 136 181 228 285 352 428
#     4  10  22  37  61  93 135 183 236 285 344 405
#     4  10  20  38  63  91 134 187 231 289 344 414
#     4  11  23  36  62  95 131 182 240 291 344 413
#
# _framework density 24.311318
#
# number of rings (size 3 to 8) (size 9 to 14) (size 15 to 20)
#    0.750    1.000    1.250    1.500    7.000    3.000 
#    0.000    0.000    0.000    0.000    0.000    0.000 
#    0.000    0.000    0.000    0.000    0.000    0.000 
#
# Total GULP energy -89167.178164 kJ/mol
# GULP energy per Si atom -5572.948635 kJ/mol
# Density = 2.425598 g / cm^3
# Si number density = 24.311318 Si / 1000 Ang^3
#
#
#
# Elastic Constant Matrix: (Units=GPa)
#
#
# Indices 1 2 3 4 5 6 
#
# 1 61.6486 33.5752 28.7462 12.5856 21.8014 7.5786
# 2 33.5752 125.2164 39.3348 7.2331 17.9424 2.0542
# 3 28.7462 39.3348 92.0800 13.2632 15.8298 2.3382
# 4 12.5856 7.2331 13.2632 34.8997 8.0811 15.1920
# 5 21.8014 17.9424 15.8298 8.0811 39.3805 -0.5603
# 6 7.5786 2.0542 2.3382 15.1920 -0.5603 32.0955
#
#
#
# Elastic Compliance Matrix: (Units=1/GPa)
#
#
# Indices 1 2 3 4 5 6 
#
# 1 0.024618 -0.003737 -0.003925 -0.002444 -0.009908 -0.004304
# 2 -0.003737 0.010098 -0.002997 0.000689 -0.001468 0.000103
# 3 -0.003925 -0.002997 0.014096 -0.003837 -0.001314 0.001885
# 4 -0.002444 0.000689 -0.003837 0.040196 -0.005928 -0.018317
# 5 -0.009908 -0.001468 -0.001314 -0.005928 0.033376 0.005918
# 6 -0.004304 0.000103 0.001885 -0.018317 0.005918 0.040803
#
#
# Mechanical properties :
#
#
# Convention : Reuss Voigt Hill
#
# Bulk Modulus (GPa) = 36.36793 53.58416 44.97604
# Shear Modulus (GPa) = 25.81717 33.09441 29.45579
#
# Velocity S-wave (km/s) = 3.26228 3.69355 3.48459
# Velocity P-wave (km/s) = 5.40201 6.34653 5.89322
#
# Compressibility (1/GPa) = 0.02749675
#
# Stress axis : x y z
#
# Youngs Moduli (GPa) = 40.62058 99.02641 70.94117
#
# Poissons Ratio (x) = 0.37002 0.27841
# Poissons Ratio (y) = 0.15178 0.21260
# Poissons Ratio (z) = 0.15942 0.29676
#
# Static dielectric constant tensor:
#      x y z
#    x 1.978590 0.040630 -0.024230 
#    y 0.040630 1.965940 0.026600 
#    z -0.024230 0.026600 2.000480 
# 
# From -- ./inp_files/112898.got.cif
#   From: 2010.05.17/outbox.cif.g08.bks.cpg/sg2_57_cif.got.tgz:112898.got - 2010.06.03 11:33:40.
