data_PCOD9102634
_publ_section_title
;
Structure prediction by ZEFSAII (Michael W. Deem and Ramdas Pophale) SiO2 
 PCOD9102634
Probable space group: P -1
;
_chemical_formula_sum "Si O2"
_cell_formula_units_Z 12
_cell_length_a 12.248598
_cell_length_b 18.972476
_cell_length_c 15.008031
_cell_angle_alpha 163.376894
_cell_angle_beta 151.204769
_cell_angle_gamma 28.655707
_cell_volume 462.157092
_symmetry_space_group_name_H-M "P -1"
_symmetry_group_IT_number 2
_symmetry_cell_setting 'triclinic'
loop_
_space_group_symop_operation_xyz
x,y,z
-x,-y,-z
loop_
_atom_site_type_symbol
_atom_site_label
_atom_site_fract_x
_atom_site_fract_y
_atom_site_fract_z
Si Si1 0.301765 0.346702 0.826831
Si Si2 0.144877 0.207525 0.358650
Si Si3 0.686770 0.613784 0.468723
Si Si4 0.462804 0.676469 0.569491
Si Si5 0.131097 0.153138 0.849938
Si Si6 0.227657 0.257436 0.859588
O O1 0.264542 0.218699 0.552495
O O2 0.261563 0.194870 0.703240
O O3 0.552428 0.410445 0.090427
O O4 0.105312 0.623646 0.027284
O O5 0.314884 0.188679 0.372467
O O6 0.948590 0.475910 0.523927
O O7 0.000000 0.000000 0.000000
O O8 0.553558 0.732483 0.605287
O O9 0.222253 0.907913 0.683968
O O10 0.664912 0.698703 0.807212
O O11 0.431029 0.394851 0.196088
O O12 0.167311 0.085796 0.687856
O O13 0.000000 0.500000 0.000000
#
# Coordination Sequence:
#
# PCOD9102634 Si02
#       6
#     2   2   2   2   2   2
#     4  10  21  42  67  93 130 166 206 263 312 375
#     4  11  24  45  65  91 124 165 217 265 314 367
#     4  10  23  42  65  92 126 165 211 262 314 368
#     4  10  20  38  63  93 126 169 202 251 313 374
#     4  10  20  38  63  95 129 163 204 249 312 378
#     4   9  20  35  55  90 128 161 199 248 302 368
#
# _framework density 25.965197
#
# number of rings (size 3 to 8) (size 9 to 14) (size 15 to 20)
#    0.000    2.000    1.667    1.000    0.000    9.333 
#   12.000    8.333    0.000    0.000    0.000    0.000 
#    0.000    0.000    0.000    0.000    0.000    0.000 
#
# Total GULP energy -67088.538321 kJ/mol
# GULP energy per Si atom -5590.711527 kJ/mol
# Density = 2.590610 g / cm^3
# Si number density = 25.965197 Si / 1000 Ang^3
#
#
#
# Elastic Constant Matrix: (Units=GPa)
#
#
# Indices 1 2 3 4 5 6 
#
# 1 160.3307 -9.9416 34.1024 5.2888 17.1325 42.2825
# 2 -9.9416 87.3941 -17.3774 6.3699 -7.5572 3.6114
# 3 34.1024 -17.3774 68.4966 -4.6281 -5.5674 13.7905
# 4 5.2888 6.3699 -4.6281 42.0660 8.5371 -3.0483
# 5 17.1325 -7.5572 -5.5674 8.5371 40.1643 -4.6756
# 6 42.2825 3.6114 13.7905 -3.0483 -4.6756 35.7156
#
#
#
# Elastic Compliance Matrix: (Units=1/GPa)
#
#
# Indices 1 2 3 4 5 6 
#
# 1 0.011111 0.000696 -0.003376 -0.001538 -0.006247 -0.012870
# 2 0.000696 0.012798 0.003638 -0.002425 0.002738 -0.003372
# 3 -0.003376 0.003638 0.018153 0.000830 0.004142 -0.002768
# 4 -0.001538 -0.002425 0.000830 0.025627 -0.004747 0.003312
# 5 -0.006247 0.002738 0.004142 -0.004747 0.030725 0.009137
# 6 -0.012870 -0.003372 -0.002768 0.003312 0.009137 0.046123
#
#
# Mechanical properties :
#
#
# Convention : Reuss Voigt Hill
#
# Bulk Modulus (GPa) = 22.73883 36.64314 29.69099
# Shear Modulus (GPa) = 31.79066 44.21839 38.00452
#
# Velocity S-wave (km/s) = 3.50288 4.13120 3.82995
# Velocity P-wave (km/s) = 5.01364 6.07444 5.56936
#
# Compressibility (1/GPa) = 0.04397764
#
# Stress axis : x y z
#
# Youngs Moduli (GPa) = 90.00411 78.13848 55.08846
#
# Poissons Ratio (x) = -0.05442 0.18596
# Poissons Ratio (y) = -0.06268 -0.20039
# Poissons Ratio (z) = 0.30382 -0.28423
#
# Static dielectric constant tensor:
#      x y z
#    x 2.056510 -0.027280 0.075140 
#    y -0.027280 2.132810 -0.053880 
#    z 0.075140 -0.053880 2.119970 
# 
# From -- ./inp_files/26601.got.cif
#   From: 2010.05.17/outbox.cif.g08.bks.cpg/sg2_14_cif.got.tgz:26601.got - 2010.06.03 11:33:40.
