data_PCOD9102934
_publ_section_title
;
Structure prediction by ZEFSAII (Michael W. Deem and Ramdas Pophale) SiO2 
 PCOD9102934
Probable space group: P -1
;
_chemical_formula_sum "Si O2"
_cell_formula_units_Z 16
_cell_length_a 10.649432
_cell_length_b 9.176637
_cell_length_c 9.128376
_cell_angle_alpha 99.888471
_cell_angle_beta 123.312403
_cell_angle_gamma 60.780981
_cell_volume 644.939353
_symmetry_space_group_name_H-M "P -1"
_symmetry_group_IT_number 2
_symmetry_cell_setting 'triclinic'
loop_
_space_group_symop_operation_xyz
x,y,z
-x,-y,-z
loop_
_atom_site_type_symbol
_atom_site_label
_atom_site_fract_x
_atom_site_fract_y
_atom_site_fract_z
Si Si1 0.620959 0.814576 0.985542
Si Si2 0.234412 0.617898 0.508659
Si Si3 0.079809 0.429539 0.202185
Si Si4 0.398627 0.851142 0.587273
Si Si5 0.164109 0.867810 0.903277
Si Si6 0.254545 0.507530 0.829312
Si Si7 0.780366 0.965681 0.762397
Si Si8 0.854804 0.903065 0.311177
O O1 0.563502 0.803107 0.784195
O O2 0.611001 0.669431 0.047237
O O3 0.800435 0.803775 0.141672
O O4 0.500000 0.000000 0.000000
O O5 0.200289 0.507105 0.346538
O O6 0.351311 0.699915 0.546435
O O7 0.281061 0.520241 0.676350
O O8 0.049510 0.779726 0.445570
O O9 0.176565 0.226678 0.231722
O O10 0.931103 0.471071 0.237548
O O11 0.000000 0.500000 0.000000
O O12 0.378532 0.910916 0.418236
O O13 0.257158 0.027606 0.603666
O O14 0.251428 0.668038 0.932961
O O15 0.959463 0.951138 0.813346
O O16 0.182695 0.927246 0.766149
O O17 0.241023 0.946454 0.080379
#
# Coordination Sequence:
#
# PCOD9102934 Si02
#       8
#     2   2   2   2   2   2   2   2
#     4  10  25  41  62  86 136 167 204 258 321 368
#     4  12  22  37  69  97 122 157 218 268 303 369
#     4  11  24  38  63  99 133 158 203 266 318 369
#     4  11  23  40  60  93 125 165 208 257 311 372
#     4  10  20  38  64  93 124 160 204 265 307 373
#     4  11  23  40  64  95 125 163 214 259 316 362
#     4  10  22  37  62  94 129 160 205 251 325 367
#     4  11  19  40  63  93 122 163 204 260 320 360
#
# _framework density 24.808534999999999
#
# number of rings (size 3 to 8) (size 9 to 14) (size 15 to 20)
#    0.000    1.250    3.750    3.000    7.000    0.500 
#    0.000    1.250    0.000    0.000    0.000    0.000 
#    0.000    0.000    0.000    0.000    0.000    0.000 
#
# Total GULP energy -89533.036825 kJ/mol
# GULP energy per Si atom -5595.814802 kJ/mol
# Density = 2.475207 g / cm^3
# Si number density = 24.808535 Si / 1000 Ang^3
#
#
#
# Elastic Constant Matrix: (Units=GPa)
#
#
# Indices 1 2 3 4 5 6 
#
# 1 34.6433 2.1688 7.6229 1.2300 5.0096 10.2333
# 2 2.1688 167.1806 69.2844 -2.6863 8.3406 -0.5955
# 3 7.6229 69.2844 187.8133 5.2268 4.7836 6.1716
# 4 1.2300 -2.6863 5.2268 62.4544 7.8471 2.6945
# 5 5.0096 8.3406 4.7836 7.8471 26.5717 6.0754
# 6 10.2333 -0.5955 6.1716 2.6945 6.0754 22.1881
#
#
#
# Elastic Compliance Matrix: (Units=1/GPa)
#
#
# Indices 1 2 3 4 5 6 
#
# 1 0.033772 0.000011 -0.000831 0.000412 -0.003011 -0.014570
# 2 0.000011 0.007226 -0.002676 0.000766 -0.002354 0.001485
# 3 -0.000831 -0.002676 0.006402 -0.000616 0.000368 -0.001495
# 4 0.000412 0.000766 -0.000616 0.016745 -0.005001 -0.000662
# 5 -0.003011 -0.002354 0.000368 -0.005001 0.042600 -0.009834
# 6 -0.014570 0.001485 -0.001495 -0.000662 -0.009834 0.055018
#
#
# Mechanical properties :
#
#
# Convention : Reuss Voigt Hill
#
# Bulk Modulus (GPa) = 24.74718 60.86546 42.80632
# Shear Modulus (GPa) = 27.43877 42.94691 35.19284
#
# Velocity S-wave (km/s) = 3.32930 4.16520 3.77049
# Velocity P-wave (km/s) = 4.97754 6.90791 6.02060
#
# Compressibility (1/GPa) = 0.04040864
#
# Stress axis : x y z
#
# Youngs Moduli (GPa) = 29.60998 138.39856 156.19417
#
# Poissons Ratio (x) = -0.00154 0.12977
# Poissons Ratio (y) = -0.00033 0.41799
# Poissons Ratio (z) = 0.02460 0.37037
#
# Static dielectric constant tensor:
#      x y z
#    x 2.058110 0.006910 0.058790 
#    y 0.006910 1.930710 0.012170 
#    z 0.058790 0.012170 1.963870 
# 
# From -- ./inp_files/244181.got.cif
#   From: 2010.05.17/outbox.cif.g08.bks.cpg/sg2_123_cif.got.tgz:244181.got - 2010.06.03 11:33:40.
