data_PCOD9102466
_publ_section_title
;
Structure prediction by ZEFSAII (Michael W. Deem and Ramdas Pophale) SiO2 
 PCOD9102466
Probable space group: P -1
;
_chemical_formula_sum "Si O2"
_cell_formula_units_Z 16
_cell_length_a 18.970474
_cell_length_b 21.512737
_cell_length_c 8.924546
_cell_angle_alpha 51.404479
_cell_angle_beta 119.256104
_cell_angle_gamma 161.490287
_cell_volume 822.430925
_symmetry_space_group_name_H-M "P -1"
_symmetry_group_IT_number 2
_symmetry_cell_setting 'triclinic'
loop_
_space_group_symop_operation_xyz
x,y,z
-x,-y,-z
loop_
_atom_site_type_symbol
_atom_site_label
_atom_site_fract_x
_atom_site_fract_y
_atom_site_fract_z
Si Si1 0.408728 0.990880 0.325367
Si Si2 0.079776 0.490880 0.023363
Si Si3 0.301096 0.871167 0.069949
Si Si4 0.173608 0.884418 0.487922
Si Si5 0.273911 0.429634 0.536135
Si Si6 0.647793 0.906609 0.328734
Si Si7 0.932355 0.816742 0.615685
Si Si8 0.628936 0.650702 0.758282
O O1 0.636114 0.245790 0.101997
O O2 0.500000 0.000000 0.500000
O O3 0.269994 0.831058 0.274556
O O4 0.284084 0.936725 0.388966
O O5 0.954568 0.377192 0.903318
O O6 0.000000 0.500000 0.000000
O O7 0.984291 0.327322 0.263989
O O8 0.500000 0.000000 0.000000
O O9 0.375563 0.029534 0.864834
O O10 0.000373 0.793315 0.381651
O O11 0.356266 0.087556 0.501604
O O12 0.447796 0.664247 0.410920
O O13 0.239491 0.371811 0.414668
O O14 0.409752 0.484738 0.681182
O O15 0.914653 0.115652 0.263442
O O16 0.768640 0.710686 0.724726
O O17 0.154324 0.082176 0.394103
O O18 0.500000 0.500000 0.000000
#
# Coordination Sequence:
#
# PCOD9102466 Si02
#       8
#     2   2   2   2   2   2   2   2
#     4  12  23  37  57  84 111 152 200 249 301 356
#     4  11  21  40  59  80 116 152 195 252 299 347
#     4  11  22  37  61  86 116 158 204 248 303 354
#     4  10  22  39  57  84 118 149 201 248 293 356
#     4  10  20  38  63  85 121 162 191 240 302 348
#     4   9  20  39  60  84 119 160 197 249 297 350
#     4   9  20  40  62  89 121 156 196 237 290 359
#     4  10  21  38  63  93 123 152 193 240 291 352
#
# _framework density 19.454519999999999
#
# number of rings (size 3 to 8) (size 9 to 14) (size 15 to 20)
#    0.000    1.750    2.500    1.875    0.000    3.000 
#    0.000   15.000    0.000    0.000    0.000    0.000 
#    0.000    0.000    0.000    0.000    0.000    0.000 
#
# Total GULP energy -89194.592620 kJ/mol
# GULP energy per Si atom -5574.662039 kJ/mol
# Density = 1.941024 g / cm^3
# Si number density = 19.454520 Si / 1000 Ang^3
#
#
#
# Elastic Constant Matrix: (Units=GPa)
#
#
# Indices 1 2 3 4 5 6 
#
# 1 157.1366 45.4552 47.8266 16.1184 -14.1905 7.2369
# 2 45.4552 119.8575 35.7258 25.4429 -12.9291 -13.7846
# 3 47.8266 35.7258 63.8931 6.8108 -15.0744 5.3507
# 4 16.1184 25.4429 6.8108 29.4474 0.3984 5.0779
# 5 -14.1905 -12.9291 -15.0744 0.3984 26.2069 5.4679
# 6 7.2369 -13.7846 5.3507 5.0779 5.4679 39.4788
#
#
#
# Elastic Compliance Matrix: (Units=1/GPa)
#
#
# Indices 1 2 3 4 5 6 
#
# 1 0.008715 -0.001286 -0.005117 -0.002278 0.001439 -0.001259
# 2 -0.001286 0.013956 -0.005892 -0.011244 0.001479 0.007148
# 3 -0.005117 -0.005892 0.025401 0.002975 0.010215 -0.006359
# 4 -0.002278 -0.011244 0.002975 0.045885 -0.003830 -0.009283
# 5 0.001439 0.001479 0.010215 -0.003830 0.047095 -0.007162
# 6 -0.001259 0.007148 -0.006359 -0.009283 -0.007162 0.031105
#
#
# Mechanical properties :
#
#
# Convention : Reuss Voigt Hill
#
# Bulk Modulus (GPa) = 42.58437 66.54471 54.56454
# Shear Modulus (GPa) = 24.44116 33.15191 28.79653
#
# Velocity S-wave (km/s) = 3.54831 4.13252 3.85151
# Velocity P-wave (km/s) = 6.22286 7.55313 6.92004
#
# Compressibility (1/GPa) = 0.02348279
#
# Stress axis : x y z
#
# Youngs Moduli (GPa) = 114.74757 71.65587 39.36836
#
# Poissons Ratio (x) = 0.09215 0.20143
# Poissons Ratio (y) = 0.14757 0.23195
# Poissons Ratio (z) = 0.58711 0.42218
#
# Static dielectric constant tensor:
#      x y z
#    x 1.710810 0.019820 0.024440 
#    y 0.019820 1.685250 0.012300 
#    z 0.024440 0.012300 1.678220 
# 
# From -- ./inp_files/337612.got.cif
#   From: 2010.05.17/outbox.cif.g08.bks.cpg/sg2_169_cif.got.tgz:337612.got - 2010.06.03 11:33:40.
