data_PCOD9102686
_publ_section_title
;
Structure prediction by ZEFSAII (Michael W. Deem and Ramdas Pophale) SiO2 
 PCOD9102686
Probable space group: P -1
;
_chemical_formula_sum "Si O2"
_cell_formula_units_Z 16
_cell_length_a 17.649929
_cell_length_b 5.110159
_cell_length_c 13.558775
_cell_angle_alpha 113.865595
_cell_angle_beta 43.742520
_cell_angle_gamma 94.083303
_cell_volume 724.440956
_symmetry_space_group_name_H-M "P -1"
_symmetry_group_IT_number 2
_symmetry_cell_setting 'triclinic'
loop_
_space_group_symop_operation_xyz
x,y,z
-x,-y,-z
loop_
_atom_site_type_symbol
_atom_site_label
_atom_site_fract_x
_atom_site_fract_y
_atom_site_fract_z
Si Si1 0.892241 0.288863 0.185988
Si Si2 0.883961 0.962698 0.345902
Si Si3 0.439320 0.297942 0.968430
Si Si4 0.690159 0.114994 0.941257
Si Si5 0.368896 0.863075 0.382065
Si Si6 0.036573 0.142065 0.390905
Si Si7 0.535706 0.419390 0.293474
Si Si8 0.352912 0.359760 0.617192
O O1 0.918032 0.605432 0.227769
O O2 0.774048 0.382280 0.244377
O O3 0.865228 0.175462 0.299883
O O4 0.000000 0.000000 0.000000
O O5 0.757154 0.072614 0.535671
O O6 0.975117 0.038046 0.341444
O O7 0.348746 0.553703 0.023277
O O8 0.376333 0.114605 0.065187
O O9 0.500000 0.500000 0.000000
O O10 0.543634 0.074322 0.768655
O O11 0.826261 0.971824 0.776174
O O12 0.647244 0.157839 0.102497
O O13 0.450302 0.542964 0.300010
O O14 0.338815 0.056444 0.541471
O O15 0.000000 0.500000 0.500000
O O16 0.000000 0.000000 0.500000
O O17 0.453272 0.376855 0.450273
O O18 0.596584 0.641923 0.321676
#
# Coordination Sequence:
#
# PCOD9102686 Si02
#       8
#     2   2   2   2   2   2   2   2
#     4  11  24  44  68 102 137 183 235 277 341 415
#     4  11  25  45  70  98 136 182 229 290 340 409
#     4  11  24  42  69 100 132 172 217 287 347 404
#     4  11  25  45  67 101 134 169 232 277 345 411
#     4  10  21  39  65  95 137 168 228 266 347 404
#     4  12  28  50  72 100 136 187 240 289 350 412
#     4  10  20  39  62  97 132 173 213 278 338 405
#     4  10  20  38  63  95 136 174 219 266 345 402
#
# _framework density 22.085996000000002
#
# number of rings (size 3 to 8) (size 9 to 14) (size 15 to 20)
#    0.000    1.250    2.500    2.625    5.250    0.000 
#    0.000    0.000    0.000    0.000    0.000    0.000 
#    0.000    0.000    0.000    0.000    0.000    0.000 
#
# Total GULP energy -89209.546500 kJ/mol
# GULP energy per Si atom -5575.596656 kJ/mol
# Density = 2.203573 g / cm^3
# Si number density = 22.085996 Si / 1000 Ang^3
#
#
#
# Elastic Constant Matrix: (Units=GPa)
#
#
# Indices 1 2 3 4 5 6 
#
# 1 75.6507 24.5225 41.9087 4.8949 -17.0345 18.6288
# 2 24.5225 111.1699 26.7036 7.5512 -12.3874 6.6722
# 3 41.9087 26.7036 141.2679 2.9826 -44.7348 11.8035
# 4 4.8949 7.5512 2.9826 37.9383 3.5159 -1.1907
# 5 -17.0345 -12.3874 -44.7348 3.5159 29.6721 1.3903
# 6 18.6288 6.6722 11.8035 -1.1907 1.3903 33.3244
#
#
#
# Elastic Compliance Matrix: (Units=1/GPa)
#
#
# Indices 1 2 3 4 5 6 
#
# 1 0.019549 -0.002107 -0.001775 -0.003077 0.008516 -0.010343
# 2 -0.002107 0.010033 -0.000225 -0.002008 0.002922 -0.000945
# 3 -0.001775 -0.000225 0.015348 -0.003204 0.022661 -0.005459
# 4 -0.003077 -0.002008 -0.003204 0.028579 -0.011044 0.004739
# 5 0.008516 0.002922 0.022661 -0.011044 0.076078 -0.016941
# 6 -0.010343 -0.000945 -0.005459 0.004739 -0.016941 0.038788
#
#
# Mechanical properties :
#
#
# Convention : Reuss Voigt Hill
#
# Bulk Modulus (GPa) = 27.23665 57.15087 42.19376
# Shear Modulus (GPa) = 23.94324 35.85054 29.89689
#
# Velocity S-wave (km/s) = 3.29613 4.03330 3.68320
# Velocity P-wave (km/s) = 5.18120 6.90092 6.10195
#
# Compressibility (1/GPa) = 0.03671524
#
# Stress axis : x y z
#
# Youngs Moduli (GPa) = 51.15470 99.67392 65.15641
#
# Poissons Ratio (x) = 0.21002 0.11566
# Poissons Ratio (y) = 0.10779 0.01464
# Poissons Ratio (z) = 0.09081 0.02239
#
# Static dielectric constant tensor:
#      x y z
#    x 1.869640 0.059390 0.017150 
#    y 0.059390 1.944720 0.049460 
#    z 0.017150 0.049460 1.867000 
# 
# From -- ./inp_files/536461.got.cif
#   From: 2010.05.17/outbox.cif.g08.bks.cpg/sg2_269_cif.got.tgz:536461.got - 2010.06.03 11:33:40.
