data_PCOD9102590
_publ_section_title
;
Structure prediction by ZEFSAII (Michael W. Deem and Ramdas Pophale) SiO2 
 PCOD9102590
Probable space group: P -1
;
_chemical_formula_sum "Si O2"
_cell_formula_units_Z 16
_cell_length_a 9.486443
_cell_length_b 11.216581
_cell_length_c 12.990947
_cell_angle_alpha 93.796376
_cell_angle_beta 117.651524
_cell_angle_gamma 42.265746
_cell_volume 728.915504
_symmetry_space_group_name_H-M "P -1"
_symmetry_group_IT_number 2
_symmetry_cell_setting 'triclinic'
loop_
_space_group_symop_operation_xyz
x,y,z
-x,-y,-z
loop_
_atom_site_type_symbol
_atom_site_label
_atom_site_fract_x
_atom_site_fract_y
_atom_site_fract_z
Si Si1 0.353320 0.206924 0.921280
Si Si2 0.490646 0.942647 0.334984
Si Si3 0.395739 0.839265 0.464584
Si Si4 0.184694 0.002842 0.061786
Si Si5 0.912596 0.378629 0.890236
Si Si6 0.972227 0.388192 0.604693
Si Si7 0.061846 0.812794 0.309014
Si Si8 0.451803 0.834344 0.717418
O O1 0.597393 0.141052 0.964810
O O2 0.132748 0.350714 0.942850
O O3 0.170561 0.297648 0.762861
O O4 0.500000 0.000000 0.000000
O O5 0.361106 0.986462 0.403171
O O6 0.362750 0.918023 0.217549
O O7 0.359606 0.385854 0.194701
O O8 0.425148 0.110329 0.270081
O O9 0.710357 0.625182 0.540005
O O10 0.224628 0.835673 0.358213
O O11 0.333886 0.872833 0.566916
O O12 0.000000 0.000000 0.000000
O O13 0.008627 0.230087 0.001980
O O14 0.911239 0.284328 0.788716
O O15 0.852081 0.327831 0.577292
O O16 0.184523 0.261031 0.576398
O O17 0.760851 0.019389 0.255833
#
# Coordination Sequence:
#
# PCOD9102590 Si02
#       8
#     2   2   2   2   2   2   2   2
#     4   8  15  31  56  81 110 147 188 234 285 344
#     4  10  23  38  57  90 123 161 201 245 300 364
#     4  12  20  37  61  87 130 159 196 253 296 351
#     4  10  20  38  63  92 118 152 201 253 310 352
#     4  10  20  40  66  87 117 161 203 248 296 358
#     4   9  18  34  57  87 113 156 204 233 292 362
#     4  10  21  37  60  93 122 154 202 252 297 351
#     4  11  23  39  61  89 123 161 206 239 301 360
#
# _framework density 21.950417000000002
#
# number of rings (size 3 to 8) (size 9 to 14) (size 15 to 20)
#    0.000    2.000    2.500    3.000    0.000    0.500 
#    0.000    1.250    0.000    2.250    0.000    0.000 
#    0.000    0.000    0.000    0.000    0.000    0.000 
#
# Total GULP energy -89075.440354 kJ/mol
# GULP energy per Si atom -5567.215022 kJ/mol
# Density = 2.190046 g / cm^3
# Si number density = 21.950417 Si / 1000 Ang^3
#
#
#
# Elastic Constant Matrix: (Units=GPa)
#
#
# Indices 1 2 3 4 5 6 
#
# 1 139.6933 17.1246 37.9892 -0.1733 17.9715 13.1451
# 2 17.1246 92.1063 19.7387 -6.7567 0.3229 -1.0798
# 3 37.9892 19.7387 40.3146 4.3921 12.0935 6.1912
# 4 -0.1733 -6.7567 4.3921 27.5599 5.6926 1.5298
# 5 17.9715 0.3229 12.0935 5.6926 30.0227 8.5863
# 6 13.1451 -1.0798 6.1912 1.5298 8.5863 17.7107
#
#
#
# Elastic Compliance Matrix: (Units=1/GPa)
#
#
# Indices 1 2 3 4 5 6 
#
# 1 0.010094 0.000089 -0.008641 0.002059 -0.001886 -0.003729
# 2 0.000089 0.012767 -0.007550 0.003906 0.001449 0.002312
# 3 -0.008641 -0.007550 0.040521 -0.006337 -0.008911 -0.003345
# 4 0.002059 0.003906 -0.006337 0.039552 -0.006396 0.000610
# 5 -0.001886 0.001449 -0.008911 -0.006396 0.043826 -0.016091
# 6 -0.003729 0.002312 -0.003345 0.000610 -0.016091 0.068290
#
#
# Mechanical properties :
#
#
# Convention : Reuss Voigt Hill
#
# Bulk Modulus (GPa) = 32.07391 46.86877 39.47134
# Shear Modulus (GPa) = 19.40652 28.20945 23.80798
#
# Velocity S-wave (km/s) = 2.97662 3.58878 3.29694
# Velocity P-wave (km/s) = 5.14367 6.21055 5.70212
#
# Compressibility (1/GPa) = 0.03117799
#
# Stress axis : x y z
#
# Youngs Moduli (GPa) = 99.07308 78.32664 24.67859
#
# Poissons Ratio (x) = -0.00698 0.21324
# Poissons Ratio (y) = -0.00882 0.18633
# Poissons Ratio (z) = 0.85607 0.59137
#
# Static dielectric constant tensor:
#      x y z
#    x 1.852580 -0.015540 -0.040720 
#    y -0.015540 1.868490 0.007050 
#    z -0.040720 0.007050 1.911270 
# 
# From -- ./inp_files/498002.got.cif
#   From: 2010.05.17/outbox.cif.g08.bks.cpg/sg2_250_cif.got.tgz:498002.got - 2010.06.03 11:33:40.
