data_PCOD9102019
_publ_section_title
;
Structure prediction by ZEFSAII (Michael W. Deem and Ramdas Pophale) SiO2 
 PCOD9102019
Probable space group: P -1
;
_chemical_formula_sum "Si O2"
_cell_formula_units_Z 14
_cell_length_a 11.550089
_cell_length_b 6.371732
_cell_length_c 8.794634
_cell_angle_alpha 93.538248
_cell_angle_beta 89.915655
_cell_angle_gamma 77.537858
_cell_volume 630.706034
_symmetry_space_group_name_H-M "P -1"
_symmetry_group_IT_number 2
_symmetry_cell_setting 'triclinic'
loop_
_space_group_symop_operation_xyz
x,y,z
-x,-y,-z
loop_
_atom_site_type_symbol
_atom_site_label
_atom_site_fract_x
_atom_site_fract_y
_atom_site_fract_z
Si Si1 0.697202 0.412719 0.636836
Si Si2 0.959608 0.220564 0.193106
Si Si3 0.315887 0.050121 0.914114
Si Si4 0.216361 0.937863 0.602650
Si Si5 0.113117 0.338627 0.424946
Si Si6 0.855588 0.186519 0.903507
Si Si7 0.544537 0.666033 0.898083
O O1 0.767216 0.576631 0.566686
O O2 0.784358 0.299705 0.766595
O O3 0.585583 0.547657 0.733923
O O4 0.688226 0.225305 0.508376
O O5 0.067951 0.317846 0.253270
O O6 0.862755 0.209712 0.321481
O O7 0.894902 0.323532 0.046542
O O8 0.022898 0.970710 0.155617
O O9 0.262803 0.068638 0.744700
O O10 0.437383 0.870363 0.887293
O O11 0.350921 0.249742 0.009949
O O12 0.227666 0.951244 0.016879
O O13 0.137063 0.109824 0.498478
O O14 0.000000 0.500000 0.500000
O O15 0.500000 0.500000 0.000000
#
# Coordination Sequence:
#
# PCOD9102019 Si02
#       7
#     2   2   2   2   2   2   2
#     4  12  24  39  68  96 127 170 215 265 318 376
#     4  10  20  38  61  91 128 172 209 252 312 377
#     4  10  24  45  67  93 126 169 212 271 324 372
#     4  11  24  42  63  95 137 166 208 266 321 382
#     4  12  23  37  63  95 133 172 208 251 321 379
#     4  10  20  38  65  90 125 167 214 258 309 377
#     4  11  24  44  71  94 122 164 221 271 319 379
#
# _framework density 22.197347000000001
#
# number of rings (size 3 to 8) (size 9 to 14) (size 15 to 20)
#    0.000    1.143    4.286    2.143    0.000    3.429 
#    0.000    1.429    0.000    0.000    0.000    0.000 
#    0.000    0.000    0.000    0.000    0.000    0.000 
#
# Total GULP energy -78178.808584 kJ/mol
# GULP energy per Si atom -5584.200613 kJ/mol
# Density = 2.214682 g / cm^3
# Si number density = 22.197347 Si / 1000 Ang^3
#
#
#
# Elastic Constant Matrix: (Units=GPa)
#
#
# Indices 1 2 3 4 5 6 
#
# 1 54.0190 0.1638 16.5333 9.1592 -9.4594 -1.3551
# 2 0.1638 31.9942 19.6364 11.2768 -9.2678 -2.2731
# 3 16.5333 19.6364 92.0742 11.7999 -9.2736 -0.5590
# 4 9.1592 11.2768 11.7999 31.5886 -9.9364 -2.9139
# 5 -9.4594 -9.2678 -9.2736 -9.9364 49.5752 11.4018
# 6 -1.3551 -2.2731 -0.5590 -2.9139 11.4018 33.1448
#
#
#
# Elastic Compliance Matrix: (Units=1/GPa)
#
#
# Indices 1 2 3 4 5 6 
#
# 1 0.021179 0.005130 -0.003860 -0.005543 0.003273 -0.000461
# 2 0.005130 0.041622 -0.007782 -0.011887 0.004873 0.000212
# 3 -0.003860 -0.007782 0.013373 -0.001081 0.000242 -0.000644
# 4 -0.005543 -0.011887 -0.001081 0.039314 0.004177 0.000959
# 5 0.003273 0.004873 0.000242 0.004177 0.024320 -0.007527
# 6 -0.000461 0.000212 -0.000644 0.000959 -0.007527 0.032829
#
#
# Mechanical properties :
#
#
# Convention : Reuss Voigt Hill
#
# Bulk Modulus (GPa) = 15.83550 27.86159 21.84855
# Shear Modulus (GPa) = 24.18826 32.31198 28.25012
#
# Velocity S-wave (km/s) = 3.30463 3.81946 3.57133
# Velocity P-wave (km/s) = 4.65942 5.65951 5.18364
#
# Compressibility (1/GPa) = 0.06314924
#
# Stress axis : x y z
#
# Youngs Moduli (GPa) = 47.21592 24.02575 74.77973
#
# Poissons Ratio (x) = -0.12325 0.28863
# Poissons Ratio (y) = -0.24221 0.58196
# Poissons Ratio (z) = 0.18224 0.18698
#
# Static dielectric constant tensor:
#      x y z
#    x 1.825870 0.036110 0.034290 
#    y 0.036110 1.854140 0.084890 
#    z 0.034290 0.084890 1.905670 
# 
# From -- ./inp_files/26815.got.cif
#   From: 2010.05.17/outbox.cif.g08.bks.cpg/sg2_14_cif.got.tgz:26815.got - 2010.06.03 11:33:40.
