data_PCOD9102555
_publ_section_title
;
Structure prediction by ZEFSAII (Michael W. Deem and Ramdas Pophale) SiO2 
 PCOD9102555
Probable space group: P -1
;
_chemical_formula_sum "Si O2"
_cell_formula_units_Z 15
_cell_length_a 12.240010
_cell_length_b 12.259900
_cell_length_c 13.131603
_cell_angle_alpha 35.999057
_cell_angle_beta 103.526642
_cell_angle_gamma 74.045533
_cell_volume 657.064684
_symmetry_space_group_name_H-M "P -1"
_symmetry_group_IT_number 2
_symmetry_cell_setting 'triclinic'
loop_
_space_group_symop_operation_xyz
x,y,z
-x,-y,-z
loop_
_atom_site_type_symbol
_atom_site_label
_atom_site_fract_x
_atom_site_fract_y
_atom_site_fract_z
Si Si1 0.436851 0.726176 0.228364
Si Si2 0.091845 0.609365 0.872853
Si Si3 0.912369 0.889462 0.245767
Si Si4 0.960942 0.692932 0.002705
Si Si5 0.854101 0.556778 0.555028
Si Si6 0.749382 0.334032 0.441138
Si Si7 0.314189 0.640217 0.816503
Si Si8 0.500000 0.000000 0.000000
O O1 0.500000 0.500000 0.500000
O O2 0.607825 0.606713 0.290461
O O3 0.309541 0.778928 0.082091
O O4 0.341112 0.053062 0.983908
O O5 0.120841 0.403210 0.956292
O O6 0.251080 0.552942 0.937307
O O7 0.878823 0.975604 0.524248
O O8 0.080244 0.561533 0.023447
O O9 0.906586 0.701267 0.441992
O O10 0.014381 0.737949 0.271857
O O11 0.040832 0.856176 0.363993
O O12 0.089695 0.561886 0.227666
O O13 0.785503 0.073800 0.676549
O O14 0.637311 0.820087 0.272008
O O15 0.657059 0.470314 0.208628
O O16 0.500000 0.500000 0.000000
#
# Coordination Sequence:
#
# PCOD9102555 Si02
#       8
#     2   2   2   2   2   2   2   1
#     4  11  24  40  61  92 129 168 216 265 311 380
#     4   9  21  44  64  94 125 159 213 263 329 383
#     4  10  22  39  62  87 130 168 209 256 315 380
#     4  10  21  38  67  91 126 170 205 266 328 380
#     4  10  20  38  63  90 124 171 211 258 318 377
#     4  11  23  40  61  95 125 166 216 255 322 385
#     4  10  22  42  68  90 124 163 210 271 318 387
#     4  10  22  40  58  90 128 166 218 256 310 382
#
# _framework density 22.828802
#
# number of rings (size 3 to 8) (size 9 to 14) (size 15 to 20)
#    0.000    1.867    1.333    1.600    1.867    6.400 
#    2.400    7.333    0.000    0.000    0.000    0.000 
#    0.000    0.000    0.000    0.000    0.000    0.000 
#
# Total GULP energy -83588.608623 kJ/mol
# GULP energy per Si atom -5572.573908 kJ/mol
# Density = 2.277684 g / cm^3
# Si number density = 22.828802 Si / 1000 Ang^3
#
#
#
# Elastic Constant Matrix: (Units=GPa)
#
#
# Indices 1 2 3 4 5 6 
#
# 1 126.6896 21.9115 46.7038 23.3486 25.4959 14.4665
# 2 21.9115 75.3373 26.6667 20.5860 3.4582 8.5037
# 3 46.7038 26.6667 79.9648 37.2752 7.3692 -8.6745
# 4 23.3486 20.5860 37.2752 44.1294 4.6603 -0.2523
# 5 25.4959 3.4582 7.3692 4.6603 41.1390 7.1091
# 6 14.4665 8.5037 -8.6745 -0.2523 7.1091 23.4044
#
#
#
# Elastic Compliance Matrix: (Units=1/GPa)
#
#
# Indices 1 2 3 4 5 6 
#
# 1 0.013019 0.000448 -0.008720 0.000729 -0.004909 -0.009943
# 2 0.000448 0.016982 -0.005108 -0.004018 0.001175 -0.008741
# 3 -0.008720 -0.005108 0.029684 -0.017909 -0.000607 0.018239
# 4 0.000729 -0.004018 -0.017909 0.039299 -0.000484 -0.005058
# 5 -0.004909 0.001175 -0.000607 -0.000484 0.028500 -0.006280
# 6 -0.009943 -0.008741 0.018239 -0.005058 -0.006280 0.060662
#
#
# Mechanical properties :
#
#
# Convention : Reuss Voigt Hill
#
# Bulk Modulus (GPa) = 30.37098 52.50618 41.43858
# Shear Modulus (GPa) = 22.13553 34.18188 28.15870
#
# Velocity S-wave (km/s) = 3.11727 3.87371 3.51589
# Velocity P-wave (km/s) = 5.12730 6.56182 5.88840
#
# Compressibility (1/GPa) = 0.03292617
#
# Stress axis : x y z
#
# Youngs Moduli (GPa) = 76.81066 58.88530 33.68771
#
# Poissons Ratio (x) = -0.02639 0.29374
# Poissons Ratio (y) = -0.03443 0.17209
# Poissons Ratio (z) = 0.66975 0.30081
#
# Static dielectric constant tensor:
#      x y z
#    x 1.975550 0.067840 -0.053260 
#    y 0.067840 2.188470 -0.245910 
#    z -0.053260 -0.245910 2.015440 
# 
# From -- ./inp_files/425836.got.cif
#   From: 2010.05.17/outbox.cif.g08.bks.cpg/sg2_213_cif.got.tgz:425836.got - 2010.06.03 11:33:40.
