data_PCOD9102861
_publ_section_title
;
Structure prediction by ZEFSAII (Michael W. Deem and Ramdas Pophale) SiO2 
 PCOD9102861
Probable space group: P -1
;
_chemical_formula_sum "Si O2"
_cell_formula_units_Z 15
_cell_length_a 9.750547
_cell_length_b 12.011635
_cell_length_c 14.678926
_cell_angle_alpha 126.947400
_cell_angle_beta 69.282003
_cell_angle_gamma 64.259390
_cell_volume 643.798843
_symmetry_space_group_name_H-M "P -1"
_symmetry_group_IT_number 2
_symmetry_cell_setting 'triclinic'
loop_
_space_group_symop_operation_xyz
x,y,z
-x,-y,-z
loop_
_atom_site_type_symbol
_atom_site_label
_atom_site_fract_x
_atom_site_fract_y
_atom_site_fract_z
Si Si1 0.646771 0.769800 0.204218
Si Si2 0.625134 0.287231 0.476456
Si Si3 0.771070 0.630669 0.416746
Si Si4 0.153823 0.989513 0.521780
Si Si5 0.269701 0.402161 0.094871
Si Si6 0.517945 0.820948 0.886126
Si Si7 0.267629 0.851339 0.815123
Si Si8 0.000000 0.500000 0.500000
O O1 0.460973 0.808650 0.325773
O O2 0.491265 0.046775 0.387988
O O3 0.589523 0.771335 0.114305
O O4 0.000000 0.500000 0.000000
O O5 0.331486 0.435570 0.623806
O O6 0.797361 0.118720 0.444935
O O7 0.536597 0.520375 0.599159
O O8 0.780329 0.098722 0.256738
O O9 0.046766 0.469454 0.220009
O O10 0.826617 0.579316 0.487543
O O11 0.000000 0.000000 0.500000
O O12 0.923216 0.305337 0.736429
O O13 0.502088 0.235973 0.040043
O O14 0.312462 0.948877 0.915301
O O15 0.831468 0.535069 0.626503
O O16 0.500000 0.000000 0.000000
O O17 0.000000 0.000000 0.000000
#
# Coordination Sequence:
#
# PCOD9102861 Si02
#       8
#     2   2   2   2   2   2   2   1
#     4  11  23  41  65 102 135 171 232 283 340 410
#     4  11  24  44  66  92 138 180 222 276 345 407
#     4  10  21  39  66  96 132 182 219 280 346 402
#     4  11  25  45  68  96 135 188 228 280 348 411
#     4  10  23  39  66 100 132 170 228 280 330 408
#     4  11  23  40  67  96 130 173 222 276 334 397
#     4  11  27  42  63 100 133 175 224 275 340 409
#     4  10  20  38  64  90 130 170 222 266 334 398
#
# _framework density 23.299202000000001
#
# number of rings (size 3 to 8) (size 9 to 14) (size 15 to 20)
#    0.000    1.333    1.333    3.200    3.733    5.867 
#    0.000    0.000    0.000    0.000    0.000    0.000 
#    0.000    0.000    0.000    0.000    0.000    0.000 
#
# Total GULP energy -83504.986102 kJ/mol
# GULP energy per Si atom -5566.999073 kJ/mol
# Density = 2.324617 g / cm^3
# Si number density = 23.299202 Si / 1000 Ang^3
#
#
#
# Elastic Constant Matrix: (Units=GPa)
#
#
# Indices 1 2 3 4 5 6 
#
# 1 130.6241 36.7910 16.5450 -1.8449 20.8421 -12.3865
# 2 36.7910 142.2548 29.2956 -20.2209 15.5224 -28.0726
# 3 16.5450 29.2956 59.7878 -5.2454 3.3586 -4.5927
# 4 -1.8449 -20.2209 -5.2454 43.4430 -1.7053 8.7841
# 5 20.8421 15.5224 3.3586 -1.7053 25.8344 -3.2797
# 6 -12.3865 -28.0726 -4.5927 8.7841 -3.2797 44.3535
#
#
#
# Elastic Compliance Matrix: (Units=1/GPa)
#
#
# Indices 1 2 3 4 5 6 
#
# 1 0.009358 -0.001246 -0.001590 -0.000904 -0.006482 0.001360
# 2 -0.001246 0.009846 -0.003654 0.003007 -0.003648 0.004640
# 3 -0.001590 -0.003654 0.018899 0.000728 0.000959 -0.000873
# 4 -0.000904 0.003007 0.000728 0.025127 0.000074 -0.003245
# 5 -0.006482 -0.003648 0.000959 0.000074 0.045928 -0.000638
# 6 0.001360 0.004640 -0.000873 -0.003245 -0.000638 0.026368
#
#
# Mechanical properties :
#
#
# Convention : Reuss Voigt Hill
#
# Bulk Modulus (GPa) = 39.80417 55.32555 47.56486
# Shear Modulus (GPa) = 31.87144 39.39519 35.63332
#
# Velocity S-wave (km/s) = 3.70255 4.11644 3.91497
# Velocity P-wave (km/s) = 5.94975 6.81107 6.39493
#
# Compressibility (1/GPa) = 0.02512299
#
# Stress axis : x y z
#
# Youngs Moduli (GPa) = 106.85814 101.56904 52.91185
#
# Poissons Ratio (x) = 0.12652 0.08413
# Poissons Ratio (y) = 0.13311 0.19336
# Poissons Ratio (z) = 0.16991 0.37117
#
# Static dielectric constant tensor:
#      x y z
#    x 1.936660 -0.118510 0.012950 
#    y -0.118510 1.767650 0.098910 
#    z 0.012950 0.098910 1.915180 
# 
# From -- ./inp_files/437019.got.cif
#   From: 2010.05.17/outbox.cif.g08.bks.cpg/sg2_219_cif.got.tgz:437019.got - 2010.06.03 11:33:40.
