data_PCOD9102285
_publ_section_title
;
Structure prediction by ZEFSAII (Michael W. Deem and Ramdas Pophale) SiO2 
 PCOD9102285
Probable space group: P -1
;
_chemical_formula_sum "Si O2"
_cell_formula_units_Z 16
_cell_length_a 7.028549
_cell_length_b 9.453130
_cell_length_c 16.276789
_cell_angle_alpha 133.793534
_cell_angle_beta 99.176985
_cell_angle_gamma 100.794202
_cell_volume 700.196773
_symmetry_space_group_name_H-M "P -1"
_symmetry_group_IT_number 2
_symmetry_cell_setting 'triclinic'
loop_
_space_group_symop_operation_xyz
x,y,z
-x,-y,-z
loop_
_atom_site_type_symbol
_atom_site_label
_atom_site_fract_x
_atom_site_fract_y
_atom_site_fract_z
Si Si1 0.237124 0.448728 0.889119
Si Si2 0.836607 0.662631 0.583816
Si Si3 0.991052 0.492814 0.676825
Si Si4 0.760048 0.204157 0.684095
Si Si5 0.394690 0.752685 0.870979
Si Si6 0.486435 0.243391 0.300638
Si Si7 0.523230 0.204890 0.827535
Si Si8 0.869837 0.845836 0.501034
O O1 0.378887 0.596569 0.883232
O O2 0.334834 0.281080 0.852889
O O3 0.994858 0.320176 0.789679
O O4 0.282728 0.619555 0.035262
O O5 0.656005 0.463661 0.442344
O O6 0.730592 0.783246 0.681722
O O7 0.970196 0.824721 0.586789
O O8 0.939282 0.555657 0.610328
O O9 0.147767 0.705606 0.817915
O O10 0.149080 0.373475 0.630510
O O11 0.794084 0.340242 0.656859
O O12 0.591839 0.212433 0.740196
O O13 0.712623 0.954804 0.559581
O O14 0.511785 0.733857 0.788036
O O15 0.500000 0.000000 0.000000
O O16 0.529910 0.034982 0.240359
O O17 0.000000 0.000000 0.500000
#
# Coordination Sequence:
#
# PCOD9102285 Si02
#       8
#     2   2   2   2   2   2   2   2
#     4  10  24  40  66  92 127 174 218 268 325 386
#     4  11  23  42  63  98 126 169 216 267 325 395
#     4  10  23  40  65  94 126 170 217 263 326 391
#     4  10  22  41  63  93 129 169 217 269 321 388
#     4  11  22  43  65  90 130 167 214 274 326 385
#     4  11  24  40  65  91 134 166 214 273 327 381
#     4  11  22  43  63  94 127 174 219 266 326 388
#     4  10  20  38  62  90 124 165 209 267 324 374
#
# _framework density 22.850721
#
# number of rings (size 3 to 8) (size 9 to 14) (size 15 to 20)
#    0.000    1.500    3.750    0.750    3.500    0.000 
#    0.000    1.250    0.000    0.000    0.000    0.000 
#    0.000    0.000    0.000    0.000    0.000    0.000 
#
# Total GULP energy -89223.902853 kJ/mol
# GULP energy per Si atom -5576.493928 kJ/mol
# Density = 2.279871 g / cm^3
# Si number density = 22.850721 Si / 1000 Ang^3
#
#
#
# Elastic Constant Matrix: (Units=GPa)
#
#
# Indices 1 2 3 4 5 6 
#
# 1 22.1489 9.1993 6.3372 -2.4345 -13.7155 0.5666
# 2 9.1993 122.7311 21.0199 -12.6084 -17.4804 6.3393
# 3 6.3372 21.0199 85.9687 -4.3609 -17.8486 0.4691
# 4 -2.4345 -12.6084 -4.3609 32.9962 5.7090 -10.5161
# 5 -13.7155 -17.4804 -17.8486 5.7090 36.9945 -4.4530
# 6 0.5666 6.3393 0.4691 -10.5161 -4.4530 23.5638
#
#
#
# Elastic Compliance Matrix: (Units=1/GPa)
#
#
# Indices 1 2 3 4 5 6 
#
# 1 0.059105 -0.001490 0.000562 0.001267 0.021722 0.003639
# 2 -0.001490 0.009178 -0.001464 0.002500 0.002596 -0.000798
# 3 0.000562 -0.001464 0.013215 0.000690 0.005973 0.001554
# 4 0.001267 0.002500 0.000690 0.036635 -0.001829 0.015287
# 5 0.021722 0.002596 0.005973 -0.001829 0.040128 0.005427
# 6 0.003639 -0.000798 0.001554 0.015287 0.005427 0.050382
#
#
# Mechanical properties :
#
#
# Convention : Reuss Voigt Hill
#
# Bulk Modulus (GPa) = 13.03565 33.77350 23.40458
# Shear Modulus (GPa) = 20.92050 31.66372 26.29211
#
# Velocity S-wave (km/s) = 3.02905 3.72651 3.39573
# Velocity P-wave (km/s) = 4.23682 5.77304 5.06353
#
# Compressibility (1/GPa) = 0.07671268
#
# Stress axis : x y z
#
# Youngs Moduli (GPa) = 16.91915 108.95420 75.66970
#
# Poissons Ratio (x) = 0.16238 -0.04251
# Poissons Ratio (y) = 0.02522 0.11079
# Poissons Ratio (z) = -0.00950 0.15952
#
# Static dielectric constant tensor:
#      x y z
#    x 1.923840 -0.002970 0.032330 
#    y -0.002970 1.901210 0.025480 
#    z 0.032330 0.025480 1.955070 
# 
# From -- ./inp_files/302404.got.cif
#   From: 2010.05.17/outbox.cif.g08.bks.cpg/sg2_152_cif.got.tgz:302404.got - 2010.06.03 11:33:40.
