data_PCOD9102236
_publ_section_title
;
Structure prediction by ZEFSAII (Michael W. Deem and Ramdas Pophale) SiO2 
 PCOD9102236
Probable space group: P -1
;
_chemical_formula_sum "Si O2"
_cell_formula_units_Z 16
_cell_length_a 7.406080
_cell_length_b 14.857177
_cell_length_c 9.307636
_cell_angle_alpha 41.110606
_cell_angle_beta 98.815189
_cell_angle_gamma 94.238795
_cell_volume 664.078248
_symmetry_space_group_name_H-M "P -1"
_symmetry_group_IT_number 2
_symmetry_cell_setting 'triclinic'
loop_
_space_group_symop_operation_xyz
x,y,z
-x,-y,-z
loop_
_atom_site_type_symbol
_atom_site_label
_atom_site_fract_x
_atom_site_fract_y
_atom_site_fract_z
Si Si1 0.217572 0.750898 0.294135
Si Si2 0.620090 0.677440 0.958503
Si Si3 0.693861 0.964925 0.985526
Si Si4 0.801185 0.238119 0.216183
Si Si5 0.154706 0.579955 0.758233
Si Si6 0.697785 0.967511 0.636486
Si Si7 0.862013 0.416000 0.751005
Si Si8 0.378736 0.328980 0.686888
O O1 0.225124 0.696155 0.522228
O O2 0.082774 0.656337 0.305040
O O3 0.415979 0.712145 0.293426
O O4 0.182647 0.914660 0.089250
O O5 0.691758 0.541133 0.051156
O O6 0.622931 0.654511 0.159927
O O7 0.414339 0.719321 0.834108
O O8 0.742636 0.808137 0.795233
O O9 0.734961 0.803023 0.211004
O O10 0.678818 0.979074 0.793149
O O11 0.500000 0.000000 0.000000
O O12 0.911541 0.338833 0.207045
O O13 0.825722 0.080325 0.453815
O O14 0.823672 0.284160 0.001140
O O15 0.007296 0.499324 0.751520
O O16 0.500000 0.000000 0.500000
O O17 0.698977 0.531001 0.563346
#
# Coordination Sequence:
#
# PCOD9102236 Si02
#       8
#     2   2   2   2   2   2   2   2
#     4  11  20  38  61  86 113 150 198 236 281 339
#     4  10  20  38  63  88 112 149 193 241 285 341
#     4   9  19  35  60  88 114 141 192 248 277 334
#     4  11  22  41  60  83 117 156 192 235 291 344
#     4  12  24  38  57  88 119 151 199 237 280 344
#     4   9  19  36  59  86 114 148 187 238 293 334
#     4  12  24  39  58  84 122 158 186 238 293 337
#     4  10  20  38  62  89 115 146 192 239 292 338
#
# _framework density 24.093547000000001
#
# number of rings (size 3 to 8) (size 9 to 14) (size 15 to 20)
#    0.000    1.500    3.750    2.250    1.750    0.000 
#    2.250    2.500    0.000    0.000    0.000    0.000 
#    0.000    0.000    0.000    0.000    0.000    0.000 
#
# Total GULP energy -89429.199581 kJ/mol
# GULP energy per Si atom -5589.324974 kJ/mol
# Density = 2.403871 g / cm^3
# Si number density = 24.093547 Si / 1000 Ang^3
#
#
#
# Elastic Constant Matrix: (Units=GPa)
#
#
# Indices 1 2 3 4 5 6 
#
# 1 42.7551 15.3172 22.4244 -11.7183 5.3428 -3.5584
# 2 15.3172 109.2093 28.7709 -15.8886 -3.5775 9.0886
# 3 22.4244 28.7709 114.4918 -15.9584 -31.1252 -9.9521
# 4 -11.7183 -15.8886 -15.9584 45.1461 5.1942 -4.5531
# 5 5.3428 -3.5775 -31.1252 5.1942 31.0138 0.0732
# 6 -3.5584 9.0886 -9.9521 -4.5531 0.0732 37.4821
#
#
#
# Elastic Compliance Matrix: (Units=1/GPa)
#
#
# Indices 1 2 3 4 5 6 
#
# 1 0.033019 -0.001895 -0.009352 0.006684 -0.016417 0.001955
# 2 -0.001895 0.010665 -0.002696 0.002157 -0.001503 -0.003217
# 3 -0.009352 -0.002696 0.016562 0.000860 0.017767 0.004233
# 4 0.006684 0.002157 0.000860 0.025802 -0.004369 0.003483
# 5 -0.016417 -0.001503 0.017767 -0.004369 0.053454 0.002888
# 6 0.001955 -0.003217 0.004233 0.003483 0.002888 0.029187
#
#
# Mechanical properties :
#
#
# Convention : Reuss Voigt Hill
#
# Bulk Modulus (GPa) = 30.90454 44.38679 37.64567
# Shear Modulus (GPa) = 24.11225 36.05798 30.08512
#
# Velocity S-wave (km/s) = 3.16694 3.87277 3.53750
# Velocity P-wave (km/s) = 5.12127 6.20165 5.68717
#
# Compressibility (1/GPa) = 0.03235770
#
# Stress axis : x y z
#
# Youngs Moduli (GPa) = 30.28533 93.76258 60.38068
#
# Poissons Ratio (x) = 0.17772 0.56470
# Poissons Ratio (y) = 0.05740 0.16281
# Poissons Ratio (z) = 0.28324 0.25283
#
# Static dielectric constant tensor:
#      x y z
#    x 2.017970 0.087630 0.000670 
#    y 0.087630 1.903430 -0.030980 
#    z 0.000670 -0.030980 1.900080 
# 
# From -- ./inp_files/175018.got.cif
#   From: 2010.05.17/outbox.cif.g08.bks.cpg/sg2_88_cif.got.tgz:175018.got - 2010.06.03 11:33:40.
