data_PCOD9102049
_publ_section_title
;
Structure prediction by ZEFSAII (Michael W. Deem and Ramdas Pophale) SiO2 
 PCOD9102049
Probable space group: P -1
;
_chemical_formula_sum "Si O2"
_cell_formula_units_Z 14
_cell_length_a 18.287863
_cell_length_b 10.499667
_cell_length_c 15.951128
_cell_angle_alpha 145.763077
_cell_angle_beta 158.865269
_cell_angle_gamma 31.973912
_cell_volume 574.603549
_symmetry_space_group_name_H-M "P -1"
_symmetry_group_IT_number 2
_symmetry_cell_setting 'triclinic'
loop_
_space_group_symop_operation_xyz
x,y,z
-x,-y,-z
loop_
_atom_site_type_symbol
_atom_site_label
_atom_site_fract_x
_atom_site_fract_y
_atom_site_fract_z
Si Si1 0.537531 0.703249 0.708410
Si Si2 0.578453 0.084354 0.845187
Si Si3 0.833630 0.410784 0.492821
Si Si4 0.795137 0.424080 0.259329
Si Si5 0.641391 0.471454 0.871047
Si Si6 0.295922 0.049491 0.368450
Si Si7 0.279808 0.109819 0.768711
O O1 0.500000 0.500000 0.500000
O O2 0.655199 0.564059 0.842049
O O3 0.656273 0.853695 0.865232
O O4 0.319144 0.923213 0.632278
O O5 0.416352 0.331201 0.849817
O O6 0.412692 0.032540 0.574501
O O7 0.758986 0.182967 0.053271
O O8 0.801154 0.378070 0.341459
O O9 0.618362 0.447159 0.337334
O O10 0.059419 0.184092 0.627454
O O11 0.856493 0.673539 0.664216
O O12 0.000000 0.500000 0.500000
O O13 0.763012 0.181692 0.839507
O O14 0.725216 0.619211 0.107588
O O15 0.500000 0.000000 0.500000
O O16 0.500000 0.000000 0.000000
#
# Coordination Sequence:
#
# PCOD9102049 Si02
#       7
#     2   2   2   2   2   2   2
#     4  11  21  38  68  91 132 184 216 268 336 398
#     4  10  20  38  61  93 131 169 219 265 333 392
#     4  10  21  39  65  97 129 174 227 277 332 398
#     4  10  21  37  64  95 129 168 217 280 330 392
#     4  10  21  41  65  96 136 178 219 271 336 399
#     4   9  19  36  63  94 130 176 214 273 330 390
#     4  10  23  39  63  93 127 175 228 271 329 396
#
# _framework density 24.364625
#
# number of rings (size 3 to 8) (size 9 to 14) (size 15 to 20)
#    0.000    2.000    1.429    1.714    0.000    7.429 
#    0.000    7.143    6.286    7.714    0.000    0.000 
#    0.000    0.000    0.000    0.000    0.000    0.000 
#
# Total GULP energy -78007.958996 kJ/mol
# GULP energy per Si atom -5571.997071 kJ/mol
# Density = 2.430917 g / cm^3
# Si number density = 24.364625 Si / 1000 Ang^3
#
#
#
# Elastic Constant Matrix: (Units=GPa)
#
#
# Indices 1 2 3 4 5 6 
#
# 1 95.1762 25.4813 29.3195 12.9353 1.8013 3.0702
# 2 25.4813 155.3000 61.8564 25.8973 7.7197 -15.5656
# 3 29.3195 61.8564 131.1518 26.2170 20.1509 -2.3117
# 4 12.9353 25.8973 26.2170 59.7141 -0.2669 0.7246
# 5 1.8013 7.7197 20.1509 -0.2669 31.0954 16.3976
# 6 3.0702 -15.5656 -2.3117 0.7246 16.3976 36.0430
#
#
#
# Elastic Compliance Matrix: (Units=1/GPa)
#
#
# Indices 1 2 3 4 5 6 
#
# 1 0.011723 -0.001275 -0.002286 -0.000936 0.002625 -0.002871
# 2 -0.001275 0.008853 -0.002859 -0.002384 -0.003018 0.005169
# 3 -0.002286 -0.002859 0.011559 -0.003423 -0.008626 0.003695
# 4 -0.000936 -0.002384 -0.003423 0.019556 0.005073 -0.003871
# 5 0.002625 -0.003018 -0.008626 0.005073 0.052020 -0.025848
# 6 -0.002871 0.005169 0.003695 -0.003871 -0.025848 0.042296
#
#
# Mechanical properties :
#
#
# Convention : Reuss Voigt Hill
#
# Bulk Modulus (GPa) = 51.82890 68.32694 60.07792
# Shear Modulus (GPa) = 30.25207 43.03523 36.64365
#
# Velocity S-wave (km/s) = 3.52751 4.20730 3.88231
# Velocity P-wave (km/s) = 6.15707 7.19070 6.69387
#
# Compressibility (1/GPa) = 0.01929426
#
# Stress axis : x y z
#
# Youngs Moduli (GPa) = 85.30539 112.95937 86.51290
#
# Poissons Ratio (x) = 0.14403 0.19777
# Poissons Ratio (y) = 0.10877 0.24733
# Poissons Ratio (z) = 0.19501 0.32294
#
# Static dielectric constant tensor:
#      x y z
#    x 1.902190 0.030170 0.112800 
#    y 0.030170 2.002040 0.029840 
#    z 0.112800 0.029840 2.041480 
# 
# From -- ./inp_files/81356.got.cif
#   From: 2010.05.17/outbox.cif.g08.bks.cpg/sg2_41_cif.got.tgz:81356.got - 2010.06.03 11:33:40.
