data_PCOD9102000
_publ_section_title
;
Structure prediction by ZEFSAII (Michael W. Deem and Ramdas Pophale) SiO2 
 PCOD9102000
Probable space group: P -1
;
_chemical_formula_sum "Si O2"
_cell_formula_units_Z 16
_cell_length_a 21.467434
_cell_length_b 6.424455
_cell_length_c 21.245717
_cell_angle_alpha 107.327962
_cell_angle_beta 19.576812
_cell_angle_gamma 117.429905
_cell_volume 774.677782
_symmetry_space_group_name_H-M "P -1"
_symmetry_group_IT_number 2
_symmetry_cell_setting 'triclinic'
loop_
_space_group_symop_operation_xyz
x,y,z
-x,-y,-z
loop_
_atom_site_type_symbol
_atom_site_label
_atom_site_fract_x
_atom_site_fract_y
_atom_site_fract_z
Si Si1 0.423242 0.194904 0.796870
Si Si2 0.782617 0.345818 0.116580
Si Si3 0.019085 0.213028 0.135981
Si Si4 0.979576 0.261119 0.420515
Si Si5 0.743639 0.950151 0.914707
Si Si6 0.361879 0.802409 0.169878
Si Si7 0.884972 0.771105 0.141529
Si Si8 0.914065 0.445419 0.369559
O O1 0.686571 0.422183 0.565538
O O2 0.394979 0.930440 0.772496
O O3 0.257877 0.246777 0.921324
O O4 0.335074 0.139999 0.947412
O O5 0.714210 0.498349 0.242619
O O6 0.933286 0.561759 0.938719
O O7 0.936221 0.278798 0.003514
O O8 0.941491 0.261900 0.279660
O O9 0.843139 0.919976 0.249453
O O10 0.074407 0.103631 0.286986
O O11 0.183961 0.517445 0.284247
O O12 0.779395 0.113399 0.648053
O O13 0.897896 0.354834 0.448425
O O14 0.532977 0.803449 0.055238
O O15 0.864703 0.262973 0.822562
O O16 0.500000 0.000000 0.000000
O O17 0.000000 0.000000 0.000000
#
# Coordination Sequence:
#
# PCOD9102000 Si02
#       8
#     2   2   2   2   2   2   2   2
#     4  11  23  38  61  91 125 166 208 255 311 368
#     4   9  17  35  61  89 128 167 204 258 311 356
#     4  10  20  38  61  90 126 164 209 259 308 364
#     4  11  25  43  65  92 122 162 208 253 313 376
#     4  12  24  41  64  90 125 165 203 257 315 364
#     4  11  24  45  67  91 124 160 206 259 309 373
#     4   8  16  32  62  93 122 170 208 249 313 361
#     4  12  24  39  62  94 123 163 214 252 310 376
#
# _framework density 20.653746999999999
#
# number of rings (size 3 to 8) (size 9 to 14) (size 15 to 20)
#    0.000    1.500    5.000    0.375    0.000    3.500 
#    0.000    0.625    0.000   25.500    0.000    0.000 
#    0.000    0.000    0.000    0.000    0.000    0.000 
#
# Total GULP energy -89273.314005 kJ/mol
# GULP energy per Si atom -5579.582125 kJ/mol
# Density = 2.060674 g / cm^3
# Si number density = 20.653747 Si / 1000 Ang^3
#
#
#
# Elastic Constant Matrix: (Units=GPa)
#
#
# Indices 1 2 3 4 5 6 
#
# 1 108.8843 31.1211 23.8146 -1.5328 1.4447 -1.5015
# 2 31.1211 67.9287 14.4748 9.8647 5.7978 3.7557
# 3 23.8146 14.4748 71.9922 3.6160 -5.5239 0.7906
# 4 -1.5328 9.8647 3.6160 19.0931 -2.1814 5.6188
# 5 1.4447 5.7978 -5.5239 -2.1814 16.7831 6.6666
# 6 -1.5015 3.7557 0.7906 5.6188 6.6666 34.9352
#
#
#
# Elastic Compliance Matrix: (Units=1/GPa)
#
#
# Indices 1 2 3 4 5 6 
#
# 1 0.011372 -0.005225 -0.002902 0.004066 0.000234 0.000418
# 2 -0.005225 0.020074 -0.002448 -0.011796 -0.009363 0.001357
# 3 -0.002902 -0.002448 0.015918 -0.000800 0.006782 -0.001387
# 4 0.004066 -0.011796 -0.000800 0.064399 0.016627 -0.012069
# 5 0.000234 -0.009363 0.006782 0.016627 0.073481 -0.015833
# 6 0.000418 0.001357 -0.001387 -0.012069 -0.015833 0.033490
#
#
# Mechanical properties :
#
#
# Convention : Reuss Voigt Hill
#
# Bulk Modulus (GPa) = 38.14873 43.06960 40.60916
# Shear Modulus (GPa) = 20.11065 26.12192 23.11629
#
# Velocity S-wave (km/s) = 3.12381 3.56020 3.34912
# Velocity P-wave (km/s) = 5.61441 6.14804 5.88728
#
# Compressibility (1/GPa) = 0.02621319
#
# Stress axis : x y z
#
# Youngs Moduli (GPa) = 87.93408 49.81520 62.81999
#
# Poissons Ratio (x) = 0.26029 0.18231
# Poissons Ratio (y) = 0.45947 0.15381
# Poissons Ratio (z) = 0.25520 0.12197
#
# Static dielectric constant tensor:
#      x y z
#    x 1.746090 0.035360 -0.014100 
#    y 0.035360 1.751000 0.018230 
#    z -0.014100 0.018230 1.705880 
# 
# From -- ./inp_files/14688.got.cif
#   From: 2010.05.17/outbox.cif.g08.bks.cpg/sg2_8_cif.got.tgz:14688.got - 2010.06.03 11:33:40.
