data_PCOD9102626
_publ_section_title
;
Structure prediction by ZEFSAII (Michael W. Deem and Ramdas Pophale) SiO2 
 PCOD9102626
Probable space group: P -1
;
_chemical_formula_sum "Si O2"
_cell_formula_units_Z 16
_cell_length_a 23.714068
_cell_length_b 6.366303
_cell_length_c 17.097785
_cell_angle_alpha 105.742869
_cell_angle_beta 22.369648
_cell_angle_gamma 90.730447
_cell_volume 718.415555
_symmetry_space_group_name_H-M "P -1"
_symmetry_group_IT_number 2
_symmetry_cell_setting 'triclinic'
loop_
_space_group_symop_operation_xyz
x,y,z
-x,-y,-z
loop_
_atom_site_type_symbol
_atom_site_label
_atom_site_fract_x
_atom_site_fract_y
_atom_site_fract_z
Si Si1 0.434429 0.044782 0.391538
Si Si2 0.548427 0.726099 0.370322
Si Si3 0.683464 0.427296 0.712486
Si Si4 0.233526 0.670351 0.746972
Si Si5 0.123449 0.350614 0.448597
Si Si6 0.783826 0.166057 0.395212
Si Si7 0.066088 0.802138 0.215317
Si Si8 0.791784 0.942867 0.843436
O O1 0.299701 0.356289 0.636874
O O2 0.544185 0.798206 0.291619
O O3 0.307899 0.989232 0.501358
O O4 0.592568 0.026772 0.137585
O O5 0.386312 0.697252 0.588483
O O6 0.500000 0.000000 0.500000
O O7 0.759794 0.428400 0.089129
O O8 0.714141 0.642390 0.726203
O O9 0.681333 0.403247 0.618961
O O10 0.500000 0.500000 0.000000
O O11 0.882335 0.108210 0.448352
O O12 0.240356 0.712116 0.648340
O O13 0.016795 0.923838 0.080644
O O14 0.197494 0.097888 0.267249
O O15 0.017234 0.336733 0.654542
O O16 0.965870 0.640986 0.631247
O O17 0.170476 0.851611 0.152582
#
# Coordination Sequence:
#
# PCOD9102626 Si02
#       8
#     2   2   2   2   2   2   2   2
#     4  11  21  40  66  91 124 166 214 256 319 373
#     4  11  25  39  64 100 130 160 210 263 324 379
#     4  11  26  44  64  96 130 168 215 261 317 380
#     4  10  23  43  65  93 124 171 215 262 316 370
#     4  10  22  39  63  91 126 163 210 258 319 368
#     4  10  24  42  63  92 128 168 217 259 307 386
#     4  11  23  41  63  97 128 168 207 259 325 375
#     4  10  20  38  63  93 124 161 209 263 308 384
#
# _framework density 22.271232000000001
#
# number of rings (size 3 to 8) (size 9 to 14) (size 15 to 20)
#    0.000    1.500    2.500    1.500    3.500    3.000 
#    0.000    0.000    0.000    0.000    0.000    0.000 
#    0.000    0.000    0.000    0.000    0.000    0.000 
#
# Total GULP energy -89477.028085 kJ/mol
# GULP energy per Si atom -5592.314255 kJ/mol
# Density = 2.222054 g / cm^3
# Si number density = 22.271232 Si / 1000 Ang^3
#
#
#
# Elastic Constant Matrix: (Units=GPa)
#
#
# Indices 1 2 3 4 5 6 
#
# 1 80.1901 23.2584 42.0092 -6.3531 5.8442 19.5011
# 2 23.2584 73.5474 19.6994 -5.1283 -16.0527 18.4573
# 3 42.0092 19.6994 127.1488 -15.3517 -1.5887 10.1650
# 4 -6.3531 -5.1283 -15.3517 48.1144 5.1604 -2.3753
# 5 5.8442 -16.0527 -1.5887 5.1604 26.7540 2.9782
# 6 19.5011 18.4573 10.1650 -2.3753 2.9782 33.2456
#
#
#
# Elastic Compliance Matrix: (Units=1/GPa)
#
#
# Indices 1 2 3 4 5 6 
#
# 1 0.018292 -0.004216 -0.004873 0.000773 -0.006264 -0.006282
# 2 -0.004216 0.020895 -0.000930 -0.000704 0.014675 -0.010208
# 3 -0.004873 -0.000930 0.009874 0.002369 0.000583 0.000472
# 4 0.000773 -0.000704 0.002369 0.022149 -0.004860 0.001231
# 5 -0.006264 0.014675 0.000583 -0.004860 0.049574 -0.009439
# 6 -0.006282 -0.010208 0.000472 0.001231 -0.009439 0.040221
#
#
# Mechanical properties :
#
#
# Convention : Reuss Voigt Hill
#
# Bulk Modulus (GPa) = 34.45557 50.09114 42.27335
# Shear Modulus (GPa) = 26.21702 34.68408 30.45055
#
# Velocity S-wave (km/s) = 3.43471 3.95061 3.70166
# Velocity P-wave (km/s) = 5.58875 6.58407 6.10672
#
# Compressibility (1/GPa) = 0.02902289
#
# Stress axis : x y z
#
# Youngs Moduli (GPa) = 54.66999 47.85909 101.27219
#
# Poissons Ratio (x) = 0.20178 0.49349
# Poissons Ratio (y) = 0.23049 0.09417
# Poissons Ratio (z) = 0.26640 0.04450
#
# Static dielectric constant tensor:
#      x y z
#    x 1.861990 -0.014530 -0.004350 
#    y -0.014530 1.775340 0.043960 
#    z -0.004350 0.043960 1.804000 
# 
# From -- ./inp_files/283302.got.cif
#   From: 2010.05.17/outbox.cif.g08.bks.cpg/sg2_142_cif.got.tgz:283302.got - 2010.06.03 11:33:40.
