data_PCOD9102230
_publ_section_title
;
Structure prediction by ZEFSAII (Michael W. Deem and Ramdas Pophale) SiO2 
 PCOD9102230
Probable space group: P -1
;
_chemical_formula_sum "Si O2"
_cell_formula_units_Z 16
_cell_length_a 5.288425
_cell_length_b 16.204949
_cell_length_c 10.078676
_cell_angle_alpha 131.095392
_cell_angle_beta 82.666776
_cell_angle_gamma 89.554321
_cell_volume 640.721504
_symmetry_space_group_name_H-M "P -1"
_symmetry_group_IT_number 2
_symmetry_cell_setting 'triclinic'
loop_
_space_group_symop_operation_xyz
x,y,z
-x,-y,-z
loop_
_atom_site_type_symbol
_atom_site_label
_atom_site_fract_x
_atom_site_fract_y
_atom_site_fract_z
Si Si1 0.746241 0.604601 0.036920
Si Si2 0.073095 0.663220 0.574448
Si Si3 0.774406 0.043222 0.159396
Si Si4 0.511141 0.200781 0.886824
Si Si5 0.598465 0.823201 0.851836
Si Si6 0.525954 0.416208 0.725605
Si Si7 0.848240 0.438926 0.259459
Si Si8 0.941639 0.943644 0.306681
O O1 0.516945 0.694694 0.097047
O O2 0.716460 0.617808 0.211864
O O3 0.695850 0.479025 0.881028
O O4 0.984301 0.616105 0.934334
O O5 0.851394 0.765991 0.702151
O O6 0.962924 0.549866 0.418030
O O7 0.292527 0.672669 0.461355
O O8 0.161215 0.639088 0.695102
O O9 0.620247 0.148412 0.211871
O O10 0.882587 0.035727 0.292562
O O11 0.603651 0.942012 0.049335
O O12 0.000000 0.000000 0.000000
O O13 0.305615 0.124329 0.757107
O O14 0.796362 0.138097 0.820969
O O15 0.428456 0.246189 0.086877
O O16 0.424512 0.509187 0.723691
O O17 0.000000 0.000000 0.500000
#
# Coordination Sequence:
#
# PCOD9102230 Si02
#       8
#     2   2   2   2   2   2   2   2
#     4  10  22  40  62  93 129 179 230 271 337 416
#     4  10  21  38  59  96 126 169 225 279 339 401
#     4  10  21  41  67  93 128 179 220 289 347 409
#     4  11  23  44  72 103 131 185 234 279 349 427
#     4  10  21  40  66  95 134 171 235 281 346 417
#     4  10  22  39  60  90 137 177 220 280 342 396
#     4  10  20  38  62  88 130 173 215 284 337 400
#     4  11  25  47  71 100 139 177 230 290 356 421
#
# _framework density 24.971845999999999
#
# number of rings (size 3 to 8) (size 9 to 14) (size 15 to 20)
#    0.000    1.750    2.500    1.125    1.750    1.000 
#    4.500    0.000    0.000    0.000    0.000    0.000 
#    0.000    0.000    0.000    0.000    0.000    0.000 
#
# Total GULP energy -89342.960063 kJ/mol
# GULP energy per Si atom -5583.935004 kJ/mol
# Density = 2.491501 g / cm^3
# Si number density = 24.971846 Si / 1000 Ang^3
#
#
#
# Elastic Constant Matrix: (Units=GPa)
#
#
# Indices 1 2 3 4 5 6 
#
# 1 91.4820 24.5261 55.4832 -5.9618 -1.4785 -27.2380
# 2 24.5261 121.2868 50.2140 -28.3283 1.3428 -31.5454
# 3 55.4832 50.2140 149.0753 -23.0699 -11.6370 -6.8371
# 4 -5.9618 -28.3283 -23.0699 34.0753 3.4776 5.0591
# 5 -1.4785 1.3428 -11.6370 3.4776 51.0825 11.6402
# 6 -27.2380 -31.5454 -6.8371 5.0591 11.6402 47.0115
#
#
#
# Elastic Compliance Matrix: (Units=1/GPa)
#
#
# Indices 1 2 3 4 5 6 
#
# 1 0.018409 0.002326 -0.007599 -0.001406 -0.003956 0.012252
# 2 0.002326 0.014204 -0.004226 0.008237 -0.004204 0.010419
# 3 -0.007599 -0.004226 0.011496 0.003573 0.003839 -0.006902
# 4 -0.001406 0.008237 0.003573 0.038363 -0.002444 0.001709
# 5 -0.003956 -0.004204 0.003839 -0.002444 0.022882 -0.009957
# 6 0.012252 0.010419 -0.006902 0.001709 -0.009957 0.036639
#
#
# Mechanical properties :
#
#
# Convention : Reuss Voigt Hill
#
# Bulk Modulus (GPa) = 39.82430 69.14340 54.48385
# Shear Modulus (GPa) = 29.52256 41.87525 35.69890
#
# Velocity S-wave (km/s) = 3.44209 4.09944 3.78506
# Velocity P-wave (km/s) = 5.63734 7.08208 6.40060
#
# Compressibility (1/GPa) = 0.02511030
#
# Stress axis : x y z
#
# Youngs Moduli (GPa) = 54.32148 70.40159 86.98779
#
# Poissons Ratio (x) = -0.16373 0.66105
# Poissons Ratio (y) = -0.12633 0.36758
# Poissons Ratio (z) = 0.41280 0.29750
#
# Static dielectric constant tensor:
#      x y z
#    x 2.100150 0.113810 0.042100 
#    y 0.113810 2.059610 0.025460 
#    z 0.042100 0.025460 1.996550 
# 
# From -- ./inp_files/139553.got.cif
#   From: 2010.05.17/outbox.cif.g08.bks.cpg/sg2_70_cif.got.tgz:139553.got - 2010.06.03 11:33:40.
