data_PCOD9102452
_publ_section_title
;
Structure prediction by ZEFSAII (Michael W. Deem and Ramdas Pophale) SiO2 
 PCOD9102452
Probable space group: P -1
;
_chemical_formula_sum "Si O2"
_cell_formula_units_Z 16
_cell_length_a 20.006034
_cell_length_b 12.235030
_cell_length_c 9.970512
_cell_angle_alpha 137.690669
_cell_angle_beta 151.746966
_cell_angle_gamma 47.152123
_cell_volume 774.499043
_symmetry_space_group_name_H-M "P -1"
_symmetry_group_IT_number 2
_symmetry_cell_setting 'triclinic'
loop_
_space_group_symop_operation_xyz
x,y,z
-x,-y,-z
loop_
_atom_site_type_symbol
_atom_site_label
_atom_site_fract_x
_atom_site_fract_y
_atom_site_fract_z
Si Si1 0.365336 0.869493 0.034877
Si Si2 0.942948 0.519224 0.264527
Si Si3 0.623564 0.063922 0.188798
Si Si4 0.684230 0.815767 0.627155
Si Si5 0.367472 0.564989 0.413930
Si Si6 0.088559 0.178338 0.172386
Si Si7 0.361813 0.519854 0.676681
Si Si8 0.078860 0.125164 0.427995
O O1 0.512936 0.834881 0.344459
O O2 0.276270 0.028590 0.077837
O O3 0.416171 0.904326 0.006576
O O4 0.291313 0.701376 0.748893
O O5 0.972929 0.701537 0.440105
O O6 0.000000 0.500000 0.500000
O O7 0.011226 0.356761 0.164087
O O8 0.774216 0.511648 0.952151
O O9 0.659792 0.238882 0.468732
O O10 0.760081 0.935556 0.309630
O O11 0.500000 0.000000 0.000000
O O12 0.754468 0.826343 0.615283
O O13 0.724789 0.635328 0.591673
O O14 0.500000 0.500000 0.500000
O O15 0.398985 0.523249 0.587914
O O16 0.080906 0.155430 0.298030
O O17 0.012879 0.025685 0.842018
O O18 0.500000 0.500000 0.000000
#
# Coordination Sequence:
#
# PCOD9102452 Si02
#       8
#     2   2   2   2   2   2   2   2
#     4   9  21  38  57  92 119 153 202 255 303 376
#     4  10  22  40  61  91 131 163 205 262 313 376
#     4  11  21  36  63  92 126 154 196 265 322 362
#     4  10  20  38  63  82 120 162 204 248 309 371
#     4  11  23  40  66  99 125 162 216 262 317 379
#     4  10  21  40  59  88 118 165 207 250 308 375
#     4   9  21  40  60  88 129 160 200 262 311 373
#     4  10  21  38  61  87 125 155 202 258 308 369
#
# _framework density 20.658514
#
# number of rings (size 3 to 8) (size 9 to 14) (size 15 to 20)
#    0.000    2.000    1.250    1.500    3.500    6.000 
#    2.250    1.250    0.000    0.000    0.000    0.000 
#    0.000    0.000    0.000    0.000    0.000    0.000 
#
# Total GULP energy -89184.131347 kJ/mol
# GULP energy per Si atom -5574.008209 kJ/mol
# Density = 2.061149 g / cm^3
# Si number density = 20.658514 Si / 1000 Ang^3
#
#
#
# Elastic Constant Matrix: (Units=GPa)
#
#
# Indices 1 2 3 4 5 6 
#
# 1 52.5386 31.7786 14.5804 14.7764 3.0125 0.0270
# 2 31.7786 164.3888 35.3322 45.5610 0.9796 0.7290
# 3 14.5804 35.3322 62.0302 7.9608 -7.6733 -0.7707
# 4 14.7764 45.5610 7.9608 38.9372 0.4929 -1.7316
# 5 3.0125 0.9796 -7.6733 0.4929 18.4029 -0.0386
# 6 0.0270 0.7290 -0.7707 -1.7316 -0.0386 23.0920
#
#
#
# Elastic Compliance Matrix: (Units=1/GPa)
#
#
# Indices 1 2 3 4 5 6 
#
# 1 0.023313 -0.002003 -0.004291 -0.005582 -0.005350 -0.000535
# 2 -0.002003 0.010305 -0.004287 -0.010456 -0.001731 -0.001253
# 3 -0.004291 -0.004287 0.020439 0.002392 0.009391 0.001018
# 4 -0.005582 -0.010456 0.002392 0.039679 0.001412 0.003394
# 5 -0.005350 -0.001731 0.009391 0.001412 0.059186 0.000579
# 6 -0.000535 -0.001253 0.001018 0.003394 0.000579 0.043635
#
#
# Mechanical properties :
#
#
# Convention : Reuss Voigt Hill
#
# Bulk Modulus (GPa) = 30.39937 49.14888 39.77412
# Shear Modulus (GPa) = 21.86418 29.23754 25.55086
#
# Velocity S-wave (km/s) = 3.25678 3.76610 3.52066
# Velocity P-wave (km/s) = 5.37487 6.53866 5.98512
#
# Compressibility (1/GPa) = 0.03289542
#
# Stress axis : x y z
#
# Youngs Moduli (GPa) = 42.89441 97.03577 48.92625
#
# Poissons Ratio (x) = 0.19438 0.20994
# Poissons Ratio (y) = 0.08592 0.20974
# Poissons Ratio (z) = 0.18406 0.41598
#
# Static dielectric constant tensor:
#      x y z
#    x 1.690560 -0.002750 -0.023870 
#    y -0.002750 1.811630 0.043290 
#    z -0.023870 0.043290 1.765610 
# 
# From -- ./inp_files/333859.got.cif
#   From: 2010.05.17/outbox.cif.g08.bks.cpg/sg2_167_cif.got.tgz:333859.got - 2010.06.03 11:33:40.
