data_PCOD9102290
_publ_section_title
;
Structure prediction by ZEFSAII (Michael W. Deem and Ramdas Pophale) SiO2 
 PCOD9102290
Probable space group: P -1
;
_chemical_formula_sum "Si O2"
_cell_formula_units_Z 16
_cell_length_a 22.985304
_cell_length_b 12.893223
_cell_length_c 18.792292
_cell_angle_alpha 156.532382
_cell_angle_beta 17.828069
_cell_angle_gamma 151.486150
_cell_volume 678.329051
_symmetry_space_group_name_H-M "P -1"
_symmetry_group_IT_number 2
_symmetry_cell_setting 'triclinic'
loop_
_space_group_symop_operation_xyz
x,y,z
-x,-y,-z
loop_
_atom_site_type_symbol
_atom_site_label
_atom_site_fract_x
_atom_site_fract_y
_atom_site_fract_z
Si Si1 0.303275 0.578962 0.204794
Si Si2 0.333204 0.802220 0.599302
Si Si3 0.688341 0.388337 0.246430
Si Si4 0.342852 0.349571 0.416235
Si Si5 0.939724 0.520183 0.376224
Si Si6 0.245504 0.822682 0.116963
Si Si7 0.951480 0.773348 0.813951
Si Si8 0.331404 0.163472 0.027267
O O1 0.175214 0.471708 0.222867
O O2 0.490584 0.746312 0.073655
O O3 0.164664 0.747983 0.520903
O O4 0.362038 0.322351 0.018481
O O5 0.372164 0.606908 0.494973
O O6 0.254572 0.612667 0.509774
O O7 0.500000 0.000000 0.500000
O O8 0.150262 0.974691 0.935235
O O9 0.500000 0.500000 0.500000
O O10 0.764573 0.599481 0.350377
O O11 0.656975 0.141277 0.179036
O O12 0.779261 0.251620 0.984721
O O13 0.250646 0.120573 0.328548
O O14 0.551308 0.271308 0.150669
O O15 0.076909 0.657953 0.247398
O O16 0.045445 0.287243 0.144726
O O17 0.868226 0.737531 0.650509
#
# Coordination Sequence:
#
# PCOD9102290 Si02
#       8
#     2   2   2   2   2   2   2   2
#     4   9  20  38  61  88 125 166 212 270 326 394
#     4  12  24  39  63  96 132 167 213 272 335 400
#     4  10  22  39  64  94 124 166 218 269 322 382
#     4  10  23  43  70  96 129 179 220 268 332 393
#     4  11  24  40  64  91 127 176 216 270 333 391
#     4  10  23  46  66  93 134 173 224 273 322 391
#     4  10  21  37  59  92 126 164 213 267 332 395
#     4  10  20  38  62  90 125 169 218 267 327 393
#
# _framework density 23.587371999999998
#
# number of rings (size 3 to 8) (size 9 to 14) (size 15 to 20)
#    0.000    1.750    0.000    3.375    0.000    9.000 
#    0.000    5.000    0.000    0.000    0.000    0.000 
#    0.000    0.000    0.000    0.000    0.000    0.000 
#
# Total GULP energy -89244.791473 kJ/mol
# GULP energy per Si atom -5577.799467 kJ/mol
# Density = 2.353369 g / cm^3
# Si number density = 23.587372 Si / 1000 Ang^3
#
#
#
# Elastic Constant Matrix: (Units=GPa)
#
#
# Indices 1 2 3 4 5 6 
#
# 1 113.2576 36.9106 32.1855 17.3907 15.3888 2.4083
# 2 36.9106 91.1288 35.7792 9.3699 15.8694 -1.6236
# 3 32.1855 35.7792 104.4330 21.6565 -5.3298 -5.1257
# 4 17.3907 9.3699 21.6565 31.0874 -1.3312 -7.5689
# 5 15.3888 15.8694 -5.3298 -1.3312 39.3115 7.0378
# 6 2.4083 -1.6236 -5.1257 -7.5689 7.0378 20.4962
#
#
#
# Elastic Compliance Matrix: (Units=1/GPa)
#
#
# Indices 1 2 3 4 5 6 
#
# 1 0.011598 -0.002941 -0.001799 -0.005179 -0.003264 -0.002837
# 2 -0.002941 0.014960 -0.004536 0.000698 -0.005963 0.002702
# 3 -0.001799 -0.004536 0.013292 -0.006908 0.004253 -0.000835
# 4 -0.005179 0.000698 -0.006908 0.043320 -0.000424 0.015079
# 5 -0.003264 -0.005963 0.004253 -0.000424 0.031473 -0.009989
# 6 -0.002837 0.002702 -0.000835 0.015079 -0.009989 0.058126
#
#
# Mechanical properties :
#
#
# Convention : Reuss Voigt Hill
#
# Bulk Modulus (GPa) = 46.94803 57.61890 52.28346
# Shear Modulus (GPa) = 25.19901 31.77530 28.48715
#
# Velocity S-wave (km/s) = 3.27207 3.67431 3.47901
# Velocity P-wave (km/s) = 5.84999 6.51779 6.19290
#
# Compressibility (1/GPa) = 0.02130015
#
# Stress axis : x y z
#
# Youngs Moduli (GPa) = 86.22022 66.84397 75.23165
#
# Poissons Ratio (x) = 0.19659 0.13532
# Poissons Ratio (y) = 0.25358 0.34121
# Poissons Ratio (z) = 0.15508 0.30317
#
# Static dielectric constant tensor:
#      x y z
#    x 1.986990 0.054330 0.073550 
#    y 0.054330 1.862390 0.042700 
#    z 0.073550 0.042700 1.959590 
# 
# From -- ./inp_files/425749.got.cif
#   From: 2010.05.17/outbox.cif.g08.bks.cpg/sg2_213_cif.got.tgz:425749.got - 2010.06.03 11:33:40.
