data_PCOD9102217
_publ_section_title
;
Structure prediction by ZEFSAII (Michael W. Deem and Ramdas Pophale) SiO2 
 PCOD9102217
Probable space group: P -1
;
_chemical_formula_sum "Si O2"
_cell_formula_units_Z 16
_cell_length_a 7.791433
_cell_length_b 17.276262
_cell_length_c 7.228111
_cell_angle_alpha 57.844396
_cell_angle_beta 69.820216
_cell_angle_gamma 103.451088
_cell_volume 658.606445
_symmetry_space_group_name_H-M "P -1"
_symmetry_group_IT_number 2
_symmetry_cell_setting 'triclinic'
loop_
_space_group_symop_operation_xyz
x,y,z
-x,-y,-z
loop_
_atom_site_type_symbol
_atom_site_label
_atom_site_fract_x
_atom_site_fract_y
_atom_site_fract_z
Si Si1 0.342199 0.765832 0.996382
Si Si2 0.306929 0.223816 0.616618
Si Si3 0.310620 0.994011 0.321775
Si Si4 0.964968 0.169501 0.079564
Si Si5 0.222000 0.657667 0.568031
Si Si6 0.487562 0.377001 0.051147
Si Si7 0.777317 0.538290 0.056038
Si Si8 0.287117 0.019523 0.868921
O O1 0.239572 0.716173 0.296813
O O2 0.154718 0.765294 0.949251
O O3 0.425395 0.692484 0.979970
O O4 0.543827 0.888322 0.789476
O O5 0.555707 0.267644 0.505806
O O6 0.302525 0.299539 0.365940
O O7 0.225024 0.105071 0.725131
O O8 0.206502 0.230250 0.839998
O O9 0.102845 0.910274 0.621146
O O10 0.470079 0.948217 0.309100
O O11 0.262401 0.009074 0.111622
O O12 0.851173 0.091224 0.045000
O O13 0.015755 0.630343 0.797996
O O14 0.212282 0.543845 0.702365
O O15 0.380143 0.419408 0.895144
O O16 0.672233 0.471095 0.989034
#
# Coordination Sequence:
#
# PCOD9102217 Si02
#       8
#     2   2   2   2   2   2   2   2
#     4  11  21  39  61  92 124 160 202 262 306 369
#     4  11  21  39  60  90 125 166 210 251 299 373
#     4  10  21  39  61  91 129 165 213 255 306 359
#     4  11  23  38  61  94 130 170 211 252 301 364
#     4  10  21  40  63  86 125 153 205 261 310 375
#     4  10  21  39  66  90 120 156 206 257 317 379
#     4   9  21  42  64  90 113 160 202 256 326 382
#     4  10  20  38  62  88 124 177 204 259 304 355
#
# _framework density 24.293717999999998
#
# number of rings (size 3 to 8) (size 9 to 14) (size 15 to 20)
#    0.000    1.750    1.250    4.125    0.000    1.500 
#    2.250    3.750    0.000    0.000    0.000    0.000 
#    0.000    0.000    0.000    0.000    0.000    0.000 
#
# Total GULP energy -89521.013657 kJ/mol
# GULP energy per Si atom -5595.063354 kJ/mol
# Density = 2.423842 g / cm^3
# Si number density = 24.293718 Si / 1000 Ang^3
#
#
#
# Elastic Constant Matrix: (Units=GPa)
#
#
# Indices 1 2 3 4 5 6 
#
# 1 66.6366 17.5761 12.0457 -10.8668 -5.8215 -13.8979
# 2 17.5761 85.7822 3.8079 -3.9237 -2.7263 -18.5977
# 3 12.0457 3.8079 65.2098 -8.2162 4.7993 0.2506
# 4 -10.8668 -3.9237 -8.2162 16.8384 -3.3814 9.5929
# 5 -5.8215 -2.7263 4.7993 -3.3814 32.7659 3.8098
# 6 -13.8979 -18.5977 0.2506 9.5929 3.8098 25.2585
#
#
#
# Elastic Compliance Matrix: (Units=1/GPa)
#
#
# Indices 1 2 3 4 5 6 
#
# 1 0.018773 -0.002129 -0.002609 0.008202 0.003794 0.005100
# 2 -0.002129 0.014384 -0.001098 -0.005353 -0.000922 0.011602
# 3 -0.002609 -0.001098 0.017201 0.009470 -0.001423 -0.005796
# 4 0.008202 -0.005353 0.009470 0.091351 0.013263 -0.036217
# 5 0.003794 -0.000922 -0.001423 0.013263 0.033705 -0.008699
# 6 0.005100 0.011602 -0.005796 -0.036217 -0.008699 0.066064
#
#
# Mechanical properties :
#
#
# Convention : Reuss Voigt Hill
#
# Bulk Modulus (GPa) = 25.84897 31.60977 28.72937
# Shear Modulus (GPa) = 18.79383 27.25249 23.02316
#
# Velocity S-wave (km/s) = 2.78440 3.35295 3.08181
# Velocity P-wave (km/s) = 4.58263 5.29428 4.95126
#
# Compressibility (1/GPa) = 0.03868625
#
# Stress axis : x y z
#
# Youngs Moduli (GPa) = 53.26904 69.52372 58.13493
#
# Poissons Ratio (x) = 0.14802 0.15166
# Poissons Ratio (y) = 0.11342 0.06382
# Poissons Ratio (z) = 0.13897 0.07632
#
# Static dielectric constant tensor:
#      x y z
#    x 1.965440 -0.014620 -0.031730 
#    y -0.014620 1.944600 -0.018410 
#    z -0.031730 -0.018410 1.987010 
# 
# From -- ./inp_files/214333.got.cif
#   From: 2010.05.17/outbox.cif.g08.bks.cpg/sg2_108_cif.got.tgz:214333.got - 2010.06.03 11:33:40.
