data_PCOD9102369
_publ_section_title
;
Structure prediction by ZEFSAII (Michael W. Deem and Ramdas Pophale) SiO2 
 PCOD9102369
Probable space group: P -1
;
_chemical_formula_sum "Si O2"
_cell_formula_units_Z 14
_cell_length_a 9.234095
_cell_length_b 5.078816
_cell_length_c 15.705417
_cell_angle_alpha 114.020860
_cell_angle_beta 117.424086
_cell_angle_gamma 76.496810
_cell_volume 596.201971
_symmetry_space_group_name_H-M "P -1"
_symmetry_group_IT_number 2
_symmetry_cell_setting 'triclinic'
loop_
_space_group_symop_operation_xyz
x,y,z
-x,-y,-z
loop_
_atom_site_type_symbol
_atom_site_label
_atom_site_fract_x
_atom_site_fract_y
_atom_site_fract_z
Si Si1 0.724376 0.552941 0.923737
Si Si2 0.457473 0.085333 0.621329
Si Si3 0.416853 0.016409 0.181644
Si Si4 0.011143 0.608055 0.726242
Si Si5 0.979074 0.729564 0.146718
Si Si6 0.343025 0.436872 0.356016
Si Si7 0.894777 0.725201 0.445709
O O1 0.645684 0.279620 0.908490
O O2 0.858442 0.397395 0.875000
O O3 0.585782 0.753890 0.864680
O O4 0.830750 0.732809 0.040041
O O5 0.447430 0.070383 0.720996
O O6 0.578300 0.312212 0.644126
O O7 0.279770 0.170631 0.550224
O O8 0.529109 0.761417 0.579251
O O9 0.298121 0.194584 0.240282
O O10 0.053022 0.492187 0.815942
O O11 0.830986 0.493665 0.640215
O O12 0.131634 0.451495 0.671200
O O13 0.006143 0.953738 0.768002
O O14 0.000000 0.500000 0.500000
O O15 0.000000 0.000000 0.500000
#
# Coordination Sequence:
#
# PCOD9102369 Si02
#       7
#     2   2   2   2   2   2   2
#     4  11  18  29  55  95 132 156 205 240 290 353
#     4  10  20  39  65  86 121 159 203 235 320 371
#     4  10  16  32  56  86 123 162 201 231 287 358
#     4  12  22  41  63  90 127 158 207 255 309 346
#     4  11  20  32  55  93 132 164 192 253 303 342
#     4  10  18  35  64  91 114 162 206 238 295 359
#     4  12  28  48  66  90 118 159 203 257 316 380
#
# _framework density 23.481977000000001
#
# number of rings (size 3 to 8) (size 9 to 14) (size 15 to 20)
#    0.857    0.286    4.286    3.429    0.000    2.286 
#    0.000    4.286    0.000    5.143    0.000    0.000 
#    0.000    0.000    0.000    0.000    0.000    0.000 
#
# Total GULP energy -78096.723602 kJ/mol
# GULP energy per Si atom -5578.337400 kJ/mol
# Density = 2.342853 g / cm^3
# Si number density = 23.481977 Si / 1000 Ang^3
#
#
#
# Elastic Constant Matrix: (Units=GPa)
#
#
# Indices 1 2 3 4 5 6 
#
# 1 25.5122 33.0116 19.3485 2.2386 9.4382 -0.9502
# 2 33.0116 168.0333 43.5805 -9.5997 14.7028 18.8444
# 3 19.3485 43.5805 57.9467 -3.0906 5.7636 -9.7429
# 4 2.2386 -9.5997 -3.0906 44.7711 3.6113 5.3998
# 5 9.4382 14.7028 5.7636 3.6113 20.8792 -0.5408
# 6 -0.9502 18.8444 -9.7429 5.3998 -0.5408 28.2876
#
#
#
# Elastic Compliance Matrix: (Units=1/GPa)
#
#
# Indices 1 2 3 4 5 6 
#
# 1 0.069620 -0.009037 -0.014022 -0.005256 -0.020220 0.004146
# 2 -0.009037 0.011158 -0.006702 0.003922 -0.002881 -0.010849
# 3 -0.014022 -0.006702 0.028971 -0.000733 0.003555 0.014180
# 4 -0.005256 0.003922 -0.000733 0.024712 -0.004661 -0.007848
# 5 -0.020220 -0.002881 0.003555 -0.004661 0.059005 0.004483
# 6 0.004146 -0.010849 0.014180 -0.007848 0.004483 0.049185
#
#
# Mechanical properties :
#
#
# Convention : Reuss Voigt Hill
#
# Bulk Modulus (GPa) = 19.90952 49.26372 34.58662
# Shear Modulus (GPa) = 15.67810 29.15770 22.41790
#
# Velocity S-wave (km/s) = 2.58672 3.52761 3.09315
# Velocity P-wave (km/s) = 4.17356 6.13326 5.24574
#
# Compressibility (1/GPa) = 0.05022723
#
# Stress axis : x y z
#
# Youngs Moduli (GPa) = 14.36363 89.62399 34.51675
#
# Poissons Ratio (x) = 0.80991 0.48399
# Poissons Ratio (y) = 0.12980 0.23134
# Poissons Ratio (z) = 0.20141 0.60070
#
# Static dielectric constant tensor:
#      x y z
#    x 1.866280 -0.010000 0.005990 
#    y -0.010000 1.852390 -0.050040 
#    z 0.005990 -0.050040 1.974440 
# 
# From -- ./inp_files/564293.got.cif
#   From: 2010.05.17/outbox.cif.g08.bks.cpg/sg2_283_cif.got.tgz:564293.got - 2010.06.03 11:33:40.
