data_PCOD9102755
_publ_section_title
;
Structure prediction by ZEFSAII (Michael W. Deem and Ramdas Pophale) SiO2 
 PCOD9102755
Probable space group: P -1
;
_chemical_formula_sum "Si O2"
_cell_formula_units_Z 15
_cell_length_a 7.319339
_cell_length_b 20.137977
_cell_length_c 6.560169
_cell_angle_alpha 54.055199
_cell_angle_beta 60.105488
_cell_angle_gamma 85.023506
_cell_volume 648.828510
_symmetry_space_group_name_H-M "P -1"
_symmetry_group_IT_number 2
_symmetry_cell_setting 'triclinic'
loop_
_space_group_symop_operation_xyz
x,y,z
-x,-y,-z
loop_
_atom_site_type_symbol
_atom_site_label
_atom_site_fract_x
_atom_site_fract_y
_atom_site_fract_z
Si Si1 0.975721 0.146412 0.578612
Si Si2 0.154262 0.477067 0.792044
Si Si3 0.700991 0.746012 0.459376
Si Si4 0.494351 0.119791 0.849246
Si Si5 0.869391 0.692073 0.079566
Si Si6 0.652314 0.036968 0.532802
Si Si7 0.496506 0.609862 0.142133
Si Si8 0.000000 0.000000 0.500000
O O1 0.721146 0.126690 0.828207
O O2 0.152227 0.188203 0.577104
O O3 0.012446 0.064862 0.592654
O O4 0.996376 0.222773 0.264689
O O5 0.050868 0.388858 0.885776
O O6 0.256533 0.554768 0.441187
O O7 0.359187 0.457419 0.834788
O O8 0.000000 0.500000 0.000000
O O9 0.576195 0.796513 0.294323
O O10 0.848922 0.706021 0.303830
O O11 0.533507 0.671066 0.817735
O O12 0.539583 0.084966 0.665732
O O13 0.307867 0.044905 0.207250
O O14 0.623561 0.666775 0.159833
O O15 0.907246 0.072749 0.284473
O O16 0.500000 0.000000 0.500000
#
# Coordination Sequence:
#
# PCOD9102755 Si02
#       8
#     2   2   2   2   2   2   2   1
#     4  10  22  40  59  93 129 168 221 267 330 390
#     4   9  18  41  66  93 136 168 218 277 319 399
#     4  11  21  41  64  91 135 173 213 275 333 378
#     4  10  23  37  58  90 120 160 216 268 316 394
#     4   9  20  38  61  90 130 169 212 271 325 392
#     4  10  21  39  59  86 117 160 216 266 326 381
#     4   8  20  40  63  95 130 173 213 271 333 388
#     4  10  20  38  64  84 124 170 210 270 322 382
#
# _framework density 23.118590999999999
#
# number of rings (size 3 to 8) (size 9 to 14) (size 15 to 20)
#    0.800    1.600    0.000    1.600    0.000    5.867 
#    2.400    6.667    0.000    0.000    0.000    0.000 
#    0.000    0.000    0.000    0.000    0.000    0.000 
#
# Total GULP energy -83567.824650 kJ/mol
# GULP energy per Si atom -5571.188310 kJ/mol
# Density = 2.306597 g / cm^3
# Si number density = 23.118591 Si / 1000 Ang^3
#
#
#
# Elastic Constant Matrix: (Units=GPa)
#
#
# Indices 1 2 3 4 5 6 
#
# 1 60.4693 35.4245 10.9098 15.0594 -9.6967 -9.5062
# 2 35.4245 141.9236 63.4078 15.2639 -11.2137 -11.8930
# 3 10.9098 63.4078 134.0801 -14.4673 -15.0344 -13.2405
# 4 15.0594 15.2639 -14.4673 33.0808 -2.5943 -3.3591
# 5 -9.6967 -11.2137 -15.0344 -2.5943 29.2496 7.2264
# 6 -9.5062 -11.8930 -13.2405 -3.3591 7.2264 20.9654
#
#
#
# Elastic Compliance Matrix: (Units=1/GPa)
#
#
# Indices 1 2 3 4 5 6 
#
# 1 0.022180 -0.004167 0.000375 -0.007149 0.003977 0.005414
# 2 -0.004167 0.011183 -0.005611 -0.005741 -0.000530 0.000174
# 3 0.000375 -0.005611 0.011842 0.008347 0.003680 0.004535
# 4 -0.007149 -0.005741 0.008347 0.040411 0.002194 0.004492
# 5 0.003977 -0.000530 0.003680 0.002194 0.039742 -0.009520
# 6 0.005414 0.000174 0.004535 0.004492 -0.009520 0.057116
#
#
# Mechanical properties :
#
#
# Convention : Reuss Voigt Hill
#
# Bulk Modulus (GPa) = 37.88037 61.77304 49.82671
# Shear Modulus (GPa) = 23.80041 31.77454 27.78748
#
# Velocity S-wave (km/s) = 3.21205 3.71133 3.47068
# Velocity P-wave (km/s) = 5.49338 6.71888 6.13680
#
# Compressibility (1/GPa) = 0.02639889
#
# Stress axis : x y z
#
# Youngs Moduli (GPa) = 45.08589 89.41903 84.44185
#
# Poissons Ratio (x) = 0.37261 -0.03167
# Poissons Ratio (y) = 0.18787 0.47384
# Poissons Ratio (z) = -0.01691 0.50177
#
# Static dielectric constant tensor:
#      x y z
#    x 1.987850 0.015860 -0.047770 
#    y 0.015860 1.839770 -0.034570 
#    z -0.047770 -0.034570 1.930410 
# 
# From -- ./inp_files/50070.got.cif
#   From: 2010.05.17/outbox.cif.g08.bks.cpg/sg2_26_cif.got.tgz:50070.got - 2010.06.03 11:33:40.
