data_PCOD9102276
_publ_section_title
;
Structure prediction by ZEFSAII (Michael W. Deem and Ramdas Pophale) SiO2 
 PCOD9102276
Probable space group: P -1
;
_chemical_formula_sum "Si O2"
_cell_formula_units_Z 14
_cell_length_a 12.755644
_cell_length_b 11.504407
_cell_length_c 11.228991
_cell_angle_alpha 117.763217
_cell_angle_beta 65.051215
_cell_angle_gamma 156.576704
_cell_volume 579.557343
_symmetry_space_group_name_H-M "P -1"
_symmetry_group_IT_number 2
_symmetry_cell_setting 'triclinic'
loop_
_space_group_symop_operation_xyz
x,y,z
-x,-y,-z
loop_
_atom_site_type_symbol
_atom_site_label
_atom_site_fract_x
_atom_site_fract_y
_atom_site_fract_z
Si Si1 0.193483 0.470385 0.717796
Si Si2 0.543967 0.521820 0.349358
Si Si3 0.698869 0.123542 0.737486
Si Si4 0.197465 0.174416 0.135656
Si Si5 0.442202 0.699821 0.462171
Si Si6 0.284725 0.136585 0.845928
Si Si7 0.059773 0.447268 0.348326
O O1 0.274942 0.421403 0.724076
O O2 0.912376 0.249851 0.759872
O O3 0.224363 0.458994 0.557781
O O4 0.420164 0.814492 0.788634
O O5 0.500000 0.500000 0.500000
O O6 0.283861 0.232404 0.256501
O O7 0.607721 0.736051 0.382715
O O8 0.628964 0.992268 0.578030
O O9 0.832561 0.392660 0.755438
O O10 0.420295 0.505567 0.139562
O O11 0.224932 0.079485 0.989412
O O12 0.917676 0.958228 0.151425
O O13 0.809278 0.099017 0.273629
O O14 0.282243 0.590196 0.376315
O O15 0.000000 0.500000 0.500000
#
# Coordination Sequence:
#
# PCOD9102276 Si02
#       7
#     2   2   2   2   2   2   2
#     4   9  21  35  50  80 116 155 191 235 298 354
#     4  10  20  38  62  90 120 161 200 264 301 360
#     4  10  21  35  49  80 123 152 191 235 297 359
#     4  10  22  44  62  89 124 157 210 254 309 367
#     4   9  20  34  51  86 119 149 196 242 313 342
#     4  10  24  40  64  89 122 165 200 258 311 360
#     4  12  21  35  61  89 125 159 201 256 304 364
#
# _framework density 24.156369000000002
#
# number of rings (size 3 to 8) (size 9 to 14) (size 15 to 20)
#    0.857    1.143    2.857    0.429    2.000    4.000 
#    0.000    0.000    0.000    1.714    0.000    0.000 
#    0.000    0.000    0.000    0.000    0.000    0.000 
#
# Total GULP energy -78028.540792 kJ/mol
# GULP energy per Si atom -5573.467199 kJ/mol
# Density = 2.410139 g / cm^3
# Si number density = 24.156369 Si / 1000 Ang^3
#
#
#
# Elastic Constant Matrix: (Units=GPa)
#
#
# Indices 1 2 3 4 5 6 
#
# 1 79.1046 18.6085 8.8285 7.1087 16.0674 -1.6432
# 2 18.6085 106.8894 13.4349 10.9514 -7.9013 6.0852
# 3 8.8285 13.4349 65.6387 16.5119 -1.7379 1.9911
# 4 7.1087 10.9514 16.5119 25.3512 2.0148 -2.2249
# 5 16.0674 -7.9013 -1.7379 2.0148 31.5504 8.2392
# 6 -1.6432 6.0852 1.9911 -2.2249 8.2392 42.8585
#
#
#
# Elastic Compliance Matrix: (Units=1/GPa)
#
#
# Indices 1 2 3 4 5 6 
#
# 1 0.015694 -0.003321 -0.001538 -0.000941 -0.009617 0.002945
# 2 -0.003321 0.010996 -0.000522 -0.004168 0.005447 -0.002928
# 3 -0.001538 -0.000522 0.018692 -0.011934 0.002978 -0.002045
# 4 -0.000941 -0.004168 -0.011934 0.050156 -0.005680 0.004806
# 5 -0.009617 0.005447 0.002978 -0.005680 0.040951 -0.009448
# 6 0.002945 -0.002928 -0.002045 0.004806 -0.009448 0.026022
#
#
# Mechanical properties :
#
#
# Convention : Reuss Voigt Hill
#
# Bulk Modulus (GPa) = 28.88674 37.04183 32.96428
# Shear Modulus (GPa) = 27.05445 34.00275 30.52860
#
# Velocity S-wave (km/s) = 3.35023 3.75588 3.55884
# Velocity P-wave (km/s) = 5.19130 5.84605 5.52838
#
# Compressibility (1/GPa) = 0.03461796
#
# Stress axis : x y z
#
# Youngs Moduli (GPa) = 63.72026 90.94516 53.50003
#
# Poissons Ratio (x) = 0.30202 0.08230
# Poissons Ratio (y) = 0.21161 0.02794
# Poissons Ratio (z) = 0.09802 0.04750
#
# Static dielectric constant tensor:
#      x y z
#    x 1.964660 -0.060460 0.024080 
#    y -0.060460 1.982120 -0.102900 
#    z 0.024080 -0.102900 2.192860 
# 
# From -- ./inp_files/426183.got.cif
#   From: 2010.05.17/outbox.cif.g08.bks.cpg/sg2_214_cif.got.tgz:426183.got - 2010.06.03 11:33:40.
