data_PCOD9102037
_publ_section_title
;
Structure prediction by ZEFSAII (Michael W. Deem and Ramdas Pophale) SiO2 
 PCOD9102037
Probable space group: P -1
;
_chemical_formula_sum "Si O2"
_cell_formula_units_Z 14
_cell_length_a 15.169398
_cell_length_b 10.017730
_cell_length_c 19.198696
_cell_angle_alpha 35.654633
_cell_angle_beta 159.953848
_cell_angle_gamma 146.216979
_cell_volume 548.307016
_symmetry_space_group_name_H-M "P -1"
_symmetry_group_IT_number 2
_symmetry_cell_setting 'triclinic'
loop_
_space_group_symop_operation_xyz
x,y,z
-x,-y,-z
loop_
_atom_site_type_symbol
_atom_site_label
_atom_site_fract_x
_atom_site_fract_y
_atom_site_fract_z
Si Si1 0.412966 0.131276 0.273356
Si Si2 0.821698 0.632169 0.350552
Si Si3 0.220671 0.903209 0.954446
Si Si4 0.473908 0.863113 0.298456
Si Si5 0.048142 0.365119 0.248309
Si Si6 0.118517 0.292671 0.478199
Si Si7 0.317250 0.237084 0.301090
O O1 0.538576 0.419529 0.240345
O O2 0.215614 0.124983 0.195965
O O3 0.415291 0.049635 0.229832
O O4 0.581539 0.968681 0.500439
O O5 0.943658 0.693964 0.492388
O O6 0.000000 0.500000 0.500000
O O7 0.789379 0.844804 0.189568
O O8 0.218847 0.752805 0.946627
O O9 0.936796 0.758697 0.843865
O O10 0.442247 0.929773 0.166813
O O11 0.238083 0.614822 0.250943
O O12 0.755241 0.802654 0.540052
O O13 0.988341 0.386939 0.275770
O O14 0.430784 0.503126 0.616805
O O15 0.000000 0.000000 0.500000
#
# Coordination Sequence:
#
# PCOD9102037 Si02
#       7
#     2   2   2   2   2   2   2
#     4  10  20  38  61  92 128 175 211 259 322 382
#     4  11  22  39  65  98 134 169 215 268 323 383
#     4  12  23  40  66  98 129 171 220 269 320 385
#     4  11  23  39  68  95 128 172 219 268 325 385
#     4  11  21  42  63  93 127 170 218 271 321 386
#     4  11  22  39  69  95 124 176 218 260 333 387
#     4  10  20  38  65  91 130 165 220 267 310 391
#
# _framework density 25.533138000000001
#
# number of rings (size 3 to 8) (size 9 to 14) (size 15 to 20)
#    0.000    1.143    5.714    1.286    0.000    1.143 
#    0.000    0.714    6.286    0.000    0.000    0.000 
#    0.000    0.000    0.000    0.000    0.000    0.000 
#
# Total GULP energy -78105.913684 kJ/mol
# GULP energy per Si atom -5578.993835 kJ/mol
# Density = 2.547502 g / cm^3
# Si number density = 25.533138 Si / 1000 Ang^3
#
#
#
# Elastic Constant Matrix: (Units=GPa)
#
#
# Indices 1 2 3 4 5 6 
#
# 1 163.9647 52.5629 68.8089 -5.3299 -49.1089 -29.3327
# 2 52.5629 122.4892 34.3086 -12.4460 -14.0405 -8.1225
# 3 68.8089 34.3086 116.6100 -3.1263 -37.5994 -7.5040
# 4 -5.3299 -12.4460 -3.1263 21.7504 0.0086 -12.3604
# 5 -49.1089 -14.0405 -37.5994 0.0086 49.3758 7.5177
# 6 -29.3327 -8.1225 -7.5040 -12.3604 7.5177 54.8886
#
#
#
# Elastic Compliance Matrix: (Units=1/GPa)
#
#
# Indices 1 2 3 4 5 6 
#
# 1 0.011561 -0.002445 -0.003226 0.003938 0.007550 0.005228
# 2 -0.002445 0.010249 -0.001642 0.005847 -0.000988 0.001437
# 3 -0.003226 -0.001642 0.012915 -0.000555 0.006341 -0.001195
# 4 0.003938 0.005847 -0.000555 0.059216 0.002733 0.015855
# 5 0.007550 -0.000988 0.006341 0.002733 0.032163 0.000966
# 6 0.005228 0.001437 -0.001195 0.015855 0.000966 0.024500
#
#
# Mechanical properties :
#
#
# Convention : Reuss Voigt Hill
#
# Bulk Modulus (GPa) = 49.75294 79.38052 64.56673
# Shear Modulus (GPa) = 29.08143 41.69517 35.38830
#
# Velocity S-wave (km/s) = 3.37852 4.04540 3.72691
# Velocity P-wave (km/s) = 5.89467 7.27854 6.62285
#
# Compressibility (1/GPa) = 0.02009931
#
# Stress axis : x y z
#
# Youngs Moduli (GPa) = 86.49538 97.56672 77.42799
#
# Poissons Ratio (x) = 0.23858 0.24980
# Poissons Ratio (y) = 0.21151 0.12712
# Poissons Ratio (z) = 0.27905 0.16019
#
# Static dielectric constant tensor:
#      x y z
#    x 2.127380 0.023300 0.048560 
#    y 0.023300 2.060660 0.085460 
#    z 0.048560 0.085460 2.086960 
# 
# From -- ./inp_files/600039.got.cif
#   From: 2010.05.17/outbox.cif.g08.bks.cpg/sg2_301_cif.got.tgz:600039.got - 2010.06.03 11:33:40.
