data_PCOD9102844
_publ_section_title
;
Structure prediction by ZEFSAII (Michael W. Deem and Ramdas Pophale) SiO2 
 PCOD9102844
Probable space group: P -1
;
_chemical_formula_sum "Si O2"
_cell_formula_units_Z 16
_cell_length_a 16.622738
_cell_length_b 9.463774
_cell_length_c 12.044135
_cell_angle_alpha 121.771771
_cell_angle_beta 154.873296
_cell_angle_gamma 72.740536
_cell_volume 592.869939
_symmetry_space_group_name_H-M "P -1"
_symmetry_group_IT_number 2
_symmetry_cell_setting 'triclinic'
loop_
_space_group_symop_operation_xyz
x,y,z
-x,-y,-z
loop_
_atom_site_type_symbol
_atom_site_label
_atom_site_fract_x
_atom_site_fract_y
_atom_site_fract_z
Si Si1 0.112361 0.716034 0.267822
Si Si2 0.039330 0.215776 0.644948
Si Si3 0.575240 0.398859 0.640419
Si Si4 0.709970 0.258318 0.121505
Si Si5 0.538174 0.210579 0.125774
Si Si6 0.344417 0.930975 0.386432
Si Si7 0.561224 0.509604 0.951273
Si Si8 0.166168 0.172593 0.179992
O O1 0.043138 0.761473 0.321903
O O2 0.348335 0.730443 0.589608
O O3 0.039988 0.824092 0.132629
O O4 0.000000 0.500000 0.000000
O O5 0.905192 0.219070 0.370267
O O6 0.266798 0.418714 0.011503
O O7 0.000000 0.000000 0.500000
O O8 0.500000 0.500000 0.500000
O O9 0.340981 0.234238 0.323380
O O10 0.706222 0.283244 0.740166
O O11 0.680465 0.299836 0.229968
O O12 0.493905 0.070377 0.729478
O O13 0.721029 0.419600 0.120250
O O14 0.363312 0.275234 0.907838
O O15 0.500000 0.000000 0.000000
O O16 0.153827 0.978968 0.134019
O O17 0.500000 0.000000 0.500000
O O18 0.329751 0.354682 0.538797
O O19 0.500000 0.500000 0.000000
#
# Coordination Sequence:
#
# PCOD9102844 Si02
#       8
#     2   2   2   2   2   2   2   2
#     4  11  22  40  64  92 127 163 208 263 311 373
#     4  11  24  40  62  97 130 164 208 260 320 373
#     4  11  21  38  65  93 123 164 211 260 310 382
#     4   9  20  38  60  83 121 165 199 256 309 374
#     4  10  21  36  59  91 120 159 207 257 312 371
#     4   9  20  37  60  86 120 162 207 250 311 365
#     4   9  18  37  60  80 120 166 204 247 318 374
#     4  10  20  38  64  90 123 165 209 262 314 371
#
# _framework density 26.987369999999999
#
# number of rings (size 3 to 8) (size 9 to 14) (size 15 to 20)
#    0.000    2.000    2.500    0.750    1.750    4.000 
#    2.250    5.625    0.000    3.000    0.000    0.000 
#    0.000    0.000    0.000    0.000    0.000    0.000 
#
# Total GULP energy -89079.798704 kJ/mol
# GULP energy per Si atom -5567.487419 kJ/mol
# Density = 2.692595 g / cm^3
# Si number density = 26.987370 Si / 1000 Ang^3
#
#
#
# Elastic Constant Matrix: (Units=GPa)
#
#
# Indices 1 2 3 4 5 6 
#
# 1 47.2529 47.3013 -13.5679 -15.9839 -12.5968 -1.0823
# 2 47.3013 349.2799 98.6506 -41.6104 -19.9558 4.8130
# 3 -13.5679 98.6506 119.3102 -39.3609 -8.7229 -2.2006
# 4 -15.9839 -41.6104 -39.3609 58.0999 4.8794 -7.3797
# 5 -12.5968 -19.9558 -8.7229 4.8794 28.9342 -8.3444
# 6 -1.0823 4.8130 -2.2006 -7.3797 -8.3444 53.3366
#
#
#
# Elastic Compliance Matrix: (Units=1/GPa)
#
#
# Indices 1 2 3 4 5 6 
#
# 1 0.050126 -0.009452 0.022321 0.021528 0.021015 0.009057
# 2 -0.009452 0.005622 -0.007042 -0.003381 -0.002315 -0.001820
# 3 0.022321 -0.007042 0.023126 0.016626 0.010768 0.006027
# 4 0.021528 -0.003381 0.016626 0.032164 0.008717 0.007242
# 5 0.021015 -0.002315 0.010768 0.008717 0.046654 0.009585
# 6 0.009057 -0.001820 0.006027 0.007242 0.009585 0.021847
#
#
# Mechanical properties :
#
#
# Convention : Reuss Voigt Hill
#
# Bulk Modulus (GPa) = 11.04629 86.73457 48.89043
# Shear Modulus (GPa) = 25.24505 53.63805 39.44155
#
# Velocity S-wave (km/s) = 3.06181 4.46300 3.82708
# Velocity P-wave (km/s) = 4.07451 7.66594 6.13874
#
# Compressibility (1/GPa) = 0.09052814
#
# Stress axis : x y z
#
# Youngs Moduli (GPa) = 19.94990 177.87480 43.24219
#
# Poissons Ratio (x) = 1.68131 -0.96523
# Poissons Ratio (y) = 0.18857 0.30450
# Poissons Ratio (z) = -0.44531 1.25253
#
# Static dielectric constant tensor:
#      x y z
#    x 2.024300 -0.218560 0.234340 
#    y -0.218560 2.346700 -0.184520 
#    z 0.234340 -0.184520 2.352850 
# 
# From -- ./inp_files/465141.got.cif
#   From: 2010.05.17/outbox.cif.g08.bks.cpg/sg2_233_cif.got.tgz:465141.got - 2010.06.03 11:33:40.
