data_PCOD9102822
_publ_section_title
;
Structure prediction by ZEFSAII (Michael W. Deem and Ramdas Pophale) SiO2 
 PCOD9102822
Probable space group: P -1
;
_chemical_formula_sum "Si O2"
_cell_formula_units_Z 16
_cell_length_a 12.933196
_cell_length_b 21.557455
_cell_length_c 9.119967
_cell_angle_alpha 36.138734
_cell_angle_beta 34.301835
_cell_angle_gamma 36.264297
_cell_volume 767.422556
_symmetry_space_group_name_H-M "P -1"
_symmetry_group_IT_number 2
_symmetry_cell_setting 'triclinic'
loop_
_space_group_symop_operation_xyz
x,y,z
-x,-y,-z
loop_
_atom_site_type_symbol
_atom_site_label
_atom_site_fract_x
_atom_site_fract_y
_atom_site_fract_z
Si Si1 0.304701 0.537207 0.551947
Si Si2 0.272044 0.865543 0.553485
Si Si3 0.163216 0.977982 0.163780
Si Si4 0.384146 0.143424 0.677460
Si Si5 0.156833 0.352111 0.152136
Si Si6 0.647579 0.384516 0.966620
Si Si7 0.518184 0.120534 0.250799
Si Si8 0.065843 0.389573 0.528066
O O1 0.500000 0.500000 0.500000
O O2 0.371481 0.587558 0.236279
O O3 0.065956 0.626913 0.687470
O O4 0.258693 0.422971 0.806772
O O5 0.452910 0.903094 0.297490
O O6 0.072683 0.942612 0.732571
O O7 0.196905 0.891353 0.425534
O O8 0.364479 0.731533 0.744942
O O9 0.265193 0.065460 0.924567
O O10 0.281445 0.903262 0.029271
O O11 0.512112 0.149375 0.373159
O O12 0.228946 0.275577 0.630635
O O13 0.319044 0.220035 0.222837
O O14 0.131127 0.398493 0.264864
O O15 0.872320 0.364250 0.781358
O O16 0.500000 0.500000 0.000000
O O17 0.500000 0.000000 0.500000
O O18 0.000000 0.500000 0.500000
#
# Coordination Sequence:
#
# PCOD9102822 Si02
#       8
#     2   2   2   2   2   2   2   2
#     4  10  23  40  63  86 123 163 202 254 307 362
#     4  11  23  39  64  87 126 161 198 256 305 364
#     4  10  22  42  61  89 125 159 205 250 303 363
#     4  10  20  40  63  89 118 159 204 246 306 362
#     4   9  21  42  61  90 124 159 205 255 306 362
#     4  11  24  39  60  94 124 158 209 254 309 366
#     4   9  20  38  67  89 119 158 206 255 302 360
#     4  10  20  38  64  89 123 160 200 252 307 370
#
# _framework density 20.849011000000001
#
# number of rings (size 3 to 8) (size 9 to 14) (size 15 to 20)
#    0.000    2.000    1.250    1.125    8.750    0.500 
#    2.250    2.500    0.000    0.000    0.000    0.000 
#    0.000    0.000    0.000    0.000    0.000    0.000 
#
# Total GULP energy -89164.582966 kJ/mol
# GULP energy per Si atom -5572.786435 kJ/mol
# Density = 2.080156 g / cm^3
# Si number density = 20.849011 Si / 1000 Ang^3
#
#
#
# Elastic Constant Matrix: (Units=GPa)
#
#
# Indices 1 2 3 4 5 6 
#
# 1 66.1487 30.0598 13.0572 -4.6225 -11.2216 -28.3254
# 2 30.0598 141.7168 39.1423 -10.0697 14.1381 -17.9236
# 3 13.0572 39.1423 83.3336 -15.3200 10.5973 -9.3659
# 4 -4.6225 -10.0697 -15.3200 28.4286 0.2868 2.2286
# 5 -11.2216 14.1381 10.5973 0.2868 19.8008 -0.1884
# 6 -28.3254 -17.9236 -9.3659 2.2286 -0.1884 33.7141
#
#
#
# Elastic Compliance Matrix: (Units=1/GPa)
#
#
# Indices 1 2 3 4 5 6 
#
# 1 0.032367 -0.005488 -0.002972 -0.000376 0.024082 0.023610
# 2 -0.005488 0.009845 -0.002397 0.001407 -0.008878 -0.000185
# 3 -0.002972 -0.002397 0.016075 0.007405 -0.008681 0.000156
# 4 -0.000376 0.001407 0.007405 0.039675 -0.005757 -0.000166
# 5 0.024082 -0.008878 -0.008681 -0.005757 0.075352 0.013903
# 6 0.023610 -0.000185 0.000156 -0.000166 0.013903 0.049531
#
#
# Mechanical properties :
#
#
# Convention : Reuss Voigt Hill
#
# Bulk Modulus (GPa) = 27.34325 50.63530 38.98928
# Shear Modulus (GPa) = 19.47427 30.31802 24.89615
#
# Velocity S-wave (km/s) = 3.05956 3.81750 3.45935
# Velocity P-wave (km/s) = 5.06207 6.61592 5.89046
#
# Compressibility (1/GPa) = 0.03657209
#
# Stress axis : x y z
#
# Youngs Moduli (GPa) = 30.89580 101.57684 62.20975
#
# Poissons Ratio (x) = 0.55743 0.18488
# Poissons Ratio (y) = 0.16955 0.14914
# Poissons Ratio (z) = 0.09182 0.24352
#
# Static dielectric constant tensor:
#      x y z
#    x 1.766530 -0.013380 0.022140 
#    y -0.013380 1.708400 0.013170 
#    z 0.022140 0.013170 1.803990 
# 
# From -- ./inp_files/282682.got.cif
#   From: 2010.05.17/outbox.cif.g08.bks.cpg/sg2_142_cif.got.tgz:282682.got - 2010.06.03 11:33:40.
