data_PCOD9102275
_publ_section_title
;
Structure prediction by ZEFSAII (Michael W. Deem and Ramdas Pophale) SiO2 
 PCOD9102275
Probable space group: P -1
;
_chemical_formula_sum "Si O2"
_cell_formula_units_Z 15
_cell_length_a 8.058014
_cell_length_b 14.376874
_cell_length_c 14.808103
_cell_angle_alpha 150.841036
_cell_angle_beta 63.746727
_cell_angle_gamma 94.890470
_cell_volume 543.376622
_symmetry_space_group_name_H-M "P -1"
_symmetry_group_IT_number 2
_symmetry_cell_setting 'triclinic'
loop_
_space_group_symop_operation_xyz
x,y,z
-x,-y,-z
loop_
_atom_site_type_symbol
_atom_site_label
_atom_site_fract_x
_atom_site_fract_y
_atom_site_fract_z
Si Si1 0.106626 0.184611 0.294903
Si Si2 0.500508 0.284937 0.853045
Si Si3 0.240902 0.059378 0.343216
Si Si4 0.080354 0.254940 0.166465
Si Si5 0.023377 0.530972 0.914832
Si Si6 0.180503 0.941493 0.577234
Si Si7 0.500000 0.500000 0.500000
Si Si8 0.358512 0.777279 0.575967
O O1 0.303749 0.027944 0.196270
O O2 0.968308 0.485394 0.598492
O O3 0.217909 0.095849 0.092531
O O4 0.898014 0.168090 0.331205
O O5 0.249265 0.345973 0.950837
O O6 0.583409 0.206366 0.868851
O O7 0.715902 0.050419 0.535361
O O8 0.500000 0.500000 0.000000
O O9 0.962682 0.154985 0.489727
O O10 0.215478 0.274457 0.586985
O O11 0.799345 0.358710 0.320626
O O12 0.254837 0.051127 0.872932
O O13 0.029178 0.752873 0.084065
O O14 0.000000 0.500000 0.000000
O O15 0.410880 0.766044 0.445968
O O16 0.503030 0.572405 0.450789
#
# Coordination Sequence:
#
# PCOD9102275 Si02
#       8
#     2   2   2   2   2   2   1   2
#     4   9  20  39  65  89 120 164 196 250 306 362
#     4  12  24  43  63  91 128 164 208 259 311 369
#     4  11  23  43  62  93 128 160 212 253 308 376
#     4  10  20  42  63  89 128 158 201 254 307 356
#     4  12  24  41  66  88 125 169 204 259 312 363
#     4  11  23  43  63  93 126 165 207 260 309 368
#     4  10  20  38  62  90 120 160 200 250 294 366
#     4  10  22  42  61  89 127 157 205 251 306 361
#
# _framework density 27.605165
#
# number of rings (size 3 to 8) (size 9 to 14) (size 15 to 20)
#    0.000    1.333    2.667    4.000    0.000    1.067 
#    9.600   10.667    0.000    0.000    0.000    0.000 
#    0.000    0.000    0.000    0.000    0.000    0.000 
#
# Total GULP energy -83781.716426 kJ/mol
# GULP energy per Si atom -5585.447762 kJ/mol
# Density = 2.754233 g / cm^3
# Si number density = 27.605165 Si / 1000 Ang^3
#
#
#
# Elastic Constant Matrix: (Units=GPa)
#
#
# Indices 1 2 3 4 5 6 
#
# 1 92.0877 37.6757 26.8446 -5.0277 10.6824 -29.0263
# 2 37.6757 190.3630 15.7480 14.0346 -3.7172 -59.8538
# 3 26.8446 15.7480 81.6493 -4.7388 24.6336 0.8827
# 4 -5.0277 14.0346 -4.7388 36.2351 7.7142 -8.8086
# 5 10.6824 -3.7172 24.6336 7.7142 44.7603 1.1762
# 6 -29.0263 -59.8538 0.8827 -8.8086 1.1762 63.8509
#
#
#
# Elastic Compliance Matrix: (Units=1/GPa)
#
#
# Indices 1 2 3 4 5 6 
#
# 1 0.014926 -0.000908 -0.003850 0.004029 -0.002386 0.006587
# 2 -0.000908 0.007926 -0.002122 -0.002332 0.002269 0.006683
# 3 -0.003850 -0.002122 0.016917 0.003636 -0.009108 -0.003304
# 4 0.004029 -0.002332 0.003636 0.032451 -0.008860 0.004235
# 5 -0.002386 0.002269 -0.009108 -0.008860 0.029654 -0.000600
# 6 0.006587 0.006683 -0.003304 0.004235 -0.000600 0.025561
#
#
# Mechanical properties :
#
#
# Convention : Reuss Voigt Hill
#
# Bulk Modulus (GPa) = 38.44887 58.29297 48.37092
# Shear Modulus (GPa) = 33.36336 47.89139 40.62737
#
# Velocity S-wave (km/s) = 3.48025 4.16970 3.84048
# Velocity P-wave (km/s) = 5.48707 6.65916 6.10132
#
# Compressibility (1/GPa) = 0.02600857
#
# Stress axis : x y z
#
# Youngs Moduli (GPa) = 66.99738 126.16984 59.11212
#
# Poissons Ratio (x) = 0.11458 0.22756
# Poissons Ratio (y) = 0.06085 0.12546
# Poissons Ratio (z) = 0.25791 0.26777
#
# Static dielectric constant tensor:
#      x y z
#    x 2.083890 -0.002370 -0.010940 
#    y -0.002370 2.211690 -0.000670 
#    z -0.010940 -0.000670 2.354300 
# 
# From -- ./inp_files/315210.got.cif
#   From: 2010.05.17/outbox.cif.g08.bks.cpg/sg2_158_cif.got.tgz:315210.got - 2010.06.03 11:33:40.
