data_PCOD9102205
_publ_section_title
;
Structure prediction by ZEFSAII (Michael W. Deem and Ramdas Pophale) SiO2 
 PCOD9102205
Probable space group: P -1
;
_chemical_formula_sum "Si O2"
_cell_formula_units_Z 16
_cell_length_a 21.328425
_cell_length_b 7.923423
_cell_length_c 11.285489
_cell_angle_alpha 77.748089
_cell_angle_beta 43.811749
_cell_angle_gamma 40.954379
_cell_volume 588.338224
_symmetry_space_group_name_H-M "P -1"
_symmetry_group_IT_number 2
_symmetry_cell_setting 'triclinic'
loop_
_space_group_symop_operation_xyz
x,y,z
-x,-y,-z
loop_
_atom_site_type_symbol
_atom_site_label
_atom_site_fract_x
_atom_site_fract_y
_atom_site_fract_z
Si Si1 0.471691 0.346833 0.468219
Si Si2 0.227137 0.604423 0.162119
Si Si3 0.686484 0.303906 0.746496
Si Si4 0.139359 0.549498 0.485203
Si Si5 0.691124 0.595770 0.505207
Si Si6 0.925379 0.700230 0.352093
Si Si7 0.524594 0.296996 0.662464
Si Si8 0.016448 0.266692 0.971384
O O1 0.460570 0.199312 0.422275
O O2 0.578469 0.144896 0.478457
O O3 0.567867 0.353950 0.277511
O O4 0.241461 0.803876 0.737278
O O5 0.298198 0.607377 0.171302
O O6 0.232095 0.410821 0.248358
O O7 0.361897 0.432467 0.897835
O O8 0.007072 0.038331 0.363710
O O9 0.679421 0.433148 0.618016
O O10 0.878330 0.864614 0.516951
O O11 0.500000 0.500000 0.000000
O O12 0.303140 0.293345 0.401758
O O13 0.003217 0.614712 0.678712
O O14 0.880404 0.360713 0.213815
O O15 0.033279 0.631743 0.116837
O O16 0.708712 0.024565 0.538872
O O17 0.000000 0.500000 0.000000
#
# Coordination Sequence:
#
# PCOD9102205 Si02
#       8
#     2   2   2   2   2   2   2   2
#     4  10  21  36  63  88 120 163 210 248 304 384
#     4  10  21  40  62  86 121 164 207 251 313 373
#     4  11  21  40  64  91 122 165 216 251 306 377
#     4  10  23  38  61  91 123 158 206 261 309 370
#     4  11  20  38  62  93 121 165 207 250 317 370
#     4  11  22  40  62  92 123 161 209 258 315 359
#     4  10  20  38  62  88 120 164 206 248 312 370
#     4  11  21  36  60  93 124 159 205 259 313 362
#
# _framework density 27.195242
#
# number of rings (size 3 to 8) (size 9 to 14) (size 15 to 20)
#    0.000    1.500    5.000    1.125    0.000    1.000 
#    0.000    0.625    0.000    0.000    0.000    0.000 
#    0.000    0.000    0.000    0.000    0.000    0.000 
#
# Total GULP energy -89265.935841 kJ/mol
# GULP energy per Si atom -5579.120990 kJ/mol
# Density = 2.713334 g / cm^3
# Si number density = 27.195242 Si / 1000 Ang^3
#
#
#
# Elastic Constant Matrix: (Units=GPa)
#
#
# Indices 1 2 3 4 5 6 
#
# 1 110.0631 17.9333 -2.1844 -12.5985 -6.1276 0.6189
# 2 17.9333 56.5528 50.4615 -16.5713 1.7441 1.7763
# 3 -2.1844 50.4615 145.4857 -48.4924 -16.3317 -1.1534
# 4 -12.5985 -16.5713 -48.4924 41.0394 -0.2055 -1.8073
# 5 -6.1276 1.7441 -16.3317 -0.2055 32.7703 -3.2490
# 6 0.6189 1.7763 -1.1534 -1.8073 -3.2490 36.1244
#
#
#
# Elastic Compliance Matrix: (Units=1/GPa)
#
#
# Indices 1 2 3 4 5 6 
#
# 1 0.011434 -0.006619 0.005598 0.007531 0.005444 0.001175
# 2 -0.006619 0.030943 -0.014167 -0.006466 -0.010294 -0.003110
# 3 0.005598 -0.014167 0.019783 0.019580 0.012110 0.003301
# 4 0.007531 -0.006466 0.019580 0.047454 0.012233 0.004288
# 5 0.005444 -0.010294 0.012110 0.012233 0.038678 0.004890
# 6 0.001175 -0.003110 0.003301 0.004288 0.004890 0.028575
#
#
# Mechanical properties :
#
#
# Convention : Reuss Voigt Hill
#
# Bulk Modulus (GPa) = 31.46229 49.39137 40.42683
# Shear Modulus (GPa) = 22.95277 38.37956 30.66616
#
# Velocity S-wave (km/s) = 2.90832 3.76075 3.36166
# Velocity P-wave (km/s) = 4.78246 6.08760 5.47406
#
# Compressibility (1/GPa) = 0.03178408
#
# Stress axis : x y z
#
# Youngs Moduli (GPa) = 87.46041 32.31709 50.54718
#
# Poissons Ratio (x) = 0.21390 -0.28296
# Poissons Ratio (y) = 0.57888 0.71613
# Poissons Ratio (z) = -0.48960 0.45785
#
# Static dielectric constant tensor:
#      x y z
#    x 2.140460 0.069930 0.067360 
#    y 0.069930 2.333850 0.018930 
#    z 0.067360 0.018930 2.222880 
# 
# From -- ./inp_files/474406.got.cif
#   From: 2010.05.17/outbox.cif.g08.bks.cpg/sg2_238_cif.got.tgz:474406.got - 2010.06.03 11:33:40.
