data_PCOD9102917
_publ_section_title
;
Structure prediction by ZEFSAII (Michael W. Deem and Ramdas Pophale) SiO2 
 PCOD9102917
Probable space group: P -1
;
_chemical_formula_sum "Si O2"
_cell_formula_units_Z 16
_cell_length_a 18.413967
_cell_length_b 7.627932
_cell_length_c 10.486719
_cell_angle_alpha 94.307880
_cell_angle_beta 33.494597
_cell_angle_gamma 74.075828
_cell_volume 640.793620
_symmetry_space_group_name_H-M "P -1"
_symmetry_group_IT_number 2
_symmetry_cell_setting 'triclinic'
loop_
_space_group_symop_operation_xyz
x,y,z
-x,-y,-z
loop_
_atom_site_type_symbol
_atom_site_label
_atom_site_fract_x
_atom_site_fract_y
_atom_site_fract_z
Si Si1 0.698413 0.298645 0.211013
Si Si2 0.043817 0.513311 0.080119
Si Si3 0.156432 0.607980 0.489695
Si Si4 0.631437 0.522858 0.573045
Si Si5 0.605776 0.068297 0.925136
Si Si6 0.360034 0.034477 0.618583
Si Si7 0.511859 0.706409 0.142999
Si Si8 0.043507 0.093686 0.620842
O O1 0.500000 0.500000 0.500000
O O2 0.731858 0.380414 0.296099
O O3 0.715248 0.078193 0.207156
O O4 0.840708 0.247410 0.899510
O O5 0.233585 0.297113 0.799245
O O6 0.000000 0.500000 0.000000
O O7 0.966850 0.447708 0.297652
O O8 0.964209 0.767951 0.239400
O O9 0.246131 0.566323 0.491826
O O10 0.087672 0.852323 0.559209
O O11 0.296692 0.418599 0.178601
O O12 0.502870 0.470701 0.782641
O O13 0.511418 0.787368 0.776871
O O14 0.589306 0.217638 0.838086
O O15 0.797671 0.940177 0.682096
O O16 0.500000 0.000000 0.000000
O O17 0.430694 0.901572 0.374810
O O18 0.500000 0.000000 0.500000
#
# Coordination Sequence:
#
# PCOD9102917 Si02
#       8
#     2   2   2   2   2   2   2   2
#     4  11  25  43  66  92 133 188 237 278 344 410
#     4  12  26  40  65 105 140 178 229 286 344 417
#     4  11  21  41  68 103 133 175 226 286 353 410
#     4  10  20  38  64  92 133 172 221 283 346 406
#     4  11  21  37  64 103 136 171 219 286 348 409
#     4  11  25  45  68  94 136 183 231 288 348 415
#     4  10  20  39  65  91 132 175 219 279 349 410
#     4  12  22  40  68  96 141 171 229 280 343 409
#
# _framework density 24.969035999999999
#
# number of rings (size 3 to 8) (size 9 to 14) (size 15 to 20)
#    0.000    1.000    3.750    4.500    1.750    3.000 
#    0.000    1.250    2.750    0.000    0.000    0.000 
#    0.000    0.000    0.000    0.000    0.000    0.000 
#
# Total GULP energy -89161.453504 kJ/mol
# GULP energy per Si atom -5572.590844 kJ/mol
# Density = 2.491221 g / cm^3
# Si number density = 24.969036 Si / 1000 Ang^3
#
#
#
# Elastic Constant Matrix: (Units=GPa)
#
#
# Indices 1 2 3 4 5 6 
#
# 1 26.0796 -14.8902 8.3044 0.5350 -8.9957 -1.1736
# 2 -14.8902 93.6794 23.2476 -8.6932 -3.4309 20.2529
# 3 8.3044 23.2476 152.0888 -9.1872 -17.8306 9.8901
# 4 0.5350 -8.6932 -9.1872 31.2863 -2.8761 -7.5170
# 5 -8.9957 -3.4309 -17.8306 -2.8761 32.3265 8.2720
# 6 -1.1736 20.2529 9.8901 -7.5170 8.2720 28.7965
#
#
#
# Elastic Compliance Matrix: (Units=1/GPa)
#
#
# Indices 1 2 3 4 5 6 
#
# 1 0.050813 0.011387 -0.001823 0.000931 0.016970 -0.009943
# 2 0.011387 0.015794 -0.001309 0.001629 0.007304 -0.011867
# 3 -0.001823 -0.001309 0.007662 0.001696 0.004398 -0.002606
# 4 0.000931 0.001629 0.001696 0.034733 0.002774 0.006580
# 5 0.016970 0.007304 0.004398 0.002774 0.043652 -0.017771
# 6 -0.009943 -0.011867 -0.002606 0.006580 -0.017771 0.050385
#
#
# Mechanical properties :
#
#
# Convention : Reuss Voigt Hill
#
# Bulk Modulus (GPa) = 11.01592 33.90792 22.46192
# Shear Modulus (GPa) = 23.06386 35.49425 29.27906
#
# Velocity S-wave (km/s) = 3.04254 3.77441 3.42806
# Velocity P-wave (km/s) = 4.09440 5.71002 4.96832
#
# Compressibility (1/GPa) = 0.09077772
#
# Stress axis : x y z
#
# Youngs Moduli (GPa) = 19.68011 63.31582 130.51036
#
# Poissons Ratio (x) = -0.72095 0.23787
# Poissons Ratio (y) = -0.22409 0.17090
# Poissons Ratio (z) = 0.03587 0.08291
#
# Static dielectric constant tensor:
#      x y z
#    x 1.990860 0.015800 -0.062630 
#    y 0.015800 2.094780 -0.113020 
#    z -0.062630 -0.113020 2.152640 
# 
# From -- ./inp_files/469429.got.cif
#   From: 2010.05.17/outbox.cif.g08.bks.cpg/sg2_235_cif.got.tgz:469429.got - 2010.06.03 11:33:40.
