data_PCOD9102669
_publ_section_title
;
Structure prediction by ZEFSAII (Michael W. Deem and Ramdas Pophale) SiO2 
 PCOD9102669
Probable space group: P -1
;
_chemical_formula_sum "Si O2"
_cell_formula_units_Z 14
_cell_length_a 7.367875
_cell_length_b 14.288671
_cell_length_c 12.184343
_cell_angle_alpha 31.746138
_cell_angle_beta 113.979815
_cell_angle_gamma 118.449502
_cell_volume 593.411033
_symmetry_space_group_name_H-M "P -1"
_symmetry_group_IT_number 2
_symmetry_cell_setting 'triclinic'
loop_
_space_group_symop_operation_xyz
x,y,z
-x,-y,-z
loop_
_atom_site_type_symbol
_atom_site_label
_atom_site_fract_x
_atom_site_fract_y
_atom_site_fract_z
Si Si1 0.949644 0.192556 0.220060
Si Si2 0.540642 0.738077 0.203740
Si Si3 0.736000 0.993815 0.569499
Si Si4 0.907923 0.439400 0.779895
Si Si5 0.801160 0.181768 0.612750
Si Si6 0.397212 0.081932 0.728126
Si Si7 0.947050 0.689520 0.258872
O O1 0.863573 0.156312 0.357793
O O2 0.807297 0.015913 0.292158
O O3 0.914473 0.370490 0.973773
O O4 0.183240 0.178173 0.280328
O O5 0.323574 0.581396 0.299051
O O6 0.615199 0.801808 0.281880
O O7 0.714274 0.681420 0.234053
O O8 0.483696 0.912475 0.960017
O O9 0.784574 0.021030 0.682790
O O10 0.500000 0.000000 0.500000
O O11 0.060891 0.636906 0.594988
O O12 0.985052 0.295118 0.865052
O O13 0.575341 0.196905 0.576176
O O14 0.912633 0.160777 0.774682
O O15 0.000000 0.500000 0.500000
#
# Coordination Sequence:
#
# PCOD9102669 Si02
#       7
#     2   2   2   2   2   2   2
#     4  10  23  42  64  89 117 160 207 253 304 366
#     4  10  21  38  62  90 129 166 199 251 297 374
#     4  11  23  42  66  86 117 159 208 259 303 358
#     4  10  23  41  59  93 127 157 204 245 312 366
#     4  11  22  39  60  91 125 157 203 253 303 362
#     4  10  20  38  63  95 121 160 210 246 311 359
#     4  10  22  38  58  92 130 164 198 242 306 366
#
# _framework density 23.592417999999999
#
# number of rings (size 3 to 8) (size 9 to 14) (size 15 to 20)
#    0.000    1.714    2.857    0.857    2.000    3.429 
#    5.143    0.714    0.000    0.000    0.000    0.000 
#    0.000    0.000    0.000    0.000    0.000    0.000 
#
# Total GULP energy -78264.528237 kJ/mol
# GULP energy per Si atom -5590.323446 kJ/mol
# Density = 2.353872 g / cm^3
# Si number density = 23.592418 Si / 1000 Ang^3
#
#
#
# Elastic Constant Matrix: (Units=GPa)
#
#
# Indices 1 2 3 4 5 6 
#
# 1 168.5463 22.4962 -1.6660 -6.8863 -1.3625 0.5539
# 2 22.4962 42.1853 7.7612 7.4689 5.2407 -3.3430
# 3 -1.6660 7.7612 55.4965 -3.6061 2.6956 1.7452
# 4 -6.8863 7.4689 -3.6061 25.2368 -0.2789 -15.5862
# 5 -1.3625 5.2407 2.6956 -0.2789 31.0006 -0.2488
# 6 0.5539 -3.3430 1.7452 -15.5862 -0.2488 35.6872
#
#
#
# Elastic Compliance Matrix: (Units=1/GPa)
#
#
# Indices 1 2 3 4 5 6 
#
# 1 0.006717 -0.004520 0.001011 0.004073 0.001018 0.001209
# 2 -0.004520 0.029563 -0.004747 -0.012104 -0.004911 -0.002249
# 3 0.001011 -0.004747 0.019042 0.004835 -0.000760 0.000715
# 4 0.004073 -0.012104 0.004835 0.060475 0.002550 0.024996
# 5 0.001018 -0.004911 -0.000760 0.002550 0.033229 0.000907
# 6 0.001209 -0.002249 0.000715 0.024996 0.000907 0.038680
#
#
# Mechanical properties :
#
#
# Convention : Reuss Voigt Hill
#
# Bulk Modulus (GPa) = 25.76646 35.93452 30.85049
# Shear Modulus (GPa) = 23.02500 34.22738 28.62619
#
# Velocity S-wave (km/s) = 3.12741 3.81304 3.48712
# Velocity P-wave (km/s) = 4.89756 5.88644 5.41462
#
# Compressibility (1/GPa) = 0.03881014
#
# Stress axis : x y z
#
# Youngs Moduli (GPa) = 148.87650 33.82555 52.51546
#
# Poissons Ratio (x) = 0.15288 -0.05309
# Poissons Ratio (y) = 0.67287 0.24931
# Poissons Ratio (z) = -0.15050 0.16058
#
# Static dielectric constant tensor:
#      x y z
#    x 1.907660 0.021810 -0.010000 
#    y 0.021810 1.948430 -0.035790 
#    z -0.010000 -0.035790 1.930410 
# 
# From -- ./inp_files/119246.got.cif
#   From: 2010.05.17/outbox.cif.g08.bks.cpg/sg2_60_cif.got.tgz:119246.got - 2010.06.03 11:33:40.
