data_PCOD9102887
_publ_section_title
;
Structure prediction by ZEFSAII (Michael W. Deem and Ramdas Pophale) SiO2 
 PCOD9102887
Probable space group: P -1
;
_chemical_formula_sum "Si O2"
_cell_formula_units_Z 16
_cell_length_a 7.991666
_cell_length_b 5.495119
_cell_length_c 14.705409
_cell_angle_alpha 73.640112
_cell_angle_beta 90.309686
_cell_angle_gamma 85.141424
_cell_volume 617.127427
_symmetry_space_group_name_H-M "P -1"
_symmetry_group_IT_number 2
_symmetry_cell_setting 'triclinic'
loop_
_space_group_symop_operation_xyz
x,y,z
-x,-y,-z
loop_
_atom_site_type_symbol
_atom_site_label
_atom_site_fract_x
_atom_site_fract_y
_atom_site_fract_z
Si Si1 0.120362 0.867612 0.437648
Si Si2 0.405409 0.004185 0.754467
Si Si3 0.135894 0.541385 0.190552
Si Si4 0.917071 0.738939 0.028921
Si Si5 0.298406 0.524269 0.605168
Si Si6 0.634850 0.703835 0.647737
Si Si7 0.372386 0.931443 0.083359
Si Si8 0.915594 0.148820 0.271219
O O1 0.267953 0.057308 0.408122
O O2 0.999361 0.894925 0.347303
O O3 0.199833 0.597716 0.503930
O O4 0.000000 0.000000 0.500000
O O5 0.343859 0.231233 0.661652
O O6 0.511904 0.102760 0.824692
O O7 0.529465 0.793992 0.727736
O O8 0.233907 0.888227 0.794479
O O9 0.228917 0.520743 0.291949
O O10 0.263465 0.686318 0.113412
O O11 0.950582 0.668736 0.143748
O O12 0.079266 0.255663 0.216914
O O13 0.000000 0.500000 0.000000
O O14 0.753505 0.818439 0.960465
O O15 0.000000 0.000000 0.000000
O O16 0.482705 0.632349 0.591427
O O17 0.180735 0.669781 0.669306
O O18 0.500000 0.000000 0.000000
#
# Coordination Sequence:
#
# PCOD9102887 Si02
#       8
#     2   2   2   2   2   2   2   2
#     4   9  19  39  62  96 132 177 215 271 330 404
#     4  11  23  40  63  96 130 174 222 284 340 411
#     4  10  21  43  65  89 130 174 225 277 346 419
#     4  10  23  43  67  98 134 180 232 295 358 430
#     4  10  20  38  64  91 133 172 216 271 337 399
#     4  10  20  39  65  95 130 174 225 269 339 409
#     4  11  25  44  71 103 135 178 236 293 360 428
#     4   9  22  40  63  92 128 172 223 271 331 414
#
# _framework density 25.926572
#
# number of rings (size 3 to 8) (size 9 to 14) (size 15 to 20)
#    0.000    2.000    1.250    1.125    1.750    3.000 
#    6.750    3.750    0.000    0.000    0.000    0.000 
#    0.000    0.000    0.000    0.000    0.000    0.000 
#
# Total GULP energy -89152.472215 kJ/mol
# GULP energy per Si atom -5572.029513 kJ/mol
# Density = 2.586756 g / cm^3
# Si number density = 25.926572 Si / 1000 Ang^3
#
#
#
# Elastic Constant Matrix: (Units=GPa)
#
#
# Indices 1 2 3 4 5 6 
#
# 1 181.2391 52.3881 59.4716 -2.9693 8.6017 20.3701
# 2 52.3881 70.5885 11.8563 -6.1234 2.3871 -13.8350
# 3 59.4716 11.8563 121.6719 -28.2507 35.2637 -5.8121
# 4 -2.9693 -6.1234 -28.2507 30.7318 -11.9073 8.0279
# 5 8.6017 2.3871 35.2637 -11.9073 51.6732 -4.3831
# 6 20.3701 -13.8350 -5.8121 8.0279 -4.3831 55.0104
#
#
#
# Elastic Compliance Matrix: (Units=1/GPa)
#
#
# Indices 1 2 3 4 5 6 
#
# 1 0.010330 -0.008221 -0.005801 -0.003982 0.001207 -0.005828
# 2 -0.008221 0.021696 0.003387 0.004411 -0.000234 0.008196
# 3 -0.005801 0.003387 0.015399 0.010922 -0.006973 0.002478
# 4 -0.003982 0.004411 0.010922 0.044966 0.003149 -0.002573
# 5 0.001207 -0.000234 -0.006973 0.003149 0.024669 0.000264
# 6 -0.005828 0.008196 0.002478 -0.002573 0.000264 0.023056
#
#
# Mechanical properties :
#
#
# Convention : Reuss Voigt Hill
#
# Bulk Modulus (GPa) = 38.23115 68.99241 53.61178
# Shear Modulus (GPa) = 29.39404 44.13531 36.76468
#
# Velocity S-wave (km/s) = 3.37076 4.13039 3.76976
# Velocity P-wave (km/s) = 5.47059 7.02960 6.29852
#
# Compressibility (1/GPa) = 0.02615668
#
# Stress axis : x y z
#
# Youngs Moduli (GPa) = 96.80746 46.09231 64.93808
#
# Poissons Ratio (x) = 0.37891 0.37670
# Poissons Ratio (y) = 0.79582 -0.21998
# Poissons Ratio (z) = 0.56157 -0.15614
#
# Static dielectric constant tensor:
#      x y z
#    x 1.166620 0.332700 0.382440 
#    y 0.332700 1.851260 -0.108340 
#    z 0.382440 -0.108340 1.922860 
# 
# From -- ./inp_files/553260.got.cif
#   From: 2010.05.17/outbox.cif.g08.bks.cpg/sg2_277_cif.got.tgz:553260.got - 2010.06.03 11:33:40.
