data_PCOD9102299
_publ_section_title
;
Structure prediction by ZEFSAII (Michael W. Deem and Ramdas Pophale) SiO2 
 PCOD9102299
Probable space group: P -1
;
_chemical_formula_sum "Si O2"
_cell_formula_units_Z 15
_cell_length_a 8.173964
_cell_length_b 18.993590
_cell_length_c 11.246844
_cell_angle_alpha 137.206054
_cell_angle_beta 136.236549
_cell_angle_gamma 38.137242
_cell_volume 687.389238
_symmetry_space_group_name_H-M "P -1"
_symmetry_group_IT_number 2
_symmetry_cell_setting 'triclinic'
loop_
_space_group_symop_operation_xyz
x,y,z
-x,-y,-z
loop_
_atom_site_type_symbol
_atom_site_label
_atom_site_fract_x
_atom_site_fract_y
_atom_site_fract_z
Si Si1 0.300029 0.913557 0.190245
Si Si2 0.727655 0.036350 0.144708
Si Si3 0.389323 0.491545 0.271113
Si Si4 0.404808 0.123691 0.464509
Si Si5 0.000000 0.000000 0.500000
Si Si6 0.956142 0.391104 0.548386
Si Si7 0.385390 0.259213 0.080793
Si Si8 0.782832 0.463518 0.037086
O O1 0.484296 0.845519 0.319730
O O2 0.478501 0.833243 0.072729
O O3 0.278930 0.042993 0.333264
O O4 0.982458 0.945818 0.074744
O O5 0.896750 0.022403 0.334813
O O6 0.560673 0.176207 0.181380
O O7 0.500000 0.000000 0.000000
O O8 0.698934 0.465867 0.414608
O O9 0.181414 0.604350 0.389095
O O10 0.408860 0.373905 0.198126
O O11 0.282656 0.504850 0.097999
O O12 0.166283 0.252992 0.444278
O O13 0.675745 0.046190 0.428553
O O14 0.116722 0.457941 0.744620
O O15 0.050854 0.321342 0.003443
O O16 0.500000 0.500000 0.000000
#
# Coordination Sequence:
#
# PCOD9102299 Si02
#       8
#     2   2   2   2   1   2   2   2
#     4  10  21  37  63  94 124 168 219 260 314 386
#     4  11  24  41  62  94 130 165 208 262 325 383
#     4  10  22  42  67  93 123 165 219 266 309 375
#     4  10  20  38  62  90 128 170 211 263 320 377
#     4  10  24  40  56  90 130 160 204 262 316 372
#     4  10  21  40  64  89 121 167 215 258 310 376
#     4  11  22  41  68  91 124 173 218 262 314 382
#     4  11  25  42  64  98 132 165 209 267 327 377
#
# _framework density 21.821698999999999
#
# number of rings (size 3 to 8) (size 9 to 14) (size 15 to 20)
#    0.000    1.600    0.000    5.200    0.000    6.933 
#    0.000   10.667    0.000    0.000    0.000    0.000 
#    0.000    0.000    0.000    0.000    0.000    0.000 
#
# Total GULP energy -83562.368816 kJ/mol
# GULP energy per Si atom -5570.824588 kJ/mol
# Density = 2.177203 g / cm^3
# Si number density = 21.821699 Si / 1000 Ang^3
#
#
#
# Elastic Constant Matrix: (Units=GPa)
#
#
# Indices 1 2 3 4 5 6 
#
# 1 84.5908 48.8721 18.0878 -9.8954 10.5789 -35.9338
# 2 48.8721 101.8840 31.8681 -15.0798 7.0133 -21.2400
# 3 18.0878 31.8681 58.8789 -17.7241 4.5054 -6.1944
# 4 -9.8954 -15.0798 -17.7241 22.1574 -2.9689 4.1632
# 5 10.5789 7.0133 4.5054 -2.9689 31.8629 -16.4403
# 6 -35.9338 -21.2400 -6.1944 4.1632 -16.4403 33.1752
#
#
#
# Elastic Compliance Matrix: (Units=1/GPa)
#
#
# Indices 1 2 3 4 5 6 
#
# 1 0.027717 -0.007016 -0.001719 0.001845 0.007583 0.028735
# 2 -0.007016 0.015487 -0.005213 0.003081 0.000588 0.001247
# 3 -0.001719 -0.005213 0.024943 0.016027 -0.002194 -0.003641
# 4 0.001845 0.003081 0.016027 0.061102 0.002382 0.000476
# 5 0.007583 0.000588 -0.002194 0.002382 0.044788 0.030078
# 6 0.028735 0.001247 -0.003641 0.000476 0.030078 0.076232
#
#
# Mechanical properties :
#
#
# Convention : Reuss Voigt Hill
#
# Bulk Modulus (GPa) = 24.84471 49.22331 37.03401
# Shear Modulus (GPa) = 17.14784 27.20748 22.17766
#
# Velocity S-wave (km/s) = 2.80628 3.53485 3.19142
# Velocity P-wave (km/s) = 4.68085 6.26628 5.53067
#
# Compressibility (1/GPa) = 0.04025002
#
# Stress axis : x y z
#
# Youngs Moduli (GPa) = 36.07945 64.57153 40.09136
#
# Poissons Ratio (x) = 0.45303 0.06892
# Poissons Ratio (y) = 0.25313 0.20900
# Poissons Ratio (z) = 0.06202 0.33662
#
# Static dielectric constant tensor:
#      x y z
#    x 1.833930 -0.017540 0.012450 
#    y -0.017540 1.823420 0.003920 
#    z 0.012450 0.003920 1.806270 
# 
# From -- ./inp_files/404972.got.cif
#   From: 2010.05.17/outbox.cif.g08.bks.cpg/sg2_203_cif.got.tgz:404972.got - 2010.06.03 11:33:40.
