data_PCOD9102710
_publ_section_title
;
Structure prediction by ZEFSAII (Michael W. Deem and Ramdas Pophale) SiO2 
 PCOD9102710
Probable space group: P -1
;
_chemical_formula_sum "Si O2"
_cell_formula_units_Z 11
_cell_length_a 10.791243
_cell_length_b 10.675397
_cell_length_c 11.998651
_cell_angle_alpha 111.078044
_cell_angle_beta 57.033002
_cell_angle_gamma 153.308215
_cell_volume 490.684484
_symmetry_space_group_name_H-M "P -1"
_symmetry_group_IT_number 2
_symmetry_cell_setting 'triclinic'
loop_
_space_group_symop_operation_xyz
x,y,z
-x,-y,-z
loop_
_atom_site_type_symbol
_atom_site_label
_atom_site_fract_x
_atom_site_fract_y
_atom_site_fract_z
Si Si1 0.787742 0.434595 0.784285
Si Si2 0.294562 0.146945 0.360217
Si Si3 0.000000 0.000000 0.000000
Si Si4 0.412456 0.070057 0.625608
Si Si5 0.423179 0.319285 0.097434
Si Si6 0.844052 0.541442 0.384182
O O1 0.547713 0.197134 0.725542
O O2 0.013112 0.490303 0.722084
O O3 0.602348 0.342130 0.951200
O O4 0.025906 0.743905 0.720192
O O5 0.358456 0.228597 0.226705
O O6 0.627362 0.428657 0.356532
O O7 0.000000 0.000000 0.500000
O O8 0.156009 0.885228 0.365099
O O9 0.338337 0.360295 0.926727
O O10 0.094784 0.069130 0.108102
O O11 0.599772 0.328685 0.540610
O O12 0.500000 0.000000 0.500000
#
# Coordination Sequence:
#
# PCOD9102710 Si02
#       6
#     2   2   1   2   2   2
#     4  11  22  39  68  98 127 160 213 273 310 367
#     4  12  27  43  61  89 129 172 214 253 310 393
#     4  10  24  44  66  90 128 166 204 262 316 368
#     4  10  20  38  63  98 129 158 204 254 317 378
#     4  11  25  44  65  97 125 164 218 259 317 377
#     4  11  23  41  65  92 126 168 204 261 324 363
#
# _framework density 22.417665
#
# number of rings (size 3 to 8) (size 9 to 14) (size 15 to 20)
#    0.000    1.091    0.000    8.182    0.000   10.182 
#    0.000    0.000    0.000    0.000    0.000    0.000 
#    0.000    0.000    0.000    0.000    0.000    0.000 
#
# Total GULP energy -61283.950252 kJ/mol
# GULP energy per Si atom -5571.268205 kJ/mol
# Density = 2.236664 g / cm^3
# Si number density = 22.417665 Si / 1000 Ang^3
#
#
#
# Elastic Constant Matrix: (Units=GPa)
#
#
# Indices 1 2 3 4 5 6 
#
# 1 15.4680 22.7614 -15.1095 37.7849 6.5392 -39.3290
# 2 22.7614 119.5677 37.8691 -23.2075 -5.7364 45.2786
# 3 -15.1095 37.8691 103.6295 50.6041 15.6004 -54.6808
# 4 37.7849 -23.2075 50.6041 0.9585 -4.9175 48.8134
# 5 6.5392 -5.7364 15.6004 -4.9175 44.7110 6.6188
# 6 -39.3290 45.2786 -54.6808 48.8134 6.6188 -24.7464
#
#
#
# Elastic Compliance Matrix: (Units=1/GPa)
#
#
# Indices 1 2 3 4 5 6 
#
# 1 0.020993 0.002197 -0.005082 0.004029 0.000897 -0.009926
# 2 0.002197 0.006699 0.000264 -0.003489 -0.000125 0.001267
# 3 -0.005082 0.000264 0.006591 0.001698 -0.000907 -0.002898
# 4 0.004029 -0.003489 0.001698 0.015464 -0.001920 0.013451
# 5 0.000897 -0.000125 -0.000907 -0.001920 0.021963 0.002436
# 6 -0.009926 0.001267 -0.002898 0.013451 0.002436 0.011271
#
#
# Mechanical properties :
#
#
# Convention : Reuss Voigt Hill
#
# Bulk Modulus (GPa) = 34.43578 36.63414 35.53496
# Shear Modulus (GPa) = 51.07054 17.06091 34.06572
#
# Velocity S-wave (km/s) = 4.77816 2.76170 3.90242
# Velocity P-wave (km/s) = 6.77019 5.15232 6.01589
#
# Compressibility (1/GPa) = 0.02903957
#
# Stress axis : x y z
#
# Youngs Moduli (GPa) = 47.63507 149.28058 151.72685
#
# Poissons Ratio (x) = -0.32799 0.77109
# Poissons Ratio (y) = -0.10466 -0.03998
# Poissons Ratio (z) = 0.24209 -0.03934
#
# Static dielectric constant tensor:
#      x y z
#    x 1.890070 -0.048090 -0.061740 
#    y -0.048090 1.813530 0.006250 
#    z -0.061740 0.006250 1.812480 
# 
# From -- ./inp_files/425210.got.cif
#   From: 2010.05.17/outbox.cif.g08.bks.cpg/sg2_213_cif.got.tgz:425210.got - 2010.06.03 11:33:40.
