data_PCOD9102004
_publ_section_title
;
Structure prediction by ZEFSAII (Michael W. Deem and Ramdas Pophale) SiO2 
 PCOD9102004
Probable space group: P -1
;
_chemical_formula_sum "Si O2"
_cell_formula_units_Z 16
_cell_length_a 7.506060
_cell_length_b 20.283506
_cell_length_c 8.949417
_cell_angle_alpha 59.151394
_cell_angle_beta 125.408607
_cell_angle_gamma 144.592072
_cell_volume 641.058445
_symmetry_space_group_name_H-M "P -1"
_symmetry_group_IT_number 2
_symmetry_cell_setting 'triclinic'
loop_
_space_group_symop_operation_xyz
x,y,z
-x,-y,-z
loop_
_atom_site_type_symbol
_atom_site_label
_atom_site_fract_x
_atom_site_fract_y
_atom_site_fract_z
Si Si1 0.332086 0.984160 0.281511
Si Si2 0.391078 0.162947 0.970153
Si Si3 0.534336 0.747414 0.782634
Si Si4 0.336022 0.343680 0.516752
Si Si5 0.216368 0.666486 0.298356
Si Si6 0.638923 0.451834 0.120102
Si Si7 0.197967 0.471596 0.219292
Si Si8 0.710737 0.189284 0.591027
O O1 0.376533 0.919408 0.275755
O O2 0.500000 0.000000 0.500000
O O3 0.469022 0.096935 0.139537
O O4 0.952442 0.912925 0.193832
O O5 0.349960 0.202493 0.054305
O O6 0.678461 0.268199 0.883556
O O7 0.619033 0.684497 0.840713
O O8 0.568807 0.831300 0.598522
O O9 0.142386 0.633308 0.741096
O O10 0.473597 0.305685 0.544137
O O11 0.339154 0.421784 0.332634
O O12 0.568588 0.420851 0.682254
O O13 0.983562 0.242521 0.536353
O O14 0.153847 0.718364 0.323854
O O15 0.922437 0.531308 0.287467
O O16 0.500000 0.500000 0.000000
O O17 0.796482 0.491268 0.984593
#
# Coordination Sequence:
#
# PCOD9102004 Si02
#       8
#     2   2   2   2   2   2   2   2
#     4  11  24  48  74 101 130 176 236 295 356 406
#     4  11  24  44  78  97 133 185 228 289 356 405
#     4  11  22  42  66  97 134 187 228 270 342 418
#     4  10  21  40  64  92 138 179 227 273 342 399
#     4  12  24  42  67 104 137 180 225 278 335 418
#     4  12  25  36  60 100 148 178 226 274 325 410
#     4  10  20  38  61  90 130 191 220 268 332 410
#     4  11  25  42  71 100 136 177 233 290 345 405
#
# _framework density 24.958722000000002
#
# number of rings (size 3 to 8) (size 9 to 14) (size 15 to 20)
#    0.000    1.000    5.000    1.875    3.500    1.000 
#    0.000    0.625    0.000    0.000    0.000    0.000 
#    0.000    0.000    0.000    0.000    0.000    0.000 
#
# Total GULP energy -89412.122472 kJ/mol
# GULP energy per Si atom -5588.257654 kJ/mol
# Density = 2.490191 g / cm^3
# Si number density = 24.958722 Si / 1000 Ang^3
#
#
#
# Elastic Constant Matrix: (Units=GPa)
#
#
# Indices 1 2 3 4 5 6 
#
# 1 80.0968 24.5471 9.7950 -15.7933 16.5057 -39.5163
# 2 24.5471 93.6765 38.2768 -14.9893 6.1483 -35.2190
# 3 9.7950 38.2768 125.1435 -13.7321 6.8844 -16.2098
# 4 -15.7933 -14.9893 -13.7321 46.2054 -9.1895 13.0582
# 5 16.5057 6.1483 6.8844 -9.1895 32.6024 -8.2635
# 6 -39.5163 -35.2190 -16.2098 13.0582 -8.2635 45.2359
#
#
#
# Elastic Compliance Matrix: (Units=1/GPa)
#
#
# Indices 1 2 3 4 5 6 
#
# 1 0.023854 0.002031 0.000795 0.001773 -0.006819 0.020947
# 2 0.002031 0.016713 -0.003420 0.001426 0.000290 0.013202
# 3 0.000795 -0.003420 0.009294 0.001498 -0.001114 0.000726
# 4 0.001773 0.001426 0.001498 0.024994 0.004764 -0.003149
# 5 -0.006819 0.000290 -0.001114 0.004764 0.035384 -0.001041
# 6 0.020947 0.013202 0.000726 -0.003149 -0.001041 0.051662
#
#
# Mechanical properties :
#
#
# Convention : Reuss Voigt Hill
#
# Bulk Modulus (GPa) = 20.54568 49.35053 34.94811
# Shear Modulus (GPa) = 27.88386 39.89525 33.88955
#
# Velocity S-wave (km/s) = 3.34608 4.00240 3.68886
# Velocity P-wave (km/s) = 4.81436 6.41675 5.67242
#
# Compressibility (1/GPa) = 0.04867202
#
# Stress axis : x y z
#
# Youngs Moduli (GPa) = 41.92136 59.83360 107.59143
#
# Poissons Ratio (x) = -0.12152 -0.08549
# Poissons Ratio (y) = -0.08514 0.36799
# Poissons Ratio (z) = -0.03331 0.20465
#
# Static dielectric constant tensor:
#      x y z
#    x 2.086770 -0.046710 0.088130 
#    y -0.046710 2.063440 -0.014900 
#    z 0.088130 -0.014900 2.053290 
# 
# From -- ./inp_files/223510.got.cif
#   From: 2010.05.17/outbox.cif.g08.bks.cpg/sg2_112_cif.got.tgz:223510.got - 2010.06.03 11:33:40.
