data_PCOD9102870
_publ_section_title
;
Structure prediction by ZEFSAII (Michael W. Deem and Ramdas Pophale) SiO2 
 PCOD9102870
Probable space group: P -1
;
_chemical_formula_sum "Si O2"
_cell_formula_units_Z 15
_cell_length_a 18.531910
_cell_length_b 6.589382
_cell_length_c 8.185625
_cell_angle_alpha 53.100159
_cell_angle_beta 116.290567
_cell_angle_gamma 121.480818
_cell_volume 669.317622
_symmetry_space_group_name_H-M "P -1"
_symmetry_group_IT_number 2
_symmetry_cell_setting 'triclinic'
loop_
_space_group_symop_operation_xyz
x,y,z
-x,-y,-z
loop_
_atom_site_type_symbol
_atom_site_label
_atom_site_fract_x
_atom_site_fract_y
_atom_site_fract_z
Si Si1 0.377867 0.470715 0.914412
Si Si2 0.431701 0.486220 0.299388
Si Si3 0.933984 0.030260 0.786130
Si Si4 0.659810 0.106919 0.916191
Si Si5 0.134301 0.509062 0.538795
Si Si6 0.000000 0.000000 0.500000
Si Si7 0.789948 0.554063 0.029610
Si Si8 0.328837 0.877781 0.468922
O O1 0.447019 0.484084 0.119566
O O2 0.362724 0.207692 0.915446
O O3 0.288222 0.414235 0.956357
O O4 0.387333 0.736744 0.691135
O O5 0.500000 0.500000 0.500000
O O6 0.405704 0.749864 0.163570
O O7 0.357140 0.191171 0.399805
O O8 0.962842 0.983168 0.658258
O O9 0.926982 0.325391 0.645575
O O10 0.840936 0.810935 0.846947
O O11 0.000000 0.000000 0.000000
O O12 0.661127 0.125944 0.713123
O O13 0.748225 0.291168 0.001877
O O14 0.143428 0.483233 0.754569
O O15 0.230590 0.692319 0.493988
O O16 0.094262 0.220141 0.552794
#
# Coordination Sequence:
#
# PCOD9102870 Si02
#       8
#     2   2   2   2   2   1   2   2
#     4   9  21  39  62  94 123 163 217 262 318 386
#     4  10  22  40  62  93 133 168 204 260 325 385
#     4  12  25  44  61  91 130 168 214 274 332 383
#     4  10  20  38  64  91 120 170 210 260 322 379
#     4  11  24  44  63  92 127 164 221 268 325 398
#     4  12  26  42  64  92 122 174 216 266 328 384
#     4  10  22  41  63  89 127 167 211 274 324 383
#     4  10  22  41  64  92 124 166 218 265 319 392
#
# _framework density 22.410886000000001
#
# number of rings (size 3 to 8) (size 9 to 14) (size 15 to 20)
#    0.000    1.600    1.333    3.600    0.000    9.600 
#    2.400    1.333    0.000    0.000    0.000    0.000 
#    0.000    0.000    0.000    0.000    0.000    0.000 
#
# Total GULP energy -83540.876756 kJ/mol
# GULP energy per Si atom -5569.391784 kJ/mol
# Density = 2.235988 g / cm^3
# Si number density = 22.410886 Si / 1000 Ang^3
#
#
#
# Elastic Constant Matrix: (Units=GPa)
#
#
# Indices 1 2 3 4 5 6 
#
# 1 31.6356 25.7200 -5.8233 -1.3191 -5.9679 9.2916
# 2 25.7200 109.7987 17.1685 16.4575 7.9063 7.5485
# 3 -5.8233 17.1685 89.2453 7.6540 24.4557 -3.7068
# 4 -1.3191 16.4575 7.6540 47.3360 4.3752 0.7824
# 5 -5.9679 7.9063 24.4557 4.3752 34.8638 2.9358
# 6 9.2916 7.5485 -3.7068 0.7824 2.9358 33.7311
#
#
#
# Elastic Compliance Matrix: (Units=1/GPa)
#
#
# Indices 1 2 3 4 5 6 
#
# 1 0.046867 -0.011874 0.001817 0.004415 0.009814 -0.011010
# 2 -0.011874 0.013035 -0.002061 -0.004256 -0.003050 0.000491
# 3 0.001817 -0.002061 0.014483 -0.000737 -0.009490 0.002395
# 4 0.004415 -0.004256 -0.000737 0.022914 -0.000568 -0.000827
# 5 0.009814 -0.003050 -0.009490 -0.000568 0.038321 -0.006386
# 6 -0.011010 0.000491 0.002395 -0.000827 -0.006386 0.033407
#
#
# Mechanical properties :
#
#
# Convention : Reuss Voigt Hill
#
# Bulk Modulus (GPa) = 19.94042 33.86777 26.90409
# Shear Modulus (GPa) = 23.81179 36.09382 29.95281
#
# Velocity S-wave (km/s) = 3.26315 4.01752 3.65982
# Velocity P-wave (km/s) = 4.80776 6.05521 5.46718
#
# Compressibility (1/GPa) = 0.05014940
#
# Stress axis : x y z
#
# Youngs Moduli (GPa) = 21.33689 76.71604 69.04411
#
# Poissons Ratio (x) = 0.91094 -0.12547
# Poissons Ratio (y) = 0.25336 0.14231
# Poissons Ratio (z) = -0.03877 0.15813
#
# Static dielectric constant tensor:
#      x y z
#    x 1.894990 0.028410 0.018770 
#    y 0.028410 1.814530 -0.016800 
#    z 0.018770 -0.016800 1.847200 
# 
# From -- ./inp_files/44812.got.cif
#   From: 2010.05.17/outbox.cif.g08.bks.cpg/sg2_23_cif.got.tgz:44812.got - 2010.06.03 11:33:40.
