data_PCOD9102327
_publ_section_title
;
Structure prediction by ZEFSAII (Michael W. Deem and Ramdas Pophale) SiO2 
 PCOD9102327
Probable space group: P -1
;
_chemical_formula_sum "Si O2"
_cell_formula_units_Z 16
_cell_length_a 10.265309
_cell_length_b 16.019461
_cell_length_c 5.315409
_cell_angle_alpha 93.516877
_cell_angle_beta 79.679740
_cell_angle_gamma 135.122622
_cell_volume 604.057509
_symmetry_space_group_name_H-M "P -1"
_symmetry_group_IT_number 2
_symmetry_cell_setting 'triclinic'
loop_
_space_group_symop_operation_xyz
x,y,z
-x,-y,-z
loop_
_atom_site_type_symbol
_atom_site_label
_atom_site_fract_x
_atom_site_fract_y
_atom_site_fract_z
Si Si1 0.786431 0.922087 0.992458
Si Si2 0.128248 0.553937 0.214325
Si Si3 0.709257 0.660429 0.471523
Si Si4 0.417788 0.227641 0.472939
Si Si5 0.120512 0.893000 0.323073
Si Si6 0.205749 0.765767 0.065255
Si Si7 0.508099 0.913314 0.606219
Si Si8 0.797051 0.595329 0.930891
O O1 0.705056 0.844867 0.750232
O O2 0.800231 0.027492 0.941625
O O3 0.670292 0.827807 0.234594
O O4 0.000000 0.000000 0.000000
O O5 0.245357 0.520881 0.138806
O O6 0.000000 0.500000 0.500000
O O7 0.232736 0.688189 0.164653
O O8 0.000000 0.500000 0.000000
O O9 0.544103 0.655626 0.531781
O O10 0.738264 0.623157 0.713871
O O11 0.899871 0.802371 0.407238
O O12 0.712550 0.601420 0.213640
O O13 0.566071 0.216541 0.421374
O O14 0.265521 0.998964 0.483993
O O15 0.154626 0.809841 0.303063
O O16 0.398545 0.879934 0.896228
O O17 0.024735 0.693929 0.927428
O O18 0.500000 0.000000 0.500000
#
# Coordination Sequence:
#
# PCOD9102327 Si02
#       8
#     2   2   2   2   2   2   2   2
#     4  11  21  35  54  81 116 151 199 248 293 334
#     4  10  20  38  62  92 118 148 199 254 314 360
#     4  11  21  36  59  87 116 150 199 251 304 342
#     4  11  24  37  57  84 116 160 205 245 294 354
#     4  10  21  34  58  83 121 157 201 240 292 349
#     4  10  21  37  59  86 120 162 197 242 305 368
#     4  11  23  38  56  85 131 169 206 236 290 368
#     4  10  21  37  61  89 115 144 193 262 310 347
#
# _framework density 26.487542999999999
#
# number of rings (size 3 to 8) (size 9 to 14) (size 15 to 20)
#    0.000    1.500    1.250    5.250    3.500    2.000 
#    0.000    0.000    0.000    1.500    0.000    0.000 
#    0.000    0.000    0.000    0.000    0.000    0.000 
#
# Total GULP energy -89175.374043 kJ/mol
# GULP energy per Si atom -5573.460878 kJ/mol
# Density = 2.642726 g / cm^3
# Si number density = 26.487543 Si / 1000 Ang^3
#
#
#
# Elastic Constant Matrix: (Units=GPa)
#
#
# Indices 1 2 3 4 5 6 
#
# 1 107.9277 66.9701 36.7666 12.4006 23.5680 -35.1526
# 2 66.9701 128.6396 62.3796 -11.2602 12.9846 -49.1277
# 3 36.7666 62.3796 165.7668 3.6191 36.0317 -18.9288
# 4 12.4006 -11.2602 3.6191 40.8006 -9.0129 -0.3602
# 5 23.5680 12.9846 36.0317 -9.0129 42.8595 -1.2136
# 6 -35.1526 -49.1277 -18.9288 -0.3602 -1.2136 75.8203
#
#
#
# Elastic Compliance Matrix: (Units=1/GPa)
#
#
# Indices 1 2 3 4 5 6 
#
# 1 0.019735 -0.010289 0.002803 -0.011820 -0.012494 0.002926
# 2 -0.010289 0.018317 -0.005756 0.010355 0.007290 0.005827
# 3 0.002803 -0.005756 0.009628 -0.005286 -0.009009 -0.000196
# 4 -0.011820 0.010355 -0.005286 0.034773 0.015128 0.000317
# 5 -0.012494 0.007290 -0.009009 0.015128 0.038674 -0.002627
# 6 0.002926 0.005827 -0.000196 0.000317 -0.002627 0.018232
#
#
# Mechanical properties :
#
#
# Convention : Reuss Voigt Hill
#
# Bulk Modulus (GPa) = 47.18016 81.61851 64.39933
# Shear Modulus (GPa) = 28.91681 47.64394 38.28038
#
# Velocity S-wave (km/s) = 3.30769 4.24574 3.80573
# Velocity P-wave (km/s) = 5.69549 7.41053 6.60888
#
# Compressibility (1/GPa) = 0.02119535
#
# Stress axis : x y z
#
# Youngs Moduli (GPa) = 50.67267 54.59315 103.86012
#
# Poissons Ratio (x) = 0.56170 -0.29108
# Poissons Ratio (y) = 0.52136 0.59784
# Poissons Ratio (z) = -0.14202 0.31425
#
# Static dielectric constant tensor:
#      x y z
#    x 2.447060 -0.249410 -0.493510 
#    y -0.249410 2.164740 0.299010 
#    z -0.493510 0.299010 2.779770 
# 
# From -- ./inp_files/77836.got.cif
#   From: 2010.05.17/outbox.cif.g08.bks.cpg/sg2_39_cif.got.tgz:77836.got - 2010.06.03 11:33:40.
