data_PCOD9102627
_publ_section_title
;
Structure prediction by ZEFSAII (Michael W. Deem and Ramdas Pophale) SiO2 
 PCOD9102627
Probable space group: P -1
;
_chemical_formula_sum "Si O2"
_cell_formula_units_Z 14
_cell_length_a 9.573229
_cell_length_b 11.815345
_cell_length_c 5.390623
_cell_angle_alpha 67.142830
_cell_angle_beta 88.120036
_cell_angle_gamma 89.979184
_cell_volume 561.506511
_symmetry_space_group_name_H-M "P -1"
_symmetry_group_IT_number 2
_symmetry_cell_setting 'triclinic'
loop_
_space_group_symop_operation_xyz
x,y,z
-x,-y,-z
loop_
_atom_site_type_symbol
_atom_site_label
_atom_site_fract_x
_atom_site_fract_y
_atom_site_fract_z
Si Si1 0.586288 0.704809 0.515783
Si Si2 0.319255 0.407077 0.891445
Si Si3 0.929530 0.440908 0.305605
Si Si4 0.242359 0.078805 0.509932
Si Si5 0.600478 0.065379 0.732343
Si Si6 0.877456 0.098719 0.956766
Si Si7 0.044015 0.244604 0.159457
O O1 0.592702 0.632101 0.319263
O O2 0.719936 0.799656 0.436812
O O3 0.463889 0.803461 0.444319
O O4 0.602057 0.616624 0.831205
O O5 0.235970 0.532470 0.730403
O O6 0.183078 0.316492 0.000393
O O7 0.000000 0.500000 0.500000
O O8 0.973014 0.303116 0.354961
O O9 0.000000 0.500000 0.000000
O O10 0.104300 0.114189 0.343571
O O11 0.373572 0.048212 0.358273
O O12 0.217200 0.959999 0.771158
O O13 0.761958 0.100332 0.751933
O O14 0.500000 0.000000 0.000000
O O15 0.939140 0.224578 0.956085
O O16 0.000000 0.000000 0.000000
#
# Coordination Sequence:
#
# PCOD9102627 Si02
#       7
#     2   2   2   2   2   2   2
#     4  11  22  37  63  88 120 168 212 265 312 370
#     4  10  21  39  62  92 122 156 218 273 319 374
#     4  10  20  38  63  93 124 161 212 272 327 380
#     4  11  22  38  58  89 132 162 213 261 314 387
#     4  12  24  40  61  89 128 177 222 256 307 391
#     4  12  24  39  59  91 138 170 211 260 326 386
#     4  10  21  37  60  92 125 168 202 264 335 379
#
# _framework density 24.932925000000001
#
# number of rings (size 3 to 8) (size 9 to 14) (size 15 to 20)
#    0.000    1.143    2.857    6.000    2.000    1.143 
#    0.000    0.000    0.000    1.714    0.000    0.000 
#    0.000    0.000    0.000    0.000    0.000    0.000 
#
# Total GULP energy -78142.814338 kJ/mol
# GULP energy per Si atom -5581.629596 kJ/mol
# Density = 2.487618 g / cm^3
# Si number density = 24.932925 Si / 1000 Ang^3
#
#
#
# Elastic Constant Matrix: (Units=GPa)
#
#
# Indices 1 2 3 4 5 6 
#
# 1 91.4554 49.0039 29.0924 0.2082 24.5593 -31.9124
# 2 49.0039 109.1344 48.5278 22.5976 6.3952 -46.9058
# 3 29.0924 48.5278 121.1190 26.4803 5.3596 -26.9544
# 4 0.2082 22.5976 26.4803 41.4079 -5.0327 -8.2424
# 5 24.5593 6.3952 5.3596 -5.0327 44.4019 -12.5699
# 6 -31.9124 -46.9058 -26.9544 -8.2424 -12.5699 58.4773
#
#
#
# Elastic Compliance Matrix: (Units=1/GPa)
#
#
# Indices 1 2 3 4 5 6 
#
# 1 0.017950 -0.006578 -0.001649 0.004182 -0.007535 0.002729
# 2 -0.006578 0.018603 -0.002440 -0.006139 0.003410 0.010075
# 3 -0.001649 -0.002440 0.011181 -0.005560 -0.000306 0.001447
# 4 0.004182 -0.006139 -0.005560 0.031327 0.002736 -0.000201
# 5 -0.007535 0.003410 -0.000306 0.002736 0.027924 0.004870
# 6 0.002729 0.010075 0.001447 -0.000201 0.004870 0.028357
#
#
# Mechanical properties :
#
#
# Convention : Reuss Voigt Hill
#
# Bulk Modulus (GPa) = 37.87988 63.88410 50.88199
# Shear Modulus (GPa) = 30.21562 41.86306 36.03934
#
# Velocity S-wave (km/s) = 3.48498 4.10204 3.80603
# Velocity P-wave (km/s) = 5.60528 6.93640 6.30606
#
# Compressibility (1/GPa) = 0.02639924
#
# Stress axis : x y z
#
# Youngs Moduli (GPa) = 55.71115 53.75355 89.43490
#
# Poissons Ratio (x) = 0.35359 0.14752
# Poissons Ratio (y) = 0.36646 0.21824
# Poissons Ratio (z) = 0.09190 0.13117
#
# Static dielectric constant tensor:
#      x y z
#    x 1.983600 0.048110 0.129470 
#    y 0.048110 2.196080 -0.119820 
#    z 0.129470 -0.119820 2.155430 
# 
# From -- ./inp_files/26969.got.cif
#   From: 2010.05.17/outbox.cif.g08.bks.cpg/sg2_14_cif.got.tgz:26969.got - 2010.06.03 11:33:40.
