data_PCOD9102536
_publ_section_title
;
Structure prediction by ZEFSAII (Michael W. Deem and Ramdas Pophale) SiO2 
 PCOD9102536
Probable space group: P -1
;
_chemical_formula_sum "Si O2"
_cell_formula_units_Z 16
_cell_length_a 9.293540
_cell_length_b 14.973203
_cell_length_c 8.654144
_cell_angle_alpha 72.645902
_cell_angle_beta 124.226468
_cell_angle_gamma 64.323597
_cell_volume 615.870093
_symmetry_space_group_name_H-M "P -1"
_symmetry_group_IT_number 2
_symmetry_cell_setting 'triclinic'
loop_
_space_group_symop_operation_xyz
x,y,z
-x,-y,-z
loop_
_atom_site_type_symbol
_atom_site_label
_atom_site_fract_x
_atom_site_fract_y
_atom_site_fract_z
Si Si1 0.669768 0.144056 0.281292
Si Si2 0.174870 0.626839 0.523638
Si Si3 0.920448 0.959567 0.836894
Si Si4 0.616402 0.318999 0.934598
Si Si5 0.219101 0.077359 0.716356
Si Si6 0.821455 0.628087 0.516705
Si Si7 0.359793 0.145780 0.497317
Si Si8 0.085824 0.343715 0.937454
O O1 0.360991 0.242515 0.062140
O O2 0.792892 0.069527 0.559900
O O3 0.769249 0.036501 0.257502
O O4 0.697160 0.237450 0.186152
O O5 0.493273 0.472967 0.807459
O O6 0.022385 0.784093 0.397670
O O7 0.019232 0.615115 0.547152
O O8 0.107453 0.637054 0.298159
O O9 0.665087 0.999720 0.710715
O O10 0.162795 0.797054 0.001017
O O11 0.000000 0.000000 0.000000
O O12 0.356161 0.364900 0.702201
O O13 0.221620 0.121321 0.523601
O O14 0.500000 0.000000 0.000000
O O15 0.622118 0.775670 0.413327
O O16 0.969253 0.496577 0.790119
O O17 0.167969 0.262348 0.187562
#
# Coordination Sequence:
#
# PCOD9102536 Si02
#       8
#     2   2   2   2   2   2   2   2
#     4  11  21  38  62  90 118 157 202 242 294 348
#     4  10  19  35  61  87 121 152 195 247 296 346
#     4  11  24  38  56  88 125 160 195 243 295 349
#     4  11  19  38  60  89 117 155 201 242 288 352
#     4  11  22  40  61  91 118 157 195 250 301 353
#     4  10  16  32  57  83 123 145 190 251 296 341
#     4  10  22  35  56  88 124 153 195 243 303 354
#     4  10  17  30  53  90 117 144 187 251 298 337
#
# _framework density 25.979507999999999
#
# number of rings (size 3 to 8) (size 9 to 14) (size 15 to 20)
#    0.000    1.500    5.000    2.250    0.000    2.000 
#    0.000    0.625    0.000    0.750    3.250    0.000 
#    0.000    0.000    0.000    0.000    0.000    0.000 
#
# Total GULP energy -89589.139110 kJ/mol
# GULP energy per Si atom -5599.321194 kJ/mol
# Density = 2.592038 g / cm^3
# Si number density = 25.979508 Si / 1000 Ang^3
#
#
#
# Elastic Constant Matrix: (Units=GPa)
#
#
# Indices 1 2 3 4 5 6 
#
# 1 41.3880 -0.5596 8.7919 -0.6856 -7.9953 -4.9394
# 2 -0.5596 121.4872 47.8909 -15.8157 8.6594 -5.2756
# 3 8.7919 47.8909 113.6480 -7.9308 -11.1395 -2.2508
# 4 -0.6856 -15.8157 -7.9308 55.8245 -10.3567 11.7115
# 5 -7.9953 8.6594 -11.1395 -10.3567 29.7996 -0.8765
# 6 -4.9394 -5.2756 -2.2508 11.7115 -0.8765 34.9152
#
#
#
# Elastic Compliance Matrix: (Units=1/GPa)
#
#
# Indices 1 2 3 4 5 6 
#
# 1 0.026215 0.000462 -0.001441 0.000739 0.006724 0.003607
# 2 0.000462 0.010658 -0.004834 0.001378 -0.004278 0.000795
# 3 -0.001441 -0.004834 0.011613 0.001459 0.005851 -0.000528
# 4 0.000739 0.001378 0.001459 0.021294 0.007551 -0.006546
# 5 0.006724 -0.004278 0.005851 0.007551 0.041392 -0.000812
# 6 0.003607 0.000795 -0.000528 -0.006546 -0.000812 0.031412
#
#
# Mechanical properties :
#
#
# Convention : Reuss Voigt Hill
#
# Bulk Modulus (GPa) = 27.12961 43.19661 35.16311
# Shear Modulus (GPa) = 30.03047 38.80120 34.41583
#
# Velocity S-wave (km/s) = 3.40358 3.86882 3.64363
# Velocity P-wave (km/s) = 5.09031 6.05147 5.59158
#
# Compressibility (1/GPa) = 0.03686010
#
# Stress axis : x y z
#
# Youngs Moduli (GPa) = 38.14549 93.82588 86.11356
#
# Poissons Ratio (x) = -0.04338 0.12408
# Poissons Ratio (y) = -0.01764 0.41631
# Poissons Ratio (z) = 0.05496 0.45360
#
# Static dielectric constant tensor:
#      x y z
#    x 2.025370 0.017350 0.023420 
#    y 0.017350 2.057640 -0.039120 
#    z 0.023420 -0.039120 2.140340 
# 
# From -- ./inp_files/279417.got.cif
#   From: 2010.05.17/outbox.cif.g08.bks.cpg/sg2_140_cif.got.tgz:279417.got - 2010.06.03 11:33:40.
