data_PCOD9102413
_publ_section_title
;
Structure prediction by ZEFSAII (Michael W. Deem and Ramdas Pophale) SiO2 
 PCOD9102413
Probable space group: P -1
;
_chemical_formula_sum "Si O2"
_cell_formula_units_Z 15
_cell_length_a 8.374705
_cell_length_b 8.645085
_cell_length_c 16.380164
_cell_angle_alpha 135.833462
_cell_angle_beta 58.404328
_cell_angle_gamma 133.408839
_cell_volume 599.147207
_symmetry_space_group_name_H-M "P -1"
_symmetry_group_IT_number 2
_symmetry_cell_setting 'triclinic'
loop_
_space_group_symop_operation_xyz
x,y,z
-x,-y,-z
loop_
_atom_site_type_symbol
_atom_site_label
_atom_site_fract_x
_atom_site_fract_y
_atom_site_fract_z
Si Si1 0.933183 0.325088 0.163575
Si Si2 0.858926 0.090533 0.674177
Si Si3 0.749161 0.948397 0.222466
Si Si4 0.304813 0.144550 0.539500
Si Si5 0.500000 0.500000 0.000000
Si Si6 0.254484 0.716575 0.505394
Si Si7 0.052488 0.772986 0.053659
Si Si8 0.453408 0.978652 0.118893
O O1 0.882048 0.149460 0.189353
O O2 0.083556 0.622484 0.258463
O O3 0.691451 0.239033 0.162684
O O4 0.031841 0.267261 0.033748
O O5 0.700451 0.021214 0.766894
O O6 0.104217 0.142984 0.636763
O O7 0.744190 0.882242 0.553622
O O8 0.691193 0.092076 0.359207
O O9 0.552677 0.687063 0.136195
O O10 0.920791 0.871552 0.176985
O O11 0.559356 0.358817 0.571528
O O12 0.281463 0.879483 0.479152
O O13 0.483551 0.731493 0.034948
O O14 0.000000 0.500000 0.500000
O O15 0.310766 0.958237 0.070061
O O16 0.000000 0.500000 0.000000
#
# Coordination Sequence:
#
# PCOD9102413 Si02
#       8
#     2   2   2   2   1   2   2   2
#     4  11  24  40  64  96 133 176 227 271 346 409
#     4  11  22  43  65  95 134 175 233 282 341 401
#     4  11  23  41  69  93 135 181 216 282 338 404
#     4  10  24  41  68  96 129 180 228 287 337 399
#     4  10  20  38  62  96 128 174 222 268 342 404
#     4  11  24  45  67 100 137 176 234 279 344 404
#     4  12  22  40  64  96 133 171 224 278 337 409
#     4  11  23  40  63  95 133 178 220 280 341 411
#
# _framework density 25.035581000000001
#
# number of rings (size 3 to 8) (size 9 to 14) (size 15 to 20)
#    0.000    1.067    2.667    4.000    0.000    3.200 
#    0.000    8.667    0.000    0.000    0.000    0.000 
#    0.000    0.000    0.000    0.000    0.000    0.000 
#
# Total GULP energy -83605.216566 kJ/mol
# GULP energy per Si atom -5573.681104 kJ/mol
# Density = 2.497860 g / cm^3
# Si number density = 25.035581 Si / 1000 Ang^3
#
#
#
# Elastic Constant Matrix: (Units=GPa)
#
#
# Indices 1 2 3 4 5 6 
#
# 1 79.8041 -3.4763 8.8329 0.8849 -10.2130 8.7681
# 2 -3.4763 60.1616 18.1250 -13.5836 -0.6463 9.5529
# 3 8.8329 18.1250 84.5782 -19.0904 4.9652 -2.7374
# 4 0.8849 -13.5836 -19.0904 28.9117 5.2789 9.6410
# 5 -10.2130 -0.6463 4.9652 5.2789 41.7505 -9.1325
# 6 8.7681 9.5529 -2.7374 9.6410 -9.1325 45.2779
#
#
#
# Elastic Compliance Matrix: (Units=1/GPa)
#
#
# Indices 1 2 3 4 5 6 
#
# 1 0.013520 0.001627 -0.002243 -0.000975 0.003233 -0.002237
# 2 0.001627 0.021183 -0.002263 0.011395 -0.002148 -0.007781
# 3 -0.002243 -0.002263 0.014984 0.009966 -0.003863 -0.001083
# 4 -0.000975 0.011395 0.009966 0.053756 -0.011404 -0.015359
# 5 0.003233 -0.002148 -0.003863 -0.011404 0.028302 0.007730
# 6 -0.002237 -0.007781 -0.001083 -0.015359 0.007730 0.028925
#
#
# Mechanical properties :
#
#
# Convention : Reuss Voigt Hill
#
# Bulk Modulus (GPa) = 22.76421 30.16745 26.46583
# Shear Modulus (GPa) = 27.61366 36.59218 32.10292
#
# Velocity S-wave (km/s) = 3.32471 3.82724 3.58480
# Velocity P-wave (km/s) = 4.88372 5.62196 5.26579
#
# Compressibility (1/GPa) = 0.04392860
#
# Stress axis : x y z
#
# Youngs Moduli (GPa) = 73.96358 47.20790 66.73938
#
# Poissons Ratio (x) = -0.07680 0.14968
# Poissons Ratio (y) = -0.12033 0.15104
# Poissons Ratio (z) = 0.16589 0.10684
#
# Static dielectric constant tensor:
#      x y z
#    x 2.191580 0.094050 -0.101780 
#    y 0.094050 2.040030 -0.058790 
#    z -0.101780 -0.058790 2.080010 
# 
# From -- ./inp_files/556671.got.cif
#   From: 2010.05.17/outbox.cif.g08.bks.cpg/sg2_279_cif.got.tgz:556671.got - 2010.06.03 11:33:40.
