data_PCOD9102554
_publ_section_title
;
Structure prediction by ZEFSAII (Michael W. Deem and Ramdas Pophale) SiO2 
 PCOD9102554
Probable space group: P -1
;
_chemical_formula_sum "Si O2"
_cell_formula_units_Z 16
_cell_length_a 29.587590
_cell_length_b 9.754393
_cell_length_c 11.497812
_cell_angle_alpha 45.409315
_cell_angle_beta 17.079440
_cell_angle_gamma 47.640708
_cell_volume 693.991765
_symmetry_space_group_name_H-M "P -1"
_symmetry_group_IT_number 2
_symmetry_cell_setting 'triclinic'
loop_
_space_group_symop_operation_xyz
x,y,z
-x,-y,-z
loop_
_atom_site_type_symbol
_atom_site_label
_atom_site_fract_x
_atom_site_fract_y
_atom_site_fract_z
Si Si1 0.576864 0.187391 0.247715
Si Si2 0.948390 0.418520 0.298080
Si Si3 0.135027 0.992111 0.275888
Si Si4 0.622502 0.564782 0.950976
Si Si5 0.079701 0.348374 0.557193
Si Si6 0.587522 0.806275 0.104252
Si Si7 0.102198 0.759216 0.147358
Si Si8 0.670430 0.944879 0.471331
O O1 0.503003 0.220513 0.537533
O O2 0.500000 0.000000 0.500000
O O3 0.753849 0.120741 0.840206
O O4 0.552197 0.404802 0.134098
O O5 0.971257 0.188679 0.394095
O O6 0.764819 0.454832 0.728912
O O7 0.004228 0.555539 0.182196
O O8 0.000000 0.500000 0.000000
O O9 0.251040 0.046674 0.854272
O O10 0.042379 0.155795 0.473382
O O11 0.685633 0.740139 0.616470
O O12 0.537214 0.658648 0.214568
O O13 0.136241 0.539018 0.233710
O O14 0.960060 0.242270 0.830504
O O15 0.230319 0.223245 0.300935
O O16 0.510935 0.004022 0.127038
O O17 0.239449 0.899520 0.763833
#
# Coordination Sequence:
#
# PCOD9102554 Si02
#       8
#     2   2   2   2   2   2   2   2
#     4  10  21  39  65  89 121 165 209 262 321 376
#     4  10  20  38  63  90 124 167 216 257 314 383
#     4  10  21  38  60  90 123 168 212 259 312 382
#     4  10  22  37  62  93 121 163 213 262 312 376
#     4  10  23  39  61  96 126 169 210 268 320 369
#     4  10  22  42  64  90 125 169 218 254 314 390
#     4  11  22  38  63  94 131 162 217 264 318 369
#     4  11  22  38  66  95 126 168 218 264 307 386
#
# _framework density 23.055029000000001
#
# number of rings (size 3 to 8) (size 9 to 14) (size 15 to 20)
#    0.000    1.750    1.250    2.625    5.250    0.000 
#    0.000   10.625    0.000    0.000    0.000    2.625 
#    0.000    0.000    0.000    0.000    0.000    0.000 
#
# Total GULP energy -89172.250079 kJ/mol
# GULP energy per Si atom -5573.265630 kJ/mol
# Density = 2.300255 g / cm^3
# Si number density = 23.055029 Si / 1000 Ang^3
#
#
#
# Elastic Constant Matrix: (Units=GPa)
#
#
# Indices 1 2 3 4 5 6 
#
# 1 87.4086 27.4907 20.5964 -2.9524 2.7547 20.5579
# 2 27.4907 100.5980 21.0392 1.5595 -4.1722 6.6126
# 3 20.5964 21.0392 44.9269 4.6779 4.5209 10.5030
# 4 -2.9524 1.5595 4.6779 41.8502 -6.4940 -3.8597
# 5 2.7547 -4.1722 4.5209 -6.4940 31.8253 8.2738
# 6 20.5579 6.6126 10.5030 -3.8597 8.2738 34.2449
#
#
#
# Elastic Compliance Matrix: (Units=1/GPa)
#
#
# Indices 1 2 3 4 5 6 
#
# 1 0.014998 -0.002731 -0.004101 0.001105 0.001063 -0.007351
# 2 -0.002731 0.011722 -0.004562 0.000276 0.002420 0.000221
# 3 -0.004101 -0.004562 0.028255 -0.004328 -0.003872 -0.004876
# 4 0.001105 0.000276 -0.004328 0.025454 0.005169 0.002231
# 5 0.001063 0.002420 -0.003872 0.005169 0.035296 -0.007863
# 6 -0.007351 0.000221 -0.004876 0.002231 -0.007863 0.037218
#
#
# Mechanical properties :
#
#
# Convention : Reuss Voigt Hill
#
# Bulk Modulus (GPa) = 31.06633 41.24291 36.15462
# Shear Modulus (GPa) = 26.81548 32.50454 29.66001
#
# Velocity S-wave (km/s) = 3.41414 3.75889 3.59066
# Velocity P-wave (km/s) = 5.38942 6.06356 5.73640
#
# Compressibility (1/GPa) = 0.03218919
#
# Stress axis : x y z
#
# Youngs Moduli (GPa) = 66.67381 85.30675 35.39251
#
# Poissons Ratio (x) = 0.23296 0.14513
# Poissons Ratio (y) = 0.18208 0.16145
# Poissons Ratio (z) = 0.27340 0.38914
#
# Static dielectric constant tensor:
#      x y z
#    x 1.972300 0.028370 -0.069350 
#    y 0.028370 1.954810 -0.059390 
#    z -0.069350 -0.059390 1.921900 
# 
# From -- ./inp_files/477492.got.cif
#   From: 2010.05.17/outbox.cif.g08.bks.cpg/sg2_239_cif.got.tgz:477492.got - 2010.06.03 11:33:40.
