data_PCOD9102095
_publ_section_title
;
Structure prediction by ZEFSAII (Michael W. Deem and Ramdas Pophale) SiO2 
 PCOD9102095
Probable space group: P -1
;
_chemical_formula_sum "Si O2"
_cell_formula_units_Z 16
_cell_length_a 22.770927
_cell_length_b 7.561791
_cell_length_c 5.271685
_cell_angle_alpha 77.104817
_cell_angle_beta 97.070530
_cell_angle_gamma 131.974999
_cell_volume 657.388615
_symmetry_space_group_name_H-M "P -1"
_symmetry_group_IT_number 2
_symmetry_cell_setting 'triclinic'
loop_
_space_group_symop_operation_xyz
x,y,z
-x,-y,-z
loop_
_atom_site_type_symbol
_atom_site_label
_atom_site_fract_x
_atom_site_fract_y
_atom_site_fract_z
Si Si1 0.551655 0.286690 0.894580
Si Si2 0.683322 0.002882 0.750196
Si Si3 0.989423 0.854105 0.291078
Si Si4 0.713490 0.851441 0.324940
Si Si5 0.816141 0.506154 0.427075
Si Si6 0.720824 0.562119 0.051054
Si Si7 0.153111 0.053863 0.395589
Si Si8 0.484783 0.184365 0.388706
O O1 0.516606 0.322134 0.627900
O O2 0.641919 0.403786 0.894963
O O3 0.535069 0.358553 0.123293
O O4 0.500000 0.000000 0.000000
O O5 0.676439 0.839935 0.572878
O O6 0.764484 0.272470 0.649276
O O7 0.606191 0.967339 0.675784
O O8 0.690132 0.932906 0.054839
O O9 0.899550 0.602742 0.339831
O O10 0.061383 0.857407 0.337886
O O11 0.000000 0.000000 0.500000
O O12 0.000000 0.000000 0.000000
O O13 0.696761 0.617640 0.278786
O O14 0.807106 0.021632 0.389770
O O15 0.757651 0.445970 0.186937
O O16 0.835487 0.732380 0.515443
O O17 0.791247 0.811061 0.865706
O O18 0.500000 0.000000 0.500000
#
# Coordination Sequence:
#
# PCOD9102095 Si02
#       8
#     2   2   2   2   2   2   2   2
#     4  10  22  36  62  94 124 152 210 271 316 372
#     4  12  25  44  68  95 135 169 220 271 326 384
#     4  10  20  38  62 103 134 160 214 279 323 370
#     4  11  26  44  64  94 135 184 211 260 325 407
#     4  10  23  37  71 103 125 168 225 278 319 376
#     4  11  22  42  71  94 129 178 221 258 332 396
#     4  10  22  42  70  95 132 177 217 264 326 397
#     4  10  22  40  60  92 125 160 201 275 325 366
#
# _framework density 24.338725
#
# number of rings (size 3 to 8) (size 9 to 14) (size 15 to 20)
#    0.000    1.500    2.500    2.250    8.750    0.000 
#    0.000    5.000    0.000    0.000    0.000    0.000 
#    0.000    0.000    0.000    0.000    0.000    0.000 
#
# Total GULP energy -89430.740073 kJ/mol
# GULP energy per Si atom -5589.421255 kJ/mol
# Density = 2.428333 g / cm^3
# Si number density = 24.338725 Si / 1000 Ang^3
#
#
#
# Elastic Constant Matrix: (Units=GPa)
#
#
# Indices 1 2 3 4 5 6 
#
# 1 130.1044 44.7945 29.4616 12.1346 13.4359 36.7301
# 2 44.7945 80.5244 12.9927 -6.3589 6.6437 24.2672
# 3 29.4616 12.9927 153.2926 29.9657 5.9931 5.1849
# 4 12.1346 -6.3589 29.9657 23.9983 2.8331 -4.2564
# 5 13.4359 6.6437 5.9931 2.8331 44.2533 5.7926
# 6 36.7301 24.2672 5.1849 -4.2564 5.7926 39.4712
#
#
#
# Elastic Compliance Matrix: (Units=1/GPa)
#
#
# Indices 1 2 3 4 5 6 
#
# 1 0.013330 -0.005054 0.000220 -0.010007 -0.001341 -0.010208
# 2 -0.005054 0.017835 -0.002139 0.009183 -0.000803 -0.004873
# 3 0.000220 -0.002139 0.009117 -0.012313 -0.000007 -0.001414
# 4 -0.010007 0.009183 -0.012313 0.067142 -0.002662 0.012914
# 5 -0.001341 -0.000803 -0.000007 -0.002662 0.023558 -0.002001
# 6 -0.010208 -0.004873 -0.001414 0.012914 -0.002001 0.039702
#
#
# Mechanical properties :
#
#
# Convention : Reuss Voigt Hill
#
# Bulk Modulus (GPa) = 37.96953 59.82434 48.89693
# Shear Modulus (GPa) = 25.85178 39.98940 32.92059
#
# Velocity S-wave (km/s) = 3.26263 4.05784 3.68176
# Velocity P-wave (km/s) = 5.46144 6.82554 6.18123
#
# Compressibility (1/GPa) = 0.02633691
#
# Stress axis : x y z
#
# Youngs Moduli (GPa) = 75.01827 56.06875 109.67954
#
# Poissons Ratio (x) = 0.28337 -0.02416
# Poissons Ratio (y) = 0.37914 0.23463
# Poissons Ratio (z) = -0.01652 0.11994
#
# Static dielectric constant tensor:
#      x y z
#    x 1.929780 0.066390 0.048490 
#    y 0.066390 1.919750 -0.006160 
#    z 0.048490 -0.006160 1.933750 
# 
# From -- ./inp_files/51564.got.cif
#   From: 2010.05.17/outbox.cif.g08.bks.cpg/sg2_26_cif.got.tgz:51564.got - 2010.06.03 11:33:40.
