data_PCOD9102522
_publ_section_title
;
Structure prediction by ZEFSAII (Michael W. Deem and Ramdas Pophale) SiO2 
 PCOD9102522
Probable space group: P -1
;
_chemical_formula_sum "Si O2"
_cell_formula_units_Z 16
_cell_length_a 7.404920
_cell_length_b 10.897537
_cell_length_c 8.232621
_cell_angle_alpha 84.338965
_cell_angle_beta 98.879749
_cell_angle_gamma 102.711403
_cell_volume 638.841667
_symmetry_space_group_name_H-M "P -1"
_symmetry_group_IT_number 2
_symmetry_cell_setting 'triclinic'
loop_
_space_group_symop_operation_xyz
x,y,z
-x,-y,-z
loop_
_atom_site_type_symbol
_atom_site_label
_atom_site_fract_x
_atom_site_fract_y
_atom_site_fract_z
Si Si1 0.960938 0.119937 0.074254
Si Si2 0.551559 0.815464 0.130435
Si Si3 0.887163 0.671774 0.727991
Si Si4 0.566078 0.069009 0.213358
Si Si5 0.608004 0.463345 0.863480
Si Si6 0.771632 0.257750 0.450017
Si Si7 0.721256 0.527058 0.418960
Si Si8 0.053026 0.264614 0.756281
O O1 0.962611 0.224807 0.921954
O O2 0.768191 0.080992 0.150180
O O3 0.554550 0.873593 0.942469
O O4 0.000000 0.000000 0.000000
O O5 0.402775 0.684675 0.117576
O O6 0.771822 0.630580 0.553385
O O7 0.751866 0.784896 0.208355
O O8 0.496844 0.918468 0.230688
O O9 0.802606 0.559825 0.853624
O O10 0.884242 0.807350 0.787302
O O11 0.100184 0.689074 0.696141
O O12 0.605795 0.151657 0.369920
O O13 0.474108 0.480983 0.693010
O O14 0.500000 0.500000 0.000000
O O15 0.726393 0.386649 0.495175
O O16 0.905273 0.208211 0.603213
O O17 0.879069 0.587715 0.299144
#
# Coordination Sequence:
#
# PCOD9102522 Si02
#       8
#     2   2   2   2   2   2   2   2
#     4  11  22  39  60  90 120 159 208 260 302 369
#     4  10  21  38  58  86 121 159 207 245 298 369
#     4  10  21  38  61  89 121 163 199 255 316 355
#     4  10  22  39  61  85 123 165 201 253 311 355
#     4  11  22  37  63  93 123 166 208 251 308 372
#     4  10  22  40  63  94 124 161 203 258 310 366
#     4  10  21  40  61  93 129 159 205 255 310 370
#     4  10  20  38  63  89 121 158 204 255 303 364
#
# _framework density 25.045328000000001
#
# number of rings (size 3 to 8) (size 9 to 14) (size 15 to 20)
#    0.000    1.750    1.250    4.125    0.000    2.500 
#    4.500    5.000    0.000    3.750    0.000    0.000 
#    0.000    0.000    0.000    0.000    0.000    0.000 
#
# Total GULP energy -89430.346411 kJ/mol
# GULP energy per Si atom -5589.396651 kJ/mol
# Density = 2.498832 g / cm^3
# Si number density = 25.045328 Si / 1000 Ang^3
#
#
#
# Elastic Constant Matrix: (Units=GPa)
#
#
# Indices 1 2 3 4 5 6 
#
# 1 60.8772 30.9658 20.7751 10.7514 1.1185 -1.7190
# 2 30.9658 143.2361 51.8202 36.7607 17.3277 5.8410
# 3 20.7751 51.8202 95.0222 35.4483 16.2837 -8.9421
# 4 10.7514 36.7607 35.4483 41.7325 14.0122 4.5957
# 5 1.1185 17.3277 16.2837 14.0122 46.8832 -11.6180
# 6 -1.7190 5.8410 -8.9421 4.5957 -11.6180 35.2498
#
#
#
# Elastic Compliance Matrix: (Units=1/GPa)
#
#
# Indices 1 2 3 4 5 6 
#
# 1 0.019103 -0.003446 -0.002120 -0.001079 0.002342 0.001877
# 2 -0.003446 0.010393 -0.003083 -0.004694 -0.001956 -0.002705
# 3 -0.002120 -0.003083 0.018087 -0.013026 0.000500 0.006859
# 4 -0.001079 -0.004694 -0.013026 0.043967 -0.009708 -0.011511
# 5 0.002342 -0.001956 0.000500 -0.009708 0.027417 0.010867
# 6 0.001877 -0.002705 0.006859 -0.011511 0.010867 0.035731
#
#
# Mechanical properties :
#
#
# Convention : Reuss Voigt Hill
#
# Bulk Modulus (GPa) = 33.01730 56.25086 44.63408
# Shear Modulus (GPa) = 27.45871 37.81138 32.63504
#
# Velocity S-wave (km/s) = 3.31473 3.88972 3.61368
# Velocity P-wave (km/s) = 5.27840 6.53312 5.93899
#
# Compressibility (1/GPa) = 0.03028715
#
# Stress axis : x y z
#
# Youngs Moduli (GPa) = 52.34728 96.21462 55.28719
#
# Poissons Ratio (x) = 0.33156 0.11718
# Poissons Ratio (y) = 0.18039 0.17044
# Poissons Ratio (z) = 0.11095 0.29661
#
# Static dielectric constant tensor:
#      x y z
#    x 2.073610 0.000320 -0.078170 
#    y 0.000320 2.051420 0.007660 
#    z -0.078170 0.007660 2.013530 
# 
# From -- ./inp_files/385130.got.cif
#   From: 2010.05.17/outbox.cif.g08.bks.cpg/sg2_193_cif.got.tgz:385130.got - 2010.06.03 11:33:40.
