data_PCOD9102223
_publ_section_title
;
Structure prediction by ZEFSAII (Michael W. Deem and Ramdas Pophale) SiO2 
 PCOD9102223
Probable space group: P -1
;
_chemical_formula_sum "Si O2"
_cell_formula_units_Z 14
_cell_length_a 14.123343
_cell_length_b 9.120858
_cell_length_c 14.796493
_cell_angle_alpha 51.600950
_cell_angle_beta 31.209443
_cell_angle_gamma 74.584029
_cell_volume 585.815725
_symmetry_space_group_name_H-M "P -1"
_symmetry_group_IT_number 2
_symmetry_cell_setting 'triclinic'
loop_
_space_group_symop_operation_xyz
x,y,z
-x,-y,-z
loop_
_atom_site_type_symbol
_atom_site_label
_atom_site_fract_x
_atom_site_fract_y
_atom_site_fract_z
Si Si1 0.456234 0.500270 0.715193
Si Si2 0.268225 0.895965 0.325730
Si Si3 0.766934 0.038026 0.861882
Si Si4 0.058723 0.347093 0.660857
Si Si5 0.696294 0.896975 0.244915
Si Si6 0.019240 0.765745 0.964488
Si Si7 0.978626 0.318151 0.213580
O O1 0.459061 0.622538 0.573084
O O2 0.721278 0.633433 0.487751
O O3 0.260388 0.473702 0.946330
O O4 0.341618 0.218312 0.903534
O O5 0.205674 0.985468 0.258000
O O6 0.139745 0.611925 0.513230
O O7 0.178624 0.881381 0.504305
O O8 0.554898 0.050620 0.034519
O O9 0.003491 0.265184 0.633163
O O10 0.802320 0.122838 0.003650
O O11 0.738929 0.026694 0.256733
O O12 0.857840 0.827947 0.108636
O O13 0.061418 0.785938 0.815318
O O14 0.929474 0.505998 0.174708
#
# Coordination Sequence:
#
# PCOD9102223 Si02
#       7
#     2   2   2   2   2   2   2
#     4  11  23  37  62  94 131 160 209 251 318 374
#     4  10  22  45  62  94 124 158 224 257 310 367
#     4  10  23  41  71  86 118 177 212 259 299 382
#     4  11  20  41  65  92 120 170 214 255 300 382
#     4  11  20  42  62  91 127 169 216 244 294 402
#     4  10  20  38  62  88 127 170 201 249 315 361
#     4  11  23  38  60  98 134 159 198 274 317 363
#
# _framework density 23.898302999999999
#
# number of rings (size 3 to 8) (size 9 to 14) (size 15 to 20)
#    0.000    1.429    4.286    2.143    0.000    5.714 
#    2.571    0.714    0.000    0.000    0.000    0.000 
#    0.000    0.000    0.000    0.000    0.000    0.000 
#
# Total GULP energy -78085.435453 kJ/mol
# GULP energy per Si atom -5577.531104 kJ/mol
# Density = 2.384391 g / cm^3
# Si number density = 23.898303 Si / 1000 Ang^3
#
#
#
# Elastic Constant Matrix: (Units=GPa)
#
#
# Indices 1 2 3 4 5 6 
#
# 1 119.4977 25.3506 32.2580 -4.0981 -0.3205 22.1683
# 2 25.3506 56.0682 8.0291 -8.7237 -1.2036 12.1941
# 3 32.2580 8.0291 81.0728 5.4895 22.8620 6.9346
# 4 -4.0981 -8.7237 5.4895 28.4591 7.1996 6.2386
# 5 -0.3205 -1.2036 22.8620 7.1996 26.8055 7.0045
# 6 22.1683 12.1941 6.9346 6.2386 7.0045 37.1804
#
#
#
# Elastic Compliance Matrix: (Units=1/GPa)
#
#
# Indices 1 2 3 4 5 6 
#
# 1 0.011766 -0.002658 -0.005704 0.001872 0.006092 -0.006542
# 2 -0.002658 0.022045 -0.001647 0.007694 0.002133 -0.007031
# 3 -0.005704 -0.001647 0.019420 -0.001538 -0.017294 0.003835
# 4 0.001872 0.007694 -0.001538 0.041863 -0.007208 -0.009019
# 5 0.006092 0.002133 -0.017294 -0.007208 0.056936 -0.010623
# 6 -0.006542 -0.007031 0.003835 -0.009019 -0.010623 0.035902
#
#
# Mechanical properties :
#
#
# Convention : Reuss Voigt Hill
#
# Bulk Modulus (GPa) = 30.10754 43.10155 36.60455
# Shear Modulus (GPa) = 22.82882 31.22241 27.02561
#
# Velocity S-wave (km/s) = 3.09406 3.61843 3.36647
# Velocity P-wave (km/s) = 5.03883 5.96087 5.51914
#
# Compressibility (1/GPa) = 0.03321427
#
# Stress axis : x y z
#
# Youngs Moduli (GPa) = 84.99020 45.36134 51.49318
#
# Poissons Ratio (x) = 0.12058 0.29369
# Poissons Ratio (y) = 0.22593 0.08479
# Poissons Ratio (z) = 0.48475 0.07469
#
# Static dielectric constant tensor:
#      x y z
#    x 1.997600 -0.019200 0.007020 
#    y -0.019200 1.902210 -0.032560 
#    z 0.007020 -0.032560 2.000200 
# 
# From -- ./inp_files/529369.got.cif
#   From: 2010.05.17/outbox.cif.g08.bks.cpg/sg2_265_cif.got.tgz:529369.got - 2010.06.03 11:33:40.
