data_PCOD9102052
_publ_section_title
;
Structure prediction by ZEFSAII (Michael W. Deem and Ramdas Pophale) SiO2 
 PCOD9102052
Probable space group: P -1
;
_chemical_formula_sum "Si O2"
_cell_formula_units_Z 16
_cell_length_a 9.355658
_cell_length_b 12.913052
_cell_length_c 15.939051
_cell_angle_alpha 139.562598
_cell_angle_beta 39.980433
_cell_angle_gamma 118.682465
_cell_volume 777.475903
_symmetry_space_group_name_H-M "P -1"
_symmetry_group_IT_number 2
_symmetry_cell_setting 'triclinic'
loop_
_space_group_symop_operation_xyz
x,y,z
-x,-y,-z
loop_
_atom_site_type_symbol
_atom_site_label
_atom_site_fract_x
_atom_site_fract_y
_atom_site_fract_z
Si Si1 0.481462 0.688922 0.157787
Si Si2 0.353149 0.054269 0.018261
Si Si3 0.201462 0.501326 0.974758
Si Si4 0.643850 0.579644 0.744106
Si Si5 0.895002 0.126114 0.199576
Si Si6 0.525871 0.976082 0.715149
Si Si7 0.009747 0.276413 0.635564
Si Si8 0.105080 0.496178 0.582548
O O1 0.670302 0.660043 0.128571
O O2 0.208840 0.753143 0.335678
O O3 0.528153 0.830033 0.162959
O O4 0.500000 0.500000 0.000000
O O5 0.377977 0.236410 0.103241
O O6 0.080449 0.071518 0.156832
O O7 0.500000 0.000000 0.000000
O O8 0.457345 0.951108 0.826638
O O9 0.414768 0.534257 0.847358
O O10 0.000000 0.500000 0.000000
O O11 0.092981 0.637167 0.178007
O O12 0.694086 0.569206 0.615819
O O13 0.872977 0.480676 0.628519
O O14 0.640114 0.106397 0.316884
O O15 0.898538 0.311430 0.286446
O O16 0.000000 0.000000 0.000000
O O17 0.791076 0.883679 0.532089
O O18 0.112270 0.399950 0.607104
#
# Coordination Sequence:
#
# PCOD9102052 Si02
#       8
#     2   2   2   2   2   2   2   2
#     4  10  22  42  68  85 125 179 222 260 323 404
#     4  10  20  38  61  93 132 173 218 267 335 392
#     4  11  25  42  64  96 133 177 221 273 337 394
#     4  10  21  40  65  95 128 173 222 272 322 395
#     4   9  22  37  61  92 135 169 217 273 335 384
#     4  11  23  40  64 101 131 168 228 276 326 395
#     4  11  23  41  69  99 128 176 226 266 331 402
#     4  10  21  40  70  96 128 173 223 273 324 393
#
# _framework density 20.579415999999998
#
# number of rings (size 3 to 8) (size 9 to 14) (size 15 to 20)
#    0.000    1.750    1.250    2.625   10.500    1.500 
#    2.250    0.625    0.000    0.000    0.000    0.000 
#    0.000    0.000    0.000    0.000    0.000    0.000 
#
# Total GULP energy -89162.970718 kJ/mol
# GULP energy per Si atom -5572.685670 kJ/mol
# Density = 2.053258 g / cm^3
# Si number density = 20.579416 Si / 1000 Ang^3
#
#
#
# Elastic Constant Matrix: (Units=GPa)
#
#
# Indices 1 2 3 4 5 6 
#
# 1 129.9541 47.4359 44.0538 0.7848 -30.1231 -13.4754
# 2 47.4359 91.3351 32.1605 -10.1263 -11.9936 -2.9887
# 3 44.0538 32.1605 95.2328 -13.5364 -20.3024 -3.3152
# 4 0.7848 -10.1263 -13.5364 27.8686 -6.1327 1.7652
# 5 -30.1231 -11.9936 -20.3024 -6.1327 34.3865 4.5357
# 6 -13.4754 -2.9887 -3.3152 1.7652 4.5357 25.5760
#
#
#
# Elastic Compliance Matrix: (Units=1/GPa)
#
#
# Indices 1 2 3 4 5 6 
#
# 1 0.012384 -0.004653 -0.002954 -0.002346 0.006454 0.004615
# 2 -0.004653 0.014665 -0.001972 0.004800 0.000927 -0.001489
# 3 -0.002954 -0.001972 0.015289 0.008553 0.007504 -0.001726
# 4 -0.002346 0.004800 0.008553 0.045112 0.013381 -0.005053
# 5 0.006454 0.000927 0.007504 0.013381 0.042398 -0.003961
# 6 0.004615 -0.001489 -0.001726 -0.005053 -0.003961 0.042184
#
#
# Mechanical properties :
#
#
# Convention : Reuss Voigt Hill
#
# Bulk Modulus (GPa) = 43.14262 62.64694 52.89478
# Shear Modulus (GPa) = 25.13628 30.42434 27.78031
#
# Velocity S-wave (km/s) = 3.49869 3.84915 3.67809
# Velocity P-wave (km/s) = 6.10987 7.08959 6.61789
#
# Compressibility (1/GPa) = 0.02317893
#
# Stress axis : x y z
#
# Youngs Moduli (GPa) = 80.75141 68.19043 65.40851
#
# Poissons Ratio (x) = 0.31729 0.19323
# Poissons Ratio (y) = 0.37574 0.12897
# Poissons Ratio (z) = 0.23856 0.13446
#
# Static dielectric constant tensor:
#      x y z
#    x 1.590160 0.171220 -0.019010 
#    y 0.171220 1.621930 -0.009670 
#    z -0.019010 -0.009670 1.784020 
# 
# From -- ./inp_files/381777.got.cif
#   From: 2010.05.17/outbox.cif.g08.bks.cpg/sg2_191_cif.got.tgz:381777.got - 2010.06.03 11:33:40.
