data_PCOD9102673
_publ_section_title
;
Structure prediction by ZEFSAII (Michael W. Deem and Ramdas Pophale) SiO2 
 PCOD9102673
Probable space group: P -1
;
_chemical_formula_sum "Si O2"
_cell_formula_units_Z 12
_cell_length_a 15.646533
_cell_length_b 9.526198
_cell_length_c 8.000535
_cell_angle_alpha 109.187444
_cell_angle_beta 42.692248
_cell_angle_gamma 132.603092
_cell_volume 560.059877
_symmetry_space_group_name_H-M "P -1"
_symmetry_group_IT_number 2
_symmetry_cell_setting 'triclinic'
loop_
_space_group_symop_operation_xyz
x,y,z
-x,-y,-z
loop_
_atom_site_type_symbol
_atom_site_label
_atom_site_fract_x
_atom_site_fract_y
_atom_site_fract_z
Si Si1 0.694252 0.170365 0.224938
Si Si2 0.213777 0.264445 0.903691
Si Si3 0.966735 0.160913 0.922399
Si Si4 0.294215 0.541090 0.483098
Si Si5 0.550120 0.910489 0.018781
Si Si6 0.452158 0.366282 0.304107
O O1 0.730739 0.371880 0.285181
O O2 0.500000 0.000000 0.500000
O O3 0.685215 0.090677 0.023990
O O4 0.826591 0.177549 0.141930
O O5 0.343597 0.280019 0.597540
O O6 0.343992 0.479612 0.893375
O O7 0.070462 0.218323 0.969390
O O8 0.126057 0.070206 0.068910
O O9 0.106464 0.320081 0.645030
O O10 0.384500 0.714448 0.282318
O O11 0.417255 0.500333 0.327620
O O12 0.612794 0.817827 0.790206
O O13 0.500000 0.000000 0.000000
#
# Coordination Sequence:
#
# PCOD9102673 Si02
#       6
#     2   2   2   2   2   2
#     4  10  22  40  65  87 124 165 207 250 312 373
#     4   9  20  36  67  97 120 163 209 260 300 369
#     4  10  20  38  63  95 125 160 210 256 311 368
#     4  10  22  41  65  93 124 168 206 253 312 370
#     4  11  25  39  63  95 126 162 213 257 305 366
#     4  10  21  40  67  90 127 162 214 248 307 370
#
# _framework density 21.426283000000002
#
# number of rings (size 3 to 8) (size 9 to 14) (size 15 to 20)
#    0.000    2.000    0.000    3.000   11.667    0.000 
#    0.000   10.000    0.000    0.000    0.000    0.000 
#    0.000    0.000    0.000    0.000    0.000    0.000 
#
# Total GULP energy -66938.659851 kJ/mol
# GULP energy per Si atom -5578.221654 kJ/mol
# Density = 2.137752 g / cm^3
# Si number density = 21.426283 Si / 1000 Ang^3
#
#
#
# Elastic Constant Matrix: (Units=GPa)
#
#
# Indices 1 2 3 4 5 6 
#
# 1 79.1680 46.3216 30.2069 4.9120 -22.9090 -15.4404
# 2 46.3216 110.4227 25.6073 11.0405 11.9550 -8.6296
# 3 30.2069 25.6073 46.2475 -9.9651 -7.0721 -1.3421
# 4 4.9120 11.0405 -9.9651 51.8459 -3.8396 10.9395
# 5 -22.9090 11.9550 -7.0721 -3.8396 41.7258 -4.8592
# 6 -15.4404 -8.6296 -1.3421 10.9395 -4.8592 39.4335
#
#
#
# Elastic Compliance Matrix: (Units=1/GPa)
#
#
# Indices 1 2 3 4 5 6 
#
# 1 0.033290 -0.011750 -0.012632 -0.004463 0.020702 0.013822
# 2 -0.011750 0.016589 -0.004289 -0.003831 -0.012469 -0.001590
# 3 -0.012632 -0.004289 0.034276 0.010305 0.000171 -0.007556
# 4 -0.004463 -0.003831 0.010305 0.024490 0.001619 -0.008830
# 5 0.020702 -0.012469 0.000171 0.001619 0.040234 0.009892
# 6 0.013822 -0.001590 -0.007556 -0.008830 0.009892 0.033835
#
#
# Mechanical properties :
#
#
# Convention : Reuss Voigt Hill
#
# Bulk Modulus (GPa) = 37.29743 48.90108 43.09926
# Shear Modulus (GPa) = 20.08092 35.51454 27.79773
#
# Velocity S-wave (km/s) = 3.06471 4.07568 3.60580
# Velocity P-wave (km/s) = 5.47434 6.70975 6.12328
#
# Compressibility (1/GPa) = 0.02681150
#
# Stress axis : x y z
#
# Youngs Moduli (GPa) = 30.03948 60.28248 29.17523
#
# Poissons Ratio (x) = 0.70833 0.36855
# Poissons Ratio (y) = 0.35297 0.12513
# Poissons Ratio (z) = 0.37946 0.25854
#
# Static dielectric constant tensor:
#      x y z
#    x 1.805810 0.038210 0.027680 
#    y 0.038210 1.874540 0.008240 
#    z 0.027680 0.008240 1.803620 
# 
# From -- ./inp_files/146895.got.cif
#   From: 2010.05.17/outbox.cif.g08.bks.cpg/sg2_74_cif.got.tgz:146895.got - 2010.06.03 11:33:40.
