data_PCOD9102284
_publ_section_title
;
Structure prediction by ZEFSAII (Michael W. Deem and Ramdas Pophale) SiO2 
 PCOD9102284
Probable space group: P -1
;
_chemical_formula_sum "Si O2"
_cell_formula_units_Z 14
_cell_length_a 17.933965
_cell_length_b 9.759449
_cell_length_c 5.406605
_cell_angle_alpha 136.494677
_cell_angle_beta 74.549717
_cell_angle_gamma 105.755870
_cell_volume 623.519032
_symmetry_space_group_name_H-M "P -1"
_symmetry_group_IT_number 2
_symmetry_cell_setting 'triclinic'
loop_
_space_group_symop_operation_xyz
x,y,z
-x,-y,-z
loop_
_atom_site_type_symbol
_atom_site_label
_atom_site_fract_x
_atom_site_fract_y
_atom_site_fract_z
Si Si1 0.515948 0.632423 0.910319
Si Si2 0.642285 0.256578 0.834294
Si Si3 0.763272 0.403162 0.531555
Si Si4 0.074572 0.901011 0.398934
Si Si5 0.073719 0.656644 0.578432
Si Si6 0.248358 0.992244 0.319786
Si Si7 0.317313 0.342220 0.364318
O O1 0.500000 0.500000 0.500000
O O2 0.606517 0.716900 0.920063
O O3 0.500000 0.500000 0.000000
O O4 0.450392 0.785088 0.164714
O O5 0.683354 0.361368 0.697071
O O6 0.692713 0.077307 0.618589
O O7 0.657495 0.436574 0.255375
O O8 0.842054 0.419726 0.645135
O O9 0.756357 0.611917 0.673385
O O10 0.761102 0.203970 0.105770
O O11 0.056711 0.786888 0.524882
O O12 0.160665 0.023002 0.519429
O O13 0.085263 0.764556 0.973141
O O14 0.000000 0.000000 0.500000
O O15 0.000000 0.500000 0.500000
O O16 0.289320 0.181404 0.384853
#
# Coordination Sequence:
#
# PCOD9102284 Si02
#       7
#     2   2   2   2   2   2   2
#     4  10  20  38  62  90 124 161 207 256 303 361
#     4  10  20  40  62  84 127 161 201 258 304 358
#     4  10  21  40  61  87 125 160 201 258 304 359
#     4  11  24  43  62  92 127 159 201 262 307 359
#     4  11  24  42  65  91 123 163 206 249 313 370
#     4  10  23  40  60  91 125 158 207 254 306 368
#     4  10  22  38  63  90 118 168 207 245 311 369
#
# _framework density 22.453203999999999
#
# number of rings (size 3 to 8) (size 9 to 14) (size 15 to 20)
#    0.000    1.714    2.857    0.857    2.000    2.857 
#    0.000    0.714    0.000    0.000    0.000    0.000 
#    0.000    0.000    0.000    0.000    0.000    0.000 
#
# Total GULP energy -78044.095753 kJ/mol
# GULP energy per Si atom -5574.578268 kJ/mol
# Density = 2.240210 g / cm^3
# Si number density = 22.453204 Si / 1000 Ang^3
#
#
#
# Elastic Constant Matrix: (Units=GPa)
#
#
# Indices 1 2 3 4 5 6 
#
# 1 163.3318 72.4647 44.7318 9.7335 -35.8770 -13.0022
# 2 72.4647 168.8826 14.1297 -12.4851 -12.1678 -14.3192
# 3 44.7318 14.1297 45.5191 -18.0013 -2.4943 1.2823
# 4 9.7335 -12.4851 -18.0013 34.0028 0.5982 1.1295
# 5 -35.8770 -12.1678 -2.4943 0.5982 42.0334 -1.1405
# 6 -13.0022 -14.3192 1.2823 1.1295 -1.1405 44.0703
#
#
#
# Elastic Compliance Matrix: (Units=1/GPa)
#
#
# Indices 1 2 3 4 5 6 
#
# 1 0.023719 -0.007816 -0.030570 -0.026352 0.016719 0.006456
# 2 -0.007816 0.009038 0.008721 0.010237 -0.003682 0.000019
# 3 -0.030570 0.008721 0.067614 0.048439 -0.020514 -0.009925
# 4 -0.026352 0.010237 0.048439 0.066936 -0.017825 -0.008035
# 5 0.016719 -0.003682 -0.020514 -0.017825 0.036186 0.005726
# 6 0.006456 0.000019 -0.009925 -0.008035 0.005726 0.025245
#
#
# Mechanical properties :
#
#
# Convention : Reuss Voigt Hill
#
# Bulk Modulus (GPa) = 24.36471 71.15398 47.75934
# Shear Modulus (GPa) = 16.57011 40.44845 28.50928
#
# Velocity S-wave (km/s) = 2.71953 4.24896 3.56718
# Velocity P-wave (km/s) = 4.55368 7.47196 6.18734
#
# Compressibility (1/GPa) = 0.04104297
#
# Stress axis : x y z
#
# Youngs Moduli (GPa) = 42.16032 110.63858 14.78983
#
# Poissons Ratio (x) = 0.86475 0.45212
# Poissons Ratio (y) = 0.32952 -0.12899
# Poissons Ratio (z) = 1.28883 -0.96492
#
# Static dielectric constant tensor:
#      x y z
#    x 1.950400 -0.020380 -0.026370 
#    y -0.020380 1.783490 -0.046270 
#    z -0.026370 -0.046270 2.113870 
# 
# From -- ./inp_files/7906.got.cif
#   From: 2010.05.17/outbox.cif.g08.bks.cpg/sg2_4_cif.got.tgz:7906.got - 2010.06.03 11:33:40.
