data_PCOD9102414
_publ_section_title
;
Structure prediction by ZEFSAII (Michael W. Deem and Ramdas Pophale) SiO2 
 PCOD9102414
Probable space group: P -1
;
_chemical_formula_sum "Si O2"
_cell_formula_units_Z 14
_cell_length_a 18.637463
_cell_length_b 11.750665
_cell_length_c 7.680710
_cell_angle_alpha 107.354563
_cell_angle_beta 44.189443
_cell_angle_gamma 143.417639
_cell_volume 519.995489
_symmetry_space_group_name_H-M "P -1"
_symmetry_group_IT_number 2
_symmetry_cell_setting 'triclinic'
loop_
_space_group_symop_operation_xyz
x,y,z
-x,-y,-z
loop_
_atom_site_type_symbol
_atom_site_label
_atom_site_fract_x
_atom_site_fract_y
_atom_site_fract_z
Si Si1 0.098704 0.991238 0.936222
Si Si2 0.589663 0.667341 0.730185
Si Si3 0.192970 0.736672 0.563386
Si Si4 0.383052 0.697596 0.096552
Si Si5 0.743891 0.884680 0.899713
Si Si6 0.379814 0.004210 0.696616
Si Si7 0.169916 0.483328 0.011968
O O1 0.344564 0.239250 0.539727
O O2 0.108932 0.994303 0.129416
O O3 0.976886 0.755127 0.953651
O O4 0.000000 0.000000 0.000000
O O5 0.428990 0.611477 0.038007
O O6 0.789687 0.888675 0.623735
O O7 0.474268 0.421671 0.828937
O O8 0.954104 0.516259 0.795060
O O9 0.386433 0.006030 0.241010
O O10 0.194801 0.791857 0.777773
O O11 0.278567 0.688863 0.400750
O O12 0.204815 0.503418 0.163984
O O13 0.708025 0.991085 0.009603
O O14 0.500000 0.000000 0.500000
O O15 0.585329 0.283291 0.379982
#
# Coordination Sequence:
#
# PCOD9102414 Si02
#       7
#     2   2   2   2   2   2   2
#     4  12  23  42  69 100 136 176 220 281 338 394
#     4  11  23  43  69  96 135 179 221 274 345 390
#     4  10  20  38  62  96 130 177 230 267 327 407
#     4  10  20  38  64  95 135 172 220 278 331 395
#     4  11  24  44  67  98 136 176 228 275 327 415
#     4  11  23  42  64  91 138 182 218 278 339 389
#     4  11  21  39  65  99 130 173 235 270 331 406
#
# _framework density 26.923310000000001
#
# number of rings (size 3 to 8) (size 9 to 14) (size 15 to 20)
#    0.000    1.143    2.857    4.286    0.000    1.143 
#    2.571    1.429    0.000    0.000    0.000    0.000 
#    0.000    0.000    0.000    0.000    0.000    0.000 
#
# Total GULP energy -78237.066147 kJ/mol
# GULP energy per Si atom -5588.361868 kJ/mol
# Density = 2.686203 g / cm^3
# Si number density = 26.923310 Si / 1000 Ang^3
#
#
#
# Elastic Constant Matrix: (Units=GPa)
#
#
# Indices 1 2 3 4 5 6 
#
# 1 149.1682 45.3309 21.5549 22.3617 -28.1591 3.1063
# 2 45.3309 131.4371 19.4585 25.1061 -3.9361 7.9994
# 3 21.5549 19.4585 62.8624 6.9015 -7.9450 3.2145
# 4 22.3617 25.1061 6.9015 39.5957 -7.5410 -3.2241
# 5 -28.1591 -3.9361 -7.9450 -7.5410 36.9048 13.7641
# 6 3.1063 7.9994 3.2145 -3.2241 13.7641 58.9586
#
#
#
# Elastic Compliance Matrix: (Units=1/GPa)
#
#
# Indices 1 2 3 4 5 6 
#
# 1 0.009234 -0.002215 -0.001269 -0.002459 0.006712 -0.001818
# 2 -0.002215 0.009589 -0.001837 -0.004912 -0.001711 -0.000953
# 3 -0.001269 -0.001837 0.017432 -0.000706 0.002952 -0.001362
# 4 -0.002459 -0.004912 -0.000706 0.030605 0.003030 0.001801
# 5 0.006712 -0.001711 0.002952 0.003030 0.036513 -0.008641
# 6 -0.001818 -0.000953 -0.001362 0.001801 -0.008641 0.019376
#
#
# Mechanical properties :
#
#
# Convention : Reuss Voigt Hill
#
# Bulk Modulus (GPa) = 39.04436 57.35069 48.19752
# Shear Modulus (GPa) = 35.22865 44.23338 39.73101
#
# Velocity S-wave (km/s) = 3.62122 4.05772 3.84567
# Velocity P-wave (km/s) = 5.65843 6.58036 6.13673
#
# Compressibility (1/GPa) = 0.02561189
#
# Stress axis : x y z
#
# Youngs Moduli (GPa) = 108.29575 104.28255 57.36647
#
# Poissons Ratio (x) = 0.23104 0.07281
# Poissons Ratio (y) = 0.23993 0.10537
# Poissons Ratio (z) = 0.13746 0.19155
#
# Static dielectric constant tensor:
#      x y z
#    x 2.228090 -0.047020 -0.011500 
#    y -0.047020 2.066230 -0.028610 
#    z -0.011500 -0.028610 2.129350 
# 
# From -- ./inp_files/123828.got.cif
#   From: 2010.05.17/outbox.cif.g08.bks.cpg/sg2_62_cif.got.tgz:123828.got - 2010.06.03 11:33:40.
