data_PCOD9102465
_publ_section_title
;
Structure prediction by ZEFSAII (Michael W. Deem and Ramdas Pophale) SiO2 
 PCOD9102465
Probable space group: P -1
;
_chemical_formula_sum "Si O2"
_cell_formula_units_Z 16
_cell_length_a 7.976575
_cell_length_b 11.078864
_cell_length_c 22.400377
_cell_angle_alpha 27.458818
_cell_angle_beta 131.891118
_cell_angle_gamma 134.333354
_cell_volume 646.069154
_symmetry_space_group_name_H-M "P -1"
_symmetry_group_IT_number 2
_symmetry_cell_setting 'triclinic'
loop_
_space_group_symop_operation_xyz
x,y,z
-x,-y,-z
loop_
_atom_site_type_symbol
_atom_site_label
_atom_site_fract_x
_atom_site_fract_y
_atom_site_fract_z
Si Si1 0.507821 0.311611 0.851065
Si Si2 0.952351 0.709670 0.730742
Si Si3 0.038291 0.239477 0.819304
Si Si4 0.327594 0.545441 0.526673
Si Si5 0.757338 0.572549 0.917078
Si Si6 0.276742 0.318471 0.968390
Si Si7 0.153539 0.283467 0.469439
Si Si8 0.980499 0.078364 0.692091
O O1 0.695588 0.473824 0.774559
O O2 0.234571 0.294835 0.789713
O O3 0.614109 0.479810 0.862502
O O4 0.500000 0.000000 0.000000
O O5 0.147465 0.549985 0.847184
O O6 0.973820 0.872690 0.726622
O O7 0.003567 0.964581 0.584621
O O8 0.182889 0.221992 0.921454
O O9 0.956691 0.510345 0.681980
O O10 0.825655 0.953092 0.896354
O O11 0.216476 0.428318 0.486710
O O12 0.599155 0.694865 0.512885
O O13 0.195737 0.742871 0.438220
O O14 0.249320 0.275759 0.668213
O O15 0.561960 0.439208 0.978978
O O16 0.861367 0.900403 0.798500
O O17 0.000000 0.500000 0.000000
#
# Coordination Sequence:
#
# PCOD9102465 Si02
#       8
#     2   2   2   2   2   2   2   2
#     4  10  20  40  60  83 124 164 199 249 311 364
#     4  10  20  38  63  85 119 159 204 254 303 357
#     4  10  22  38  61  88 118 165 207 248 305 368
#     4   9  19  38  60  82 128 159 195 251 314 370
#     4  10  22  36  59  89 120 155 206 255 300 361
#     4  10  21  40  60  85 124 162 203 254 304 365
#     4  10  21  36  61  92 116 161 207 253 304 368
#     4   9  19  37  57  85 119 162 194 251 310 356
#
# _framework density 24.765152
#
# number of rings (size 3 to 8) (size 9 to 14) (size 15 to 20)
#    0.000    2.250    1.250    0.750    1.750    2.000 
#    0.000    6.250    0.000    0.000    0.000    0.000 
#    0.000    0.000    0.000    0.000    0.000    0.000 
#
# Total GULP energy -89341.034863 kJ/mol
# GULP energy per Si atom -5583.814679 kJ/mol
# Density = 2.470879 g / cm^3
# Si number density = 24.765152 Si / 1000 Ang^3
#
#
#
# Elastic Constant Matrix: (Units=GPa)
#
#
# Indices 1 2 3 4 5 6 
#
# 1 158.2751 51.9267 47.4677 -21.6279 -14.7097 49.7705
# 2 51.9267 101.7384 40.6901 -21.6294 -22.6806 39.0746
# 3 47.4677 40.6901 128.6247 -45.0032 -22.1463 46.3226
# 4 -21.6279 -21.6294 -45.0032 37.9553 5.5124 -15.7046
# 5 -14.7097 -22.6806 -22.1463 5.5124 52.1902 -5.9753
# 6 49.7705 39.0746 46.3226 -15.7046 -5.9753 65.7094
#
#
#
# Elastic Compliance Matrix: (Units=1/GPa)
#
#
# Indices 1 2 3 4 5 6 
#
# 1 0.008884 -0.002064 -0.000178 0.001514 0.000806 -0.004942
# 2 -0.002064 0.015242 0.001010 0.005275 0.005172 -0.006482
# 3 -0.000178 0.001010 0.017150 0.016734 0.004971 -0.008105
# 4 0.001514 0.005275 0.016734 0.047653 0.004294 -0.004300
# 5 0.000806 0.005172 0.004971 0.004294 0.022823 -0.004088
# 6 -0.004942 -0.006482 -0.008105 -0.004300 -0.004088 0.027130
#
#
# Mechanical properties :
#
#
# Convention : Reuss Voigt Hill
#
# Bulk Modulus (GPa) = 25.76413 74.31191 50.03802
# Shear Modulus (GPa) = 32.40784 47.74122 40.07453
#
# Velocity S-wave (km/s) = 3.62139 4.39539 4.02703
# Velocity P-wave (km/s) = 5.28317 7.47202 6.47082
#
# Compressibility (1/GPa) = 0.03881365
#
# Stress axis : x y z
#
# Youngs Moduli (GPa) = 112.55943 65.60679 58.30874
#
# Poissons Ratio (x) = 0.13541 0.01035
# Poissons Ratio (y) = 0.23232 -0.05889
# Poissons Ratio (z) = 0.01999 -0.06627
#
# Static dielectric constant tensor:
#      x y z
#    x 1.964230 -0.048460 0.001300 
#    y -0.048460 1.981710 0.020500 
#    z 0.001300 0.020500 1.881040 
# 
# From -- ./inp_files/622622.got.cif
#   From: 2010.05.17/outbox.cif.g08.bks.cpg/sg2_312_cif.got.tgz:622622.got - 2010.06.03 11:33:40.
