data_PCOD9102133
_publ_section_title
;
Structure prediction by ZEFSAII (Michael W. Deem and Ramdas Pophale) SiO2 
 PCOD9102133
Probable space group: P -1
;
_chemical_formula_sum "Si O2"
_cell_formula_units_Z 16
_cell_length_a 10.563307
_cell_length_b 12.176486
_cell_length_c 11.354237
_cell_angle_alpha 32.627996
_cell_angle_beta 97.378260
_cell_angle_gamma 112.416308
_cell_volume 671.313375
_symmetry_space_group_name_H-M "P -1"
_symmetry_group_IT_number 2
_symmetry_cell_setting 'triclinic'
loop_
_space_group_symop_operation_xyz
x,y,z
-x,-y,-z
loop_
_atom_site_type_symbol
_atom_site_label
_atom_site_fract_x
_atom_site_fract_y
_atom_site_fract_z
Si Si1 0.660229 0.370286 0.677031
Si Si2 0.490750 0.932437 0.288255
Si Si3 0.931787 0.372407 0.829114
Si Si4 0.674844 0.484712 0.188215
Si Si5 0.587780 0.458340 0.823457
Si Si6 0.132832 0.657356 0.786063
Si Si7 0.875900 0.738569 0.189062
Si Si8 0.217354 0.042795 0.631730
O O1 0.580566 0.155994 0.768606
O O2 0.777245 0.340077 0.798303
O O3 0.557068 0.405392 0.726034
O O4 0.758627 0.604049 0.399548
O O5 0.370635 0.753510 0.527641
O O6 0.626884 0.888860 0.351906
O O7 0.556388 0.202327 0.089353
O O8 0.042984 0.612619 0.694672
O O9 0.026324 0.378754 0.723694
O O10 0.898469 0.151093 0.113550
O O11 0.525930 0.496414 0.155697
O O12 0.759829 0.451684 0.119414
O O13 0.784998 0.701161 0.091036
O O14 0.751943 0.695121 0.630607
O O15 0.207548 0.912220 0.625499
O O16 0.000000 0.500000 0.000000
O O17 0.000000 0.000000 0.000000
#
# Coordination Sequence:
#
# PCOD9102133 Si02
#       8
#     2   2   2   2   2   2   2   2
#     4  11  22  37  59  91 128 158 196 241 309 360
#     4  10  22  38  59  91 126 157 191 250 303 355
#     4  10  20  38  62  85 122 163 195 246 304 356
#     4   9  22  40  60  89 118 157 200 244 305 352
#     4  11  22  37  61  91 121 155 201 249 294 361
#     4   9  20  43  68  81 117 164 199 250 302 349
#     4  10  21  35  57  88 121 162 202 241 293 360
#     4  10  21  39  65  85 116 160 208 245 302 347
#
# _framework density 23.833874999999999
#
# number of rings (size 3 to 8) (size 9 to 14) (size 15 to 20)
#    0.000    2.000    1.250    1.500    1.750    6.500 
#    0.000    3.125    2.750    0.000    0.000    0.000 
#    0.000    0.000    0.000    0.000    0.000    0.000 
#
# Total GULP energy -89214.729675 kJ/mol
# GULP energy per Si atom -5575.920605 kJ/mol
# Density = 2.377963 g / cm^3
# Si number density = 23.833875 Si / 1000 Ang^3
#
#
#
# Elastic Constant Matrix: (Units=GPa)
#
#
# Indices 1 2 3 4 5 6 
#
# 1 78.7250 9.3591 -1.7384 10.4303 -12.0028 -15.6493
# 2 9.3591 103.1952 18.4039 -13.1209 11.9956 -1.6420
# 3 -1.7384 18.4039 59.9259 -12.6533 -3.1091 -3.0906
# 4 10.4303 -13.1209 -12.6533 34.0705 -8.7697 -11.4791
# 5 -12.0028 11.9956 -3.1091 -8.7697 27.0043 2.4049
# 6 -15.6493 -1.6420 -3.0906 -11.4791 2.4049 40.7886
#
#
#
# Elastic Compliance Matrix: (Units=1/GPa)
#
#
# Indices 1 2 3 4 5 6 
#
# 1 0.015359 -0.002629 0.001552 -0.001587 0.007210 0.005033
# 2 -0.002629 0.011544 -0.003367 0.002581 -0.005871 0.000273
# 3 0.001552 -0.003367 0.020230 0.008935 0.007052 0.004091
# 4 -0.001587 0.002581 0.008935 0.040794 0.011447 0.010978
# 5 0.007210 -0.005871 0.007052 0.011447 0.047060 0.003511
# 6 0.005033 0.000273 0.004091 0.010978 0.003511 0.029651
#
#
# Mechanical properties :
#
#
# Convention : Reuss Voigt Hill
#
# Bulk Modulus (GPa) = 26.14819 32.65501 29.40160
# Shear Modulus (GPa) = 26.84178 34.76078 30.80128
#
# Velocity S-wave (km/s) = 3.35954 3.82312 3.59880
# Velocity P-wave (km/s) = 5.10328 5.76361 5.44347
#
# Compressibility (1/GPa) = 0.03824357
#
# Stress axis : x y z
#
# Youngs Moduli (GPa) = 65.10724 86.62276 49.43195
#
# Poissons Ratio (x) = 0.22777 -0.07670
# Poissons Ratio (y) = 0.17120 0.16644
# Poissons Ratio (z) = -0.10102 0.29167
#
# Static dielectric constant tensor:
#      x y z
#    x 1.936100 -0.018240 0.030550 
#    y -0.018240 2.074310 0.000450 
#    z 0.030550 0.000450 2.008190 
# 
# From -- ./inp_files/422830.got.cif
#   From: 2010.05.17/outbox.cif.g08.bks.cpg/sg2_212_cif.got.tgz:422830.got - 2010.06.03 11:33:40.
