data_PCOD9102543
_publ_section_title
;
Structure prediction by ZEFSAII (Michael W. Deem and Ramdas Pophale) SiO2 
 PCOD9102543
Probable space group: P -1
;
_chemical_formula_sum "Si O2"
_cell_formula_units_Z 16
_cell_length_a 8.689043
_cell_length_b 8.885236
_cell_length_c 23.071233
_cell_angle_alpha 151.024319
_cell_angle_beta 50.083970
_cell_angle_gamma 126.578289
_cell_volume 658.944489
_symmetry_space_group_name_H-M "P -1"
_symmetry_group_IT_number 2
_symmetry_cell_setting 'triclinic'
loop_
_space_group_symop_operation_xyz
x,y,z
-x,-y,-z
loop_
_atom_site_type_symbol
_atom_site_label
_atom_site_fract_x
_atom_site_fract_y
_atom_site_fract_z
Si Si1 0.827027 0.350017 0.034948
Si Si2 0.396813 0.682111 0.731806
Si Si3 0.945806 0.342924 0.816178
Si Si4 0.658288 0.466946 0.502174
Si Si5 0.253006 0.993684 0.581353
Si Si6 0.113532 0.503407 0.356662
Si Si7 0.364669 0.898769 0.104380
Si Si8 0.959394 0.686741 0.809903
O O1 0.631336 0.287507 0.019856
O O2 0.868943 0.009101 0.930671
O O3 0.000000 0.500000 0.000000
O O4 0.866534 0.553579 0.151180
O O5 0.586806 0.695056 0.646931
O O6 0.439493 0.919990 0.854544
O O7 0.200556 0.754824 0.768436
O O8 0.342704 0.331261 0.650856
O O9 0.924529 0.563079 0.841071
O O10 0.745402 0.322785 0.895355
O O11 0.020405 0.028379 0.666177
O O12 0.500000 0.500000 0.500000
O O13 0.645609 0.143724 0.433085
O O14 0.883688 0.497719 0.432614
O O15 0.240638 0.754112 0.450019
O O16 0.113670 0.555097 0.304695
O O17 0.210248 0.172424 0.227902
#
# Coordination Sequence:
#
# PCOD9102543 Si02
#       8
#     2   2   2   2   2   2   2   2
#     4   9  20  39  67  86 112 158 207 243 299 363
#     4  11  23  39  57  90 126 157 193 255 299 347
#     4  10  20  38  63  90 114 158 205 247 295 355
#     4  12  22  37  57  88 124 153 198 243 297 351
#     4  11  23  39  60  86 124 163 202 237 303 358
#     4  11  21  39  59  85 121 168 199 238 293 368
#     4  10  20  39  63  85 117 162 204 238 306 355
#     4  10  22  39  60  91 121 149 203 254 295 348
#
# _framework density 24.281257
#
# number of rings (size 3 to 8) (size 9 to 14) (size 15 to 20)
#    0.000    1.500    3.750    1.875    0.000    2.000 
#    2.250    5.000    0.000    1.500    0.000    0.000 
#    0.000    0.000    0.000    0.000    0.000    0.000 
#
# Total GULP energy -89357.753083 kJ/mol
# GULP energy per Si atom -5584.859568 kJ/mol
# Density = 2.422599 g / cm^3
# Si number density = 24.281257 Si / 1000 Ang^3
#
#
#
# Elastic Constant Matrix: (Units=GPa)
#
#
# Indices 1 2 3 4 5 6 
#
# 1 82.9887 21.4119 18.1798 -5.2899 30.0977 -9.2748
# 2 21.4119 73.6262 20.7121 -19.3298 16.4583 -9.6344
# 3 18.1798 20.7121 71.2507 -4.4038 36.4505 -9.7739
# 4 -5.2899 -19.3298 -4.4038 23.5066 3.0411 4.0636
# 5 30.0977 16.4583 36.4505 3.0411 49.3576 -7.7529
# 6 -9.2748 -9.6344 -9.7739 4.0636 -7.7529 30.8619
#
#
#
# Elastic Compliance Matrix: (Units=1/GPa)
#
#
# Indices 1 2 3 4 5 6 
#
# 1 0.016503 -0.001712 0.002599 0.003939 -0.011360 0.001876
# 2 -0.001712 0.020212 -0.001439 0.016339 -0.005351 0.001844
# 3 0.002599 -0.001439 0.024190 0.005963 -0.018952 0.002447
# 4 0.003939 0.016339 0.005963 0.060826 -0.016632 -0.004014
# 5 -0.011360 -0.005351 -0.018952 -0.016632 0.044345 0.002243
# 6 0.001876 0.001844 0.002447 -0.004014 0.002243 0.035409
#
#
# Mechanical properties :
#
#
# Convention : Reuss Voigt Hill
#
# Bulk Modulus (GPa) = 16.72187 38.71925 27.72056
# Shear Modulus (GPa) = 22.46987 31.91601 27.19294
#
# Velocity S-wave (km/s) = 3.04534 3.62944 3.35014
# Velocity P-wave (km/s) = 4.38944 5.79177 5.13866
#
# Compressibility (1/GPa) = 0.05980191
#
# Stress axis : x y z
#
# Youngs Moduli (GPa) = 60.59620 49.47652 41.33972
#
# Poissons Ratio (x) = 0.08468 -0.10745
# Poissons Ratio (y) = 0.10371 0.05947
# Poissons Ratio (z) = -0.15749 0.07118
#
# Static dielectric constant tensor:
#      x y z
#    x 1.965220 0.029190 0.004730 
#    y 0.029190 1.942570 -0.036250 
#    z 0.004730 -0.036250 1.967740 
# 
# From -- ./inp_files/214311.got.cif
#   From: 2010.05.17/outbox.cif.g08.bks.cpg/sg2_108_cif.got.tgz:214311.got - 2010.06.03 11:33:40.
