data_PCOD9102260
_publ_section_title
;
Structure prediction by ZEFSAII (Michael W. Deem and Ramdas Pophale) SiO2 
 PCOD9102260
Probable space group: P -1
;
_chemical_formula_sum "Si O2"
_cell_formula_units_Z 16
_cell_length_a 18.781393
_cell_length_b 9.359106
_cell_length_c 9.214170
_cell_angle_alpha 113.330857
_cell_angle_beta 135.507495
_cell_angle_gamma 46.717409
_cell_volume 812.456687
_symmetry_space_group_name_H-M "P -1"
_symmetry_group_IT_number 2
_symmetry_cell_setting 'triclinic'
loop_
_space_group_symop_operation_xyz
x,y,z
-x,-y,-z
loop_
_atom_site_type_symbol
_atom_site_label
_atom_site_fract_x
_atom_site_fract_y
_atom_site_fract_z
Si Si1 0.616741 0.478787 0.080895
Si Si2 0.265586 0.057808 0.314958
Si Si3 0.250729 0.473835 0.218592
Si Si4 0.976408 0.871713 0.012937
Si Si5 0.120870 0.968974 0.737658
Si Si6 0.266142 0.132887 0.029587
Si Si7 0.624162 0.389044 0.733538
Si Si8 0.420699 0.210059 0.640739
O O1 0.753197 0.258173 0.198266
O O2 0.625860 0.634441 0.235636
O O3 0.500000 0.500000 0.000000
O O4 0.589805 0.502381 0.880475
O O5 0.132684 0.131108 0.226654
O O6 0.220393 0.180525 0.149612
O O7 0.365134 0.088788 0.534698
O O8 0.332812 0.831045 0.277472
O O9 0.253413 0.325588 0.051095
O O10 0.279510 0.598061 0.214588
O O11 0.357984 0.337393 0.448664
O O12 0.107329 0.647493 0.141342
O O13 0.918466 0.979031 0.128516
O O14 0.000000 0.000000 0.000000
O O15 0.000000 0.000000 0.500000
O O16 0.173995 0.088407 0.810495
O O17 0.421013 0.943045 0.185881
O O18 0.500000 0.500000 0.500000
#
# Coordination Sequence:
#
# PCOD9102260 Si02
#       8
#     2   2   2   2   2   2   2   2
#     4  12  22  41  64  92 129 171 206 264 317 374
#     4  10  20  38  62  89 125 165 206 260 310 370
#     4  11  22  37  67  92 123 168 215 256 323 374
#     4  11  21  41  60  90 128 166 211 262 305 377
#     4  11  23  39  64  90 127 168 214 255 317 381
#     4  10  20  40  61  93 129 161 208 271 307 375
#     4  12  22  39  64  93 122 169 212 253 318 383
#     4  11  22  39  66  94 127 161 213 267 317 365
#
# _framework density 19.693359000000001
#
# number of rings (size 3 to 8) (size 9 to 14) (size 15 to 20)
#    0.000    1.000    5.000    4.500    0.000    5.500 
#    0.000    3.750    0.000    3.000    0.000    0.000 
#    0.000    0.000    0.000    0.000    0.000    0.000 
#
# Total GULP energy -89120.101634 kJ/mol
# GULP energy per Si atom -5570.006352 kJ/mol
# Density = 1.964854 g / cm^3
# Si number density = 19.693359 Si / 1000 Ang^3
#
#
#
# Elastic Constant Matrix: (Units=GPa)
#
#
# Indices 1 2 3 4 5 6 
#
# 1 97.4641 48.4011 46.8446 8.0970 27.7691 -6.2322
# 2 48.4011 109.3887 38.5065 19.8527 10.6616 -9.5314
# 3 46.8446 38.5065 119.4666 20.7841 24.7397 -3.1219
# 4 8.0970 19.8527 20.7841 39.6525 -0.3167 10.3729
# 5 27.7691 10.6616 24.7397 -0.3167 35.4988 2.5657
# 6 -6.2322 -9.5314 -3.1219 10.3729 2.5657 37.2916
#
#
#
# Elastic Compliance Matrix: (Units=1/GPa)
#
#
# Indices 1 2 3 4 5 6 
#
# 1 0.017390 -0.005557 -0.002939 0.000201 -0.010020 0.001873
# 2 -0.005557 0.013364 -0.001143 -0.005998 0.000787 0.004006
# 3 -0.002939 -0.001143 0.012242 -0.005895 -0.006108 0.002302
# 4 0.000201 -0.005998 -0.005895 0.034482 0.006932 -0.012061
# 5 -0.010020 0.000787 -0.006108 0.006932 0.040575 -0.006705
# 6 0.001873 0.004006 0.002302 -0.012061 -0.006705 0.032161
#
#
# Mechanical properties :
#
#
# Convention : Reuss Voigt Hill
#
# Bulk Modulus (GPa) = 42.16172 65.98043 54.07108
# Shear Modulus (GPa) = 28.18512 35.32640 31.75576
#
# Velocity S-wave (km/s) = 3.78722 4.23995 4.01996
# Velocity P-wave (km/s) = 6.37022 7.58592 7.00449
#
# Compressibility (1/GPa) = 0.02371819
#
# Stress axis : x y z
#
# Youngs Moduli (GPa) = 57.50367 74.82886 81.68507
#
# Poissons Ratio (x) = 0.41581 0.24007
# Poissons Ratio (y) = 0.31953 0.09338
# Poissons Ratio (z) = 0.16900 0.08555
#
# Static dielectric constant tensor:
#      x y z
#    x 1.861820 0.147490 -0.003220 
#    y 0.147490 1.825860 -0.055140 
#    z -0.003220 -0.055140 1.768340 
# 
# From -- ./inp_files/327742.got.cif
#   From: 2010.05.17/outbox.cif.g08.bks.cpg/sg2_164_cif.got.tgz:327742.got - 2010.06.03 11:33:40.
