data_PCOD9102950
_publ_section_title
;
Structure prediction by ZEFSAII (Michael W. Deem and Ramdas Pophale) SiO2 
 PCOD9102950
Probable space group: P -1
;
_chemical_formula_sum "Si O2"
_cell_formula_units_Z 13
_cell_length_a 17.664352
_cell_length_b 5.761951
_cell_length_c 7.370454
_cell_angle_alpha 69.238432
_cell_angle_beta 129.267533
_cell_angle_gamma 127.301669
_cell_volume 461.471742
_symmetry_space_group_name_H-M "P -1"
_symmetry_group_IT_number 2
_symmetry_cell_setting 'triclinic'
loop_
_space_group_symop_operation_xyz
x,y,z
-x,-y,-z
loop_
_atom_site_type_symbol
_atom_site_label
_atom_site_fract_x
_atom_site_fract_y
_atom_site_fract_z
Si Si1 0.435581 0.728624 0.727894
Si Si2 0.188550 0.465549 0.561370
Si Si3 0.000000 0.000000 0.500000
Si Si4 0.874787 0.109812 0.758485
Si Si5 0.494229 0.659974 0.229106
Si Si6 0.238111 0.420612 0.034603
Si Si7 0.894874 0.351233 0.126239
O O1 0.304470 0.514357 0.649360
O O2 0.465450 0.572549 0.658679
O O3 0.448997 0.045370 0.645083
O O4 0.509003 0.763358 0.011493
O O5 0.074276 0.207600 0.372196
O O6 0.192783 0.766403 0.489223
O O7 0.155162 0.307072 0.757449
O O8 0.942054 0.207406 0.371604
O O9 0.005909 0.307858 0.837905
O O10 0.873710 0.221235 0.930659
O O11 0.803458 0.771311 0.795337
O O12 0.360156 0.493970 0.128346
O O13 0.226791 0.695076 0.985042
#
# Coordination Sequence:
#
# PCOD9102950 Si02
#       7
#     2   2   1   2   2   2   2
#     4   9  19  39  59  98 124 172 210 283 314 393
#     4  10  22  40  65  92 131 163 218 258 332 377
#     4  10  20  38  64  94 116 170 204 258 310 406
#     4  10  22  42  57  95 127 168 206 270 321 395
#     4   9  20  36  68  89 129 166 228 259 336 374
#     4  11  22  40  66  92 121 175 212 272 312 399
#     4  10  22  40  63  88 134 161 212 264 330 377
#
# _framework density 28.170739000000001
#
# number of rings (size 3 to 8) (size 9 to 14) (size 15 to 20)
#    0.000    2.154    1.538    0.462    2.154    6.154 
#   11.077    1.538    0.000    0.000    0.000    0.000 
#    0.000    0.000    0.000    0.000    0.000    0.000 
#
# Total GULP energy -72479.317555 kJ/mol
# GULP energy per Si atom -5575.332120 kJ/mol
# Density = 2.810662 g / cm^3
# Si number density = 28.170739 Si / 1000 Ang^3
#
#
#
# Elastic Constant Matrix: (Units=GPa)
#
#
# Indices 1 2 3 4 5 6 
#
# 1 184.6531 62.3968 52.9017 -17.6745 45.1753 -4.3482
# 2 62.3968 113.9703 48.3235 -32.7157 11.1319 -15.3430
# 3 52.9017 48.3235 85.5864 -23.7333 -11.1648 5.2668
# 4 -17.6745 -32.7157 -23.7333 43.3153 1.2810 -13.3517
# 5 45.1753 11.1319 -11.1648 1.2810 55.5549 3.9262
# 6 -4.3482 -15.3430 5.2668 -13.3517 3.9262 39.8397
#
#
#
# Elastic Compliance Matrix: (Units=1/GPa)
#
#
# Indices 1 2 3 4 5 6 
#
# 1 0.010340 -0.001182 -0.006994 0.000640 -0.009788 0.002777
# 2 -0.001182 0.019117 -0.007743 0.014053 -0.005706 0.013529
# 3 -0.006994 -0.007743 0.022746 0.001049 0.012324 -0.007615
# 4 0.000640 0.014053 0.001049 0.040716 -0.005444 0.019525
# 5 -0.009788 -0.005706 0.012324 -0.005444 0.030392 -0.009714
# 6 0.002777 0.013529 -0.007615 0.019525 -0.009714 0.039122
#
#
# Mechanical properties :
#
#
# Convention : Reuss Voigt Hill
#
# Bulk Modulus (GPa) = 49.10443 79.05043 64.07743
# Shear Modulus (GPa) = 24.86828 42.44782 33.65805
#
# Velocity S-wave (km/s) = 2.97437 3.88597 3.46032
# Velocity P-wave (km/s) = 5.40968 6.94669 6.22580
#
# Compressibility (1/GPa) = 0.02036476
#
# Stress axis : x y z
#
# Youngs Moduli (GPa) = 96.71202 52.30957 43.96283
#
# Poissons Ratio (x) = 0.06183 0.30749
# Poissons Ratio (y) = 0.11431 0.34041
# Poissons Ratio (z) = 0.67643 0.40504
#
# Static dielectric constant tensor:
#      x y z
#    x 2.233840 0.078810 0.177510 
#    y 0.078810 4.080300 1.831080 
#    z 0.177510 1.831080 4.165240 
# 
# From -- ./inp_files/31348.got.cif
#   From: 2010.05.17/outbox.cif.g08.bks.cpg/sg2_16_cif.got.tgz:31348.got - 2010.06.03 11:33:40.
