data_PCOD9102658
_publ_section_title
;
Structure prediction by ZEFSAII (Michael W. Deem and Ramdas Pophale) SiO2 
 PCOD9102658
Probable space group: P -1
;
_chemical_formula_sum "Si O2"
_cell_formula_units_Z 16
_cell_length_a 8.249773
_cell_length_b 11.696275
_cell_length_c 9.351814
_cell_angle_alpha 66.705386
_cell_angle_beta 127.910859
_cell_angle_gamma 98.964379
_cell_volume 649.159449
_symmetry_space_group_name_H-M "P -1"
_symmetry_group_IT_number 2
_symmetry_cell_setting 'triclinic'
loop_
_space_group_symop_operation_xyz
x,y,z
-x,-y,-z
loop_
_atom_site_type_symbol
_atom_site_label
_atom_site_fract_x
_atom_site_fract_y
_atom_site_fract_z
Si Si1 0.247821 0.839919 0.747392
Si Si2 0.949010 0.221859 0.043305
Si Si3 0.393962 0.092529 0.703401
Si Si4 0.655991 0.514811 0.447404
Si Si5 0.292786 0.988265 0.303982
Si Si6 0.096899 0.317979 0.339716
Si Si7 0.357056 0.255189 0.872821
Si Si8 0.124773 0.734441 0.336671
O O1 0.196826 0.834662 0.892330
O O2 0.075664 0.756699 0.639049
O O3 0.249260 0.984916 0.640564
O O4 0.482963 0.774529 0.896308
O O5 0.032972 0.329062 0.134374
O O6 0.845510 0.268258 0.818360
O O7 0.132626 0.112114 0.162027
O O8 0.619437 0.041625 0.792878
O O9 0.304366 0.218664 0.508419
O O10 0.379026 0.135937 0.836720
O O11 0.500000 0.500000 0.500000
O O12 0.857528 0.561777 0.609461
O O13 0.581898 0.625360 0.241651
O O14 0.724311 0.384701 0.469785
O O15 0.186411 0.867631 0.354972
O O16 0.500000 0.000000 0.500000
O O17 0.115894 0.278456 0.766333
#
# Coordination Sequence:
#
# PCOD9102658 Si02
#       8
#     2   2   2   2   2   2   2   2
#     4  10  20  38  63  94 126 167 204 260 313 373
#     4  10  22  40  63  94 132 159 214 254 321 370
#     4  11  20  38  64  94 133 167 207 255 323 376
#     4  11  24  45  69  90 123 167 216 262 317 377
#     4  12  23  39  64 100 129 161 210 264 316 376
#     4   9  22  39  65  95 124 166 212 257 314 370
#     4  11  24  42  63  93 126 169 214 256 317 377
#     4  12  25  43  64  92 131 171 208 261 315 379
#
# _framework density 24.647257
#
# number of rings (size 3 to 8) (size 9 to 14) (size 15 to 20)
#    0.750    0.500    1.250    6.000    0.000    2.500 
#    0.000    0.625    0.000    0.000    0.000    0.000 
#    0.000    0.000    0.000    0.000    0.000    0.000 
#
# Total GULP energy -89495.189509 kJ/mol
# GULP energy per Si atom -5593.449344 kJ/mol
# Density = 2.459116 g / cm^3
# Si number density = 24.647257 Si / 1000 Ang^3
#
#
#
# Elastic Constant Matrix: (Units=GPa)
#
#
# Indices 1 2 3 4 5 6 
#
# 1 98.7576 3.8486 -12.4669 -14.4697 12.9327 9.1127
# 2 3.8486 88.3640 18.0611 -7.8613 2.6889 8.6197
# 3 -12.4669 18.0611 48.8985 -5.2303 7.4420 -0.9184
# 4 -14.4697 -7.8613 -5.2303 37.6252 -1.6308 1.9685
# 5 12.9327 2.6889 7.4420 -1.6308 40.0479 -0.1499
# 6 9.1127 8.6197 -0.9184 1.9685 -0.1499 37.8166
#
#
#
# Elastic Compliance Matrix: (Units=1/GPa)
#
#
# Indices 1 2 3 4 5 6 
#
# 1 0.012375 -0.000572 0.004570 0.005234 -0.004605 -0.003031
# 2 -0.000572 0.012770 -0.004752 0.001956 0.000279 -0.002989
# 3 0.004570 -0.004752 0.024646 0.003931 -0.005575 0.000354
# 4 0.005234 0.001956 0.003931 0.029652 -0.001356 -0.003161
# 5 -0.004605 0.000279 -0.005575 -0.001356 0.027423 0.001090
# 6 -0.003031 -0.002989 0.000354 -0.003161 0.001090 0.028033
#
#
# Mechanical properties :
#
#
# Convention : Reuss Voigt Hill
#
# Bulk Modulus (GPa) = 20.71080 28.32287 24.51683
# Shear Modulus (GPa) = 32.78664 38.20309 35.49486
#
# Velocity S-wave (km/s) = 3.65120 3.94127 3.79900
# Velocity P-wave (km/s) = 5.11821 5.67694 5.40480
#
# Compressibility (1/GPa) = 0.04828399
#
# Stress axis : x y z
#
# Youngs Moduli (GPa) = 80.81082 78.30797 40.57405
#
# Poissons Ratio (x) = 0.04476 -0.18542
# Poissons Ratio (y) = 0.04619 0.19280
# Poissons Ratio (z) = -0.36929 0.37210
#
# Static dielectric constant tensor:
#      x y z
#    x 2.000780 0.012860 -0.041550 
#    y 0.012860 1.957110 0.047830 
#    z -0.041550 0.047830 1.978070 
# 
# From -- ./inp_files/392393.got.cif
#   From: 2010.05.17/outbox.cif.g08.bks.cpg/sg2_197_cif.got.tgz:392393.got - 2010.06.03 11:33:40.
