data_PCOD9102730
_publ_section_title
;
Structure prediction by ZEFSAII (Michael W. Deem and Ramdas Pophale) SiO2 
 PCOD9102730
Probable space group: P -1
;
_chemical_formula_sum "Si O2"
_cell_formula_units_Z 15
_cell_length_a 8.802475
_cell_length_b 11.696708
_cell_length_c 9.414928
_cell_angle_alpha 122.222151
_cell_angle_beta 115.996528
_cell_angle_gamma 44.801643
_cell_volume 574.931102
_symmetry_space_group_name_H-M "P -1"
_symmetry_group_IT_number 2
_symmetry_cell_setting 'triclinic'
loop_
_space_group_symop_operation_xyz
x,y,z
-x,-y,-z
loop_
_atom_site_type_symbol
_atom_site_label
_atom_site_fract_x
_atom_site_fract_y
_atom_site_fract_z
Si Si1 0.030681 0.826135 0.640761
Si Si2 0.500000 0.500000 0.500000
Si Si3 0.413184 0.346671 0.766264
Si Si4 0.161089 0.316513 0.868968
Si Si5 0.572750 0.763067 0.809366
Si Si6 0.801156 0.253991 0.036708
Si Si7 0.921835 0.915605 0.230908
Si Si8 0.211854 0.300582 0.430567
O O1 0.245497 0.650497 0.547997
O O2 0.843010 0.813665 0.593205
O O3 0.970240 0.991990 0.640095
O O4 0.102270 0.842584 0.839438
O O5 0.572980 0.600278 0.687996
O O6 0.240959 0.341919 0.774773
O O7 0.624914 0.247425 0.883679
O O8 0.416577 0.278511 0.567636
O O9 0.322999 0.543390 0.846096
O O10 0.060819 0.218712 0.744914
O O11 0.358270 0.216967 0.996128
O O12 0.000000 0.500000 0.000000
O O13 0.733470 0.738941 0.738237
O O14 0.330357 0.927856 0.783791
O O15 0.974928 0.192271 0.943978
O O16 0.000000 0.500000 0.500000
#
# Coordination Sequence:
#
# PCOD9102730 Si02
#       8
#     2   1   2   2   2   2   2   2
#     4  11  23  41  72  97 139 181 235 281 338 410
#     4  10  20  38  64 102 128 174 228 278 328 400
#     4  11  24  41  72 101 138 179 232 285 348 411
#     4  12  24  44  69 103 140 181 228 287 349 408
#     4  11  24  43  73 103 136 182 238 283 336 413
#     4  11  22  44  67 105 135 182 226 295 348 402
#     4  11  25  44  67 104 136 179 234 289 340 407
#     4  12  22  44  71 102 135 184 237 275 339 424
#
# _framework density 26.090084000000001
#
# number of rings (size 3 to 8) (size 9 to 14) (size 15 to 20)
#    0.000    0.800    4.000    4.000    0.000    2.133 
#    0.000    4.000    0.000    0.000    0.000    0.000 
#    0.000    0.000    0.000    0.000    0.000    0.000 
#
# Total GULP energy -83825.133947 kJ/mol
# GULP energy per Si atom -5588.342263 kJ/mol
# Density = 2.603070 g / cm^3
# Si number density = 26.090084 Si / 1000 Ang^3
#
#
#
# Elastic Constant Matrix: (Units=GPa)
#
#
# Indices 1 2 3 4 5 6 
#
# 1 108.2494 26.1173 20.9646 1.1138 15.4566 13.6621
# 2 26.1173 56.2459 11.7914 1.1283 14.8005 7.1614
# 3 20.9646 11.7914 105.2956 -8.5686 28.3575 0.8859
# 4 1.1138 1.1283 -8.5686 34.4496 5.5095 -0.5875
# 5 15.4566 14.8005 28.3575 5.5095 51.0385 14.0486
# 6 13.6621 7.1614 0.8859 -0.5875 14.0486 48.7254
#
#
#
# Elastic Compliance Matrix: (Units=1/GPa)
#
#
# Indices 1 2 3 4 5 6 
#
# 1 0.010952 -0.004321 -0.001591 -0.000568 -0.000493 -0.002271
# 2 -0.004321 0.021102 -0.000277 0.000090 -0.004506 -0.000585
# 3 -0.001591 -0.000277 0.012144 0.004293 -0.007317 0.002427
# 4 -0.000568 0.000090 0.004293 0.031143 -0.006217 0.002236
# 5 -0.000493 -0.004506 -0.007317 -0.006217 0.027751 -0.007143
# 6 -0.002271 -0.000585 0.002427 0.002236 -0.007143 0.023288
#
#
# Mechanical properties :
#
#
# Convention : Reuss Voigt Hill
#
# Bulk Modulus (GPa) = 31.42765 43.05972 37.24368
# Shear Modulus (GPa) = 33.47482 40.90386 37.18934
#
# Velocity S-wave (km/s) = 3.58585 3.96383 3.77957
# Velocity P-wave (km/s) = 5.40522 6.12286 5.77520
#
# Compressibility (1/GPa) = 0.03181912
#
# Stress axis : x y z
#
# Youngs Moduli (GPa) = 91.31116 47.38894 82.34317
#
# Poissons Ratio (x) = 0.20479 0.13100
# Poissons Ratio (y) = 0.39459 0.02281
# Poissons Ratio (z) = 0.14527 0.01313
#
# Static dielectric constant tensor:
#      x y z
#    x 2.052930 0.032330 0.069980 
#    y 0.032330 2.065550 -0.051840 
#    z 0.069980 -0.051840 2.044890 
# 
# From -- ./inp_files/190220.got.cif
#   From: 2010.05.17/outbox.cif.g08.bks.cpg/sg2_96_cif.got.tgz:190220.got - 2010.06.03 11:33:40.
