data_PCOD9102350
_publ_section_title
;
Structure prediction by ZEFSAII (Michael W. Deem and Ramdas Pophale) SiO2 
 PCOD9102350
Probable space group: P -1
;
_chemical_formula_sum "Si O2"
_cell_formula_units_Z 16
_cell_length_a 14.783825
_cell_length_b 10.952265
_cell_length_c 21.238872
_cell_angle_alpha 151.906202
_cell_angle_beta 152.310625
_cell_angle_gamma 29.566222
_cell_volume 688.024101
_symmetry_space_group_name_H-M "P -1"
_symmetry_group_IT_number 2
_symmetry_cell_setting 'triclinic'
loop_
_space_group_symop_operation_xyz
x,y,z
-x,-y,-z
loop_
_atom_site_type_symbol
_atom_site_label
_atom_site_fract_x
_atom_site_fract_y
_atom_site_fract_z
Si Si1 0.370853 0.277968 0.381028
Si Si2 0.183527 0.771784 0.405593
Si Si3 0.484955 0.301488 0.605225
Si Si4 0.107691 0.782406 0.875868
Si Si5 0.733193 0.267997 0.914690
Si Si6 0.727542 0.359987 0.217460
Si Si7 0.966923 0.398659 0.533985
Si Si8 0.074051 0.734813 0.177961
O O1 0.189096 0.543774 0.356342
O O2 0.585248 0.216250 0.445524
O O3 0.428662 0.345679 0.516800
O O4 0.328647 0.996658 0.228132
O O5 0.137229 0.687870 0.269090
O O6 0.026098 0.096800 0.464222
O O7 0.718207 0.296046 0.748501
O O8 0.500000 0.000000 0.500000
O O9 0.523649 0.494584 0.855141
O O10 0.278111 0.722265 0.898388
O O11 0.963531 0.630881 0.688711
O O12 0.952696 0.112050 0.940647
O O13 0.206870 0.649713 0.943075
O O14 0.847127 0.580150 0.386657
O O15 0.733482 0.485282 0.399439
O O16 0.894072 0.056903 0.208252
O O17 0.000000 0.500000 0.000000
#
# Coordination Sequence:
#
# PCOD9102350 Si02
#       8
#     2   2   2   2   2   2   2   2
#     4  10  20  38  62  92 128 173 217 276 333 396
#     4  10  23  39  61  93 130 174 221 272 338 408
#     4  11  21  42  69  94 129 174 219 282 330 393
#     4   9  21  36  59 101 131 165 220 288 329 388
#     4  11  19  37  64  96 132 173 219 283 338 390
#     4  10  21  39  66  92 129 174 231 274 327 410
#     4  10  20  39  62 100 123 171 233 273 328 404
#     4  11  26  46  64  95 134 179 221 278 351 405
#
# _framework density 23.254999999999999
#
# number of rings (size 3 to 8) (size 9 to 14) (size 15 to 20)
#    0.750    1.000    3.750    0.375    1.750    2.000 
#    4.500    1.875    0.000    0.000    0.000    0.000 
#    0.000    0.000    0.000    0.000    0.000    0.000 
#
# Total GULP energy -89290.295133 kJ/mol
# GULP energy per Si atom -5580.643446 kJ/mol
# Density = 2.320207 g / cm^3
# Si number density = 23.255000 Si / 1000 Ang^3
#
#
#
# Elastic Constant Matrix: (Units=GPa)
#
#
# Indices 1 2 3 4 5 6 
#
# 1 58.6959 25.1392 10.2596 -0.9170 10.4474 -9.0048
# 2 25.1392 163.4523 22.7651 -12.5351 11.3418 -7.2556
# 3 10.2596 22.7651 77.5308 -6.4269 9.1665 0.7072
# 4 -0.9170 -12.5351 -6.4269 39.2181 4.1195 0.9078
# 5 10.4474 11.3418 9.1665 4.1195 29.3678 -11.4104
# 6 -9.0048 -7.2556 0.7072 0.9078 -11.4104 43.9555
#
#
#
# Elastic Compliance Matrix: (Units=1/GPa)
#
#
# Indices 1 2 3 4 5 6 
#
# 1 0.019492 -0.002387 -0.001361 -0.000100 -0.004633 0.002420
# 2 -0.002387 0.006959 -0.001362 0.002111 -0.001625 0.000216
# 3 -0.001361 -0.001362 0.014229 0.002385 -0.004526 -0.001957
# 4 -0.000100 0.002111 0.002385 0.027241 -0.006063 -0.001847
# 5 -0.004633 -0.001625 -0.004526 -0.006063 0.042478 0.010007
# 6 0.002420 0.000216 -0.001957 -0.001847 0.010007 0.025949
#
#
# Mechanical properties :
#
#
# Convention : Reuss Voigt Hill
#
# Bulk Modulus (GPa) = 32.83111 46.22299 39.52705
# Shear Modulus (GPa) = 31.90366 38.60930 35.25648
#
# Velocity S-wave (km/s) = 3.70794 4.07905 3.89791
# Velocity P-wave (km/s) = 5.69915 6.48880 6.10675
#
# Compressibility (1/GPa) = 0.03045891
#
# Stress axis : x y z
#
# Youngs Moduli (GPa) = 51.30416 143.69627 70.27968
#
# Poissons Ratio (x) = 0.34300 0.09565
# Poissons Ratio (y) = 0.12246 0.09574
# Poissons Ratio (z) = 0.06983 0.19576
#
# Static dielectric constant tensor:
#      x y z
#    x 2.070240 -0.036850 -0.073700 
#    y -0.036850 1.878220 -0.038950 
#    z -0.073700 -0.038950 1.884530 
# 
# From -- ./inp_files/599968.got.cif
#   From: 2010.05.17/outbox.cif.g08.bks.cpg/sg2_300_cif.got.tgz:599968.got - 2010.06.03 11:33:40.
