data_PCOD9102714
_publ_section_title
;
Structure prediction by ZEFSAII (Michael W. Deem and Ramdas Pophale) SiO2 
 PCOD9102714
Probable space group: P -1
;
_chemical_formula_sum "Si O2"
_cell_formula_units_Z 14
_cell_length_a 12.996811
_cell_length_b 15.321107
_cell_length_c 8.926554
_cell_angle_alpha 39.467949
_cell_angle_beta 129.217676
_cell_angle_gamma 151.379764
_cell_volume 535.160668
_symmetry_space_group_name_H-M "P -1"
_symmetry_group_IT_number 2
_symmetry_cell_setting 'triclinic'
loop_
_space_group_symop_operation_xyz
x,y,z
-x,-y,-z
loop_
_atom_site_type_symbol
_atom_site_label
_atom_site_fract_x
_atom_site_fract_y
_atom_site_fract_z
Si Si1 0.894750 0.622608 0.166884
Si Si2 0.215072 0.888025 0.873596
Si Si3 0.258544 0.749882 0.654599
Si Si4 0.592491 0.739414 0.681225
Si Si5 0.391076 0.464119 0.596895
Si Si6 0.651813 0.273101 0.920405
Si Si7 0.926658 0.112512 0.717069
O O1 0.868537 0.439922 0.337158
O O2 0.651393 0.446313 0.235822
O O3 0.041946 0.810545 0.184647
O O4 0.004510 0.771702 0.918637
O O5 0.309488 0.061194 0.600537
O O6 0.402924 0.023401 0.993048
O O7 0.193919 0.718672 0.012875
O O8 0.130979 0.782620 0.541349
O O9 0.500000 0.000000 0.500000
O O10 0.304015 0.683756 0.921288
O O11 0.556554 0.591221 0.720005
O O12 0.743300 0.868215 0.794860
O O13 0.500000 0.500000 0.500000
O O14 0.337424 0.579257 0.357452
O O15 0.148977 0.217555 0.735962
#
# Coordination Sequence:
#
# PCOD9102714 Si02
#       7
#     2   2   2   2   2   2   2
#     4  11  23  36  62  98 137 174 205 258 342 411
#     4  10  20  38  63  98 135 168 208 270 344 395
#     4  12  21  35  63 101 138 170 205 266 350 401
#     4  10  22  43  64  99 132 163 224 278 323 406
#     4  10  24  43  66  93 128 181 228 269 324 385
#     4  10  21  37  63  98 136 163 223 276 315 412
#     4  11  22  39  64  94 132 170 216 271 332 391
#
# _framework density 26.160367000000001
#
# number of rings (size 3 to 8) (size 9 to 14) (size 15 to 20)
#    0.000    1.429    2.857    2.143    2.000    5.143 
#    0.000    0.000    0.000   24.857    0.000    0.000 
#    0.000    0.000    0.000    0.000    0.000    0.000 
#
# Total GULP energy -78154.168015 kJ/mol
# GULP energy per Si atom -5582.440572 kJ/mol
# Density = 2.610082 g / cm^3
# Si number density = 26.160367 Si / 1000 Ang^3
#
#
#
# Elastic Constant Matrix: (Units=GPa)
#
#
# Indices 1 2 3 4 5 6 
#
# 1 132.3783 81.4249 29.9553 -2.2163 -42.2877 -4.2620
# 2 81.4249 181.1025 57.3827 12.0615 -26.3185 -38.5111
# 3 29.9553 57.3827 121.0337 2.0524 -17.1947 -0.6934
# 4 -2.2163 12.0615 2.0524 29.0025 0.6747 -10.3811
# 5 -42.2877 -26.3185 -17.1947 0.6747 35.2094 -4.7312
# 6 -4.2620 -38.5111 -0.6934 -10.3811 -4.7312 49.0950
#
#
#
# Elastic Compliance Matrix: (Units=1/GPa)
#
#
# Indices 1 2 3 4 5 6 
#
# 1 0.015413 -0.005424 0.000790 0.002707 0.014667 -0.000920
# 2 -0.005424 0.011085 -0.003683 -0.001976 0.001066 0.007857
# 3 0.000790 -0.003683 0.010206 -0.000061 0.002856 -0.002414
# 4 0.002707 -0.001976 -0.000061 0.037935 0.001944 0.006893
# 5 0.014667 0.001066 0.002856 0.001944 0.049152 0.007297
# 6 -0.000920 0.007857 -0.002414 0.006893 0.007297 0.028579
#
#
# Mechanical properties :
#
#
# Convention : Reuss Voigt Hill
#
# Bulk Modulus (GPa) = 49.83029 85.78227 67.80628
# Shear Modulus (GPa) = 28.45860 40.37816 34.41838
#
# Velocity S-wave (km/s) = 3.30184 3.93298 3.63115
# Velocity P-wave (km/s) = 5.79875 7.31345 6.59970
#
# Compressibility (1/GPa) = 0.02006812
#
# Stress axis : x y z
#
# Youngs Moduli (GPa) = 64.88043 90.21314 97.98343
#
# Poissons Ratio (x) = 0.48936 -0.07737
# Poissons Ratio (y) = 0.35194 0.36086
# Poissons Ratio (z) = -0.05123 0.33225
#
# Static dielectric constant tensor:
#      x y z
#    x 2.058030 0.049630 -0.039820 
#    y 0.049630 2.232780 -0.132620 
#    z -0.039820 -0.132620 2.157350 
# 
# From -- ./inp_files/271894.got.cif
#   From: 2010.05.17/outbox.cif.g08.bks.cpg/sg2_136_cif.got.tgz:271894.got - 2010.06.03 11:33:40.
