data_PCOD9102773
_publ_section_title
;
Structure prediction by ZEFSAII (Michael W. Deem and Ramdas Pophale) SiO2 
 PCOD9102773
Probable space group: P -1
;
_chemical_formula_sum "Si O2"
_cell_formula_units_Z 16
_cell_length_a 12.264577
_cell_length_b 7.822396
_cell_length_c 12.025189
_cell_angle_alpha 118.872480
_cell_angle_beta 128.357417
_cell_angle_gamma 79.910401
_cell_volume 779.088084
_symmetry_space_group_name_H-M "P -1"
_symmetry_group_IT_number 2
_symmetry_cell_setting 'triclinic'
loop_
_space_group_symop_operation_xyz
x,y,z
-x,-y,-z
loop_
_atom_site_type_symbol
_atom_site_label
_atom_site_fract_x
_atom_site_fract_y
_atom_site_fract_z
Si Si1 0.639702 0.525282 0.175478
Si Si2 0.243088 0.754394 0.531191
Si Si3 0.336947 0.914198 0.865948
Si Si4 0.381934 0.811983 0.403891
Si Si5 0.049954 0.480060 0.656203
Si Si6 0.113739 0.944014 0.903569
Si Si7 0.378738 0.373977 0.557288
Si Si8 0.176963 0.984508 0.212909
O O1 0.664365 0.308146 0.161193
O O2 0.802478 0.602585 0.263483
O O3 0.612123 0.637288 0.306584
O O4 0.500000 0.500000 0.000000
O O5 0.280021 0.908722 0.703334
O O6 0.308947 0.837404 0.482894
O O7 0.322842 0.571953 0.552960
O O8 0.077715 0.661192 0.406142
O O9 0.237793 0.010733 0.915408
O O10 0.500000 0.000000 0.000000
O O11 0.467509 0.633448 0.398090
O O12 0.500000 0.000000 0.500000
O O13 0.257320 0.805464 0.235041
O O14 0.068710 0.704631 0.786203
O O15 0.000000 0.500000 0.500000
O O16 0.974216 0.037676 0.831196
O O17 0.163576 0.995922 0.076309
O O18 0.268773 0.188196 0.381535
#
# Coordination Sequence:
#
# PCOD9102773 Si02
#       8
#     2   2   2   2   2   2   2   2
#     4  10  22  38  65  95 123 160 202 261 318 361
#     4  11  21  41  65  93 115 168 213 255 307 379
#     4  10  23  37  62  90 124 157 207 255 311 371
#     4  10  24  38  59  87 124 159 204 257 307 365
#     4  11  18  40  68  90 119 163 209 254 308 379
#     4  10  20  38  64  86 123 160 206 250 314 369
#     4  10  20  38  64  88 123 160 210 245 315 372
#     4  10  21  38  61  89 119 168 202 249 311 373
#
# _framework density 20.536829999999998
#
# number of rings (size 3 to 8) (size 9 to 14) (size 15 to 20)
#    0.000    1.750    5.000    0.375    7.000    1.000 
#    2.250    1.250    0.000    0.000    0.000    0.000 
#    0.000    0.000    0.000    0.000    0.000    0.000 
#
# Total GULP energy -89208.549698 kJ/mol
# GULP energy per Si atom -5575.534356 kJ/mol
# Density = 2.049009 g / cm^3
# Si number density = 20.536830 Si / 1000 Ang^3
#
#
#
# Elastic Constant Matrix: (Units=GPa)
#
#
# Indices 1 2 3 4 5 6 
#
# 1 183.6918 15.2810 53.0146 -8.6052 21.7691 -3.7883
# 2 15.2810 20.6443 8.9889 -10.5660 5.7796 -4.0251
# 3 53.0146 8.9889 113.4713 -7.3624 4.4790 -7.5922
# 4 -8.6052 -10.5660 -7.3624 25.7765 -8.7913 7.5759
# 5 21.7691 5.7796 4.4790 -8.7913 32.9296 -2.4908
# 6 -3.7883 -4.0251 -7.5922 7.5759 -2.4908 32.1535
#
#
#
# Elastic Compliance Matrix: (Units=1/GPa)
#
#
# Indices 1 2 3 4 5 6 
#
# 1 0.006983 -0.003450 -0.002932 -0.001170 -0.003950 -0.000332
# 2 -0.003450 0.064853 -0.001793 0.023641 -0.002430 0.001530
# 3 -0.002932 -0.001793 0.010467 0.001209 0.001282 0.001716
# 4 -0.001170 0.023641 0.001209 0.054606 0.010361 -0.008956
# 5 -0.003950 -0.002430 0.001282 0.010361 0.035988 -0.000120
# 6 -0.000332 0.001530 0.001716 -0.008956 -0.000120 0.033759
#
#
# Mechanical properties :
#
#
# Convention : Reuss Voigt Hill
#
# Bulk Modulus (GPa) = 15.16228 52.48627 33.82427
# Shear Modulus (GPa) = 20.40883 34.20679 27.30781
#
# Velocity S-wave (km/s) = 3.15583 4.08564 3.65046
# Velocity P-wave (km/s) = 4.54731 6.91876 5.85437
#
# Compressibility (1/GPa) = 0.06595315
#
# Stress axis : x y z
#
# Youngs Moduli (GPa) = 143.19606 15.41951 95.53677
#
# Poissons Ratio (x) = 0.05320 0.28007
# Poissons Ratio (y) = 0.49408 0.17132
# Poissons Ratio (z) = 0.41979 0.02765
#
# Static dielectric constant tensor:
#      x y z
#    x 1.834800 0.035640 0.073030 
#    y 0.035640 1.800500 0.035720 
#    z 0.073030 0.035720 1.793600 
# 
# From -- ./inp_files/354312.got.cif
#   From: 2010.05.17/outbox.cif.g08.bks.cpg/sg2_178_cif.got.tgz:354312.got - 2010.06.03 11:33:40.
