data_PCOD9102596
_publ_section_title
;
Structure prediction by ZEFSAII (Michael W. Deem and Ramdas Pophale) SiO2 
 PCOD9102596
Probable space group: P -1
;
_chemical_formula_sum "Si O2"
_cell_formula_units_Z 16
_cell_length_a 8.263992
_cell_length_b 8.530735
_cell_length_c 24.541362
_cell_angle_alpha 46.928760
_cell_angle_beta 133.671257
_cell_angle_gamma 145.852080
_cell_volume 675.481840
_symmetry_space_group_name_H-M "P -1"
_symmetry_group_IT_number 2
_symmetry_cell_setting 'triclinic'
loop_
_space_group_symop_operation_xyz
x,y,z
-x,-y,-z
loop_
_atom_site_type_symbol
_atom_site_label
_atom_site_fract_x
_atom_site_fract_y
_atom_site_fract_z
Si Si1 0.812681 0.692428 0.998637
Si Si2 0.658444 0.340750 0.946600
Si Si3 0.802398 0.131697 0.239255
Si Si4 0.886715 0.708145 0.400626
Si Si5 0.680520 0.795819 0.543926
Si Si6 0.897806 0.356659 0.321562
Si Si7 0.286114 0.652588 0.158964
Si Si8 0.659825 0.137126 0.627445
O O1 0.011839 0.617906 0.080674
O O2 0.500000 0.500000 0.000000
O O3 0.677572 0.565063 0.936172
O O4 0.000000 0.000000 0.000000
O O5 0.571224 0.347485 0.863226
O O6 0.000000 0.500000 0.000000
O O7 0.500000 0.000000 0.000000
O O8 0.786957 0.280024 0.251803
O O9 0.121734 0.377575 0.225086
O O10 0.795275 0.888325 0.319262
O O11 0.525740 0.953780 0.175053
O O12 0.576724 0.400077 0.422479
O O13 0.106296 0.771303 0.388142
O O14 0.103519 0.871394 0.464939
O O15 0.509639 0.758879 0.458783
O O16 0.898866 0.731133 0.604254
O O17 0.136024 0.691605 0.312851
O O18 0.620710 0.186480 0.340175
#
# Coordination Sequence:
#
# PCOD9102596 Si02
#       8
#     2   2   2   2   2   2   2   2
#     4  11  22  39  64  99 130 150 191 264 319 349
#     4  10  20  38  63  92 121 157 201 244 294 360
#     4  11  23  42  59  83 118 170 210 235 297 383
#     4  11  23  39  60  86 121 156 206 267 305 366
#     4  11  21  39  61  87 116 160 206 255 326 390
#     4  11  23  38  59  86 124 160 202 259 311 380
#     4  11  22  41  66  85 118 169 206 236 295 388
#     4  12  22  38  61  90 117 154 205 272 329 360
#
# _framework density 23.686795
#
# number of rings (size 3 to 8) (size 9 to 14) (size 15 to 20)
#    0.000    1.000    0.000   10.500    0.000    0.000 
#    0.000    7.500    0.000    0.000    0.000    0.000 
#    0.000    0.000    0.000    0.000    0.000    0.000 
#
# Total GULP energy -89127.043851 kJ/mol
# GULP energy per Si atom -5570.440241 kJ/mol
# Density = 2.363288 g / cm^3
# Si number density = 23.686795 Si / 1000 Ang^3
#
#
#
# Elastic Constant Matrix: (Units=GPa)
#
#
# Indices 1 2 3 4 5 6 
#
# 1 59.4796 24.6742 1.0041 16.9553 -17.0723 7.9488
# 2 24.6742 166.7697 26.8886 27.4467 -19.4601 12.2836
# 3 1.0041 26.8886 55.0230 16.1873 -22.8617 -8.4615
# 4 16.9553 27.4467 16.1873 42.9095 -4.3660 -11.9848
# 5 -17.0723 -19.4601 -22.8617 -4.3660 33.9221 3.5784
# 6 7.9488 12.2836 -8.4615 -11.9848 3.5784 40.9641
#
#
#
# Elastic Compliance Matrix: (Units=1/GPa)
#
#
# Indices 1 2 3 4 5 6 
#
# 1 0.028617 -0.000311 0.011587 -0.016023 0.020982 -0.009587
# 2 -0.000311 0.007848 -0.001759 -0.005169 0.002962 -0.004428
# 3 0.011587 -0.001759 0.033350 -0.013729 0.025646 -0.001089
# 4 -0.016023 -0.005169 -0.013729 0.040666 -0.016649 0.015175
# 5 0.020982 0.002962 0.025646 -0.016649 0.057892 -0.009590
# 6 -0.009587 -0.004428 -0.001089 0.015175 -0.009590 0.032652
#
#
# Mechanical properties :
#
#
# Convention : Reuss Voigt Hill
#
# Bulk Modulus (GPa) = 11.25493 42.93401 27.09447
# Shear Modulus (GPa) = 23.62871 38.80615 31.21743
#
# Velocity S-wave (km/s) = 3.16182 4.05199 3.63426
# Velocity P-wave (km/s) = 4.25340 6.32902 5.39203
#
# Compressibility (1/GPa) = 0.08884994
#
# Stress axis : x y z
#
# Youngs Moduli (GPa) = 34.94427 127.41503 29.98530
#
# Poissons Ratio (x) = 0.03958 -0.34744
# Poissons Ratio (y) = 0.01085 0.05275
# Poissons Ratio (z) = -0.40490 0.22413
#
# Static dielectric constant tensor:
#      x y z
#    x 2.021210 -0.010050 -0.042790 
#    y -0.010050 1.819690 -0.032760 
#    z -0.042790 -0.032760 1.923630 
# 
# From -- ./inp_files/225392.got.cif
#   From: 2010.05.17/outbox.cif.g08.bks.cpg/sg2_113_cif.got.tgz:225392.got - 2010.06.03 11:33:40.
