data_PCOD9102120
_publ_section_title
;
Structure prediction by ZEFSAII (Michael W. Deem and Ramdas Pophale) SiO2 
 PCOD9102120
Probable space group: P -1
;
_chemical_formula_sum "Si O2"
_cell_formula_units_Z 14
_cell_length_a 12.990048
_cell_length_b 9.004530
_cell_length_c 11.072736
_cell_angle_alpha 108.818172
_cell_angle_beta 54.458039
_cell_angle_gamma 65.926932
_cell_volume 632.767397
_symmetry_space_group_name_H-M "P -1"
_symmetry_group_IT_number 2
_symmetry_cell_setting 'triclinic'
loop_
_space_group_symop_operation_xyz
x,y,z
-x,-y,-z
loop_
_atom_site_type_symbol
_atom_site_label
_atom_site_fract_x
_atom_site_fract_y
_atom_site_fract_z
Si Si1 0.338772 0.595910 0.932200
Si Si2 0.993959 0.559088 0.814221
Si Si3 0.967684 0.264567 0.640415
Si Si4 0.002263 0.074930 0.127068
Si Si5 0.279192 0.172045 0.727980
Si Si6 0.648702 0.257800 0.423972
Si Si7 0.239566 0.724603 0.405639
O O1 0.464798 0.394009 0.687537
O O2 0.524326 0.514385 0.842774
O O3 0.216758 0.607587 0.112565
O O4 0.165533 0.863533 0.058695
O O5 0.024058 0.391216 0.653758
O O6 0.013332 0.721331 0.808573
O O7 0.144005 0.386735 0.777665
O O8 0.781394 0.731646 0.068424
O O9 0.888487 0.290395 0.569937
O O10 0.147328 0.973766 0.479401
O O11 0.787065 0.244055 0.420611
O O12 0.146672 0.893782 0.852713
O O13 0.500000 0.000000 0.500000
O O14 0.252870 0.011651 0.697949
O O15 0.500000 0.500000 0.500000
#
# Coordination Sequence:
#
# PCOD9102120 Si02
#       7
#     2   2   2   2   2   2   2
#     4  10  20  38  62  85 116 150 197 234 286 348
#     4  11  24  36  58  85 117 153 189 239 292 334
#     4  11  19  41  63  90 112 146 197 250 289 326
#     4  12  24  39  55  84 125 162 188 229 287 356
#     4  11  22  38  58  86 114 147 195 250 280 334
#     4  10  21  40  59  87 111 158 194 229 291 343
#     4   9  21  36  68  87 110 149 199 242 287 341
#
# _framework density 22.125032999999998
#
# number of rings (size 3 to 8) (size 9 to 14) (size 15 to 20)
#    0.857    0.571    4.286    1.286    4.000    1.714 
#    0.000    1.429    0.000    0.000    0.000    0.000 
#    0.000    0.000    0.000    0.000    0.000    0.000 
#
# Total GULP energy -77975.630805 kJ/mol
# GULP energy per Si atom -5569.687915 kJ/mol
# Density = 2.207468 g / cm^3
# Si number density = 22.125033 Si / 1000 Ang^3
#
#
#
# Elastic Constant Matrix: (Units=GPa)
#
#
# Indices 1 2 3 4 5 6 
#
# 1 116.8772 77.0220 21.1630 9.9972 8.4660 10.7124
# 2 77.0220 114.1432 39.6227 12.9961 4.2210 5.3762
# 3 21.1630 39.6227 107.4551 0.4518 -29.6264 3.9914
# 4 9.9972 12.9961 0.4518 39.0158 -0.6893 5.2646
# 5 8.4660 4.2210 -29.6264 -0.6893 58.4905 2.1416
# 6 10.7124 5.3762 3.9914 5.2646 2.1416 35.4177
#
#
#
# Elastic Compliance Matrix: (Units=1/GPa)
#
#
# Indices 1 2 3 4 5 6 
#
# 1 0.015905 -0.010761 0.000657 -0.000090 -0.001078 -0.003173
# 2 -0.010761 0.018318 -0.005405 -0.003567 -0.002609 0.001771
# 3 0.000657 -0.005405 0.013161 0.001814 0.007040 -0.001557
# 4 -0.000090 -0.003567 0.001814 0.027363 0.001651 -0.003803
# 5 -0.001078 -0.002609 0.007040 0.001651 0.021085 -0.001592
# 6 -0.003173 0.001771 -0.001557 -0.003803 -0.001592 0.029762
#
#
# Mechanical properties :
#
#
# Convention : Reuss Voigt Hill
#
# Bulk Modulus (GPa) = 61.10722 68.23234 64.66978
# Shear Modulus (GPa) = 30.85128 39.96264 35.40696
#
# Velocity S-wave (km/s) = 3.73823 4.25457 4.00473
# Velocity P-wave (km/s) = 6.80525 7.41900 7.11874
#
# Compressibility (1/GPa) = 0.01636468
#
# Stress axis : x y z
#
# Youngs Moduli (GPa) = 62.87308 54.59205 75.98123
#
# Poissons Ratio (x) = 0.58746 -0.04988
# Poissons Ratio (y) = 0.67657 0.41070
# Poissons Ratio (z) = -0.04128 0.29508
#
# Static dielectric constant tensor:
#      x y z
#    x 1.950500 0.020620 0.050920 
#    y 0.020620 1.760260 -0.063760 
#    z 0.050920 -0.063760 2.045030 
# 
# From -- ./inp_files/75580.got.cif
#   From: 2010.05.17/outbox.cif.g08.bks.cpg/sg2_38_cif.got.tgz:75580.got - 2010.06.03 11:33:40.
