data_PCOD9102918
_publ_section_title
;
Structure prediction by ZEFSAII (Michael W. Deem and Ramdas Pophale) SiO2 
 PCOD9102918
Probable space group: P -1
;
_chemical_formula_sum "Si O2"
_cell_formula_units_Z 13
_cell_length_a 18.146356
_cell_length_b 13.585096
_cell_length_c 5.372235
_cell_angle_alpha 78.601317
_cell_angle_beta 116.360122
_cell_angle_gamma 146.454486
_cell_volume 614.700919
_symmetry_space_group_name_H-M "P -1"
_symmetry_group_IT_number 2
_symmetry_cell_setting 'triclinic'
loop_
_space_group_symop_operation_xyz
x,y,z
-x,-y,-z
loop_
_atom_site_type_symbol
_atom_site_label
_atom_site_fract_x
_atom_site_fract_y
_atom_site_fract_z
Si Si1 0.170481 0.231993 0.139727
Si Si2 0.899670 0.383770 0.157616
Si Si3 0.068917 0.184626 0.511070
Si Si4 0.778481 0.031845 0.151723
Si Si5 0.578471 0.805786 0.464728
Si Si6 0.434168 0.877091 0.212692
Si Si7 0.500000 0.500000 0.500000
O O1 0.169682 0.295571 0.358180
O O2 0.307331 0.291904 0.315001
O O3 0.169626 0.295539 0.855303
O O4 0.000000 0.000000 0.000000
O O5 0.830481 0.200520 0.145439
O O6 0.000000 0.500000 0.500000
O O7 0.751959 0.304375 0.975762
O O8 0.000000 0.500000 0.000000
O O9 0.928283 0.115788 0.334471
O O10 0.000000 0.000000 0.500000
O O11 0.679919 0.910499 0.312792
O O12 0.679952 0.910551 0.816286
O O13 0.485508 0.814423 0.320996
O O14 0.480889 0.602165 0.420181
O O15 0.500000 0.000000 0.500000
O O16 0.500000 0.000000 0.000000
#
# Coordination Sequence:
#
# PCOD9102918 Si02
#       7
#     2   2   2   2   2   2   1
#     4  10  22  42  63  94 143 185 232 295 352 426
#     4  12  26  44  71 108 140 183 252 312 369 449
#     4  10  20  38  64  92 133 181 226 274 347 429
#     4  12  24  45  73 102 145 200 237 296 391 438
#     4  12  25  44  73 107 144 196 242 309 363 453
#     4  12  23  48  73 101 144 196 250 303 378 444
#     4  12  28  44  74 114 148 190 262 292 372 460
#
# _framework density 21.148496000000002
#
# number of rings (size 3 to 8) (size 9 to 14) (size 15 to 20)
#    0.000    0.615    3.077    6.462    0.000    4.923 
#    0.000    0.000    0.000    0.000    0.000    0.000 
#    0.000    0.000    0.000    0.000    0.000    0.000 
#
# Total GULP energy -72449.788077 kJ/mol
# GULP energy per Si atom -5573.060621 kJ/mol
# Density = 2.110036 g / cm^3
# Si number density = 21.148496 Si / 1000 Ang^3
#
#
#
# Elastic Constant Matrix: (Units=GPa)
#
#
# Indices 1 2 3 4 5 6 
#
# 1 178.7226 51.9011 90.8630 -21.8079 33.3465 13.3173
# 2 51.9011 94.5282 46.0702 -4.9617 -19.9284 -6.6526
# 3 90.8630 46.0702 184.3671 -19.9873 -6.9672 28.6964
# 4 -21.8079 -4.9617 -19.9873 29.4707 17.5572 1.1264
# 5 33.3465 -19.9284 -6.9672 17.5572 57.8635 0.7664
# 6 13.3173 -6.6526 28.6964 1.1264 0.7664 60.3671
#
#
#
# Elastic Compliance Matrix: (Units=1/GPa)
#
#
# Indices 1 2 3 4 5 6 
#
# 1 0.017435 -0.011238 -0.003768 0.020898 -0.020668 -0.003421
# 2 -0.011238 0.021057 -0.001790 -0.017344 0.018699 0.005737
# 3 -0.003768 -0.001790 0.008516 0.001531 0.002162 -0.003470
# 4 0.020898 -0.017344 0.001531 0.071266 -0.039349 -0.008080
# 5 -0.020668 0.018699 0.002162 -0.039349 0.047757 0.005720
# 6 -0.003421 0.005737 -0.003470 -0.008080 0.005720 0.019680
#
#
# Mechanical properties :
#
#
# Convention : Reuss Voigt Hill
#
# Bulk Modulus (GPa) = 74.52888 92.80960 83.66924
# Shear Modulus (GPa) = 22.34401 47.45916 34.90159
#
# Velocity S-wave (km/s) = 3.25396 4.74232 4.06681
# Velocity P-wave (km/s) = 7.03100 8.60036 7.85497
#
# Compressibility (1/GPa) = 0.01341762
#
# Stress axis : x y z
#
# Youngs Moduli (GPa) = 57.35502 47.49046 117.42807
#
# Poissons Ratio (x) = 0.53368 0.44242
# Poissons Ratio (y) = 0.64454 0.21019
# Poissons Ratio (z) = 0.21609 0.08500
#
# Static dielectric constant tensor:
#      x y z
#    x 1.518050 -0.112280 -0.156270 
#    y -0.112280 1.693980 -0.068550 
#    z -0.156270 -0.068550 1.589790 
# 
# From -- ./inp_files/93710.got.cif
#   From: 2010.05.17/outbox.cif.g08.bks.cpg/sg2_47_cif.got.tgz:93710.got - 2010.06.03 11:33:40.
