data_PCOD9102269
_publ_section_title
;
Structure prediction by ZEFSAII (Michael W. Deem and Ramdas Pophale) SiO2 
 PCOD9102269
Probable space group: P -1
;
_chemical_formula_sum "Si O2"
_cell_formula_units_Z 16
_cell_length_a 7.409209
_cell_length_b 21.935076
_cell_length_c 9.112663
_cell_angle_alpha 135.152082
_cell_angle_beta 64.705381
_cell_angle_gamma 82.131834
_cell_volume 683.680681
_symmetry_space_group_name_H-M "P -1"
_symmetry_group_IT_number 2
_symmetry_cell_setting 'triclinic'
loop_
_space_group_symop_operation_xyz
x,y,z
-x,-y,-z
loop_
_atom_site_type_symbol
_atom_site_label
_atom_site_fract_x
_atom_site_fract_y
_atom_site_fract_z
Si Si1 0.905067 0.579859 0.312842
Si Si2 0.976831 0.748061 0.597486
Si Si3 0.553351 0.612992 0.038279
Si Si4 0.543854 0.303585 0.113821
Si Si5 0.162028 0.036499 0.158319
Si Si6 0.878422 0.940009 0.457472
Si Si7 0.368414 0.157354 0.846925
Si Si8 0.446329 0.841044 0.499727
O O1 0.840793 0.699510 0.506111
O O2 0.652870 0.610330 0.537724
O O3 0.154413 0.511339 0.227518
O O4 0.000000 0.500000 0.000000
O O5 0.299583 0.647018 0.272099
O O6 0.876517 0.863675 0.746477
O O7 0.891046 0.785288 0.861265
O O8 0.559612 0.711276 0.255327
O O9 0.493032 0.633253 0.918468
O O10 0.445679 0.234872 0.990512
O O11 0.858107 0.201270 0.883018
O O12 0.234188 0.033329 0.293759
O O13 0.859527 0.080601 0.333686
O O14 0.378503 0.910446 0.789494
O O15 0.624431 0.021816 0.576070
O O16 0.000000 0.000000 0.500000
O O17 0.359038 0.164067 0.686052
#
# Coordination Sequence:
#
# PCOD9102269 Si02
#       8
#     2   2   2   2   2   2   2   2
#     4  11  24  40  62  87 110 149 208 257 287 334
#     4  10  21  38  59  88 122 156 193 237 298 352
#     4  10  19  40  64  83 115 160 195 240 289 351
#     4   9  18  37  58  83 109 157 201 230 291 360
#     4  10  18  33  56  84 121 151 190 234 286 349
#     4  10  16  32  56  83 114 158 189 228 283 349
#     4   9  18  32  55  85 123 153 188 230 286 351
#     4   9  18  33  56  89 116 151 198 228 280 357
#
# _framework density 23.402739
#
# number of rings (size 3 to 8) (size 9 to 14) (size 15 to 20)
#    0.000    2.250    5.000    0.750    0.000    4.000 
#    2.250    0.625    0.000    0.000    0.000    0.000 
#    0.000    0.000    0.000    0.000    0.000    0.000 
#
# Total GULP energy -89448.463396 kJ/mol
# GULP energy per Si atom -5590.528962 kJ/mol
# Density = 2.334947 g / cm^3
# Si number density = 23.402739 Si / 1000 Ang^3
#
#
#
# Elastic Constant Matrix: (Units=GPa)
#
#
# Indices 1 2 3 4 5 6 
#
# 1 63.4699 23.5594 27.9920 -14.4990 -9.6935 -4.1956
# 2 23.5594 106.2564 56.0372 -26.4365 -6.1779 5.8929
# 3 27.9920 56.0372 141.2173 -39.5255 -10.5889 -8.1543
# 4 -14.4990 -26.4365 -39.5255 44.4960 7.9467 -5.9639
# 5 -9.6935 -6.1779 -10.5889 7.9467 30.9953 1.8674
# 6 -4.1956 5.8929 -8.1543 -5.9639 1.8674 28.9672
#
#
#
# Elastic Compliance Matrix: (Units=1/GPa)
#
#
# Indices 1 2 3 4 5 6 
#
# 1 0.018857 -0.002659 -0.001322 0.003132 0.003914 0.003293
# 2 -0.002659 0.013042 -0.004084 0.002794 -0.000126 -0.003605
# 3 -0.001322 -0.004084 0.011580 0.008117 0.000313 0.005550
# 4 0.003132 0.002794 0.008117 0.034571 -0.005133 0.009619
# 5 0.003914 -0.000126 0.000313 -0.005133 0.035044 -0.002635
# 6 0.003293 -0.003605 0.005550 0.009619 -0.002635 0.039445
#
#
# Mechanical properties :
#
#
# Convention : Reuss Voigt Hill
#
# Bulk Modulus (GPa) = 36.56586 58.45787 47.51186
# Shear Modulus (GPa) = 28.12391 34.44871 31.28631
#
# Velocity S-wave (km/s) = 3.47037 3.84082 3.66028
# Velocity P-wave (km/s) = 5.63174 6.68599 6.18138
#
# Compressibility (1/GPa) = 0.02734792
#
# Stress axis : x y z
#
# Youngs Moduli (GPa) = 53.03148 76.67365 86.35798
#
# Poissons Ratio (x) = 0.20391 0.11418
# Poissons Ratio (y) = 0.14103 0.35267
# Poissons Ratio (z) = 0.07012 0.31312
#
# Static dielectric constant tensor:
#      x y z
#    x 2.026290 0.034590 0.006520 
#    y 0.034590 1.855230 -0.020080 
#    z 0.006520 -0.020080 1.896700 
# 
# From -- ./inp_files/224017.got.cif
#   From: 2010.05.17/outbox.cif.g08.bks.cpg/sg2_113_cif.got.tgz:224017.got - 2010.06.03 11:33:40.
