data_PCOD9102121
_publ_section_title
;
Structure prediction by ZEFSAII (Michael W. Deem and Ramdas Pophale) SiO2 
 PCOD9102121
Probable space group: P -1
;
_chemical_formula_sum "Si O2"
_cell_formula_units_Z 12
_cell_length_a 14.540938
_cell_length_b 10.178972
_cell_length_c 5.046416
_cell_angle_alpha 108.788990
_cell_angle_beta 81.313849
_cell_angle_gamma 134.225945
_cell_volume 503.729773
_symmetry_space_group_name_H-M "P -1"
_symmetry_group_IT_number 2
_symmetry_cell_setting 'triclinic'
loop_
_space_group_symop_operation_xyz
x,y,z
-x,-y,-z
loop_
_atom_site_type_symbol
_atom_site_label
_atom_site_fract_x
_atom_site_fract_y
_atom_site_fract_z
Si Si1 0.730567 0.306213 0.054705
Si Si2 0.331514 0.583164 0.347054
Si Si3 0.136611 0.183255 0.934965
Si Si4 0.164921 0.903576 0.704123
Si Si5 0.583790 0.959342 0.556915
Si Si6 0.991304 0.685289 0.148481
O O1 0.726884 0.365727 0.387618
O O2 0.880931 0.455374 0.004318
O O3 0.669856 0.355279 0.908765
O O4 0.647004 0.083933 0.880033
O O5 0.479837 0.727921 0.470680
O O6 0.237794 0.355249 0.209327
O O7 0.093449 0.259120 0.800433
O O8 0.190948 0.093115 0.755964
O O9 0.000000 0.000000 0.000000
O O10 0.295482 0.957900 0.620411
O O11 0.055188 0.743969 0.443122
O O12 0.101297 0.813638 0.960158
O O13 0.500000 0.000000 0.500000
#
# Coordination Sequence:
#
# PCOD9102121 Si02
#       6
#     2   2   2   2   2   2
#     4  10  20  38  62  85 116 155 195 242 293 342
#     4  10  21  37  61  86 115 158 195 236 293 346
#     4   9  19  38  63  89 120 148 190 247 298 349
#     4  11  23  37  61  91 119 156 195 239 296 349
#     4  10  24  42  60  84 122 162 200 239 284 349
#     4  10  21  38  61  92 119 148 194 247 299 346
#
# _framework density 23.822296999999999
#
# number of rings (size 3 to 8) (size 9 to 14) (size 15 to 20)
#    0.000    2.000    0.000    4.000    0.000   11.333 
#    0.000    0.000    0.000   13.000    0.000    0.000 
#    0.000    0.000    0.000    0.000    0.000    0.000 
#
# Total GULP energy -67039.557868 kJ/mol
# GULP energy per Si atom -5586.629822 kJ/mol
# Density = 2.376808 g / cm^3
# Si number density = 23.822297 Si / 1000 Ang^3
#
#
#
# Elastic Constant Matrix: (Units=GPa)
#
#
# Indices 1 2 3 4 5 6 
#
# 1 106.1724 24.5425 30.3710 6.8663 -10.0786 14.1275
# 2 24.5425 118.1837 28.3611 43.9702 7.8912 24.6138
# 3 30.3710 28.3611 90.6801 25.3987 0.0545 2.4321
# 4 6.8663 43.9702 25.3987 58.6418 4.9996 6.5927
# 5 -10.0786 7.8912 0.0545 4.9996 28.5623 0.9662
# 6 14.1275 24.6138 2.4321 6.5927 0.9662 41.4629
#
#
#
# Elastic Compliance Matrix: (Units=1/GPa)
#
#
# Indices 1 2 3 4 5 6 
#
# 1 0.011604 -0.001751 -0.003684 0.001515 0.004423 -0.003042
# 2 -0.001751 0.013787 -0.001114 -0.008739 -0.002690 -0.006071
# 3 -0.003684 -0.001114 0.013952 -0.004971 -0.000213 0.001893
# 4 0.001515 -0.008739 -0.004971 0.025609 -0.001556 0.000927
# 5 0.004423 -0.002690 -0.000213 -0.001556 0.037606 -0.000527
# 6 -0.003042 -0.006071 0.001893 0.000927 -0.000527 0.028512
#
#
# Mechanical properties :
#
#
# Convention : Reuss Voigt Hill
#
# Bulk Modulus (GPa) = 38.10160 53.50948 45.80554
# Shear Modulus (GPa) = 32.69773 41.18418 36.94096
#
# Velocity S-wave (km/s) = 3.70884 4.16240 3.94215
# Velocity P-wave (km/s) = 5.86255 6.75363 6.32380
#
# Compressibility (1/GPa) = 0.02624562
#
# Stress axis : x y z
#
# Youngs Moduli (GPa) = 86.17737 72.52984 71.67595
#
# Poissons Ratio (x) = 0.12699 0.26407
# Poissons Ratio (y) = 0.15089 0.07982
# Poissons Ratio (z) = 0.31749 0.08077
#
# Static dielectric constant tensor:
#      x y z
#    x 1.983380 -0.048720 -0.039820 
#    y -0.048720 2.011780 0.015840 
#    z -0.039820 0.015840 1.880920 
# 
# From -- ./inp_files/29973.got.cif
#   From: 2010.05.17/outbox.cif.g08.bks.cpg/sg2_15_cif.got.tgz:29973.got - 2010.06.03 11:33:40.
