data_PCOD9102663
_publ_section_title
;
Structure prediction by ZEFSAII (Michael W. Deem and Ramdas Pophale) SiO2 
 PCOD9102663
Probable space group: P -1
;
_chemical_formula_sum "Si O2"
_cell_formula_units_Z 16
_cell_length_a 9.181991
_cell_length_b 15.245371
_cell_length_c 11.628305
_cell_angle_alpha 93.478464
_cell_angle_beta 135.403435
_cell_angle_gamma 121.088125
_cell_volume 686.826485
_symmetry_space_group_name_H-M "P -1"
_symmetry_group_IT_number 2
_symmetry_cell_setting 'triclinic'
loop_
_space_group_symop_operation_xyz
x,y,z
-x,-y,-z
loop_
_atom_site_type_symbol
_atom_site_label
_atom_site_fract_x
_atom_site_fract_y
_atom_site_fract_z
Si Si1 0.821463 0.465911 0.619106
Si Si2 0.454242 0.456717 0.838467
Si Si3 0.712729 0.359499 0.906830
Si Si4 0.847548 0.156902 0.153960
Si Si5 0.588306 0.805742 0.496954
Si Si6 0.062100 0.077140 0.926357
Si Si7 0.863218 0.709322 0.906048
Si Si8 0.848271 0.313911 0.337900
O O1 0.715866 0.336311 0.603343
O O2 0.473646 0.393204 0.372994
O O3 0.061319 0.559378 0.651448
O O4 0.041916 0.590391 0.849836
O O5 0.481230 0.360168 0.828019
O O6 0.741915 0.595329 0.922359
O O7 0.084281 0.368053 0.582132
O O8 0.500000 0.500000 0.000000
O O9 0.517180 0.229199 0.698881
O O10 0.000000 0.500000 0.000000
O O11 0.950005 0.273243 0.300269
O O12 0.125758 0.173707 0.327599
O O13 0.841045 0.183735 0.018142
O O14 0.500000 0.000000 0.000000
O O15 0.765561 0.951767 0.659112
O O16 0.079866 0.184501 0.977778
O O17 0.440813 0.175052 0.109554
O O18 0.000000 0.000000 0.000000
#
# Coordination Sequence:
#
# PCOD9102663 Si02
#       8
#     2   2   2   2   2   2   2   2
#     4   9  21  38  64  98 118 165 220 273 319 380
#     4  11  26  42  64 100 138 172 217 281 333 386
#     4  10  22  40  65  93 132 169 214 269 335 379
#     4  11  19  38  65  99 123 167 221 271 325 387
#     4  10  20  38  63  94 130 170 209 267 332 388
#     4  12  22  41  64  96 134 174 215 267 329 402
#     4  10  24  40  68  98 133 171 222 269 332 393
#     4  11  24  37  70  96 126 166 229 277 320 391
#
# _framework density 23.295548
#
# number of rings (size 3 to 8) (size 9 to 14) (size 15 to 20)
#    0.000    1.500    5.000    0.000    7.000    2.500 
#    0.000    0.625    2.750    6.000    0.000    0.000 
#    0.000    0.000    0.000    0.000    0.000    0.000 
#
# Total GULP energy -89292.408347 kJ/mol
# GULP energy per Si atom -5580.775522 kJ/mol
# Density = 2.324253 g / cm^3
# Si number density = 23.295548 Si / 1000 Ang^3
#
#
#
# Elastic Constant Matrix: (Units=GPa)
#
#
# Indices 1 2 3 4 5 6 
#
# 1 98.4779 25.0323 44.0714 1.5193 -38.5798 -5.7801
# 2 25.0323 89.2114 54.5852 0.9131 -13.8577 6.7025
# 3 44.0714 54.5852 135.2261 0.1195 -47.1912 3.1647
# 4 1.5193 0.9131 0.1195 34.4142 12.7432 -4.7521
# 5 -38.5798 -13.8577 -47.1912 12.7432 38.1508 2.4970
# 6 -5.7801 6.7025 3.1647 -4.7521 2.4970 41.4299
#
#
#
# Elastic Compliance Matrix: (Units=1/GPa)
#
#
# Indices 1 2 3 4 5 6 
#
# 1 0.020946 -0.004469 0.005694 -0.012190 0.030676 -0.000037
# 2 -0.004469 0.016257 -0.008719 0.003450 -0.010449 -0.001562
# 3 0.005694 -0.008719 0.020291 -0.012301 0.031975 -0.002683
# 4 -0.012190 0.003450 -0.012301 0.046030 -0.042090 0.006497
# 5 0.030676 -0.010449 0.031975 -0.042090 0.107557 -0.007783
# 6 -0.000037 -0.001562 -0.002683 0.006497 -0.007783 0.025804
#
#
# Mechanical properties :
#
#
# Convention : Reuss Voigt Hill
#
# Bulk Modulus (GPa) = 23.52557 63.36591 43.44574
# Shear Modulus (GPa) = 18.79417 36.08074 27.43745
#
# Velocity S-wave (km/s) = 2.84345 3.93978 3.43563
# Velocity P-wave (km/s) = 4.57176 6.92501 5.86757
#
# Compressibility (1/GPa) = 0.04250695
#
# Stress axis : x y z
#
# Youngs Moduli (GPa) = 47.74279 61.51220 49.28327
#
# Poissons Ratio (x) = 0.27489 -0.28064
# Poissons Ratio (y) = 0.21336 0.42969
# Poissons Ratio (z) = -0.27187 0.53631
#
# Static dielectric constant tensor:
#      x y z
#    x 2.194510 -0.015310 -0.233450 
#    y -0.015310 2.001770 0.008750 
#    z -0.233450 0.008750 2.156540 
# 
# From -- ./inp_files/403124.got.cif
#   From: 2010.05.17/outbox.cif.g08.bks.cpg/sg2_202_cif.got.tgz:403124.got - 2010.06.03 11:33:40.
