data_PCOD9102502
_publ_section_title
;
Structure prediction by ZEFSAII (Michael W. Deem and Ramdas Pophale) SiO2 
 PCOD9102502
Probable space group: P -1
;
_chemical_formula_sum "Si O2"
_cell_formula_units_Z 14
_cell_length_a 5.024217
_cell_length_b 9.400033
_cell_length_c 36.823840
_cell_angle_alpha 24.020852
_cell_angle_beta 106.955970
_cell_angle_gamma 104.521671
_cell_volume 676.616861
_symmetry_space_group_name_H-M "P -1"
_symmetry_group_IT_number 2
_symmetry_cell_setting 'triclinic'
loop_
_space_group_symop_operation_xyz
x,y,z
-x,-y,-z
loop_
_atom_site_type_symbol
_atom_site_label
_atom_site_fract_x
_atom_site_fract_y
_atom_site_fract_z
Si Si1 0.745072 0.652303 0.364232
Si Si2 0.911611 0.776999 0.659158
Si Si3 0.550004 0.830714 0.816038
Si Si4 0.002867 0.407778 0.897293
Si Si5 0.661616 0.478883 0.323720
Si Si6 0.326411 0.323706 0.566008
Si Si7 0.801796 0.782711 0.732509
O O1 0.780398 0.427330 0.381470
O O2 0.687099 0.489141 0.438764
O O3 0.493990 0.921778 0.279055
O O4 0.006067 0.894971 0.324033
O O5 0.100923 0.579728 0.682820
O O6 0.593482 0.766138 0.636412
O O7 0.916905 0.626249 0.735412
O O8 0.037523 0.160135 0.579647
O O9 0.310848 0.550291 0.872005
O O10 0.844848 0.633079 0.870071
O O11 0.474175 0.124100 0.774764
O O12 0.834529 0.506979 0.830476
O O13 0.000000 0.000000 0.000000
O O14 0.500000 0.500000 0.500000
O O15 0.505731 0.963404 0.668102
#
# Coordination Sequence:
#
# PCOD9102502 Si02
#       7
#     2   2   2   2   2   2   2
#     4   8  20  34  64  82 116 158 205 237 299 347
#     4  11  22  37  61  91 118 161 201 241 305 357
#     4   9  19  35  59  88 116 155 194 241 294 347
#     4  11  20  35  63  96 117 149 203 254 291 348
#     4  10  20  38  63  88 118 166 199 240 297 370
#     4  11  22  40  62  89 123 159 202 252 300 352
#     4  10  20  40  60  89 120 157 202 245 301 351
#
# _framework density 20.691179000000002
#
# number of rings (size 3 to 8) (size 9 to 14) (size 15 to 20)
#    0.857    1.143    2.857    1.286    2.000    2.286 
#    0.000    1.429    0.000    5.143    0.000    0.000 
#    0.000    0.000    0.000    0.000    0.000    0.000 
#
# Total GULP energy -78056.030960 kJ/mol
# GULP energy per Si atom -5575.430783 kJ/mol
# Density = 2.064408 g / cm^3
# Si number density = 20.691179 Si / 1000 Ang^3
#
#
#
# Elastic Constant Matrix: (Units=GPa)
#
#
# Indices 1 2 3 4 5 6 
#
# 1 51.3447 17.1593 -12.3175 15.9373 -8.9474 -4.5158
# 2 17.1593 123.5389 22.6029 23.1138 -8.6364 -11.2263
# 3 -12.3175 22.6029 85.9887 1.9494 -11.7409 1.0836
# 4 15.9373 23.1138 1.9494 23.4129 -3.7699 -3.6434
# 5 -8.9474 -8.6364 -11.7409 -3.7699 18.0997 3.9222
# 6 -4.5158 -11.2263 1.0836 -3.6434 3.9222 39.0234
#
#
#
# Elastic Compliance Matrix: (Units=1/GPa)
#
#
# Indices 1 2 3 4 5 6 
#
# 1 0.029428 -0.001128 0.006951 -0.017116 0.015000 -0.000218
# 2 -0.001128 0.010686 -0.002735 -0.009159 0.000399 0.002124
# 3 0.006951 -0.002735 0.015031 -0.001636 0.011920 -0.001751
# 4 -0.017116 -0.009159 -0.001636 0.063614 -0.000960 0.001466
# 5 0.015000 0.000399 0.011920 -0.000960 0.071638 -0.005770
# 6 -0.000218 0.002124 -0.001751 0.001466 -0.005770 0.026977
#
#
# Mechanical properties :
#
#
# Convention : Reuss Voigt Hill
#
# Bulk Modulus (GPa) = 16.30781 35.08466 25.69623
# Shear Modulus (GPa) = 21.58527 31.66903 26.62715
#
# Velocity S-wave (km/s) = 3.23338 3.91648 3.59121
# Velocity P-wave (km/s) = 4.67315 6.11922 5.44441
#
# Compressibility (1/GPa) = 0.06132032
#
# Stress axis : x y z
#
# Youngs Moduli (GPa) = 33.98105 93.57680 66.53010
#
# Poissons Ratio (x) = 0.10557 -0.46244
# Poissons Ratio (y) = 0.03834 0.18198
# Poissons Ratio (z) = -0.23620 0.25596
#
# Static dielectric constant tensor:
#      x y z
#    x 1.807780 -0.024250 0.040760 
#    y -0.024250 1.800580 0.001630 
#    z 0.040760 0.001630 1.754540 
# 
# From -- ./inp_files/621651.got.cif
#   From: 2010.05.17/outbox.cif.g08.bks.cpg/sg2_311_cif.got.tgz:621651.got - 2010.06.03 11:33:40.
