data_PCOD9102847
_publ_section_title
;
Structure prediction by ZEFSAII (Michael W. Deem and Ramdas Pophale) SiO2 
 PCOD9102847
Probable space group: P -1
;
_chemical_formula_sum "Si O2"
_cell_formula_units_Z 16
_cell_length_a 11.708893
_cell_length_b 8.793715
_cell_length_c 12.146659
_cell_angle_alpha 90.223241
_cell_angle_beta 127.205707
_cell_angle_gamma 59.186798
_cell_volume 765.238233
_symmetry_space_group_name_H-M "P -1"
_symmetry_group_IT_number 2
_symmetry_cell_setting 'triclinic'
loop_
_space_group_symop_operation_xyz
x,y,z
-x,-y,-z
loop_
_atom_site_type_symbol
_atom_site_label
_atom_site_fract_x
_atom_site_fract_y
_atom_site_fract_z
Si Si1 0.543215 0.515656 0.901294
Si Si2 0.692181 0.283723 0.603734
Si Si3 0.097281 0.554467 0.819822
Si Si4 0.997758 0.680455 0.517838
Si Si5 0.985382 0.740605 0.264298
Si Si6 0.864592 0.918192 0.827752
Si Si7 0.790455 0.096985 0.419421
Si Si8 0.207821 0.920868 0.991583
O O1 0.367945 0.712337 0.742160
O O2 0.500000 0.500000 0.000000
O O3 0.717397 0.514213 0.010236
O O4 0.611320 0.307877 0.889678
O O5 0.500000 0.500000 0.500000
O O6 0.748832 0.170088 0.520429
O O7 0.848746 0.307188 0.715053
O O8 0.698760 0.136422 0.688050
O O9 0.082041 0.383697 0.798697
O O10 0.092515 0.632955 0.693819
O O11 0.920320 0.736099 0.787419
O O12 0.064170 0.688403 0.434977
O O13 0.000000 0.500000 0.500000
O O14 0.803306 0.904732 0.416401
O O15 0.821788 0.974204 0.142089
O O16 0.042304 0.909873 0.911473
O O17 0.822655 0.931665 0.931972
O O18 0.000000 0.000000 0.500000
#
# Coordination Sequence:
#
# PCOD9102847 Si02
#       8
#     2   2   2   2   2   2   2   2
#     4  11  23  36  62  96 123 154 217 260 309 373
#     4  11  22  37  64  93 123 164 222 261 306 375
#     4  10  21  40  63  92 125 169 205 261 318 380
#     4  10  20  38  64  90 124 168 204 251 319 378
#     4  10  21  38  66  89 129 170 206 258 329 369
#     4   9  18  36  60  82 121 164 206 252 312 370
#     4  12  22  39  66  90 124 168 210 259 319 373
#     4   9  19  37  57  89 122 159 206 258 308 371
#
# _framework density 20.908522000000001
#
# number of rings (size 3 to 8) (size 9 to 14) (size 15 to 20)
#    0.000    1.750    2.500    2.250    1.750    1.500 
#    0.000    7.500    2.750    0.000    0.000    0.000 
#    0.000    0.000    0.000    0.000    0.000    0.000 
#
# Total GULP energy -89079.551837 kJ/mol
# GULP energy per Si atom -5567.471990 kJ/mol
# Density = 2.086093 g / cm^3
# Si number density = 20.908522 Si / 1000 Ang^3
#
#
#
# Elastic Constant Matrix: (Units=GPa)
#
#
# Indices 1 2 3 4 5 6 
#
# 1 34.0159 24.9464 18.3162 -3.9184 -9.6448 3.5829
# 2 24.9464 132.4669 39.0705 -17.0878 4.7417 -3.0695
# 3 18.3162 39.0705 109.6035 -27.5723 -12.6590 -1.8550
# 4 -3.9184 -17.0878 -27.5723 43.2500 -3.0316 -5.3293
# 5 -9.6448 4.7417 -12.6590 -3.0316 27.6645 -1.8371
# 6 3.5829 -3.0695 -1.8550 -5.3293 -1.8371 28.8847
#
#
#
# Elastic Compliance Matrix: (Units=1/GPa)
#
#
# Indices 1 2 3 4 5 6 
#
# 1 0.040865 -0.007584 -0.002814 -0.000775 0.013821 -0.005320
# 2 -0.007584 0.010157 -0.002536 0.001564 -0.005254 0.001812
# 3 -0.002814 -0.002536 0.013341 0.008063 0.006631 0.002846
# 4 -0.000775 0.001564 0.008063 0.030129 0.006903 0.006778
# 5 0.013821 -0.005254 0.006631 0.006903 0.045812 0.002341
# 6 -0.005320 0.001812 0.002846 0.006778 0.002341 0.037055
#
#
# Mechanical properties :
#
#
# Convention : Reuss Voigt Hill
#
# Bulk Modulus (GPa) = 25.97779 48.97248 37.47513
# Shear Modulus (GPa) = 23.14200 32.87672 28.00936
#
# Velocity S-wave (km/s) = 3.33050 3.96966 3.66405
# Velocity P-wave (km/s) = 5.21930 6.66964 5.98854
#
# Compressibility (1/GPa) = 0.03849443
#
# Stress axis : x y z
#
# Youngs Moduli (GPa) = 24.47093 98.45438 74.95964
#
# Poissons Ratio (x) = 0.74663 0.21097
# Poissons Ratio (y) = 0.18558 0.19010
# Poissons Ratio (z) = 0.06887 0.24968
#
# Static dielectric constant tensor:
#      x y z
#    x 1.784320 0.026800 -0.016680 
#    y 0.026800 1.842630 0.003890 
#    z -0.016680 0.003890 1.838950 
# 
# From -- ./inp_files/419478.got.cif
#   From: 2010.05.17/outbox.cif.g08.bks.cpg/sg2_210_cif.got.tgz:419478.got - 2010.06.03 11:33:40.
