data_PCOD9102220
_publ_section_title
;
Structure prediction by ZEFSAII (Michael W. Deem and Ramdas Pophale) SiO2 
 PCOD9102220
Probable space group: P -1
;
_chemical_formula_sum "Si O2"
_cell_formula_units_Z 16
_cell_length_a 10.534404
_cell_length_b 12.728493
_cell_length_c 10.986116
_cell_angle_alpha 142.860109
_cell_angle_beta 94.026671
_cell_angle_gamma 112.777633
_cell_volume 600.845320
_symmetry_space_group_name_H-M "P -1"
_symmetry_group_IT_number 2
_symmetry_cell_setting 'triclinic'
loop_
_space_group_symop_operation_xyz
x,y,z
-x,-y,-z
loop_
_atom_site_type_symbol
_atom_site_label
_atom_site_fract_x
_atom_site_fract_y
_atom_site_fract_z
Si Si1 0.457351 0.946512 0.238300
Si Si2 0.190553 0.896791 0.790046
Si Si3 0.606250 0.395243 0.524392
Si Si4 0.607174 0.482537 0.353166
Si Si5 0.072843 0.131467 0.881566
Si Si6 0.917453 0.335513 0.162293
Si Si7 0.217340 0.282676 0.683770
Si Si8 0.518938 0.770648 0.273797
O O1 0.570279 0.903390 0.268329
O O2 0.550038 0.145514 0.319092
O O3 0.453503 0.072989 0.469343
O O4 0.243724 0.720771 0.970738
O O5 0.153866 0.791422 0.826364
O O6 0.091804 0.644587 0.470862
O O7 0.082532 0.970343 0.819995
O O8 0.411183 0.176000 0.050738
O O9 0.707770 0.509506 0.506134
O O10 0.435385 0.358524 0.471396
O O11 0.718905 0.585064 0.821950
O O12 0.707057 0.592244 0.331970
O O13 0.994424 0.984795 0.612104
O O14 0.959254 0.191821 0.967401
O O15 0.345086 0.250453 0.705939
O O16 0.297256 0.508046 0.989642
#
# Coordination Sequence:
#
# PCOD9102220 Si02
#       8
#     2   2   2   2   2   2   2   2
#     4  11  20  43  64  86 119 166 203 250 299 362
#     4  10  23  37  60  94 126 158 193 248 312 371
#     4  10  21  36  62  93 120 158 198 244 316 366
#     4  10  20  38  62  88 126 158 194 249 307 370
#     4  11  23  37  61  90 126 158 199 252 306 361
#     4  11  21  39  61  90 127 158 199 247 305 371
#     4  11  22  41  62  91 116 163 208 250 296 364
#     4  10  23  38  68  82 116 163 218 244 291 358
#
# _framework density 26.629149999999999
#
# number of rings (size 3 to 8) (size 9 to 14) (size 15 to 20)
#    0.000    1.500    3.750    1.125    5.250    1.000 
#    0.000    2.500   11.000    0.000    0.000    0.000 
#    0.000    0.000    0.000    0.000    0.000    0.000 
#
# Total GULP energy -89409.606559 kJ/mol
# GULP energy per Si atom -5588.100410 kJ/mol
# Density = 2.656854 g / cm^3
# Si number density = 26.629150 Si / 1000 Ang^3
#
#
#
# Elastic Constant Matrix: (Units=GPa)
#
#
# Indices 1 2 3 4 5 6 
#
# 1 58.9786 36.7459 19.6110 -0.1976 -7.8501 -29.3739
# 2 36.7459 136.5247 33.3293 -18.1086 3.1011 -34.8646
# 3 19.6110 33.3293 176.4631 -12.3865 7.4562 -13.5433
# 4 -0.1976 -18.1086 -12.3865 54.6962 -0.5919 2.0710
# 5 -7.8501 3.1011 7.4562 -0.5919 43.2098 -2.4623
# 6 -29.3739 -34.8646 -13.5433 2.0710 -2.4623 35.8691
#
#
#
# Elastic Compliance Matrix: (Units=1/GPa)
#
#
# Indices 1 2 3 4 5 6 
#
# 1 0.031878 -0.002566 -0.001703 -0.001931 0.007588 0.023601
# 2 -0.002566 0.010598 -0.000894 0.003001 -0.000596 0.007649
# 3 -0.001703 -0.000894 0.006148 0.001080 -0.001297 -0.000093
# 4 -0.001931 0.003001 0.001080 0.019487 -0.000452 0.000587
# 5 0.007588 -0.000596 -0.001297 -0.000452 0.025175 0.006900
# 6 0.023601 0.007649 -0.000093 0.000587 0.006900 0.055045
#
#
# Mechanical properties :
#
#
# Convention : Reuss Voigt Hill
#
# Bulk Modulus (GPa) = 26.10997 61.25988 43.68492
# Shear Modulus (GPa) = 29.16758 45.57369 37.37064
#
# Velocity S-wave (km/s) = 3.31316 4.14142 3.75023
# Velocity P-wave (km/s) = 4.94594 6.77667 5.93235
#
# Compressibility (1/GPa) = 0.03829955
#
# Stress axis : x y z
#
# Youngs Moduli (GPa) = 31.36978 94.35440 162.64385
#
# Poissons Ratio (x) = 0.24210 0.27697
# Poissons Ratio (y) = 0.08049 0.14536
# Poissons Ratio (z) = 0.05342 0.08433
#
# Static dielectric constant tensor:
#      x y z
#    x 2.127220 0.041470 0.001800 
#    y 0.041470 2.112590 0.095290 
#    z 0.001800 0.095290 2.179390 
# 
# From -- ./inp_files/243058.got.cif
#   From: 2010.05.17/outbox.cif.g08.bks.cpg/sg2_122_cif.got.tgz:243058.got - 2010.06.03 11:33:40.
