data_PCOD9102130
_publ_section_title
;
Structure prediction by ZEFSAII (Michael W. Deem and Ramdas Pophale) SiO2 
 PCOD9102130
Probable space group: P -1
;
_chemical_formula_sum "Si O2"
_cell_formula_units_Z 16
_cell_length_a 12.842754
_cell_length_b 10.508295
_cell_length_c 20.173102
_cell_angle_alpha 42.171342
_cell_angle_beta 156.023810
_cell_angle_gamma 130.640761
_cell_volume 739.362257
_symmetry_space_group_name_H-M "P -1"
_symmetry_group_IT_number 2
_symmetry_cell_setting 'triclinic'
loop_
_space_group_symop_operation_xyz
x,y,z
-x,-y,-z
loop_
_atom_site_type_symbol
_atom_site_label
_atom_site_fract_x
_atom_site_fract_y
_atom_site_fract_z
Si Si1 0.550933 0.197333 0.879223
Si Si2 0.932796 0.853215 0.717476
Si Si3 0.022416 0.280208 0.347676
Si Si4 0.696529 0.273344 0.406506
Si Si5 0.606124 0.016366 0.258733
Si Si6 0.203922 0.357060 0.737140
Si Si7 0.724319 0.643018 0.072528
Si Si8 0.709203 0.588584 0.785622
O O1 0.366379 0.241241 0.818704
O O2 0.563092 0.399211 0.770931
O O3 0.448208 0.063287 0.815636
O O4 0.832086 0.132084 0.099468
O O5 0.037584 0.743476 0.755539
O O6 0.724879 0.732601 0.678663
O O7 0.803517 0.057702 0.540137
O O8 0.827301 0.159598 0.321878
O O9 0.970570 0.503114 0.248060
O O10 0.294466 0.164936 0.568979
O O11 0.711965 0.427309 0.298300
O O12 0.420423 0.297162 0.271458
O O13 0.906412 0.349902 0.549322
O O14 0.371488 0.159641 0.095842
O O15 0.242927 0.288111 0.860204
O O16 0.500000 0.500000 0.000000
O O17 0.000000 0.500000 0.000000
#
# Coordination Sequence:
#
# PCOD9102130 Si02
#       8
#     2   2   2   2   2   2   2   2
#     4  10  20  38  62  85 121 149 196 248 296 350
#     4  11  21  38  59  87 114 161 200 238 292 351
#     4  10  23  35  57  86 122 157 195 237 291 364
#     4  10  21  33  61  87 117 142 196 250 290 353
#     4  10  21  37  57  86 121 158 191 241 303 349
#     4  10  21  34  56  95 115 149 189 244 303 347
#     4  10  21  35  53  82 128 155 186 230 295 361
#     4   9  21  39  57  85 114 153 195 251 292 337
#
# _framework density 21.640272
#
# number of rings (size 3 to 8) (size 9 to 14) (size 15 to 20)
#    0.000    2.000    0.000    3.375   10.500    1.500 
#    0.000    0.625    0.000    0.750    0.000    0.000 
#    0.000    0.000    0.000    0.000    0.000    0.000 
#
# Total GULP energy -89234.937778 kJ/mol
# GULP energy per Si atom -5577.183611 kJ/mol
# Density = 2.159102 g / cm^3
# Si number density = 21.640272 Si / 1000 Ang^3
#
#
#
# Elastic Constant Matrix: (Units=GPa)
#
#
# Indices 1 2 3 4 5 6 
#
# 1 35.8057 16.0499 11.9238 -5.2434 8.1556 4.9034
# 2 16.0499 65.5912 36.7439 -32.8536 5.7820 -12.7749
# 3 11.9238 36.7439 100.5662 -30.3480 10.6500 -15.6378
# 4 -5.2434 -32.8536 -30.3480 42.3588 -6.1136 -3.2119
# 5 8.1556 5.7820 10.6500 -6.1136 28.3863 -1.8588
# 6 4.9034 -12.7749 -15.6378 -3.2119 -1.8588 24.1816
#
#
#
# Elastic Compliance Matrix: (Units=1/GPa)
#
#
# Indices 1 2 3 4 5 6 
#
# 1 0.042892 -0.020787 -0.006206 -0.018993 -0.011626 -0.027109
# 2 -0.020787 0.043061 0.002069 0.035764 0.006323 0.033538
# 3 -0.006206 0.002069 0.016398 0.013568 -0.000907 0.014688
# 4 -0.018993 0.035764 0.013568 0.063144 0.009341 0.040624
# 5 -0.011626 0.006323 -0.000907 0.009341 0.040251 0.009447
# 6 -0.027109 0.033538 0.014688 0.040624 0.009447 0.080189
#
#
# Mechanical properties :
#
#
# Convention : Reuss Voigt Hill
#
# Bulk Modulus (GPa) = 19.04656 36.82203 27.93429
# Shear Modulus (GPa) = 14.15282 28.13504 21.14393
#
# Velocity S-wave (km/s) = 2.56012 3.60964 3.12919
# Velocity P-wave (km/s) = 4.19041 5.86729 5.09826
#
# Compressibility (1/GPa) = 0.05250291
#
# Stress axis : x y z
#
# Youngs Moduli (GPa) = 23.31410 23.22266 60.98339
#
# Poissons Ratio (x) = 0.48274 0.37849
# Poissons Ratio (y) = 0.48464 -0.12619
# Poissons Ratio (z) = 0.14470 -0.04805
#
# Static dielectric constant tensor:
#      x y z
#    x 1.763490 0.001120 -0.003910 
#    y 0.001120 1.808050 -0.040790 
#    z -0.003910 -0.040790 1.914230 
# 
# From -- ./inp_files/508151.got.cif
#   From: 2010.05.17/outbox.cif.g08.bks.cpg/sg2_255_cif.got.tgz:508151.got - 2010.06.03 11:33:40.
