data_PCOD9102571
_publ_section_title
;
Structure prediction by ZEFSAII (Michael W. Deem and Ramdas Pophale) SiO2 
 PCOD9102571
Probable space group: P -1
;
_chemical_formula_sum "Si O2"
_cell_formula_units_Z 12
_cell_length_a 8.853061
_cell_length_b 9.833060
_cell_length_c 9.126592
_cell_angle_alpha 99.983644
_cell_angle_beta 106.485048
_cell_angle_gamma 134.838315
_cell_volume 451.442524
_symmetry_space_group_name_H-M "P -1"
_symmetry_group_IT_number 2
_symmetry_cell_setting 'triclinic'
loop_
_space_group_symop_operation_xyz
x,y,z
-x,-y,-z
loop_
_atom_site_type_symbol
_atom_site_label
_atom_site_fract_x
_atom_site_fract_y
_atom_site_fract_z
Si Si1 0.792143 0.135957 0.287998
Si Si2 0.337393 0.580744 0.379859
Si Si3 0.869498 0.044329 0.598972
Si Si4 0.060030 0.629561 0.184940
Si Si5 0.471937 0.475883 0.813737
Si Si6 0.478553 0.788208 0.869327
O O1 0.777401 0.049674 0.421883
O O2 0.605609 0.141611 0.241912
O O3 0.099575 0.377552 0.384007
O O4 0.684119 0.979358 0.085898
O O5 0.277715 0.697150 0.345251
O O6 0.334121 0.489780 0.211901
O O7 0.643942 0.782275 0.540798
O O8 0.884051 0.169752 0.755103
O O9 0.167922 0.213914 0.673554
O O10 0.794347 0.427654 0.163672
O O11 0.000000 0.500000 0.000000
O O12 0.531964 0.671682 0.807041
O O13 0.500000 0.500000 0.000000
#
# Coordination Sequence:
#
# PCOD9102571 Si02
#       6
#     2   2   2   2   2   2
#     4  10  22  43  67  96 128 168 220 261 313 376
#     4  11  23  38  64  97 126 166 212 262 321 384
#     4  11  23  42  67  92 129 168 211 271 318 375
#     4  10  20  38  63  91 122 164 214 258 310 375
#     4  11  23  41  63  92 132 173 212 263 326 377
#     4   9  21  40  64  92 133 172 206 265 316 370
#
# _framework density 26.581455999999999
#
# number of rings (size 3 to 8) (size 9 to 14) (size 15 to 20)
#    0.000    1.667    0.000    5.000    0.000    7.333 
#    0.000   11.667    0.000    0.000    0.000    0.000 
#    0.000    0.000    0.000    0.000    0.000    0.000 
#
# Total GULP energy -67135.080803 kJ/mol
# GULP energy per Si atom -5594.590067 kJ/mol
# Density = 2.652096 g / cm^3
# Si number density = 26.581456 Si / 1000 Ang^3
#
#
#
# Elastic Constant Matrix: (Units=GPa)
#
#
# Indices 1 2 3 4 5 6 
#
# 1 114.3002 20.4390 14.6043 -1.6009 -16.5488 -3.4112
# 2 20.4390 112.3058 40.2658 8.1164 8.3428 25.1526
# 3 14.6043 40.2658 123.5396 -1.5746 8.6303 -4.3184
# 4 -1.6009 8.1164 -1.5746 45.3280 6.8234 -2.6230
# 5 -16.5488 8.3428 8.6303 6.8234 39.1437 3.7250
# 6 -3.4112 25.1526 -4.3184 -2.6230 3.7250 33.2259
#
#
#
# Elastic Compliance Matrix: (Units=1/GPa)
#
#
# Indices 1 2 3 4 5 6 
#
# 1 0.010016 -0.002483 -0.000615 0.000213 0.004641 0.002325
# 2 -0.002483 0.013902 -0.004585 -0.003197 -0.001353 -0.011475
# 3 -0.000615 -0.004585 0.010023 0.001788 -0.002290 0.005108
# 4 0.000213 -0.003197 0.001788 0.023629 -0.004219 0.005012
# 5 0.004641 -0.001353 -0.002290 -0.004219 0.029267 -0.002412
# 6 0.002325 -0.011475 0.005108 0.005012 -0.002412 0.040353
#
#
# Mechanical properties :
#
#
# Convention : Reuss Voigt Hill
#
# Bulk Modulus (GPa) = 53.83703 55.64041 54.73872
# Shear Modulus (GPa) = 33.61439 41.86195 37.73817
#
# Velocity S-wave (km/s) = 3.55995 3.97275 3.77200
# Velocity P-wave (km/s) = 6.09879 6.48237 6.29350
#
# Compressibility (1/GPa) = 0.01857457
#
# Stress axis : x y z
#
# Youngs Moduli (GPa) = 99.84262 71.93430 99.77085
#
# Poissons Ratio (x) = 0.17862 0.06135
# Poissons Ratio (y) = 0.24792 0.45743
# Poissons Ratio (z) = 0.06139 0.32981
#
# Static dielectric constant tensor:
#      x y z
#    x 2.151280 -0.091830 0.005990 
#    y -0.091830 1.986970 -0.074430 
#    z 0.005990 -0.074430 2.064030 
# 
# From -- ./inp_files/189327.got.cif
#   From: 2010.05.17/outbox.cif.g08.bks.cpg/sg2_95_cif.got.tgz:189327.got - 2010.06.03 11:33:40.
