data_PCOD9102038
_publ_section_title
;
Structure prediction by ZEFSAII (Michael W. Deem and Ramdas Pophale) SiO2 
 PCOD9102038
Probable space group: P -1
;
_chemical_formula_sum "Si O2"
_cell_formula_units_Z 16
_cell_length_a 13.531866
_cell_length_b 10.370462
_cell_length_c 9.692335
_cell_angle_alpha 117.417837
_cell_angle_beta 134.889885
_cell_angle_gamma 43.627842
_cell_volume 661.325710
_symmetry_space_group_name_H-M "P -1"
_symmetry_group_IT_number 2
_symmetry_cell_setting 'triclinic'
loop_
_space_group_symop_operation_xyz
x,y,z
-x,-y,-z
loop_
_atom_site_type_symbol
_atom_site_label
_atom_site_fract_x
_atom_site_fract_y
_atom_site_fract_z
Si Si1 0.410762 0.195507 0.589160
Si Si2 0.528162 0.072117 0.922357
Si Si3 0.803465 0.051640 0.907825
Si Si4 0.667998 0.302716 0.129716
Si Si5 0.930174 0.295719 0.821824
Si Si6 0.669452 0.707978 0.730563
Si Si7 0.746615 0.114739 0.567192
Si Si8 0.995081 0.171813 0.536190
O O1 0.586617 0.178527 0.767266
O O2 0.283216 0.328489 0.404803
O O3 0.500000 0.000000 0.500000
O O4 0.366970 0.198051 0.708519
O O5 0.393068 0.814879 0.923127
O O6 0.652809 0.878994 0.861748
O O7 0.500000 0.000000 0.000000
O O8 0.826490 0.050694 0.768824
O O9 0.815048 0.170663 0.090473
O O10 0.933947 0.842555 0.992686
O O11 0.788859 0.325030 0.357331
O O12 0.500000 0.500000 0.000000
O O13 0.817769 0.511898 0.853014
O O14 0.789347 0.254156 0.642231
O O15 0.025793 0.240791 0.739424
O O16 0.467108 0.776268 0.584895
O O17 0.849129 0.934251 0.478313
O O18 0.000000 0.000000 0.500000
#
# Coordination Sequence:
#
# PCOD9102038 Si02
#       8
#     2   2   2   2   2   2   2   2
#     4   8  18  39  59  82 120 172 212 249 322 387
#     4  10  23  40  64  97 133 166 218 275 327 377
#     4  10  20  38  61  92 132 170 215 279 322 384
#     4  11  24  41  68  96 128 177 225 268 328 395
#     4  11  22  36  61  99 131 170 216 269 332 386
#     4  10  22  40  66  93 127 175 218 266 325 405
#     4  10  21  38  62  92 137 172 220 267 331 383
#     4  10  22  39  61  93 134 171 213 277 331 379
#
# _framework density 24.193828
#
# number of rings (size 3 to 8) (size 9 to 14) (size 15 to 20)
#    0.000    2.000    2.500    0.750    8.750    1.000 
#    0.000    5.625    0.000    0.750    0.000    0.000 
#    0.000    0.000    0.000    0.000    0.000    0.000 
#
# Total GULP energy -89126.029366 kJ/mol
# GULP energy per Si atom -5570.376835 kJ/mol
# Density = 2.413876 g / cm^3
# Si number density = 24.193828 Si / 1000 Ang^3
#
#
#
# Elastic Constant Matrix: (Units=GPa)
#
#
# Indices 1 2 3 4 5 6 
#
# 1 112.0815 20.5859 38.2480 7.2099 -16.2060 -5.2878
# 2 20.5859 114.3976 31.6467 -22.0551 -8.1669 7.9900
# 3 38.2480 31.6467 129.5345 -11.1166 -21.7070 -7.3578
# 4 7.2099 -22.0551 -11.1166 45.1851 1.5849 3.2253
# 5 -16.2060 -8.1669 -21.7070 1.5849 45.4534 12.2401
# 6 -5.2878 7.9900 -7.3578 3.2253 12.2401 18.4476
#
#
#
# Elastic Compliance Matrix: (Units=1/GPa)
#
#
# Indices 1 2 3 4 5 6 
#
# 1 0.010747 -0.001941 -0.002576 -0.003525 0.001742 0.002355
# 2 -0.001941 0.011607 -0.001793 0.006094 0.002810 -0.009228
# 3 -0.002576 -0.001793 0.009637 0.001686 0.002845 0.001699
# 4 -0.003525 0.006094 0.001686 0.026655 0.002156 -0.009068
# 5 0.001742 0.002810 0.002845 0.002156 0.029707 -0.019671
# 6 0.002355 -0.009228 0.001699 -0.009068 -0.019671 0.074194
#
#
# Mechanical properties :
#
#
# Convention : Reuss Voigt Hill
#
# Bulk Modulus (GPa) = 51.62455 59.66384 55.64419
# Shear Modulus (GPa) = 27.52948 39.51943 33.52445
#
# Velocity S-wave (km/s) = 3.37690 4.04598 3.72649
# Velocity P-wave (km/s) = 6.04887 6.82209 6.44708
#
# Compressibility (1/GPa) = 0.01937063
#
# Stress axis : x y z
#
# Youngs Moduli (GPa) = 93.04580 86.15675 103.77130
#
# Poissons Ratio (x) = 0.16724 0.26733
# Poissons Ratio (y) = 0.18061 0.18604
# Poissons Ratio (z) = 0.23970 0.15446
#
# Static dielectric constant tensor:
#      x y z
#    x 2.156720 0.053050 0.053150 
#    y 0.053050 1.993940 0.097280 
#    z 0.053150 0.097280 2.349110 
# 
# From -- ./inp_files/307810.got.cif
#   From: 2010.05.17/outbox.cif.g08.bks.cpg/sg2_154_cif.got.tgz:307810.got - 2010.06.03 11:33:40.
