data_PCOD9102839
_publ_section_title
;
Structure prediction by ZEFSAII (Michael W. Deem and Ramdas Pophale) SiO2 
 PCOD9102839
Probable space group: P -1
;
_chemical_formula_sum "Si O2"
_cell_formula_units_Z 16
_cell_length_a 15.354566
_cell_length_b 11.228829
_cell_length_c 9.406324
_cell_angle_alpha 101.510441
_cell_angle_beta 140.639531
_cell_angle_gamma 50.173899
_cell_volume 627.743369
_symmetry_space_group_name_H-M "P -1"
_symmetry_group_IT_number 2
_symmetry_cell_setting 'triclinic'
loop_
_space_group_symop_operation_xyz
x,y,z
-x,-y,-z
loop_
_atom_site_type_symbol
_atom_site_label
_atom_site_fract_x
_atom_site_fract_y
_atom_site_fract_z
Si Si1 0.833877 0.288407 0.770403
Si Si2 0.842110 0.725766 0.763257
Si Si3 0.820675 0.700620 0.411670
Si Si4 0.083670 0.737070 0.671803
Si Si5 0.755856 0.171362 0.897453
Si Si6 0.455470 0.193943 0.392056
Si Si7 0.533598 0.727703 0.899252
Si Si8 0.301043 0.672755 0.684056
O O1 0.726887 0.291704 0.766120
O O2 0.684894 0.398327 0.469016
O O3 0.943653 0.338151 0.966045
O O4 0.037526 0.059477 0.930802
O O5 0.843120 0.658564 0.596907
O O6 0.775150 0.696418 0.811754
O O7 0.632505 0.962882 0.544985
O O8 0.000000 0.500000 0.500000
O O9 0.873795 0.806888 0.480443
O O10 0.597299 0.800361 0.089795
O O11 0.087530 0.767592 0.517371
O O12 0.165608 0.803463 0.865269
O O13 0.275377 0.505406 0.891490
O O14 0.552339 0.220394 0.637253
O O15 0.459965 0.248767 0.254125
O O16 0.320486 0.802575 0.705641
O O17 0.500000 0.500000 0.000000
#
# Coordination Sequence:
#
# PCOD9102839 Si02
#       8
#     2   2   2   2   2   2   2   2
#     4  10  20  39  65  88 120 162 211 261 310 372
#     4  10  22  41  65  92 124 164 210 263 312 373
#     4  10  22  41  60  85 127 165 208 253 311 375
#     4  10  22  39  59  88 123 166 209 258 309 374
#     4  10  20  38  64  90 119 161 212 262 312 368
#     4  10  22  40  63  95 125 160 212 260 317 372
#     4  10  22  40  58  87 127 166 205 259 311 377
#     4  10  22  40  59  89 125 163 204 256 311 374
#
# _framework density 25.488122000000001
#
# number of rings (size 3 to 8) (size 9 to 14) (size 15 to 20)
#    0.000    2.000    2.500    0.000    3.500    1.500 
#    0.000    2.500    0.000    0.000    0.000    0.000 
#    0.000    0.000    0.000    0.000    0.000    0.000 
#
# Total GULP energy -89513.199994 kJ/mol
# GULP energy per Si atom -5594.575000 kJ/mol
# Density = 2.543011 g / cm^3
# Si number density = 25.488122 Si / 1000 Ang^3
#
#
#
# Elastic Constant Matrix: (Units=GPa)
#
#
# Indices 1 2 3 4 5 6 
#
# 1 139.9234 10.2031 23.8675 1.2525 -19.8180 13.0419
# 2 10.2031 92.0330 19.5567 13.2927 -16.1447 9.7015
# 3 23.8675 19.5567 111.6175 13.2270 -3.7584 -3.5788
# 4 1.2525 13.2927 13.2270 39.8579 -0.5484 -3.6322
# 5 -19.8180 -16.1447 -3.7584 -0.5484 37.7564 3.0059
# 6 13.0419 9.7015 -3.5788 -3.6322 3.0059 30.5960
#
#
#
# Elastic Compliance Matrix: (Units=1/GPa)
#
#
# Indices 1 2 3 4 5 6 
#
# 1 0.008567 0.000881 -0.001933 -0.000279 0.005050 -0.004687
# 2 0.000881 0.013611 -0.002033 -0.004358 0.006502 -0.006086
# 3 -0.001933 -0.002033 0.010053 -0.002388 -0.001115 0.002471
# 4 -0.000279 -0.004358 -0.002388 0.027744 -0.002221 0.004733
# 5 0.005050 0.006502 -0.001115 -0.002221 0.032394 -0.007791
# 6 -0.004687 -0.006086 0.002471 0.004733 -0.007791 0.038228
#
#
# Mechanical properties :
#
#
# Convention : Reuss Voigt Hill
#
# Bulk Modulus (GPa) = 38.37110 50.09205 44.23157
# Shear Modulus (GPa) = 34.37493 40.97184 37.67339
#
# Velocity S-wave (km/s) = 3.67640 4.01370 3.84875
# Velocity P-wave (km/s) = 5.75399 6.41681 6.09442
#
# Compressibility (1/GPa) = 0.02606128
#
# Stress axis : x y z
#
# Youngs Moduli (GPa) = 116.72821 73.46776 99.46830
#
# Poissons Ratio (x) = -0.06475 0.19232
# Poissons Ratio (y) = -0.10288 0.20223
# Poissons Ratio (z) = 0.22569 0.14937
#
# Static dielectric constant tensor:
#      x y z
#    x 2.042720 -0.051810 0.068440 
#    y -0.051810 2.099470 -0.081460 
#    z 0.068440 -0.081460 2.029570 
# 
# From -- ./inp_files/305478.got.cif
#   From: 2010.05.17/outbox.cif.g08.bks.cpg/sg2_153_cif.got.tgz:305478.got - 2010.06.03 11:33:40.
