data_PCOD9102034
_publ_section_title
;
Structure prediction by ZEFSAII (Michael W. Deem and Ramdas Pophale) SiO2 
 PCOD9102034
Probable space group: P -1
;
_chemical_formula_sum "Si O2"
_cell_formula_units_Z 16
_cell_length_a 8.320958
_cell_length_b 25.850274
_cell_length_c 16.557055
_cell_angle_alpha 18.624552
_cell_angle_beta 39.196065
_cell_angle_gamma 40.593651
_cell_volume 713.294305
_symmetry_space_group_name_H-M "P -1"
_symmetry_group_IT_number 2
_symmetry_cell_setting 'triclinic'
loop_
_space_group_symop_operation_xyz
x,y,z
-x,-y,-z
loop_
_atom_site_type_symbol
_atom_site_label
_atom_site_fract_x
_atom_site_fract_y
_atom_site_fract_z
Si Si1 0.938401 0.429577 0.498053
Si Si2 0.930331 0.984802 0.253578
Si Si3 0.971924 0.191990 0.239784
Si Si4 0.614463 0.471713 0.908671
Si Si5 0.819274 0.739088 0.188811
Si Si6 0.237654 0.736399 0.604879
Si Si7 0.378466 0.990474 0.945710
Si Si8 0.445512 0.835127 0.974461
O O1 0.837346 0.610792 0.299598
O O2 0.136559 0.433893 0.341559
O O3 0.104681 0.357632 0.616430
O O4 0.717892 0.317217 0.736741
O O5 0.650367 0.042209 0.243267
O O6 0.028419 0.807863 0.513955
O O7 0.995249 0.118585 0.096872
O O8 0.112258 0.014503 0.061386
O O9 0.257920 0.231240 0.052806
O O10 0.894812 0.238265 0.293355
O O11 0.000000 0.000000 0.500000
O O12 0.748294 0.285649 0.131929
O O13 0.392658 0.553551 0.813608
O O14 0.500000 0.500000 0.000000
O O15 0.541058 0.838745 0.151761
O O16 0.458008 0.858005 0.336958
O O17 0.381805 0.935982 0.932276
#
# Coordination Sequence:
#
# PCOD9102034 Si02
#       8
#     2   2   2   2   2   2   2   2
#     4  10  20  38  61  92 127 158 207 262 309 361
#     4  10  21  36  61  94 125 160 208 252 316 366
#     4  11  23  41  62  91 123 166 214 253 309 379
#     4  10  22  38  62  90 120 161 208 251 303 367
#     4   9  19  34  60  90 122 165 208 248 307 371
#     4  10  20  39  64  86 121 167 211 252 302 372
#     4  11  19  35  61  92 125 163 206 253 307 372
#     4  11  23  38  61  97 126 162 205 263 313 364
#
# _framework density 22.431134
#
# number of rings (size 3 to 8) (size 9 to 14) (size 15 to 20)
#    0.000    1.750    1.250    4.875    1.750    2.500 
#    0.000    0.000    0.000    0.750    0.000    0.000 
#    0.000    0.000    0.000    0.000    0.000    0.000 
#
# Total GULP energy -89306.629481 kJ/mol
# GULP energy per Si atom -5581.664343 kJ/mol
# Density = 2.238008 g / cm^3
# Si number density = 22.431134 Si / 1000 Ang^3
#
#
#
# Elastic Constant Matrix: (Units=GPa)
#
#
# Indices 1 2 3 4 5 6 
#
# 1 84.2071 35.0269 37.4770 -14.4716 17.3133 -8.6162
# 2 35.0269 118.5854 49.2034 -7.7756 6.7475 -13.1165
# 3 37.4770 49.2034 78.3932 -6.2660 21.6790 -13.7386
# 4 -14.4716 -7.7756 -6.2660 44.0037 -9.6533 13.9153
# 5 17.3133 6.7475 21.6790 -9.6533 33.4776 -11.4827
# 6 -8.6162 -13.1165 -13.7386 13.9153 -11.4827 28.8570
#
#
#
# Elastic Compliance Matrix: (Units=1/GPa)
#
#
# Indices 1 2 3 4 5 6 
#
# 1 0.016593 -0.002454 -0.005292 0.004072 -0.004293 -0.002352
# 2 -0.002454 0.012261 -0.007240 0.000380 0.004645 0.003058
# 3 -0.005292 -0.007240 0.023081 -0.003123 -0.010464 0.003460
# 4 0.004072 0.000380 -0.003123 0.028407 0.003820 -0.012276
# 5 -0.004293 0.004645 -0.010464 0.003820 0.042820 0.011045
# 6 -0.002352 0.003058 0.003460 -0.012276 0.011045 0.047303
#
#
# Mechanical properties :
#
#
# Convention : Reuss Voigt Hill
#
# Bulk Modulus (GPa) = 45.53381 58.28892 51.91136
# Shear Modulus (GPa) = 24.06627 31.89955 27.98291
#
# Velocity S-wave (km/s) = 3.27906 3.77518 3.53583
# Velocity P-wave (km/s) = 5.88895 6.71154 6.31366
#
# Compressibility (1/GPa) = 0.02196170
#
# Stress axis : x y z
#
# Youngs Moduli (GPa) = 60.26532 81.56108 43.32581
#
# Poissons Ratio (x) = 0.20019 0.22927
# Poissons Ratio (y) = 0.14792 0.31369
# Poissons Ratio (z) = 0.31891 0.59053
#
# Static dielectric constant tensor:
#      x y z
#    x 1.856630 -0.019100 0.046120 
#    y -0.019100 1.844140 -0.002160 
#    z 0.046120 -0.002160 1.909310 
# 
# From -- ./inp_files/563406.got.cif
#   From: 2010.05.17/outbox.cif.g08.bks.cpg/sg2_282_cif.got.tgz:563406.got - 2010.06.03 11:33:40.
