data_PCOD9102168
_publ_section_title
;
Structure prediction by ZEFSAII (Michael W. Deem and Ramdas Pophale) SiO2 
 PCOD9102168
Probable space group: P -1
;
_chemical_formula_sum "Si O2"
_cell_formula_units_Z 14
_cell_length_a 7.724259
_cell_length_b 13.512237
_cell_length_c 11.486318
_cell_angle_alpha 36.755902
_cell_angle_beta 60.110654
_cell_angle_gamma 71.925385
_cell_volume 612.758551
_symmetry_space_group_name_H-M "P -1"
_symmetry_group_IT_number 2
_symmetry_cell_setting 'triclinic'
loop_
_space_group_symop_operation_xyz
x,y,z
-x,-y,-z
loop_
_atom_site_type_symbol
_atom_site_label
_atom_site_fract_x
_atom_site_fract_y
_atom_site_fract_z
Si Si1 0.767029 0.912802 0.659406
Si Si2 0.850851 0.440337 0.428882
Si Si3 0.430394 0.070531 0.724993
Si Si4 0.195358 0.345928 0.535454
Si Si5 0.084730 0.376998 0.999397
Si Si6 0.829429 0.087998 0.835612
Si Si7 0.835969 0.063257 0.265356
O O1 0.648047 0.027499 0.668557
O O2 0.719574 0.929235 0.523137
O O3 0.764522 0.729300 0.886033
O O4 0.000000 0.000000 0.500000
O O5 0.776874 0.539106 0.469000
O O6 0.820773 0.523466 0.239031
O O7 0.753737 0.244852 0.651473
O O8 0.091483 0.438116 0.379929
O O9 0.384355 0.254360 0.534820
O O10 0.298265 0.942506 0.798544
O O11 0.339596 0.022947 0.927168
O O12 0.007947 0.189104 0.764801
O O13 0.000000 0.500000 0.000000
O O14 0.899021 0.240449 0.139676
O O15 0.953967 0.990413 0.798236
#
# Coordination Sequence:
#
# PCOD9102168 Si02
#       7
#     2   2   2   2   2   2   2
#     4  10  24  42  57  82 123 168 201 243 302 367
#     4   9  17  33  56  92 127 156 186 247 313 354
#     4  11  19  36  65  94 114 153 213 255 286 351
#     4   8  17  31  60  90 127 143 200 252 306 336
#     4  11  22  38  59  80 124 171 196 234 310 367
#     4   9  17  31  60  93 115 145 199 255 298 341
#     4  10  20  38  62  87 118 161 207 246 293 352
#
# _framework density 22.8475
#
# number of rings (size 3 to 8) (size 9 to 14) (size 15 to 20)
#    0.857    1.429    0.000    4.714    0.000    0.000 
#    0.000   10.714    0.000    0.000    0.000    0.000 
#    0.000    0.000    0.000    0.571    0.000    0.000 
#
# Total GULP energy -78140.359639 kJ/mol
# GULP energy per Si atom -5581.454260 kJ/mol
# Density = 2.279550 g / cm^3
# Si number density = 22.847500 Si / 1000 Ang^3
#
#
#
# Elastic Constant Matrix: (Units=GPa)
#
#
# Indices 1 2 3 4 5 6 
#
# 1 62.4423 38.8390 25.9780 2.1164 4.6702 -7.7903
# 2 38.8390 175.7290 32.8733 -0.9688 -1.8425 -12.5873
# 3 25.9780 32.8733 92.6846 10.4884 27.8083 -10.0361
# 4 2.1164 -0.9688 10.4884 30.5615 -0.6951 -3.4962
# 5 4.6702 -1.8425 27.8083 -0.6951 25.1550 1.5326
# 6 -7.7903 -12.5873 -10.0361 -3.4962 1.5326 46.9277
#
#
#
# Elastic Compliance Matrix: (Units=1/GPa)
#
#
# Indices 1 2 3 4 5 6 
#
# 1 0.020191 -0.003489 -0.004596 0.000253 0.000997 0.001419
# 2 -0.003489 0.007132 -0.003028 0.001686 0.004523 0.000664
# 3 -0.004596 -0.003028 0.021321 -0.007259 -0.023334 0.003206
# 4 0.000253 0.001686 -0.007259 0.035601 0.009005 0.001300
# 5 0.000997 0.004523 -0.023334 0.009005 0.066255 -0.005104
# 6 0.001419 0.000664 0.003206 0.001300 -0.005104 0.022672
#
#
# Mechanical properties :
#
#
# Convention : Reuss Voigt Hill
#
# Bulk Modulus (GPa) = 37.85186 58.47073 48.16129
# Shear Modulus (GPa) = 24.48524 36.07321 30.27922
#
# Velocity S-wave (km/s) = 3.27721 3.97781 3.64438
# Velocity P-wave (km/s) = 5.56087 6.83700 6.23169
#
# Compressibility (1/GPa) = 0.02641878
#
# Stress axis : x y z
#
# Youngs Moduli (GPa) = 49.52695 140.20381 46.90270
#
# Poissons Ratio (x) = 0.48922 0.21555
# Poissons Ratio (y) = 0.17282 0.14201
# Poissons Ratio (z) = 0.22761 0.42450
#
# Static dielectric constant tensor:
#      x y z
#    x 1.989270 -0.011620 0.040280 
#    y -0.011620 1.830220 -0.026580 
#    z 0.040280 -0.026580 1.903120 
# 
# From -- ./inp_files/395196.got.cif
#   From: 2010.05.17/outbox.cif.g08.bks.cpg/sg2_198_cif.got.tgz:395196.got - 2010.06.03 11:33:40.
