data_PCOD9102533
_publ_section_title
;
Structure prediction by ZEFSAII (Michael W. Deem and Ramdas Pophale) SiO2 
 PCOD9102533
Probable space group: P -1
;
_chemical_formula_sum "Si O2"
_cell_formula_units_Z 16
_cell_length_a 7.847236
_cell_length_b 13.710935
_cell_length_c 7.446661
_cell_angle_alpha 80.468083
_cell_angle_beta 90.198882
_cell_angle_gamma 128.534046
_cell_volume 612.899762
_symmetry_space_group_name_H-M "P -1"
_symmetry_group_IT_number 2
_symmetry_cell_setting 'triclinic'
loop_
_space_group_symop_operation_xyz
x,y,z
-x,-y,-z
loop_
_atom_site_type_symbol
_atom_site_label
_atom_site_fract_x
_atom_site_fract_y
_atom_site_fract_z
Si Si1 0.651127 0.149586 0.929314
Si Si2 0.084810 0.426811 0.190388
Si Si3 0.654060 0.834515 0.291840
Si Si4 0.879905 0.637597 0.166120
Si Si5 0.139553 0.278247 0.498530
Si Si6 0.599619 0.261963 0.252568
Si Si7 0.709068 0.003427 0.486920
Si Si8 0.461537 0.337719 0.945863
O O1 0.573653 0.188080 0.747470
O O2 0.903853 0.214580 0.891504
O O3 0.629128 0.202699 0.096747
O O4 0.500000 0.000000 0.000000
O O5 0.301680 0.570779 0.180862
O O6 0.139270 0.336742 0.292684
O O7 0.846932 0.363532 0.295387
O O8 0.064262 0.420503 0.972931
O O9 0.797867 0.981471 0.312681
O O10 0.689490 0.802091 0.102745
O O11 0.686733 0.742789 0.430729
O O12 0.661377 0.606912 0.102935
O O13 0.849631 0.627615 0.383846
O O14 0.910767 0.132320 0.539384
O O15 0.410844 0.139144 0.398547
O O16 0.508912 0.329666 0.152801
O O17 0.500000 0.000000 0.500000
#
# Coordination Sequence:
#
# PCOD9102533 Si02
#       8
#     2   2   2   2   2   2   2   2
#     4  10  20  38  63  89 125 170 211 265 328 385
#     4  11  23  43  69  92 132 180 210 270 325 380
#     4  10  24  39  63  94 130 167 213 271 320 383
#     4  10  23  40  65  95 126 172 219 260 326 381
#     4  11  24  42  65 100 133 167 220 266 326 392
#     4  10  22  38  63  93 126 167 216 265 321 385
#     4  12  22  41  64  97 131 166 214 267 331 392
#     4  10  23  45  63  95 130 168 227 264 317 391
#
# _framework density 26.105411
#
# number of rings (size 3 to 8) (size 9 to 14) (size 15 to 20)
#    0.000    1.500    1.250    3.375    3.500    3.000 
#    2.250    4.375    0.000    0.000    0.000    0.000 
#    0.000    0.000    0.000    0.000    0.000    0.000 
#
# Total GULP energy -89087.819032 kJ/mol
# GULP energy per Si atom -5567.988689 kJ/mol
# Density = 2.604599 g / cm^3
# Si number density = 26.105411 Si / 1000 Ang^3
#
#
#
# Elastic Constant Matrix: (Units=GPa)
#
#
# Indices 1 2 3 4 5 6 
#
# 1 77.5626 38.0937 22.2878 0.9904 23.9850 3.0583
# 2 38.0937 110.1361 29.2286 0.3049 6.3847 3.4021
# 3 22.2878 29.2286 67.9010 -6.5306 13.9666 7.8317
# 4 0.9904 0.3049 -6.5306 42.5263 -13.7494 -5.7982
# 5 23.9850 6.3847 13.9666 -13.7494 36.6371 11.6330
# 6 3.0583 3.4021 7.8317 -5.7982 11.6330 38.1274
#
#
#
# Elastic Compliance Matrix: (Units=1/GPa)
#
#
# Indices 1 2 3 4 5 6 
#
# 1 0.020894 -0.005885 -0.002137 -0.005120 -0.014712 0.002998
# 2 -0.005885 0.011939 -0.003818 0.000546 0.003705 -0.000856
# 3 -0.002137 -0.003818 0.018194 0.001404 -0.003752 -0.001867
# 4 -0.005120 0.000546 0.001404 0.028153 0.013181 0.000333
# 5 -0.014712 0.003705 -0.003752 0.013181 0.045959 -0.010398
# 6 0.002998 -0.000856 -0.001867 0.000333 -0.010398 0.029670
#
#
# Mechanical properties :
#
#
# Convention : Reuss Voigt Hill
#
# Bulk Modulus (GPa) = 36.56805 48.31333 42.44069
# Shear Modulus (GPa) = 26.65169 34.52412 30.58791
#
# Velocity S-wave (km/s) = 3.19866 3.64055 3.42673
# Velocity P-wave (km/s) = 5.26119 6.01819 5.65238
#
# Compressibility (1/GPa) = 0.02734627
#
# Stress axis : x y z
#
# Youngs Moduli (GPa) = 47.86092 83.76149 54.96193
#
# Poissons Ratio (x) = 0.49295 0.11746
# Poissons Ratio (y) = 0.28167 0.20985
# Poissons Ratio (z) = 0.10228 0.31981
#
# Static dielectric constant tensor:
#      x y z
#    x 2.132630 -0.070160 -0.124280 
#    y -0.070160 2.049520 0.122790 
#    z -0.124280 0.122790 2.434840 
# 
# From -- ./inp_files/206422.got.cif
#   From: 2010.05.17/outbox.cif.g08.bks.cpg/sg2_104_cif.got.tgz:206422.got - 2010.06.03 11:33:40.
