data_PCOD9102340
_publ_section_title
;
Structure prediction by ZEFSAII (Michael W. Deem and Ramdas Pophale) SiO2 
 PCOD9102340
Probable space group: P -1
;
_chemical_formula_sum "Si O2"
_cell_formula_units_Z 16
_cell_length_a 13.230806
_cell_length_b 11.511204
_cell_length_c 15.976257
_cell_angle_alpha 47.534749
_cell_angle_beta 153.030426
_cell_angle_gamma 123.633326
_cell_volume 805.677263
_symmetry_space_group_name_H-M "P -1"
_symmetry_group_IT_number 2
_symmetry_cell_setting 'triclinic'
loop_
_space_group_symop_operation_xyz
x,y,z
-x,-y,-z
loop_
_atom_site_type_symbol
_atom_site_label
_atom_site_fract_x
_atom_site_fract_y
_atom_site_fract_z
Si Si1 0.238814 0.200496 0.653505
Si Si2 0.879746 0.264390 0.218468
Si Si3 0.904435 0.256711 0.049358
Si Si4 0.843543 0.962792 0.030078
Si Si5 0.808280 0.622826 0.940470
Si Si6 0.134840 0.785928 0.207219
Si Si7 0.459244 0.502285 0.639904
Si Si8 0.440896 0.109316 0.009784
O O1 0.296215 0.378836 0.607864
O O2 0.032774 0.193255 0.442711
O O3 0.441294 0.071845 0.829507
O O4 0.237524 0.149537 0.773918
O O5 0.632507 0.216326 0.074381
O O6 0.960391 0.214135 0.208282
O O7 0.883009 0.452899 0.122324
O O8 0.888406 0.094304 0.067368
O O9 0.673031 0.382772 0.819813
O O10 0.076308 0.344259 0.079317
O O11 0.775884 0.071833 0.845927
O O12 0.654448 0.873764 0.975655
O O13 0.058696 0.843199 0.215790
O O14 0.555489 0.604479 0.735067
O O15 0.904987 0.747858 0.011275
O O16 0.319692 0.630734 0.414432
#
# Coordination Sequence:
#
# PCOD9102340 Si02
#       8
#     2   2   2   2   2   2   2   2
#     4  11  21  35  61  90 123 157 194 241 302 352
#     4  11  20  36  59  93 122 150 197 248 298 349
#     4  10  20  38  62  92 125 147 198 252 294 348
#     4  10  22  42  62  87 119 166 192 244 300 351
#     4  10  21  37  59  92 122 151 195 252 297 343
#     4  10  23  42  64  84 123 155 203 244 295 355
#     4  11  19  38  64  89 118 154 196 249 298 341
#     4  11  21  38  57  86 128 157 192 244 297 355
#
# _framework density 19.859069000000002
#
# number of rings (size 3 to 8) (size 9 to 14) (size 15 to 20)
#    0.000    1.500    5.000    2.625    0.000    4.000 
#    0.000   10.625    0.000    0.000    0.000    0.000 
#    0.000    0.000    0.000    0.000    0.000    0.000 
#
# Total GULP energy -89078.407188 kJ/mol
# GULP energy per Si atom -5567.400449 kJ/mol
# Density = 1.981387 g / cm^3
# Si number density = 19.859069 Si / 1000 Ang^3
#
#
#
# Elastic Constant Matrix: (Units=GPa)
#
#
# Indices 1 2 3 4 5 6 
#
# 1 96.0271 33.5245 27.5864 2.1562 -11.1924 9.2254
# 2 33.5245 83.6855 26.5820 5.8297 -7.6923 5.1800
# 3 27.5864 26.5820 77.5942 11.0714 -19.0407 1.0783
# 4 2.1562 5.8297 11.0714 13.4767 0.6724 -7.0839
# 5 -11.1924 -7.6923 -19.0407 0.6724 11.1903 -5.7252
# 6 9.2254 5.1800 1.0783 -7.0839 -5.7252 30.7138
#
#
#
# Elastic Compliance Matrix: (Units=1/GPa)
#
#
# Indices 1 2 3 4 5 6 
#
# 1 0.013277 -0.004028 -0.001564 -0.000546 0.006802 -0.002112
# 2 -0.004028 0.014986 -0.002874 -0.004654 0.000541 -0.002189
# 3 -0.001564 -0.002874 0.030561 -0.024098 0.051961 0.004009
# 4 -0.000546 -0.004654 -0.024098 0.108159 -0.041528 0.019000
# 5 0.006802 0.000541 0.051961 -0.041528 0.199553 0.023661
# 6 -0.002112 -0.002189 0.004009 0.019000 0.023661 0.042214
#
#
# Mechanical properties :
#
#
# Convention : Reuss Voigt Hill
#
# Bulk Modulus (GPa) = 23.87110 48.07697 35.97404
# Shear Modulus (GPa) = 11.37278 22.38376 16.87827
#
# Velocity S-wave (km/s) = 2.39566 3.36092 2.91847
# Velocity P-wave (km/s) = 4.43831 6.27078 5.43237
#
# Compressibility (1/GPa) = 0.04189166
#
# Stress axis : x y z
#
# Youngs Moduli (GPa) = 75.31680 66.73046 32.72092
#
# Poissons Ratio (x) = 0.26880 0.05117
# Poissons Ratio (y) = 0.30338 0.09405
# Poissons Ratio (z) = 0.11779 0.19181
#
# Static dielectric constant tensor:
#      x y z
#    x 1.718300 0.005490 -0.016820 
#    y 0.005490 1.748400 0.019300 
#    z -0.016820 0.019300 1.732360 
# 
# From -- ./inp_files/518800.got.cif
#   From: 2010.05.17/outbox.cif.g08.bks.cpg/sg2_260_cif.got.tgz:518800.got - 2010.06.03 11:33:40.
