data_PCOD9102939
_publ_section_title
;
Structure prediction by ZEFSAII (Michael W. Deem and Ramdas Pophale) SiO2 
 PCOD9102939
Probable space group: P -1
;
_chemical_formula_sum "Si O2"
_cell_formula_units_Z 16
_cell_length_a 28.208969
_cell_length_b 9.742947
_cell_length_c 15.346835
_cell_angle_alpha 133.585366
_cell_angle_beta 160.366828
_cell_angle_gamma 35.331554
_cell_volume 748.866547
_symmetry_space_group_name_H-M "P -1"
_symmetry_group_IT_number 2
_symmetry_cell_setting 'triclinic'
loop_
_space_group_symop_operation_xyz
x,y,z
-x,-y,-z
loop_
_atom_site_type_symbol
_atom_site_label
_atom_site_fract_x
_atom_site_fract_y
_atom_site_fract_z
Si Si1 0.488845 0.585014 0.129993
Si Si2 0.956861 0.603355 0.231955
Si Si3 0.840596 0.129275 0.040832
Si Si4 0.606206 0.099340 0.740526
Si Si5 0.205088 0.612880 0.546306
Si Si6 0.984171 0.156282 0.120889
Si Si7 0.359068 0.919166 0.772977
Si Si8 0.756281 0.579797 0.202124
O O1 0.502841 0.643937 0.278366
O O2 0.608816 0.614315 0.288890
O O3 0.620282 0.276248 0.214232
O O4 0.283116 0.696709 0.788642
O O5 0.898328 0.437357 0.064607
O O6 0.123287 0.503711 0.406415
O O7 0.051344 0.577134 0.475309
O O8 0.781321 0.889832 0.018576
O O9 0.876353 0.152009 0.012702
O O10 0.783151 0.377244 0.098281
O O11 0.678680 0.125641 0.787877
O O12 0.032778 0.860457 0.298987
O O13 0.500000 0.000000 0.500000
O O14 0.195488 0.022599 0.464232
O O15 0.000000 0.000000 0.000000
O O16 0.289193 0.174003 0.810877
O O17 0.568606 0.736519 0.009250
#
# Coordination Sequence:
#
# PCOD9102939 Si02
#       8
#     2   2   2   2   2   2   2   2
#     4  11  20  39  64  94 130 160 203 261 312 371
#     4  10  22  41  61  94 124 163 205 262 308 371
#     4  11  22  42  66  91 122 167 209 263 308 368
#     4  11  25  41  64  89 128 168 209 253 307 372
#     4  10  21  37  66  96 122 158 208 256 324 362
#     4  11  26  43  62  88 129 173 212 251 305 373
#     4  10  20  38  64  93 127 165 197 263 307 368
#     4  10  20  38  66  95 128 158 208 258 324 358
#
# _framework density 21.365621999999998
#
# number of rings (size 3 to 8) (size 9 to 14) (size 15 to 20)
#    0.000    1.500    3.750    0.750    1.750    5.000 
#    4.500    5.000    0.000    0.000    0.000    0.000 
#    0.000    0.000    0.000    0.000    0.000    0.000 
#
# Total GULP energy -89225.244337 kJ/mol
# GULP energy per Si atom -5576.577771 kJ/mol
# Density = 2.131699 g / cm^3
# Si number density = 21.365622 Si / 1000 Ang^3
#
#
#
# Elastic Constant Matrix: (Units=GPa)
#
#
# Indices 1 2 3 4 5 6 
#
# 1 115.9951 51.9675 20.7520 24.0583 15.2306 9.5472
# 2 51.9675 87.3293 11.0555 16.9273 3.0349 17.6068
# 3 20.7520 11.0555 38.2615 18.0823 16.9382 -1.2589
# 4 24.0583 16.9273 18.0823 33.3306 8.8583 -0.0560
# 5 15.2306 3.0349 16.9382 8.8583 20.2980 4.3947
# 6 9.5472 17.6068 -1.2589 -0.0560 4.3947 25.6019
#
#
#
# Elastic Compliance Matrix: (Units=1/GPa)
#
#
# Indices 1 2 3 4 5 6 
#
# 1 0.013647 -0.007321 0.000136 -0.004152 -0.007721 0.001269
# 2 -0.007321 0.019653 -0.004866 -0.005189 0.011704 -0.013045
# 3 0.000136 -0.004866 0.052677 -0.015773 -0.039171 0.012576
# 4 -0.004152 -0.005189 -0.015773 0.045204 -0.003775 0.005088
# 5 -0.007721 0.011704 -0.039171 -0.003775 0.092625 -0.023004
# 6 0.001269 -0.013045 0.012576 0.005088 -0.023004 0.052136
#
#
# Mechanical properties :
#
#
# Convention : Reuss Voigt Hill
#
# Bulk Modulus (GPa) = 16.16177 45.45956 30.81066
# Shear Modulus (GPa) = 15.59235 26.36683 20.97959
#
# Velocity S-wave (km/s) = 2.70439 3.51675 3.13698
# Velocity P-wave (km/s) = 4.16322 6.14925 5.25098
#
# Compressibility (1/GPa) = 0.06187443
#
# Stress axis : x y z
#
# Youngs Moduli (GPa) = 73.27459 50.88393 18.98344
#
# Poissons Ratio (x) = 0.37252 -0.00258
# Poissons Ratio (y) = 0.53644 0.09238
# Poissons Ratio (z) = -0.00994 0.24761
#
# Static dielectric constant tensor:
#      x y z
#    x 1.845690 0.051210 0.055290 
#    y 0.051210 1.812610 -0.012350 
#    z 0.055290 -0.012350 1.825160 
# 
# From -- ./inp_files/543870.got.cif
#   From: 2010.05.17/outbox.cif.g08.bks.cpg/sg2_272_cif.got.tgz:543870.got - 2010.06.03 11:33:40.
