data_PCOD9102229
_publ_section_title
;
Structure prediction by ZEFSAII (Michael W. Deem and Ramdas Pophale) SiO2 
 PCOD9102229
Probable space group: P -1
;
_chemical_formula_sum "Si O2"
_cell_formula_units_Z 14
_cell_length_a 6.671260
_cell_length_b 14.529124
_cell_length_c 13.055123
_cell_angle_alpha 147.718561
_cell_angle_beta 96.466256
_cell_angle_gamma 100.208078
_cell_volume 576.280912
_symmetry_space_group_name_H-M "P -1"
_symmetry_group_IT_number 2
_symmetry_cell_setting 'triclinic'
loop_
_space_group_symop_operation_xyz
x,y,z
-x,-y,-z
loop_
_atom_site_type_symbol
_atom_site_label
_atom_site_fract_x
_atom_site_fract_y
_atom_site_fract_z
Si Si1 0.058796 0.834940 0.240892
Si Si2 0.356143 0.079514 0.675825
Si Si3 0.894928 0.766324 0.800074
Si Si4 0.347376 0.718353 0.443284
Si Si5 0.419965 0.496396 0.644800
Si Si6 0.698590 0.448788 0.941289
Si Si7 0.872888 0.352006 0.135860
O O1 0.847669 0.881798 0.260851
O O2 0.265937 0.004189 0.481919
O O3 0.949099 0.650808 0.144858
O O4 0.095052 0.773929 0.072509
O O5 0.614702 0.269410 0.846856
O O6 0.380090 0.932012 0.617131
O O7 0.662825 0.666568 0.766436
O O8 0.790100 0.621189 0.559060
O O9 0.092329 0.742259 0.847355
O O10 0.000000 0.000000 0.000000
O O11 0.532234 0.676774 0.473060
O O12 0.331156 0.622576 0.242377
O O13 0.098004 0.576717 0.348570
O O14 0.342435 0.608910 0.826825
O O15 0.500000 0.500000 0.000000
#
# Coordination Sequence:
#
# PCOD9102229 Si02
#       7
#     2   2   2   2   2   2   2
#     4   9  21  39  61  91 125 171 219 264 315 367
#     4  10  20  38  62  88 129 175 217 263 311 368
#     4  10  23  45  70  99 126 161 212 260 323 397
#     4  10  22  38  61  95 128 169 216 260 315 380
#     4  10  23  45  68  94 133 168 202 265 330 378
#     4   9  19  36  56  84 124 167 215 262 308 366
#     4  10  22  42  67  95 130 167 212 266 320 384
#
# _framework density 24.293707000000001
#
# number of rings (size 3 to 8) (size 9 to 14) (size 15 to 20)
#    0.000    2.286    0.000    0.857    0.000    9.714 
#    0.000   14.286    0.000    2.571    0.000    0.000 
#    0.000    0.000    0.000    0.000    0.000    0.000 
#
# Total GULP energy -78210.843806 kJ/mol
# GULP energy per Si atom -5586.488843 kJ/mol
# Density = 2.423841 g / cm^3
# Si number density = 24.293707 Si / 1000 Ang^3
#
#
#
# Elastic Constant Matrix: (Units=GPa)
#
#
# Indices 1 2 3 4 5 6 
#
# 1 107.2818 46.2916 31.2248 -6.5785 -15.6540 -3.4526
# 2 46.2916 119.8628 40.4991 18.3414 -6.1611 -19.0817
# 3 31.2248 40.4991 73.8917 8.3992 -4.5141 4.3473
# 4 -6.5785 18.3414 8.3992 57.2165 4.9513 -7.0848
# 5 -15.6540 -6.1611 -4.5141 4.9513 41.5035 4.6539
# 6 -3.4526 -19.0817 4.3473 -7.0848 4.6539 36.6663
#
#
#
# Elastic Compliance Matrix: (Units=1/GPa)
#
#
# Indices 1 2 3 4 5 6 
#
# 1 0.012729 -0.004186 -0.003169 0.002903 0.003544 -0.000493
# 2 -0.004186 0.013374 -0.005646 -0.003056 -0.000596 0.006720
# 3 -0.003169 -0.005646 0.018613 -0.002104 0.000911 -0.005966
# 4 0.002903 -0.003056 -0.002104 0.019671 -0.002273 0.003022
# 5 0.003544 -0.000596 0.000911 -0.002273 0.026144 -0.003842
# 6 -0.000493 0.006720 -0.005966 0.003022 -0.003842 0.032503
#
#
# Mechanical properties :
#
#
# Convention : Reuss Voigt Hill
#
# Bulk Modulus (GPa) = 53.43541 59.67413 56.55477
# Shear Modulus (GPa) = 32.20155 39.27867 35.74011
#
# Velocity S-wave (km/s) = 3.64471 4.02534 3.83974
# Velocity P-wave (km/s) = 6.30517 6.79863 6.55655
#
# Compressibility (1/GPa) = 0.01871418
#
# Stress axis : x y z
#
# Youngs Moduli (GPa) = 78.56060 74.77328 53.72651
#
# Poissons Ratio (x) = 0.31297 0.17028
# Poissons Ratio (y) = 0.32883 0.30332
# Poissons Ratio (z) = 0.24899 0.42215
#
# Static dielectric constant tensor:
#      x y z
#    x 2.009480 -0.035230 0.017470 
#    y -0.035230 1.937910 0.035180 
#    z 0.017470 0.035180 2.322690 
# 
# From -- ./inp_files/52677.got.cif
#   From: 2010.05.17/outbox.cif.g08.bks.cpg/sg2_27_cif.got.tgz:52677.got - 2010.06.03 11:33:40.
