data_PCOD9102279
_publ_section_title
;
Structure prediction by ZEFSAII (Michael W. Deem and Ramdas Pophale) SiO2 
 PCOD9102279
Probable space group: P -1
;
_chemical_formula_sum "Si O2"
_cell_formula_units_Z 15
_cell_length_a 10.267733
_cell_length_b 12.517836
_cell_length_c 9.145964
_cell_angle_alpha 106.079628
_cell_angle_beta 104.200466
_cell_angle_gamma 33.650258
_cell_volume 625.662315
_symmetry_space_group_name_H-M "P -1"
_symmetry_group_IT_number 2
_symmetry_cell_setting 'triclinic'
loop_
_space_group_symop_operation_xyz
x,y,z
-x,-y,-z
loop_
_atom_site_type_symbol
_atom_site_label
_atom_site_fract_x
_atom_site_fract_y
_atom_site_fract_z
Si Si1 0.682507 0.815622 0.634938
Si Si2 0.227156 0.465792 0.004553
Si Si3 0.272793 0.091321 0.039062
Si Si4 0.221425 0.775760 0.515927
Si Si5 0.199149 0.378755 0.670100
Si Si6 0.457253 0.804749 0.771925
Si Si7 0.655997 0.475413 0.329839
Si Si8 0.500000 0.500000 0.000000
O O1 0.717718 0.900294 0.778918
O O2 0.692316 0.798828 0.455251
O O3 0.476848 0.883179 0.679059
O O4 0.921359 0.582517 0.648513
O O5 0.293375 0.377428 0.148034
O O6 0.409000 0.441793 0.016047
O O7 0.257601 0.350204 0.846042
O O8 0.966176 0.689534 0.998203
O O9 0.500000 0.000000 0.000000
O O10 0.287962 0.962004 0.915468
O O11 0.375548 0.747413 0.655352
O O12 0.385525 0.643482 0.371141
O O13 0.183845 0.687776 0.561913
O O14 0.000000 0.000000 0.500000
O O15 0.301512 0.423278 0.644087
O O16 0.675938 0.400198 0.153388
#
# Coordination Sequence:
#
# PCOD9102279 Si02
#       8
#     2   2   2   2   2   2   2   1
#     4   9  18  37  61  85 119 154 197 250 294 354
#     4  10  21  38  63  88 122 163 202 247 303 366
#     4   9  21  36  59  88 122 153 201 251 295 348
#     4  11  24  39  63  91 121 158 207 254 303 362
#     4   9  18  36  63  86 120 158 193 245 305 360
#     4  11  21  39  63  91 116 160 206 248 301 364
#     4  10  21  41  62  88 121 159 200 249 309 369
#     4  10  20  38  62  90 122 164 198 246 316 366
#
# _framework density 23.974595000000001
#
# number of rings (size 3 to 8) (size 9 to 14) (size 15 to 20)
#    0.000    2.133    2.667    0.000    1.867    4.800 
#    0.000   10.000    2.933    0.000    0.000    0.000 
#    0.000    0.000    0.000    0.000    0.000    0.000 
#
# Total GULP energy -83520.459436 kJ/mol
# GULP energy per Si atom -5568.030629 kJ/mol
# Density = 2.392003 g / cm^3
# Si number density = 23.974595 Si / 1000 Ang^3
#
#
#
# Elastic Constant Matrix: (Units=GPa)
#
#
# Indices 1 2 3 4 5 6 
#
# 1 54.5275 -4.0922 10.4652 -1.3170 -6.6987 7.6641
# 2 -4.0922 101.3726 2.7496 2.5516 1.0657 1.3756
# 3 10.4652 2.7496 80.9932 6.2794 11.2488 -11.7799
# 4 -1.3170 2.5516 6.2794 40.0186 10.2766 -0.4266
# 5 -6.6987 1.0657 11.2488 10.2766 38.3251 -6.1682
# 6 7.6641 1.3756 -11.7799 -0.4266 -6.1682 13.6132
#
#
#
# Elastic Compliance Matrix: (Units=1/GPa)
#
#
# Indices 1 2 3 4 5 6 
#
# 1 0.022165 0.001225 -0.005704 0.000676 0.002711 -0.016288
# 2 0.001225 0.009982 -0.000804 -0.000472 -0.000096 -0.002452
# 3 -0.005704 -0.000804 0.015915 -0.001793 -0.002619 0.015821
# 4 0.000676 -0.000472 -0.001793 0.027157 -0.007325 -0.004352
# 5 0.002711 -0.000096 -0.002619 -0.007325 0.030910 0.009993
# 6 -0.016288 -0.002452 0.015821 -0.004352 0.009993 0.100958
#
#
# Mechanical properties :
#
#
# Convention : Reuss Voigt Hill
#
# Bulk Modulus (GPa) = 26.66921 28.34873 27.50897
# Shear Modulus (GPa) = 21.72492 33.57609 27.65051
#
# Velocity S-wave (km/s) = 3.01352 3.74637 3.39975
# Velocity P-wave (km/s) = 4.82250 5.52846 5.18750
#
# Compressibility (1/GPa) = 0.03749643
#
# Stress axis : x y z
#
# Youngs Moduli (GPa) = 45.11674 100.18030 62.83493
#
# Poissons Ratio (x) = -0.12272 0.35838
# Poissons Ratio (y) = -0.05527 0.05052
# Poissons Ratio (z) = 0.25732 0.08054
#
# Static dielectric constant tensor:
#      x y z
#    x 1.896670 0.027010 -0.030980 
#    y 0.027010 1.966410 0.001850 
#    z -0.030980 0.001850 1.996440 
# 
# From -- ./inp_files/251501.got.cif
#   From: 2010.05.17/outbox.cif.g08.bks.cpg/sg2_126_cif.got.tgz:251501.got - 2010.06.03 11:33:40.
