data_PCOD9102791
_publ_section_title
;
Structure prediction by ZEFSAII (Michael W. Deem and Ramdas Pophale) SiO2 
 PCOD9102791
Probable space group: P -1
;
_chemical_formula_sum "Si O2"
_cell_formula_units_Z 14
_cell_length_a 11.699402
_cell_length_b 6.474535
_cell_length_c 12.015808
_cell_angle_alpha 117.308684
_cell_angle_beta 50.561392
_cell_angle_gamma 95.386390
_cell_volume 598.143884
_symmetry_space_group_name_H-M "P -1"
_symmetry_group_IT_number 2
_symmetry_cell_setting 'triclinic'
loop_
_space_group_symop_operation_xyz
x,y,z
-x,-y,-z
loop_
_atom_site_type_symbol
_atom_site_label
_atom_site_fract_x
_atom_site_fract_y
_atom_site_fract_z
Si Si1 0.433988 0.971617 0.716074
Si Si2 0.950765 0.492779 0.272609
Si Si3 0.901882 0.097513 0.741544
Si Si4 0.865119 0.029953 0.999238
Si Si5 0.198641 0.733240 0.511834
Si Si6 0.607889 0.264835 0.817351
Si Si7 0.286256 0.214962 0.660049
O O1 0.515381 0.080801 0.788750
O O2 0.341796 0.191075 0.745845
O O3 0.566244 0.802791 0.514424
O O4 0.303165 0.863704 0.818439
O O5 0.824310 0.450096 0.426095
O O6 0.857722 0.562570 0.231080
O O7 0.012459 0.718312 0.316345
O O8 0.097776 0.257357 0.123079
O O9 0.744798 0.129953 0.782092
O O10 0.878356 0.148790 0.901578
O O11 0.027416 0.837715 0.592558
O O12 0.000000 0.000000 0.000000
O O13 0.318910 0.653699 0.319075
O O14 0.238973 0.965674 0.601503
O O15 0.500000 0.500000 0.000000
#
# Coordination Sequence:
#
# PCOD9102791 Si02
#       7
#     2   2   2   2   2   2   2
#     4  10  21  40  60  85 126 157 190 250 299 345
#     4  10  20  38  64  88 114 154 200 247 294 344
#     4  10  22  39  59  86 120 158 199 241 290 351
#     4  11  23  39  62  91 118 152 200 250 300 349
#     4   9  20  40  64  88 116 153 202 249 290 347
#     4  11  23  38  58  89 124 160 198 236 293 361
#     4   9  20  40  64  89 116 154 200 247 298 345
#
# _framework density 23.405742
#
# number of rings (size 3 to 8) (size 9 to 14) (size 15 to 20)
#    0.000    2.000    0.000    3.857    0.000    5.714 
#    0.000   15.714    0.000    0.000    0.000    0.000 
#    0.000    0.000    0.000    0.000    0.000    0.000 
#
# Total GULP energy -78276.744225 kJ/mol
# GULP energy per Si atom -5591.196016 kJ/mol
# Density = 2.335247 g / cm^3
# Si number density = 23.405742 Si / 1000 Ang^3
#
#
#
# Elastic Constant Matrix: (Units=GPa)
#
#
# Indices 1 2 3 4 5 6 
#
# 1 155.6481 27.9432 20.0170 -16.6609 -1.0346 2.5862
# 2 27.9432 65.2855 20.7728 -22.8082 2.7106 -8.6836
# 3 20.0170 20.7728 89.5612 -32.6682 -3.6166 15.6340
# 4 -16.6609 -22.8082 -32.6682 31.1328 -0.4955 -11.1341
# 5 -1.0346 2.7106 -3.6166 -0.4955 34.4842 -2.1468
# 6 2.5862 -8.6836 15.6340 -11.1341 -2.1468 20.8681
#
#
#
# Elastic Compliance Matrix: (Units=1/GPa)
#
#
# Indices 1 2 3 4 5 6 
#
# 1 0.007092 -0.002753 -0.000372 0.000966 0.000330 -0.001196
# 2 -0.002753 0.032545 -0.000312 0.033466 -0.000204 0.031952
# 3 -0.000372 -0.000312 0.018552 0.017474 0.001932 -0.004460
# 4 0.000966 0.033466 0.017474 0.093854 0.003766 0.051178
# 5 0.000330 -0.000204 0.001932 0.003766 0.029497 0.003470
# 6 -0.001196 0.031952 -0.004460 0.051178 0.003470 0.092368
#
#
# Mechanical properties :
#
#
# Convention : Reuss Voigt Hill
#
# Bulk Modulus (GPa) = 19.48750 49.77344 34.63047
# Shear Modulus (GPa) = 16.78485 33.41448 25.09967
#
# Velocity S-wave (km/s) = 2.68083 3.78248 3.27826
# Velocity P-wave (km/s) = 4.23396 6.35515 5.39974
#
# Compressibility (1/GPa) = 0.05131495
#
# Stress axis : x y z
#
# Youngs Moduli (GPa) = 140.99947 30.72668 53.90346
#
# Poissons Ratio (x) = 0.08458 0.02007
# Poissons Ratio (y) = 0.38811 0.01682
# Poissons Ratio (z) = 0.05250 0.00959
#
# Static dielectric constant tensor:
#      x y z
#    x 1.909930 0.009690 0.024790 
#    y 0.009690 1.892650 0.002430 
#    z 0.024790 0.002430 1.903380 
# 
# From -- ./inp_files/410969.got.cif
#   From: 2010.05.17/outbox.cif.g08.bks.cpg/sg2_206_cif.got.tgz:410969.got - 2010.06.03 11:33:40.
