data_PCOD9102266
_publ_section_title
;
Structure prediction by ZEFSAII (Michael W. Deem and Ramdas Pophale) SiO2 
 PCOD9102266
Probable space group: P -1
;
_chemical_formula_sum "Si O2"
_cell_formula_units_Z 16
_cell_length_a 9.451899
_cell_length_b 25.071862
_cell_length_c 11.672813
_cell_angle_alpha 48.326301
_cell_angle_beta 114.073409
_cell_angle_gamma 154.515064
_cell_volume 712.353956
_symmetry_space_group_name_H-M "P -1"
_symmetry_group_IT_number 2
_symmetry_cell_setting 'triclinic'
loop_
_space_group_symop_operation_xyz
x,y,z
-x,-y,-z
loop_
_atom_site_type_symbol
_atom_site_label
_atom_site_fract_x
_atom_site_fract_y
_atom_site_fract_z
Si Si1 0.722088 0.697349 0.517378
Si Si2 0.714590 0.300570 0.101666
Si Si3 0.576166 0.618116 0.847118
Si Si4 0.758473 0.041247 0.996710
Si Si5 0.377237 0.530649 0.421033
Si Si6 0.249287 0.047677 0.085853
Si Si7 0.239701 0.240955 0.081353
Si Si8 0.984085 0.650433 0.657430
O O1 0.639429 0.662688 0.673123
O O2 0.333500 0.529681 0.541652
O O3 0.975005 0.731825 0.530381
O O4 0.974558 0.873310 0.311189
O O5 0.493497 0.186327 0.072999
O O6 0.541722 0.301983 0.084842
O O7 0.712994 0.248386 0.288242
O O8 0.181464 0.492387 0.940947
O O9 0.908295 0.792212 0.797262
O O10 0.500000 0.500000 0.000000
O O11 0.214041 0.252878 0.794114
O O12 0.537118 0.903798 0.018147
O O13 0.874127 0.062116 0.130953
O O14 0.500000 0.000000 0.000000
O O15 0.500000 0.500000 0.500000
O O16 0.010051 0.382394 0.420519
O O17 0.000000 0.000000 0.000000
O O18 0.521405 0.427728 0.862084
#
# Coordination Sequence:
#
# PCOD9102266 Si02
#       8
#     2   2   2   2   2   2   2   2
#     4  10  20  38  62  94 126 159 205 267 306 363
#     4  11  22  38  67  88 127 176 198 251 324 379
#     4  11  21  38  65  98 122 153 215 268 302 360
#     4  10  21  36  65  88 115 164 210 251 299 367
#     4   8  17  33  57  87 123 146 193 262 303 351
#     4  11  24  43  63  87 134 169 202 248 326 381
#     4  10  20  38  62  89 130 160 202 258 320 365
#     4   9  17  34  61  93 114 155 212 252 304 357
#
# _framework density 22.460743999999998
#
# number of rings (size 3 to 8) (size 9 to 14) (size 15 to 20)
#    0.000    2.000    3.750    1.500    1.750    0.500 
#    0.000    2.500   19.250    0.000    0.000    0.000 
#    0.000    0.000    0.000    0.000    0.000    0.000 
#
# Total GULP energy -89091.878442 kJ/mol
# GULP energy per Si atom -5568.242403 kJ/mol
# Density = 2.240962 g / cm^3
# Si number density = 22.460744 Si / 1000 Ang^3
#
#
#
# Elastic Constant Matrix: (Units=GPa)
#
#
# Indices 1 2 3 4 5 6 
#
# 1 119.9473 56.3290 24.2341 17.2462 -4.1746 -27.7990
# 2 56.3290 150.4201 35.6579 46.9965 -12.2327 -41.0520
# 3 24.2341 35.6579 77.4514 20.2242 5.5588 -9.8981
# 4 17.2462 46.9965 20.2242 35.4397 -8.0604 -10.4845
# 5 -4.1746 -12.2327 5.5588 -8.0604 25.9454 14.3400
# 6 -27.7990 -41.0520 -9.8981 -10.4845 14.3400 53.6071
#
#
#
# Elastic Compliance Matrix: (Units=1/GPa)
#
#
# Indices 1 2 3 4 5 6 
#
# 1 0.010724 -0.002884 -0.001584 0.000268 -0.001093 0.003405
# 2 -0.002884 0.014647 -0.000546 -0.016150 -0.002382 0.007099
# 3 -0.001584 -0.000546 0.017015 -0.009438 -0.008356 0.002292
# 4 0.000268 -0.016150 -0.009438 0.056384 0.015953 -0.007211
# 5 -0.001093 -0.002382 -0.008356 0.015953 0.052150 -0.014764
# 6 0.003405 0.007099 0.002292 -0.007211 -0.014764 0.028819
#
#
# Mechanical properties :
#
#
# Convention : Reuss Voigt Hill
#
# Bulk Modulus (GPa) = 30.90332 64.47342 47.68837
# Shear Modulus (GPa) = 24.93119 38.43831 31.68475
#
# Velocity S-wave (km/s) = 3.33526 4.14134 3.75997
# Velocity P-wave (km/s) = 5.34983 7.18574 6.33465
#
# Compressibility (1/GPa) = 0.03235898
#
# Stress axis : x y z
#
# Youngs Moduli (GPa) = 93.25012 68.27440 58.77047
#
# Poissons Ratio (x) = 0.19688 0.09310
# Poissons Ratio (y) = 0.26890 0.03207
# Poissons Ratio (z) = 0.14772 0.03725
#
# Static dielectric constant tensor:
#      x y z
#    x 1.822190 -0.079870 -0.032580 
#    y -0.079870 2.142440 0.017190 
#    z -0.032580 0.017190 1.889800 
# 
# From -- ./inp_files/406646.got.cif
#   From: 2010.05.17/outbox.cif.g08.bks.cpg/sg2_204_cif.got.tgz:406646.got - 2010.06.03 11:33:40.
