data_PCOD9102352
_publ_section_title
;
Structure prediction by ZEFSAII (Michael W. Deem and Ramdas Pophale) SiO2 
 PCOD9102352
Probable space group: P -1
;
_chemical_formula_sum "Si O2"
_cell_formula_units_Z 16
_cell_length_a 8.820225
_cell_length_b 14.370406
_cell_length_c 5.534168
_cell_angle_alpha 95.798314
_cell_angle_beta 98.420421
_cell_angle_gamma 67.359577
_cell_volume 639.656485
_symmetry_space_group_name_H-M "P -1"
_symmetry_group_IT_number 2
_symmetry_cell_setting 'triclinic'
loop_
_space_group_symop_operation_xyz
x,y,z
-x,-y,-z
loop_
_atom_site_type_symbol
_atom_site_label
_atom_site_fract_x
_atom_site_fract_y
_atom_site_fract_z
Si Si1 0.204170 0.184430 0.967271
Si Si2 0.222942 0.540607 0.427240
Si Si3 0.907526 0.119056 0.952637
Si Si4 0.499588 0.083543 0.333725
Si Si5 0.076357 0.388860 0.287823
Si Si6 0.173320 0.908470 0.575114
Si Si7 0.529738 0.413905 0.782973
Si Si8 0.369072 0.269535 0.654808
O O1 0.340194 0.101652 0.139305
O O2 0.136382 0.296483 0.096516
O O3 0.043430 0.159377 0.896816
O O4 0.310644 0.193563 0.770217
O O5 0.122292 0.483823 0.242489
O O6 0.393984 0.459296 0.550272
O O7 0.288647 0.609955 0.293931
O O8 0.105237 0.587517 0.641071
O O9 0.846121 0.158661 0.221173
O O10 0.784638 0.134401 0.701081
O O11 0.000000 0.000000 0.000000
O O12 0.688326 0.051337 0.285814
O O13 0.464789 0.199300 0.438618
O O14 0.500000 0.000000 0.500000
O O15 0.197144 0.350541 0.538658
O O16 0.000000 0.000000 0.500000
O O17 0.478047 0.321935 0.831096
O O18 0.500000 0.500000 0.000000
#
# Coordination Sequence:
#
# PCOD9102352 Si02
#       8
#     2   2   2   2   2   2   2   2
#     4  11  24  41  67  91 131 171 223 280 339 400
#     4   9  19  38  66  89 127 167 211 257 327 398
#     4  10  23  41  66  90 129 171 221 279 335 399
#     4  11  25  43  68  90 126 177 225 278 339 404
#     4   9  20  40  62  95 123 168 213 269 323 400
#     4  10  23  43  64  94 126 168 226 281 339 399
#     4  10  20  38  62  92 130 166 204 262 327 399
#     4  10  24  40  61  94 129 163 218 272 330 400
#
# _framework density 25.013428999999999
#
# number of rings (size 3 to 8) (size 9 to 14) (size 15 to 20)
#    0.000    2.000    0.000    2.250    8.750    3.500 
#    2.250    3.750    0.000    0.000    0.000    0.000 
#    0.000    0.000    0.000    0.000    0.000    0.000 
#
# Total GULP energy -89275.979831 kJ/mol
# GULP energy per Si atom -5579.748739 kJ/mol
# Density = 2.495650 g / cm^3
# Si number density = 25.013429 Si / 1000 Ang^3
#
#
#
# Elastic Constant Matrix: (Units=GPa)
#
#
# Indices 1 2 3 4 5 6 
#
# 1 130.1443 28.0160 5.2361 3.9253 -4.5854 8.0920
# 2 28.0160 47.7600 0.8530 10.5087 5.7808 8.4208
# 3 5.2361 0.8530 78.2567 8.5980 3.9932 7.7447
# 4 3.9253 10.5087 8.5980 31.1588 4.5770 1.1175
# 5 -4.5854 5.7808 3.9932 4.5770 36.1678 -2.0920
# 6 8.0920 8.4208 7.7447 1.1175 -2.0920 45.7359
#
#
#
# Elastic Compliance Matrix: (Units=1/GPa)
#
#
# Indices 1 2 3 4 5 6 
#
# 1 0.008986 -0.005580 -0.000678 0.000656 0.002001 -0.000372
# 2 -0.005580 0.027273 0.001625 -0.008133 -0.004466 -0.004315
# 3 -0.000678 0.001625 0.013552 -0.003895 -0.001490 -0.002447
# 4 0.000656 -0.008133 -0.003895 0.036189 -0.002707 0.001033
# 5 0.002001 -0.004466 -0.001490 -0.002707 0.029246 0.002125
# 6 -0.000372 -0.004315 -0.002447 0.001033 0.002125 0.023211
#
#
# Mechanical properties :
#
#
# Convention : Reuss Voigt Hill
#
# Bulk Modulus (GPa) = 24.66417 36.04125 30.35271
# Shear Modulus (GPa) = 31.00955 37.41624 34.21289
#
# Velocity S-wave (km/s) = 3.52478 3.87181 3.70236
# Velocity P-wave (km/s) = 5.14268 5.86753 5.51703
#
# Compressibility (1/GPa) = 0.04054464
#
# Stress axis : x y z
#
# Youngs Moduli (GPa) = 111.28216 36.66598 73.78812
#
# Poissons Ratio (x) = 0.20460 0.05002
# Poissons Ratio (y) = 0.62098 -0.11987
# Poissons Ratio (z) = 0.07543 -0.05956
#
# Static dielectric constant tensor:
#      x y z
#    x 1.911520 -0.040380 0.025390 
#    y -0.040380 2.032820 0.091050 
#    z 0.025390 0.091050 1.957070 
# 
# From -- ./inp_files/38873.got.cif
#   From: 2010.05.17/outbox.cif.g08.bks.cpg/sg2_20_cif.got.tgz:38873.got - 2010.06.03 11:33:40.
