data_PCOD9102114
_publ_section_title
;
Structure prediction by ZEFSAII (Michael W. Deem and Ramdas Pophale) SiO2 
 PCOD9102114
Probable space group: P -1
;
_chemical_formula_sum "Si O2"
_cell_formula_units_Z 15
_cell_length_a 15.082688
_cell_length_b 8.891410
_cell_length_c 16.602115
_cell_angle_alpha 75.836720
_cell_angle_beta 156.102759
_cell_angle_gamma 88.422563
_cell_volume 672.219634
_symmetry_space_group_name_H-M "P -1"
_symmetry_group_IT_number 2
_symmetry_cell_setting 'triclinic'
loop_
_space_group_symop_operation_xyz
x,y,z
-x,-y,-z
loop_
_atom_site_type_symbol
_atom_site_label
_atom_site_fract_x
_atom_site_fract_y
_atom_site_fract_z
Si Si1 0.352058 0.767800 0.796626
Si Si2 0.500000 0.000000 0.000000
Si Si3 0.627617 0.349522 0.437430
Si Si4 0.930874 0.000344 0.271386
Si Si5 0.631508 0.708575 0.424595
Si Si6 0.043629 0.098197 0.950690
Si Si7 0.960716 0.542519 0.056850
Si Si8 0.861067 0.345943 0.224846
O O1 0.120223 0.927475 0.519577
O O2 0.202189 0.695341 0.732431
O O3 0.618293 0.585547 0.990188
O O4 0.454060 0.853722 0.931222
O O5 0.684037 0.988807 0.080485
O O6 0.851770 0.164728 0.590164
O O7 0.634878 0.531991 0.417308
O O8 0.315341 0.429451 0.151919
O O9 0.746532 0.243568 0.637035
O O10 0.814248 0.227457 0.138224
O O11 0.783782 0.627951 0.649804
O O12 0.832760 0.720885 0.532228
O O13 0.314056 0.918305 0.145985
O O14 0.097900 0.249190 0.004309
O O15 0.000000 0.000000 0.000000
O O16 0.000000 0.500000 0.000000
#
# Coordination Sequence:
#
# PCOD9102114 Si02
#       8
#     2   1   2   2   2   2   2   2
#     4  10  22  41  60  87 125 160 205 258 305 361
#     4  10  20  38  62  84 118 162 198 246 306 356
#     4  11  25  42  64  94 128 165 205 259 315 368
#     4  11  23  40  61  88 124 161 204 255 308 364
#     4  11  24  42  64  93 127 163 210 258 308 375
#     4  11  25  43  65  95 126 161 209 258 311 376
#     4  11  24  43  66  92 126 164 204 257 316 373
#     4  10  21  39  62  88 119 160 205 250 301 362
#
# _framework density 22.314136000000001
#
# number of rings (size 3 to 8) (size 9 to 14) (size 15 to 20)
#    0.000    1.333    0.000    5.600    0.000   12.800 
#    0.000   19.333    0.000    0.000    0.000    0.000 
#    0.000    0.000    0.000    0.000    0.000    0.000 
#
# Total GULP energy -83608.175075 kJ/mol
# GULP energy per Si atom -5573.878338 kJ/mol
# Density = 2.226335 g / cm^3
# Si number density = 22.314136 Si / 1000 Ang^3
#
#
#
# Elastic Constant Matrix: (Units=GPa)
#
#
# Indices 1 2 3 4 5 6 
#
# 1 73.0660 18.2106 11.0563 5.6042 8.0975 -2.6884
# 2 18.2106 96.3568 25.6819 2.2986 2.8457 -5.7266
# 3 11.0563 25.6819 74.5291 -6.4861 4.9066 6.3137
# 4 5.6042 2.2986 -6.4861 31.9339 -0.3929 17.8657
# 5 8.0975 2.8457 4.9066 -0.3929 42.0822 0.3480
# 6 -2.6884 -5.7266 6.3137 17.8657 0.3480 37.5971
#
#
#
# Elastic Compliance Matrix: (Units=1/GPa)
#
#
# Indices 1 2 3 4 5 6 
#
# 1 0.015300 -0.001899 -0.002184 -0.005031 -0.002638 0.003587
# 2 -0.001899 0.012346 -0.004695 -0.003986 0.000004 0.004427
# 3 -0.002184 -0.004695 0.016815 0.008424 -0.001081 -0.007688
# 4 -0.005031 -0.003986 0.008424 0.048415 0.000917 -0.025396
# 5 -0.002638 0.000004 -0.001081 0.000917 0.024410 -0.000668
# 6 0.003587 0.004427 -0.007688 -0.025396 -0.000668 0.040894
#
#
# Mechanical properties :
#
#
# Convention : Reuss Voigt Hill
#
# Bulk Modulus (GPa) = 37.16474 39.31659 38.24067
# Shear Modulus (GPa) = 27.07043 34.92283 30.99663
#
# Velocity S-wave (km/s) = 3.48681 3.96037 3.73111
# Velocity P-wave (km/s) = 5.73602 6.21052 5.97798
#
# Compressibility (1/GPa) = 0.02690722
#
# Stress axis : x y z
#
# Youngs Moduli (GPa) = 65.35946 80.99577 59.47102
#
# Poissons Ratio (x) = 0.15377 0.12986
# Poissons Ratio (y) = 0.12409 0.27921
# Poissons Ratio (z) = 0.14271 0.38027
#
# Static dielectric constant tensor:
#      x y z
#    x 1.890410 0.079180 -0.129300 
#    y 0.079180 1.409920 0.380740 
#    z -0.129300 0.380740 1.404120 
# 
# From -- ./inp_files/572600.got.cif
#   From: 2010.05.17/outbox.cif.g08.bks.cpg/sg2_287_cif.got.tgz:572600.got - 2010.06.03 11:33:40.
