data_PCOD9102122
_publ_section_title
;
Structure prediction by ZEFSAII (Michael W. Deem and Ramdas Pophale) SiO2 
 PCOD9102122
Probable space group: P -1
;
_chemical_formula_sum "Si O2"
_cell_formula_units_Z 16
_cell_length_a 8.179959
_cell_length_b 14.113661
_cell_length_c 14.039477
_cell_angle_alpha 30.748050
_cell_angle_beta 119.304917
_cell_angle_gamma 120.297256
_cell_volume 709.740724
_symmetry_space_group_name_H-M "P -1"
_symmetry_group_IT_number 2
_symmetry_cell_setting 'triclinic'
loop_
_space_group_symop_operation_xyz
x,y,z
-x,-y,-z
loop_
_atom_site_type_symbol
_atom_site_label
_atom_site_fract_x
_atom_site_fract_y
_atom_site_fract_z
Si Si1 0.462616 0.189410 0.274682
Si Si2 0.397249 0.223087 0.005321
Si Si3 0.934897 0.985726 0.669298
Si Si4 0.180157 0.690304 0.979756
Si Si5 0.301442 0.010216 0.979503
Si Si6 0.870617 0.349347 0.227356
Si Si7 0.970775 0.745640 0.369785
Si Si8 0.001531 0.340621 0.767443
O O1 0.446270 0.175840 0.167602
O O2 0.656186 0.343446 0.214122
O O3 0.500000 0.000000 0.500000
O O4 0.245646 0.186764 0.249295
O O5 0.598878 0.319523 0.932162
O O6 0.324251 0.048383 0.065783
O O7 0.221337 0.333721 0.859314
O O8 0.933149 0.155485 0.447689
O O9 0.912219 0.089488 0.673892
O O10 0.122616 0.894569 0.802105
O O11 0.032375 0.533124 0.130207
O O12 0.151435 0.658817 0.885618
O O13 0.228489 0.188124 0.760015
O O14 0.500000 0.000000 0.000000
O O15 0.142472 0.824067 0.079163
O O16 0.962252 0.548768 0.589689
O O17 0.032894 0.711764 0.309328
#
# Coordination Sequence:
#
# PCOD9102122 Si02
#       8
#     2   2   2   2   2   2   2   2
#     4   9  19  36  59  87 118 154 200 244 292 357
#     4  10  20  38  62  85 117 163 200 242 301 354
#     4  11  20  35  61  89 117 152 198 246 296 352
#     4  10  21  39  59  85 120 153 196 247 299 353
#     4  11  22  38  62  91 123 155 194 248 302 354
#     4   9  21  39  56  83 120 157 194 241 300 357
#     4  10  22  39  61  90 119 159 201 243 295 352
#     4  10  22  42  62  84 123 160 199 245 293 359
#
# _framework density 22.543444999999998
#
# number of rings (size 3 to 8) (size 9 to 14) (size 15 to 20)
#    0.000    2.000    0.000    4.125    0.000    4.000 
#    0.000   20.000    0.000    0.000    0.000    0.000 
#    0.000    0.000    0.000    0.000    0.000    0.000 
#
# Total GULP energy -89298.756003 kJ/mol
# GULP energy per Si atom -5581.172250 kJ/mol
# Density = 2.249213 g / cm^3
# Si number density = 22.543445 Si / 1000 Ang^3
#
#
#
# Elastic Constant Matrix: (Units=GPa)
#
#
# Indices 1 2 3 4 5 6 
#
# 1 113.4864 26.1371 76.9180 -18.3153 11.2896 39.7202
# 2 26.1371 85.7486 40.0150 -6.6385 -6.0597 19.0639
# 3 76.9180 40.0150 128.3637 -2.3630 2.3397 25.4074
# 4 -18.3153 -6.6385 -2.3630 34.2177 -7.2289 -4.4391
# 5 11.2896 -6.0597 2.3397 -7.2289 25.4549 0.3127
# 6 39.7202 19.0639 25.4074 -4.4391 0.3127 35.9620
#
#
#
# Elastic Compliance Matrix: (Units=1/GPa)
#
#
# Indices 1 2 3 4 5 6 
#
# 1 0.025186 0.002365 -0.011649 0.009173 -0.006690 -0.019652
# 2 0.002365 0.015331 -0.004841 0.003910 0.004240 -0.006873
# 3 -0.011649 -0.004841 0.015393 -0.005392 0.001020 0.003883
# 4 0.009173 0.003910 -0.005392 0.035580 0.007512 -0.004068
# 5 -0.006690 0.004240 0.001020 0.007512 0.045241 0.004955
# 6 -0.019652 -0.006873 0.003883 -0.004068 0.004955 0.049868
#
#
# Mechanical properties :
#
#
# Convention : Reuss Voigt Hill
#
# Bulk Modulus (GPa) = 36.15237 68.19320 52.17279
# Shear Modulus (GPa) = 22.31460 31.42882 26.87171
#
# Velocity S-wave (km/s) = 3.14960 3.73788 3.45628
# Velocity P-wave (km/s) = 5.41278 6.99602 6.25470
#
# Compressibility (1/GPa) = 0.02766070
#
# Stress axis : x y z
#
# Youngs Moduli (GPa) = 39.70439 65.22858 64.96283
#
# Poissons Ratio (x) = -0.15429 0.75674
# Poissons Ratio (y) = -0.09392 0.31450
# Poissons Ratio (z) = 0.46251 0.31579
#
# Static dielectric constant tensor:
#      x y z
#    x 1.880270 0.026750 -0.036280 
#    y 0.026750 1.903010 0.006170 
#    z -0.036280 0.006170 1.821620 
# 
# From -- ./inp_files/505133.got.cif
#   From: 2010.05.17/outbox.cif.g08.bks.cpg/sg2_253_cif.got.tgz:505133.got - 2010.06.03 11:33:40.
