data_PCOD9102227
_publ_section_title
;
Structure prediction by ZEFSAII (Michael W. Deem and Ramdas Pophale) SiO2 
 PCOD9102227
Probable space group: P -1
;
_chemical_formula_sum "Si O2"
_cell_formula_units_Z 13
_cell_length_a 11.252423
_cell_length_b 22.637956
_cell_length_c 12.440875
_cell_angle_alpha 29.818180
_cell_angle_beta 156.812776
_cell_angle_gamma 149.628470
_cell_volume 585.000822
_symmetry_space_group_name_H-M "P -1"
_symmetry_group_IT_number 2
_symmetry_cell_setting 'triclinic'
loop_
_space_group_symop_operation_xyz
x,y,z
-x,-y,-z
loop_
_atom_site_type_symbol
_atom_site_label
_atom_site_fract_x
_atom_site_fract_y
_atom_site_fract_z
Si Si1 0.000000 0.500000 0.000000
Si Si2 0.456832 0.266441 0.345514
Si Si3 0.347528 0.001731 0.754764
Si Si4 0.627847 0.255622 0.905262
Si Si5 0.740184 0.653648 0.380318
Si Si6 0.162660 0.353805 0.764651
Si Si7 0.332494 0.374299 0.285655
O O1 0.985439 0.603991 0.727848
O O2 0.601315 0.457347 0.745480
O O3 0.270540 0.296731 0.245023
O O4 0.817472 0.364083 0.489178
O O5 0.497731 0.131359 0.610926
O O6 0.269538 0.276489 0.067024
O O7 0.342100 0.879060 0.878252
O O8 0.000000 0.000000 0.500000
O O9 0.500000 0.000000 0.000000
O O10 0.369176 0.251066 0.787424
O O11 0.515516 0.309692 0.619896
O O12 0.978972 0.357132 0.070232
O O13 0.869257 0.701533 0.294616
O O14 0.438999 0.489039 0.773359
#
# Coordination Sequence:
#
# PCOD9102227 Si02
#       7
#     1   2   2   2   2   2   2
#     4  10  20  38  62  88 128 172 206 258 298 370
#     4  12  24  42  63  91 130 174 216 251 324 384
#     4  12  23  45  67  91 123 164 223 274 312 360
#     4  12  23  40  69  98 121 166 220 278 307 362
#     4  11  22  39  61  95 131 165 215 251 321 377
#     4  12  25  40  61  95 137 175 195 257 326 404
#     4  12  23  40  66  96 131 163 218 265 320 373
#
# _framework density 22.222190999999999
#
# number of rings (size 3 to 8) (size 9 to 14) (size 15 to 20)
#    0.000    0.308    3.077    8.308    0.000    0.000 
#    0.000    1.538    0.000    0.000    0.000    0.000 
#    0.000    0.000    0.000    0.000    0.000    0.000 
#
# Total GULP energy -72604.948342 kJ/mol
# GULP energy per Si atom -5584.996026 kJ/mol
# Density = 2.217161 g / cm^3
# Si number density = 22.222191 Si / 1000 Ang^3
#
#
#
# Elastic Constant Matrix: (Units=GPa)
#
#
# Indices 1 2 3 4 5 6 
#
# 1 99.7057 16.1070 54.8671 -9.1460 -14.7607 -2.4182
# 2 16.1070 42.8712 7.9531 -5.7694 5.9712 -11.4702
# 3 54.8671 7.9531 182.8426 15.2059 -20.4251 -2.2049
# 4 -9.1460 -5.7694 15.2059 34.2644 -0.4563 11.2674
# 5 -14.7607 5.9712 -20.4251 -0.4563 51.2622 -2.2090
# 6 -2.4182 -11.4702 -2.2049 11.2674 -2.2090 30.0608
#
#
#
# Elastic Compliance Matrix: (Units=1/GPa)
#
#
# Indices 1 2 3 4 5 6 
#
# 1 0.014011 -0.004912 -0.004191 0.005804 0.002858 -0.003020
# 2 -0.004912 0.028530 -0.000148 0.000182 -0.004360 0.010092
# 3 -0.004191 -0.000148 0.007387 -0.005121 0.001803 0.002200
# 4 0.005804 0.000182 -0.005121 0.037630 -0.000658 -0.013992
# 5 0.002858 -0.004360 0.001803 -0.000658 0.021574 0.000531
# 6 -0.003020 0.010092 0.002200 -0.013992 0.000531 0.042319
#
#
# Mechanical properties :
#
#
# Convention : Reuss Voigt Hill
#
# Bulk Modulus (GPa) = 31.81804 53.69710 42.75757
# Shear Modulus (GPa) = 27.71211 39.55030 33.63120
#
# Velocity S-wave (km/s) = 3.53519 4.22330 3.89447
# Velocity P-wave (km/s) = 5.56890 6.92805 6.28532
#
# Compressibility (1/GPa) = 0.03142871
#
# Stress axis : x y z
#
# Youngs Moduli (GPa) = 71.37073 35.05060 135.37367
#
# Poissons Ratio (x) = 0.17216 0.56730
# Poissons Ratio (y) = 0.35056 0.01997
# Poissons Ratio (z) = 0.29909 0.00517
#
# Static dielectric constant tensor:
#      x y z
#    x 1.861590 -0.006070 0.006830 
#    y -0.006070 1.853600 0.030070 
#    z 0.006830 0.030070 1.753150 
# 
# From -- ./inp_files/425865.got.cif
#   From: 2010.05.17/outbox.cif.g08.bks.cpg/sg2_213_cif.got.tgz:425865.got - 2010.06.03 11:33:40.
