data_PCOD9102475
_publ_section_title
;
Structure prediction by ZEFSAII (Michael W. Deem and Ramdas Pophale) SiO2 
 PCOD9102475
Probable space group: P -1
;
_chemical_formula_sum "Si O2"
_cell_formula_units_Z 14
_cell_length_a 8.023334
_cell_length_b 16.298510
_cell_length_c 9.346262
_cell_angle_alpha 50.414673
_cell_angle_beta 76.430883
_cell_angle_gamma 40.955533
_cell_volume 538.819640
_symmetry_space_group_name_H-M "P -1"
_symmetry_group_IT_number 2
_symmetry_cell_setting 'triclinic'
loop_
_space_group_symop_operation_xyz
x,y,z
-x,-y,-z
loop_
_atom_site_type_symbol
_atom_site_label
_atom_site_fract_x
_atom_site_fract_y
_atom_site_fract_z
Si Si1 0.439236 0.362794 0.380535
Si Si2 0.254646 0.711766 0.852211
Si Si3 0.204258 0.197829 0.288296
Si Si4 0.497896 0.132739 0.800814
Si Si5 0.206512 0.365744 0.875425
Si Si6 0.154390 0.726864 0.148645
Si Si7 0.949115 0.332519 0.498527
O O1 0.682891 0.241412 0.342550
O O2 0.544968 0.227827 0.627029
O O3 0.314289 0.536297 0.278244
O O4 0.143206 0.467177 0.253336
O O5 0.954622 0.798526 0.797321
O O6 0.500000 0.500000 0.000000
O O7 0.273643 0.742250 0.977485
O O8 0.006535 0.288607 0.368628
O O9 0.500000 0.000000 0.500000
O O10 0.257638 0.286684 0.107822
O O11 0.363592 0.213164 0.896559
O O12 0.250016 0.211189 0.656070
O O13 0.806593 0.920151 0.984312
O O14 0.255798 0.460387 0.700202
O O15 0.174337 0.703251 0.343228
#
# Coordination Sequence:
#
# PCOD9102475 Si02
#       7
#     2   2   2   2   2   2   2
#     4  10  20  38  63  86 119 157 212 240 296 359
#     4  10  21  41  64  83 125 165 204 243 302 375
#     4  12  23  37  61  93 124 158 203 256 307 358
#     4  11  20  35  65  90 122 155 210 254 291 360
#     4  11  20  39  60  87 124 161 201 251 299 368
#     4  11  19  36  61  89 116 163 203 245 297 361
#     4  11  21  34  58  92 120 154 203 255 304 349
#
# _framework density 25.98272
#
# number of rings (size 3 to 8) (size 9 to 14) (size 15 to 20)
#    0.000    1.143    5.714    3.429    0.000    0.571 
#    0.000    2.857    3.143    1.714    0.000    0.000 
#    0.000    0.000    0.000    0.000    0.000    0.000 
#
# Total GULP energy -78118.533718 kJ/mol
# GULP energy per Si atom -5579.895266 kJ/mol
# Density = 2.592358 g / cm^3
# Si number density = 25.982720 Si / 1000 Ang^3
#
#
#
# Elastic Constant Matrix: (Units=GPa)
#
#
# Indices 1 2 3 4 5 6 
#
# 1 31.6519 29.9140 27.5735 1.6821 3.5752 -14.1787
# 2 29.9140 139.4981 86.0431 40.1736 -11.7513 -15.5685
# 3 27.5735 86.0431 194.0429 15.2050 -12.6950 -10.8284
# 4 1.6821 40.1736 15.2050 67.6343 -18.4209 -1.3373
# 5 3.5752 -11.7513 -12.6950 -18.4209 46.3316 4.2923
# 6 -14.1787 -15.5685 -10.8284 -1.3373 4.2923 27.4697
#
#
#
# Elastic Compliance Matrix: (Units=1/GPa)
#
#
# Indices 1 2 3 4 5 6 
#
# 1 0.053419 -0.008210 -0.003405 0.002517 -0.008267 0.022991
# 2 -0.008210 0.013761 -0.004302 -0.006962 0.000036 0.001521
# 3 -0.003405 -0.004302 0.007475 0.001458 0.001937 -0.001481
# 4 0.002517 -0.006962 0.001458 0.020317 0.006715 -0.002132
# 5 -0.008267 0.000036 0.001937 0.006715 0.026101 -0.007235
# 6 0.022991 0.001521 -0.001481 -0.002132 -0.007235 0.049576
#
#
# Mechanical properties :
#
#
# Convention : Reuss Voigt Hill
#
# Bulk Modulus (GPa) = 23.35416 72.47267 47.91341
# Shear Modulus (GPa) = 23.06738 43.06460 33.06599
#
# Velocity S-wave (km/s) = 2.98282 4.07557 3.57124
# Velocity P-wave (km/s) = 4.56846 7.07815 5.95698
#
# Compressibility (1/GPa) = 0.04281893
#
# Stress axis : x y z
#
# Youngs Moduli (GPa) = 18.72008 72.67131 133.77966
#
# Poissons Ratio (x) = 0.59662 0.45557
# Poissons Ratio (y) = 0.15369 0.57557
# Poissons Ratio (z) = 0.06375 0.31266
#
# Static dielectric constant tensor:
#      x y z
#    x 2.012190 0.010440 0.024260 
#    y 0.010440 2.079110 0.053340 
#    z 0.024260 0.053340 1.999750 
# 
# From -- ./inp_files/209781.got.cif
#   From: 2010.05.17/outbox.cif.g08.bks.cpg/sg2_105_cif.got.tgz:209781.got - 2010.06.03 11:33:40.
