data_PCOD9102318
_publ_section_title
;
Structure prediction by ZEFSAII (Michael W. Deem and Ramdas Pophale) SiO2 
 PCOD9102318
Probable space group: P -1
;
_chemical_formula_sum "Si O2"
_cell_formula_units_Z 14
_cell_length_a 23.114999
_cell_length_b 14.127332
_cell_length_c 6.585185
_cell_angle_alpha 124.067525
_cell_angle_beta 127.772204
_cell_angle_gamma 21.084135
_cell_volume 610.996112
_symmetry_space_group_name_H-M "P -1"
_symmetry_group_IT_number 2
_symmetry_cell_setting 'triclinic'
loop_
_space_group_symop_operation_xyz
x,y,z
-x,-y,-z
loop_
_atom_site_type_symbol
_atom_site_label
_atom_site_fract_x
_atom_site_fract_y
_atom_site_fract_z
Si Si1 0.032260 0.122772 0.658964
Si Si2 0.512982 0.319794 0.250754
Si Si3 0.950878 0.461280 0.642121
Si Si4 0.154149 0.538708 0.957981
Si Si5 0.597767 0.413990 0.297292
Si Si6 0.831810 0.281605 0.084886
Si Si7 0.745924 0.796609 0.961152
O O1 0.028091 0.254437 0.705950
O O2 0.891327 0.249336 0.387691
O O3 0.984804 0.206191 0.890451
O O4 0.215252 0.813741 0.638699
O O5 0.610800 0.290855 0.336780
O O6 0.500558 0.350987 0.504776
O O7 0.600590 0.084935 0.067552
O O8 0.320295 0.592747 0.085422
O O9 0.923675 0.441435 0.344255
O O10 0.078964 0.386340 0.817902
O O11 0.776829 0.738499 0.716620
O O12 0.233483 0.523924 0.968399
O O13 0.266475 0.307173 0.076713
O O14 0.500000 0.500000 0.000000
O O15 0.000000 0.000000 0.000000
#
# Coordination Sequence:
#
# PCOD9102318 Si02
#       7
#     2   2   2   2   2   2   2
#     4  10  21  41  64  92 123 161 211 253 309 370
#     4  11  25  43  62  94 131 162 201 265 308 359
#     4   9  19  38  62  93 123 160 202 260 311 361
#     4  10  23  37  65  91 121 168 205 252 304 375
#     4  11  25  39  64  98 123 160 208 262 312 362
#     4  11  24  43  63  88 130 170 205 248 309 375
#     4  10  20  38  62  91 126 159 210 252 311 365
#
# _framework density 22.913402000000001
#
# number of rings (size 3 to 8) (size 9 to 14) (size 15 to 20)
#    0.000    1.714    2.857    0.429    4.000    3.429 
#    0.000    6.429    0.000    0.000    0.000    0.000 
#    0.000    0.000    0.000    0.000    0.000    0.000 
#
# Total GULP energy -78250.416070 kJ/mol
# GULP energy per Si atom -5589.315434 kJ/mol
# Density = 2.286125 g / cm^3
# Si number density = 22.913402 Si / 1000 Ang^3
#
#
#
# Elastic Constant Matrix: (Units=GPa)
#
#
# Indices 1 2 3 4 5 6 
#
# 1 82.6075 16.6155 19.4042 0.6371 -3.9452 -2.8446
# 2 16.6155 90.5452 35.7660 30.9369 -11.2846 -15.6739
# 3 19.4042 35.7660 160.9041 26.5289 -19.1786 -24.6824
# 4 0.6371 30.9369 26.5289 36.4834 -6.7429 -0.7073
# 5 -3.9452 -11.2846 -19.1786 -6.7429 33.7903 2.6519
# 6 -2.8446 -15.6739 -24.6824 -0.7073 2.6519 26.6543
#
#
#
# Elastic Compliance Matrix: (Units=1/GPa)
#
#
# Indices 1 2 3 4 5 6 
#
# 1 0.013115 -0.003389 -0.001770 0.003955 0.000354 -0.002163
# 2 -0.003389 0.018986 0.000762 -0.015951 0.002343 0.010853
# 3 -0.001770 0.000762 0.008922 -0.006353 0.003213 0.008033
# 4 0.003955 -0.015951 -0.006353 0.045533 0.001698 -0.013802
# 5 0.000354 0.002343 0.003213 0.001698 0.032486 0.001204
# 6 -0.002163 0.010853 0.008033 -0.013802 0.001204 0.050621
#
#
# Mechanical properties :
#
#
# Convention : Reuss Voigt Hill
#
# Bulk Modulus (GPa) = 31.02827 53.06982 42.04904
# Shear Modulus (GPa) = 26.42729 36.87034 31.64881
#
# Velocity S-wave (km/s) = 3.39979 4.01573 3.72053
# Velocity P-wave (km/s) = 5.38353 6.68676 6.07022
#
# Compressibility (1/GPa) = 0.03222868
#
# Stress axis : x y z
#
# Youngs Moduli (GPa) = 76.24957 52.67125 112.08795
#
# Poissons Ratio (x) = 0.17852 0.19839
# Poissons Ratio (y) = 0.25843 -0.08547
# Poissons Ratio (z) = 0.13496 -0.04016
#
# Static dielectric constant tensor:
#      x y z
#    x 1.865330 0.040340 -0.033090 
#    y 0.040340 1.855480 0.035740 
#    z -0.033090 0.035740 1.866160 
# 
# From -- ./inp_files/60899.got.cif
#   From: 2010.05.17/outbox.cif.g08.bks.cpg/sg2_31_cif.got.tgz:60899.got - 2010.06.03 11:33:40.
