data_PCOD9102670
_publ_section_title
;
Structure prediction by ZEFSAII (Michael W. Deem and Ramdas Pophale) SiO2 
 PCOD9102670
Probable space group: P -1
;
_chemical_formula_sum "Si O2"
_cell_formula_units_Z 14
_cell_length_a 7.608417
_cell_length_b 8.085789
_cell_length_c 13.906412
_cell_angle_alpha 87.307430
_cell_angle_beta 56.118852
_cell_angle_gamma 72.707907
_cell_volume 670.499529
_symmetry_space_group_name_H-M "P -1"
_symmetry_group_IT_number 2
_symmetry_cell_setting 'triclinic'
loop_
_space_group_symop_operation_xyz
x,y,z
-x,-y,-z
loop_
_atom_site_type_symbol
_atom_site_label
_atom_site_fract_x
_atom_site_fract_y
_atom_site_fract_z
Si Si1 0.173357 0.064399 0.190778
Si Si2 0.452754 0.231772 0.988185
Si Si3 0.601930 0.666710 0.350385
Si Si4 0.725632 0.006926 0.296987
Si Si5 0.249770 0.869303 0.908437
Si Si6 0.753815 0.505344 0.103884
Si Si7 0.221583 0.707143 0.593027
O O1 0.668577 0.837446 0.352470
O O2 0.040926 0.182497 0.316251
O O3 0.409055 0.911596 0.127727
O O4 0.228860 0.193153 0.092213
O O5 0.606826 0.189186 0.036977
O O6 0.394706 0.413393 0.946512
O O7 0.665521 0.620714 0.221771
O O8 0.340802 0.701906 0.454803
O O9 0.728299 0.488720 0.376531
O O10 0.759699 0.310927 0.127846
O O11 0.658613 0.181259 0.379335
O O12 0.644002 0.049893 0.211607
O O13 0.993994 0.971985 0.214591
O O14 0.000000 0.000000 0.000000
O O15 0.000000 0.500000 0.000000
#
# Coordination Sequence:
#
# PCOD9102670 Si02
#       7
#     2   2   2   2   2   2   2
#     4   9  21  39  61  89 128 163 212 262 306 383
#     4  11  23  39  64  90 133 174 204 266 324 368
#     4  11  21  36  70  92 129 168 210 267 319 373
#     4  10  20  38  63  95 124 164 212 260 315 374
#     4  12  22  40  63  92 130 170 209 265 322 381
#     4  12  25  40  61  99 127 166 220 260 320 389
#     4   9  20  42  61  96 126 166 220 256 316 381
#
# _framework density 20.879954000000001
#
# number of rings (size 3 to 8) (size 9 to 14) (size 15 to 20)
#    0.857    0.571    2.857    3.429    6.000    0.000 
#    2.571    0.714    0.000    0.857    0.000    0.000 
#    0.000    0.000    0.000    0.000    0.000    0.000 
#
# Total GULP energy -77963.356855 kJ/mol
# GULP energy per Si atom -5568.811204 kJ/mol
# Density = 2.083243 g / cm^3
# Si number density = 20.879954 Si / 1000 Ang^3
#
#
#
# Elastic Constant Matrix: (Units=GPa)
#
#
# Indices 1 2 3 4 5 6 
#
# 1 46.2786 24.1660 12.3306 -11.0356 -1.8575 -0.2410
# 2 24.1660 118.1129 28.1802 -5.8848 -2.3434 25.1741
# 3 12.3306 28.1802 130.8632 -4.7228 -25.1178 -5.5127
# 4 -11.0356 -5.8848 -4.7228 29.2817 0.9816 -3.0631
# 5 -1.8575 -2.3434 -25.1178 0.9816 28.2086 -4.0544
# 6 -0.2410 25.1741 -5.5127 -3.0631 -4.0544 33.0102
#
#
#
# Elastic Compliance Matrix: (Units=1/GPa)
#
#
# Indices 1 2 3 4 5 6 
#
# 1 0.027358 -0.006294 -0.000333 0.009571 0.001514 0.006018
# 2 -0.006294 0.012759 -0.003419 -0.001374 -0.003926 -0.010957
# 3 -0.000333 -0.003419 0.010592 0.001160 0.009904 0.005698
# 4 0.009571 -0.001374 0.001160 0.038157 0.000935 0.004967
# 5 0.001514 -0.003926 0.009904 0.000935 0.045495 0.010334
# 6 0.006018 -0.010957 0.005698 0.004967 0.010334 0.041375
#
#
# Mechanical properties :
#
#
# Convention : Reuss Voigt Hill
#
# Bulk Modulus (GPa) = 32.66156 47.17870 39.92013
# Shear Modulus (GPa) = 24.26786 33.47196 28.86991
#
# Velocity S-wave (km/s) = 3.41289 4.00818 3.72245
# Velocity P-wave (km/s) = 5.58631 6.63814 6.13481
#
# Compressibility (1/GPa) = 0.03061703
#
# Stress axis : x y z
#
# Youngs Moduli (GPa) = 36.55267 78.37680 94.40974
#
# Poissons Ratio (x) = 0.49328 0.03144
# Poissons Ratio (y) = 0.23005 0.32280
# Poissons Ratio (z) = 0.01217 0.26799
#
# Static dielectric constant tensor:
#      x y z
#    x 1.810370 0.005600 0.031110 
#    y 0.005600 1.765990 0.008930 
#    z 0.031110 0.008930 1.808940 
# 
# From -- ./inp_files/516900.got.cif
#   From: 2010.05.17/outbox.cif.g08.bks.cpg/sg2_259_cif.got.tgz:516900.got - 2010.06.03 11:33:40.
