data_PCOD9102515
_publ_section_title
;
Structure prediction by ZEFSAII (Michael W. Deem and Ramdas Pophale) SiO2 
 PCOD9102515
Probable space group: P -1
;
_chemical_formula_sum "Si O2"
_cell_formula_units_Z 16
_cell_length_a 15.134640
_cell_length_b 7.981262
_cell_length_c 12.484075
_cell_angle_alpha 146.100495
_cell_angle_beta 47.392719
_cell_angle_gamma 113.980556
_cell_volume 572.920187
_symmetry_space_group_name_H-M "P -1"
_symmetry_group_IT_number 2
_symmetry_cell_setting 'triclinic'
loop_
_space_group_symop_operation_xyz
x,y,z
-x,-y,-z
loop_
_atom_site_type_symbol
_atom_site_label
_atom_site_fract_x
_atom_site_fract_y
_atom_site_fract_z
Si Si1 0.132506 0.689705 0.542798
Si Si2 0.702396 0.037523 0.040573
Si Si3 0.211138 0.261369 0.700522
Si Si4 0.477623 0.858491 0.168265
Si Si5 0.261505 0.440347 0.970967
Si Si6 0.075384 0.985639 0.538932
Si Si7 0.779250 0.185366 0.260857
Si Si8 0.514180 0.427229 0.214767
O O1 0.037700 0.822482 0.587985
O O2 0.117580 0.736399 0.707963
O O3 0.213094 0.923136 0.576439
O O4 0.207718 0.311424 0.262420
O O5 0.596586 0.957240 0.155867
O O6 0.777968 0.200740 0.140917
O O7 0.611669 0.257475 0.140391
O O8 0.195331 0.505772 0.940864
O O9 0.349789 0.134614 0.463888
O O10 0.098069 0.303019 0.729535
O O11 0.500000 0.500000 0.000000
O O12 0.477063 0.820907 0.020322
O O13 0.413458 0.346275 0.773502
O O14 0.208224 0.182093 0.924824
O O15 0.216295 0.736334 0.248165
O O16 0.000000 0.000000 0.500000
O O17 0.633729 0.409497 0.539084
#
# Coordination Sequence:
#
# PCOD9102515 Si02
#       8
#     2   2   2   2   2   2   2   2
#     4   9  19  36  53  82 108 146 184 232 284 325
#     4  12  22  35  52  83 124 154 191 227 267 327
#     4   9  19  34  56  83 108 145 186 227 283 327
#     4  12  18  35  55  77 117 158 191 223 266 332
#     4  11  20  38  56  82 115 151 188 230 279 335
#     4  10  20  38  63  89 105 132 193 252 293 329
#     4  11  20  36  55  78 118 158 190 216 271 339
#     4  12  23  33  54  86 121 160 189 222 269 333
#
# _framework density 27.927099999999999
#
# number of rings (size 3 to 8) (size 9 to 14) (size 15 to 20)
#    0.750    0.500    5.000    3.375    0.000    0.500 
#    0.000    0.000    0.000    0.750    0.000    1.750 
#    0.000    0.000    0.000    0.000    0.000    0.000 
#
# Total GULP energy -89455.287755 kJ/mol
# GULP energy per Si atom -5590.955485 kJ/mol
# Density = 2.786354 g / cm^3
# Si number density = 27.927100 Si / 1000 Ang^3
#
#
#
# Elastic Constant Matrix: (Units=GPa)
#
#
# Indices 1 2 3 4 5 6 
#
# 1 153.7603 31.1002 32.3940 -15.7155 35.5198 -42.1101
# 2 31.1002 75.8820 20.8990 -0.2544 2.0063 -28.1888
# 3 32.3940 20.8990 101.6084 -23.7939 26.7360 -2.8897
# 4 -15.7155 -0.2544 -23.7939 38.9383 -9.6504 10.8049
# 5 35.5198 2.0063 26.7360 -9.6504 47.8310 -19.1449
# 6 -42.1101 -28.1888 -2.8897 10.8049 -19.1449 64.4522
#
#
#
# Elastic Compliance Matrix: (Units=1/GPa)
#
#
# Indices 1 2 3 4 5 6 
#
# 1 0.009278 -0.002084 -0.000976 0.000998 -0.004629 0.003565
# 2 -0.002084 0.019102 -0.006077 -0.005400 0.006930 0.009684
# 3 -0.000976 -0.006077 0.015524 0.008762 -0.008578 -0.006617
# 4 0.000998 -0.005400 0.008762 0.033025 -0.001694 -0.007356
# 5 -0.004629 0.006930 -0.008578 -0.001694 0.032311 0.009504
# 6 0.003565 0.009684 -0.006617 -0.007356 0.009504 0.025839
#
#
# Mechanical properties :
#
#
# Convention : Reuss Voigt Hill
#
# Bulk Modulus (GPa) = 39.01719 55.55968 47.28843
# Shear Modulus (GPa) = 30.88373 46.70147 38.79260
#
# Velocity S-wave (km/s) = 3.32907 4.09377 3.73106
# Velocity P-wave (km/s) = 5.36455 6.50254 5.96076
#
# Compressibility (1/GPa) = 0.02562973
#
# Stress axis : x y z
#
# Youngs Moduli (GPa) = 107.77741 52.34944 64.41749
#
# Poissons Ratio (x) = 0.10909 0.06289
# Poissons Ratio (y) = 0.22460 0.39147
# Poissons Ratio (z) = 0.10522 0.31813
#
# Static dielectric constant tensor:
#      x y z
#    x 2.334000 -0.052580 -0.026530 
#    y -0.052580 2.312460 -0.009490 
#    z -0.026530 -0.009490 2.103700 
# 
# From -- ./inp_files/448328.got.cif
#   From: 2010.05.17/outbox.cif.g08.bks.cpg/sg2_225_cif.got.tgz:448328.got - 2010.06.03 11:33:40.
