data_PCOD9102545
_publ_section_title
;
Structure prediction by ZEFSAII (Michael W. Deem and Ramdas Pophale) SiO2 
 PCOD9102545
Probable space group: P -1
;
_chemical_formula_sum "Si O2"
_cell_formula_units_Z 16
_cell_length_a 5.743634
_cell_length_b 18.275883
_cell_length_c 14.048362
_cell_angle_alpha 150.757450
_cell_angle_beta 118.582633
_cell_angle_gamma 61.562541
_cell_volume 626.627288
_symmetry_space_group_name_H-M "P -1"
_symmetry_group_IT_number 2
_symmetry_cell_setting 'triclinic'
loop_
_space_group_symop_operation_xyz
x,y,z
-x,-y,-z
loop_
_atom_site_type_symbol
_atom_site_label
_atom_site_fract_x
_atom_site_fract_y
_atom_site_fract_z
Si Si1 0.715725 0.576831 0.993898
Si Si2 0.357993 0.295117 0.081165
Si Si3 0.704218 0.206413 0.319791
Si Si4 0.426378 0.718908 0.409405
Si Si5 0.450128 0.991776 0.320511
Si Si6 0.837561 0.874564 0.412183
Si Si7 0.851386 0.366357 0.360277
Si Si8 0.822713 0.863098 0.967478
O O1 0.746647 0.618946 0.936724
O O2 0.517429 0.450217 0.812779
O O3 0.654987 0.734720 0.217114
O O4 0.000000 0.500000 0.000000
O O5 0.550200 0.388434 0.285295
O O6 0.142435 0.234723 0.039858
O O7 0.541795 0.143399 0.905343
O O8 0.584608 0.279157 0.476461
O O9 0.853219 0.325392 0.425587
O O10 0.476754 0.161362 0.152079
O O11 0.850681 0.038587 0.183945
O O12 0.130464 0.790423 0.395989
O O13 0.599504 0.845199 0.552978
O O14 0.745743 0.953008 0.383342
O O15 0.254314 0.006439 0.388504
O O16 0.000000 0.500000 0.500000
O O17 0.999702 0.214201 0.169455
#
# Coordination Sequence:
#
# PCOD9102545 Si02
#       8
#     2   2   2   2   2   2   2   2
#     4   9  21  41  60  90 128 163 200 255 304 371
#     4  10  22  41  65  91 125 165 210 248 312 368
#     4  10  23  40  64  94 121 163 208 253 306 369
#     4  11  21  36  64  90 119 164 203 249 312 361
#     4  10  20  38  63  90 119 157 208 255 304 365
#     4   9  21  39  59  87 125 156 202 257 303 369
#     4  11  26  41  63  94 128 164 204 255 312 372
#     4  10  22  43  63  89 127 160 202 262 306 362
#
# _framework density 25.533521
#
# number of rings (size 3 to 8) (size 9 to 14) (size 15 to 20)
#    0.000    2.000    1.250    0.750    5.250    2.500 
#    0.000    0.000    0.000    0.000    0.000    0.000 
#    0.000    0.000    0.000    0.000    0.000    0.000 
#
# Total GULP energy -89444.328887 kJ/mol
# GULP energy per Si atom -5590.270555 kJ/mol
# Density = 2.547541 g / cm^3
# Si number density = 25.533521 Si / 1000 Ang^3
#
#
#
# Elastic Constant Matrix: (Units=GPa)
#
#
# Indices 1 2 3 4 5 6 
#
# 1 32.1310 17.6126 9.5056 3.1532 10.4352 12.0373
# 2 17.6126 137.5459 21.4001 7.0432 26.9597 22.7366
# 3 9.5056 21.4001 114.1456 7.0082 16.4036 6.1283
# 4 3.1532 7.0432 7.0082 36.6402 1.6881 -0.6349
# 5 10.4352 26.9597 16.4036 1.6881 41.1351 6.6860
# 6 12.0373 22.7366 6.1283 -0.6349 6.6860 34.9491
#
#
#
# Elastic Compliance Matrix: (Units=1/GPa)
#
#
# Indices 1 2 3 4 5 6 
#
# 1 0.038806 -0.001566 -0.001262 -0.002691 -0.006425 -0.010945
# 2 -0.001566 0.009301 -0.000614 -0.001400 -0.004659 -0.004538
# 3 -0.001262 -0.000614 0.009512 -0.001461 -0.002963 -0.000293
# 4 -0.002691 -0.001400 -0.001461 0.028087 0.000626 0.002484
# 5 -0.006425 -0.004659 -0.002963 0.000626 0.030148 0.000007
# 6 -0.010945 -0.004538 -0.000293 0.002484 0.000007 0.035430
#
#
# Mechanical properties :
#
#
# Convention : Reuss Voigt Hill
#
# Bulk Modulus (GPa) = 19.71052 42.31769 31.01410
# Shear Modulus (GPa) = 28.55831 38.23185 33.39508
#
# Velocity S-wave (km/s) = 3.34797 3.87372 3.62040
# Velocity P-wave (km/s) = 4.76250 6.05120 5.44511
#
# Compressibility (1/GPa) = 0.05073433
#
# Stress axis : x y z
#
# Youngs Moduli (GPa) = 25.76954 107.51059 105.12759
#
# Poissons Ratio (x) = 0.16840 0.13264
# Poissons Ratio (y) = 0.04036 0.06458
# Poissons Ratio (z) = 0.03251 0.06605
#
# Static dielectric constant tensor:
#      x y z
#    x 2.096160 -0.000310 0.116450 
#    y -0.000310 2.029420 0.023900 
#    z 0.116450 0.023900 2.017730 
# 
# From -- ./inp_files/90572.got.cif
#   From: 2010.05.17/outbox.cif.g08.bks.cpg/sg2_46_cif.got.tgz:90572.got - 2010.06.03 11:33:40.
