data_PCOD9102760
_publ_section_title
;
Structure prediction by ZEFSAII (Michael W. Deem and Ramdas Pophale) SiO2 
 PCOD9102760
Probable space group: P -1
;
_chemical_formula_sum "Si O2"
_cell_formula_units_Z 16
_cell_length_a 9.502406
_cell_length_b 11.007426
_cell_length_c 8.319174
_cell_angle_alpha 92.695999
_cell_angle_beta 107.611340
_cell_angle_gamma 109.773406
_cell_volume 769.573187
_symmetry_space_group_name_H-M "P -1"
_symmetry_group_IT_number 2
_symmetry_cell_setting 'triclinic'
loop_
_space_group_symop_operation_xyz
x,y,z
-x,-y,-z
loop_
_atom_site_type_symbol
_atom_site_label
_atom_site_fract_x
_atom_site_fract_y
_atom_site_fract_z
Si Si1 0.046400 0.146833 0.450760
Si Si2 0.502863 0.074171 0.843816
Si Si3 0.736146 0.141717 0.469537
Si Si4 0.368009 0.276837 0.727936
Si Si5 0.156495 0.179838 0.116697
Si Si6 0.187610 0.919010 0.159152
Si Si7 0.600975 0.356099 0.531357
Si Si8 0.411599 0.451876 0.217395
O O1 0.184808 0.239953 0.621529
O O2 0.109646 0.169021 0.290363
O O3 0.884886 0.174629 0.403954
O O4 0.000000 0.000000 0.500000
O O5 0.407121 0.169527 0.834495
O O6 0.688730 0.142547 0.869216
O O7 0.415972 0.968743 0.669466
O O8 0.500000 0.000000 0.000000
O O9 0.788093 0.084784 0.642876
O O10 0.698811 0.268602 0.511641
O O11 0.449579 0.270149 0.581797
O O12 0.526900 0.577637 0.167414
O O13 0.279260 0.318541 0.106835
O O14 0.228729 0.066507 0.118221
O O15 0.994303 0.148596 0.960217
O O16 0.533780 0.407287 0.359480
O O17 0.675206 0.480978 0.682574
#
# Coordination Sequence:
#
# PCOD9102760 Si02
#       8
#     2   2   2   2   2   2   2   2
#     4  12  21  35  59  95 129 162 192 265 322 353
#     4  12  24  38  61  93 125 157 203 263 318 363
#     4  12  23  37  61  91 127 156 207 260 312 362
#     4  10  20  38  64  85 119 165 209 235 312 373
#     4  11  21  38  60  92 123 163 208 257 311 366
#     4  11  23  36  62  92 120 159 213 259 307 371
#     4   9  18  36  64  89 109 169 211 245 288 377
#     4   9  18  39  64  85 118 168 216 242 302 378
#
# _framework density 20.790744
#
# number of rings (size 3 to 8) (size 9 to 14) (size 15 to 20)
#    0.750    0.500    5.000    1.875    0.000    0.000 
#    0.000    5.000    0.000    8.250    0.000    0.000 
#    0.000    0.000    0.000    0.000    0.000    0.000 
#
# Total GULP energy -89246.602577 kJ/mol
# GULP energy per Si atom -5577.912661 kJ/mol
# Density = 2.074342 g / cm^3
# Si number density = 20.790744 Si / 1000 Ang^3
#
#
#
# Elastic Constant Matrix: (Units=GPa)
#
#
# Indices 1 2 3 4 5 6 
#
# 1 62.9369 19.2195 0.4657 9.0423 6.2629 -9.5564
# 2 19.2195 111.3059 34.8270 14.4305 17.5385 -4.4204
# 3 0.4657 34.8270 86.8672 -3.3086 20.7836 2.6294
# 4 9.0423 14.4305 -3.3086 32.2077 6.9424 2.7175
# 5 6.2629 17.5385 20.7836 6.9424 26.3543 -4.9784
# 6 -9.5564 -4.4204 2.6294 2.7175 -4.9784 32.8628
#
#
#
# Elastic Compliance Matrix: (Units=1/GPa)
#
#
# Indices 1 2 3 4 5 6 
#
# 1 0.018108 -0.002482 0.000928 -0.003997 -0.001390 0.004978
# 2 -0.002482 0.011802 -0.004366 -0.004634 -0.002366 0.001240
# 3 0.000928 -0.004366 0.016758 0.006584 -0.013055 -0.004180
# 4 -0.003997 -0.004634 0.006584 0.038271 -0.012636 -0.007391
# 5 -0.001390 -0.002366 -0.013055 -0.012636 0.055314 0.009747
# 6 0.004978 0.001240 -0.004180 -0.007391 0.009747 0.034466
#
#
# Mechanical properties :
#
#
# Convention : Reuss Voigt Hill
#
# Bulk Modulus (GPa) = 28.71351 41.12606 34.91979
# Shear Modulus (GPa) = 25.23082 32.05814 28.64448
#
# Velocity S-wave (km/s) = 3.48740 3.93102 3.71583
# Velocity P-wave (km/s) = 5.48239 6.35828 5.93651
#
# Compressibility (1/GPa) = 0.03482681
#
# Stress axis : x y z
#
# Youngs Moduli (GPa) = 55.22278 84.73221 59.67234
#
# Poissons Ratio (x) = 0.21033 -0.05536
# Poissons Ratio (y) = 0.13708 0.26055
# Poissons Ratio (z) = -0.05123 0.36997
#
# Static dielectric constant tensor:
#      x y z
#    x 1.769840 0.009670 -0.068120 
#    y 0.009670 1.778930 0.008350 
#    z -0.068120 0.008350 1.787970 
# 
# From -- ./inp_files/188731.got.cif
#   From: 2010.05.17/outbox.cif.g08.bks.cpg/sg2_95_cif.got.tgz:188731.got - 2010.06.03 11:33:40.
