data_PCOD9102420
_publ_section_title
;
Structure prediction by ZEFSAII (Michael W. Deem and Ramdas Pophale) SiO2 
 PCOD9102420
Probable space group: P -1
;
_chemical_formula_sum "Si O2"
_cell_formula_units_Z 16
_cell_length_a 7.992325
_cell_length_b 26.292408
_cell_length_c 9.396991
_cell_angle_alpha 23.686952
_cell_angle_beta 97.595966
_cell_angle_gamma 96.435372
_cell_volume 786.137633
_symmetry_space_group_name_H-M "P -1"
_symmetry_group_IT_number 2
_symmetry_cell_setting 'triclinic'
loop_
_space_group_symop_operation_xyz
x,y,z
-x,-y,-z
loop_
_atom_site_type_symbol
_atom_site_label
_atom_site_fract_x
_atom_site_fract_y
_atom_site_fract_z
Si Si1 0.878917 0.311948 0.267630
Si Si2 0.750326 0.380186 0.605224
Si Si3 0.228152 0.287052 0.532745
Si Si4 0.622398 0.606853 0.177175
Si Si5 0.868623 0.598739 0.470773
Si Si6 0.445957 0.049996 0.210875
Si Si7 0.348987 0.800134 0.682694
Si Si8 0.596749 0.295710 0.514549
O O1 0.810515 0.206646 0.422437
O O2 0.742249 0.324951 0.345761
O O3 0.064584 0.288981 0.410513
O O4 0.871594 0.446963 0.841444
O O5 0.729718 0.524080 0.289924
O O6 0.638833 0.357421 0.512396
O O7 0.944204 0.354337 0.653732
O O8 0.693799 0.282856 0.969907
O O9 0.187727 0.368494 0.459991
O O10 0.402104 0.333534 0.361811
O O11 0.283331 0.145830 0.952874
O O12 0.500000 0.500000 0.500000
O O13 0.739781 0.652822 0.200758
O O14 0.502463 0.723201 0.818889
O O15 0.500000 0.000000 0.500000
O O16 0.405931 0.935446 0.395452
O O17 0.587689 0.143803 0.926718
#
# Coordination Sequence:
#
# PCOD9102420 Si02
#       8
#     2   2   2   2   2   2   2   2
#     4  12  25  42  62 100 136 168 205 265 332 384
#     4  11  21  40  67  98 128 166 221 267 309 389
#     4  10  24  42  64  95 132 168 215 262 316 391
#     4  10  20  38  62  97 125 168 216 265 314 379
#     4  12  22  40  64  97 138 163 214 267 318 387
#     4  10  21  45  71  88 123 173 223 265 309 377
#     4  11  23  42  68  91 131 172 215 267 321 369
#     4  10  24  43  68  92 130 166 223 256 320 385
#
# _framework density 20.35267
#
# number of rings (size 3 to 8) (size 9 to 14) (size 15 to 20)
#    0.750    0.500    5.000    3.000    0.000    2.500 
#    0.000    3.750    0.000    0.000    0.000    0.000 
#    0.000    0.000    0.000    0.000    0.000    0.000 
#
# Total GULP energy -89349.160375 kJ/mol
# GULP energy per Si atom -5584.322523 kJ/mol
# Density = 2.030635 g / cm^3
# Si number density = 20.352670 Si / 1000 Ang^3
#
#
#
# Elastic Constant Matrix: (Units=GPa)
#
#
# Indices 1 2 3 4 5 6 
#
# 1 127.8189 25.3350 13.6416 12.5742 7.4032 17.9056
# 2 25.3350 103.9830 12.3019 -5.2649 4.3083 30.0104
# 3 13.6416 12.3019 47.3193 -7.7135 2.4788 7.3610
# 4 12.5742 -5.2649 -7.7135 36.5109 2.8440 2.8607
# 5 7.4032 4.3083 2.4788 2.8440 26.6392 11.9845
# 6 17.9056 30.0104 7.3610 2.8607 11.9845 40.9507
#
#
#
# Elastic Compliance Matrix: (Units=1/GPa)
#
#
# Indices 1 2 3 4 5 6 
#
# 1 0.009061 -0.001512 -0.002473 -0.003649 -0.000789 -0.001924
# 2 -0.001512 0.012891 -0.001128 0.002696 0.002417 -0.009479
# 3 -0.002473 -0.001128 0.023536 0.005922 -0.000831 -0.002493
# 4 -0.003649 0.002696 0.005922 0.030670 -0.001881 -0.003036
# 5 -0.000789 0.002417 -0.000831 -0.001881 0.043946 -0.014007
# 6 -0.001924 -0.009479 -0.002493 -0.003036 -0.014007 0.036967
#
#
# Mechanical properties :
#
#
# Convention : Reuss Voigt Hill
#
# Bulk Modulus (GPa) = 28.36002 42.40871 35.38437
# Shear Modulus (GPa) = 27.92484 36.00969 31.96726
#
# Velocity S-wave (km/s) = 3.70814 4.21085 3.96746
# Velocity P-wave (km/s) = 5.68315 6.67262 6.19766
#
# Compressibility (1/GPa) = 0.03526090
#
# Stress axis : x y z
#
# Youngs Moduli (GPa) = 110.35828 77.57480 42.48817
#
# Poissons Ratio (x) = 0.11730 0.10509
# Poissons Ratio (y) = 0.16687 0.04793
# Poissons Ratio (z) = 0.27297 0.08751
#
# Static dielectric constant tensor:
#      x y z
#    x 1.732380 -0.014330 0.001990 
#    y -0.014330 1.763980 0.016720 
#    z 0.001990 0.016720 1.715680 
# 
# From -- ./inp_files/225168.got.cif
#   From: 2010.05.17/outbox.cif.g08.bks.cpg/sg2_113_cif.got.tgz:225168.got - 2010.06.03 11:33:40.
