data_PCOD9102273
_publ_section_title
;
Structure prediction by ZEFSAII (Michael W. Deem and Ramdas Pophale) SiO2 
 PCOD9102273
Probable space group: P -1
;
_chemical_formula_sum "Si O2"
_cell_formula_units_Z 14
_cell_length_a 13.562601
_cell_length_b 20.839907
_cell_length_c 8.706643
_cell_angle_alpha 151.818484
_cell_angle_beta 140.867440
_cell_angle_gamma 32.116510
_cell_volume 613.698633
_symmetry_space_group_name_H-M "P -1"
_symmetry_group_IT_number 2
_symmetry_cell_setting 'triclinic'
loop_
_space_group_symop_operation_xyz
x,y,z
-x,-y,-z
loop_
_atom_site_type_symbol
_atom_site_label
_atom_site_fract_x
_atom_site_fract_y
_atom_site_fract_z
Si Si1 0.325346 0.611448 0.134876
Si Si2 0.371873 0.680187 0.654266
Si Si3 0.860123 0.266672 0.124483
Si Si4 0.745333 0.662915 0.468111
Si Si5 0.373621 0.871368 0.314902
Si Si6 0.896929 0.542895 0.726769
Si Si7 0.045863 0.209497 0.520414
O O1 0.376275 0.687780 0.492783
O O2 0.500000 0.500000 0.000000
O O3 0.152076 0.736719 0.081823
O O4 0.281896 0.487288 0.897113
O O5 0.500000 0.500000 0.500000
O O6 0.155297 0.746646 0.570167
O O7 0.430503 0.788310 0.040915
O O8 0.797671 0.453093 0.476206
O O9 0.038166 0.170619 0.249084
O O10 0.717809 0.217915 0.903706
O O11 0.556087 0.824996 0.531203
O O12 0.796928 0.655660 0.693942
O O13 0.914522 0.608566 0.441942
O O14 0.212161 0.056234 0.485737
O O15 0.933424 0.641266 0.102336
#
# Coordination Sequence:
#
# PCOD9102273 Si02
#       7
#     2   2   2   2   2   2   2
#     4  11  18  33  62  92 116 144 216 255 287 339
#     4  11  19  35  62  90 120 159 204 250 303 354
#     4  10  21  36  62  92 117 156 210 256 284 363
#     4  10  20  38  62  90 118 164 206 255 299 362
#     4  11  22  40  63  90 130 159 201 249 315 366
#     4  10  21  37  66  87 120 161 213 247 301 359
#     4  11  22  40  59  92 128 166 192 250 320 367
#
# _framework density 22.8125
#
# number of rings (size 3 to 8) (size 9 to 14) (size 15 to 20)
#    0.000    1.429    4.286    3.000    0.000    0.571 
#    0.000    3.571    0.000    5.143    0.000    0.000 
#    0.000    0.000    0.000    0.000    0.000    0.000 
#
# Total GULP energy -78154.656188 kJ/mol
# GULP energy per Si atom -5582.475442 kJ/mol
# Density = 2.276058 g / cm^3
# Si number density = 22.812500 Si / 1000 Ang^3
#
#
#
# Elastic Constant Matrix: (Units=GPa)
#
#
# Indices 1 2 3 4 5 6 
#
# 1 47.3749 30.3135 6.8827 6.1846 4.2055 11.7030
# 2 30.3135 195.5441 18.2345 -12.7791 -5.6179 -0.3984
# 3 6.8827 18.2345 41.4433 -9.2721 -1.7469 6.3250
# 4 6.1846 -12.7791 -9.2721 27.7620 2.6992 -4.6645
# 5 4.2055 -5.6179 -1.7469 2.6992 20.4223 -8.1571
# 6 11.7030 -0.3984 6.3250 -4.6645 -8.1571 25.6031
#
#
#
# Elastic Compliance Matrix: (Units=1/GPa)
#
#
# Indices 1 2 3 4 5 6 
#
# 1 0.034757 -0.006530 -0.003234 -0.014088 -0.016569 -0.023035
# 2 -0.006530 0.006716 -0.001541 0.004545 0.004785 0.005823
# 3 -0.003234 -0.001541 0.027874 0.008677 -0.000067 -0.003872
# 4 -0.014088 0.004545 0.008677 0.046098 0.004468 0.014189
# 5 -0.016569 0.004785 -0.000067 0.004468 0.064720 0.029098
# 6 -0.023035 0.005823 -0.003872 0.014189 0.029098 0.062490
#
#
# Mechanical properties :
#
#
# Convention : Reuss Voigt Hill
#
# Bulk Modulus (GPa) = 21.39616 43.91375 32.65496
# Shear Modulus (GPa) = 17.80354 30.01961 23.91158
#
# Velocity S-wave (km/s) = 2.79665 3.63151 3.24107
# Velocity P-wave (km/s) = 4.45284 6.07252 5.32463
#
# Compressibility (1/GPa) = 0.04673736
#
# Stress axis : x y z
#
# Youngs Moduli (GPa) = 28.77147 148.89256 35.87618
#
# Poissons Ratio (x) = 0.97228 0.11602
# Poissons Ratio (y) = 0.18788 0.05527
# Poissons Ratio (z) = 0.09304 0.22940
#
# Static dielectric constant tensor:
#      x y z
#    x 1.937870 0.006000 -0.022090 
#    y 0.006000 1.909100 -0.032040 
#    z -0.022090 -0.032040 1.838150 
# 
# From -- ./inp_files/203059.got.cif
#   From: 2010.05.17/outbox.cif.g08.bks.cpg/sg2_102_cif.got.tgz:203059.got - 2010.06.03 11:33:40.
