data_PCOD9102558
_publ_section_title
;
Structure prediction by ZEFSAII (Michael W. Deem and Ramdas Pophale) SiO2 
 PCOD9102558
Probable space group: P -1
;
_chemical_formula_sum "Si O2"
_cell_formula_units_Z 14
_cell_length_a 17.291597
_cell_length_b 7.614289
_cell_length_c 6.173625
_cell_angle_alpha 119.192201
_cell_angle_beta 49.931719
_cell_angle_gamma 114.431709
_cell_volume 536.965867
_symmetry_space_group_name_H-M "P -1"
_symmetry_group_IT_number 2
_symmetry_cell_setting 'triclinic'
loop_
_space_group_symop_operation_xyz
x,y,z
-x,-y,-z
loop_
_atom_site_type_symbol
_atom_site_label
_atom_site_fract_x
_atom_site_fract_y
_atom_site_fract_z
Si Si1 0.161041 0.416763 0.842279
Si Si2 0.524344 0.740276 0.590460
Si Si3 0.228877 0.678254 0.505668
Si Si4 0.024795 0.789283 0.721054
Si Si5 0.728785 0.722387 0.056257
Si Si6 0.855456 0.955658 0.657552
Si Si7 0.355198 0.971242 0.140691
O O1 0.201491 0.625775 0.773681
O O2 0.251250 0.345527 0.777018
O O3 0.123469 0.250597 0.625285
O O4 0.067982 0.388573 0.164160
O O5 0.500000 0.500000 0.500000
O O6 0.617259 0.784685 0.279643
O O7 0.569340 0.833439 0.794266
O O8 0.422216 0.837190 0.799002
O O9 0.124699 0.724772 0.612524
O O10 0.315649 0.851083 0.361592
O O11 0.262686 0.472239 0.223679
O O12 0.057763 0.862491 0.461420
O O13 0.000000 0.000000 0.000000
O O14 0.821879 0.896645 0.926098
O O15 0.747342 0.991525 0.769766
#
# Coordination Sequence:
#
# PCOD9102558 Si02
#       7
#     2   2   2   2   2   2   2
#     4  10  20  38  63  90 130 169 208 259 313 370
#     4  11  22  41  68  95 126 164 215 261 321 384
#     4  10  21  40  63  93 126 167 212 257 315 377
#     4   9  19  38  63  89 127 169 210 258 312 370
#     4  11  22  39  62  93 129 165 212 263 315 372
#     4   9  20  39  62  92 129 167 209 260 313 374
#     4  10  21  42  66  93 130 165 210 266 316 377
#
# _framework density 26.072420000000001
#
# number of rings (size 3 to 8) (size 9 to 14) (size 15 to 20)
#    0.000    2.000    2.857    0.429    0.000    1.714 
#    5.143    4.286    0.000    0.000    0.000    0.000 
#    0.000    0.000    0.000    0.000    0.000    0.000 
#
# Total GULP energy -78341.108518 kJ/mol
# GULP energy per Si atom -5595.793466 kJ/mol
# Density = 2.601308 g / cm^3
# Si number density = 26.072420 Si / 1000 Ang^3
#
#
#
# Elastic Constant Matrix: (Units=GPa)
#
#
# Indices 1 2 3 4 5 6 
#
# 1 59.3924 26.5089 24.0087 -9.2704 -8.5620 -3.1388
# 2 26.5089 132.6887 42.7697 -15.0061 9.0365 -0.4479
# 3 24.0087 42.7697 125.8163 -9.6206 -26.9348 -4.4694
# 4 -9.2704 -15.0061 -9.6206 58.1035 -6.7884 9.3034
# 5 -8.5620 9.0365 -26.9348 -6.7884 47.8841 -8.2328
# 6 -3.1388 -0.4479 -4.4694 9.3034 -8.2328 36.6140
#
#
#
# Elastic Compliance Matrix: (Units=1/GPa)
#
#
# Indices 1 2 3 4 5 6 
#
# 1 0.020053 -0.003530 -0.001533 0.002210 0.004018 0.001831
# 2 -0.003530 0.009874 -0.003682 0.001141 -0.004746 -0.001988
# 3 -0.001533 -0.003682 0.011240 0.001113 0.007342 0.002564
# 4 0.002210 0.001141 0.001113 0.018990 0.002836 -0.003848
# 5 0.004018 -0.004746 0.007342 0.002836 0.028200 0.006803
# 6 0.001831 -0.001988 0.002564 -0.003848 0.006803 0.030265
#
#
# Mechanical properties :
#
#
# Convention : Reuss Voigt Hill
#
# Bulk Modulus (GPa) = 42.23304 56.05243 49.14273
# Shear Modulus (GPa) = 34.72125 43.49432 39.10779
#
# Velocity S-wave (km/s) = 3.65324 4.08881 3.87714
# Velocity P-wave (km/s) = 5.83339 6.62092 6.23959
#
# Compressibility (1/GPa) = 0.02367814
#
# Stress axis : x y z
#
# Youngs Moduli (GPa) = 49.86762 101.27463 88.96539
#
# Poissons Ratio (x) = 0.35747 0.13634
# Poissons Ratio (y) = 0.17602 0.32761
# Poissons Ratio (z) = 0.07642 0.37294
#
# Static dielectric constant tensor:
#      x y z
#    x 2.010350 -0.023890 -0.015480 
#    y -0.023890 2.070540 -0.007000 
#    z -0.015480 -0.007000 2.149730 
# 
# From -- ./inp_files/107469.got.cif
#   From: 2010.05.17/outbox.cif.g08.bks.cpg/sg2_54_cif.got.tgz:107469.got - 2010.06.03 11:33:40.
