data_PCOD9102439
_publ_section_title
;
Structure prediction by ZEFSAII (Michael W. Deem and Ramdas Pophale) SiO2 
 PCOD9102439
Probable space group: P -1
;
_chemical_formula_sum "Si O2"
_cell_formula_units_Z 16
_cell_length_a 9.075054
_cell_length_b 9.519486
_cell_length_c 12.236550
_cell_angle_alpha 125.197263
_cell_angle_beta 122.224513
_cell_angle_gamma 62.701374
_cell_volume 713.070961
_symmetry_space_group_name_H-M "P -1"
_symmetry_group_IT_number 2
_symmetry_cell_setting 'triclinic'
loop_
_space_group_symop_operation_xyz
x,y,z
-x,-y,-z
loop_
_atom_site_type_symbol
_atom_site_label
_atom_site_fract_x
_atom_site_fract_y
_atom_site_fract_z
Si Si1 0.808615 0.567379 0.815766
Si Si2 0.113137 0.169916 0.212803
Si Si3 0.380206 0.196930 0.529901
Si Si4 0.729928 0.085412 0.028825
Si Si5 0.446992 0.544975 0.624184
Si Si6 0.822454 0.246249 0.520571
Si Si7 0.676882 0.776298 0.035147
Si Si8 0.773419 0.884620 0.358695
O O1 0.900429 0.673983 0.813040
O O2 0.592279 0.651711 0.763837
O O3 0.825561 0.376306 0.683014
O O4 0.814196 0.602869 0.962706
O O5 0.229600 0.198469 0.377198
O O6 0.913251 0.150035 0.154222
O O7 0.226182 0.001467 0.113820
O O8 0.461729 0.364684 0.611485
O O9 0.312135 0.224254 0.638386
O O10 0.500000 0.000000 0.500000
O O11 0.708804 0.931845 0.036352
O O12 0.534709 0.216650 0.021013
O O13 0.500000 0.500000 0.500000
O O14 0.250322 0.656412 0.577058
O O15 0.023821 0.152779 0.539098
O O16 0.709925 0.097464 0.432357
O O17 0.750705 0.821542 0.200819
#
# Coordination Sequence:
#
# PCOD9102439 Si02
#       8
#     2   2   2   2   2   2   2   2
#     4  10  21  42  70  93 125 180 221 267 326 394
#     4  10  20  38  63 100 130 172 222 272 326 382
#     4  12  23  38  67  98 136 169 216 275 331 393
#     4   9  21  37  63  96 131 172 226 272 315 398
#     4  10  20  40  65  94 124 172 220 262 323 392
#     4  10  23  43  65  96 135 169 223 267 330 401
#     4  10  22  41  66  93 131 177 222 267 329 394
#     4  11  26  40  64 102 132 172 216 279 331 386
#
# _framework density 22.43816
#
# number of rings (size 3 to 8) (size 9 to 14) (size 15 to 20)
#    0.000    1.750    2.500    2.250    8.750    1.000 
#    2.250    0.625    2.750    0.000    0.000    0.000 
#    0.000    0.000    0.000    0.000    0.000    0.000 
#
# Total GULP energy -89100.276427 kJ/mol
# GULP energy per Si atom -5568.767277 kJ/mol
# Density = 2.238709 g / cm^3
# Si number density = 22.438160 Si / 1000 Ang^3
#
#
#
# Elastic Constant Matrix: (Units=GPa)
#
#
# Indices 1 2 3 4 5 6 
#
# 1 100.9955 53.1794 22.3911 1.8638 17.6876 25.0999
# 2 53.1794 66.5925 0.0487 3.5712 1.1135 20.1865
# 3 22.3911 0.0487 44.0946 10.9728 -8.4596 19.3175
# 4 1.8638 3.5712 10.9728 19.1226 1.5497 7.3158
# 5 17.6876 1.1135 -8.4596 1.5497 41.3770 -4.3862
# 6 25.0999 20.1865 19.3175 7.3158 -4.3862 37.1471
#
#
#
# Elastic Compliance Matrix: (Units=1/GPa)
#
#
# Indices 1 2 3 4 5 6 
#
# 1 0.031758 -0.025712 -0.023518 0.016990 -0.018411 -0.000776
# 2 -0.025712 0.039982 0.025236 -0.015749 0.014320 -0.012684
# 3 -0.023518 0.025236 0.052887 -0.027602 0.019355 -0.017604
# 4 0.016990 -0.015749 -0.027602 0.072486 -0.015695 -0.004697
# 5 -0.018411 0.014320 0.019355 -0.015695 0.036408 0.001983
# 6 -0.000776 -0.012684 -0.017604 -0.004697 0.001983 0.044651
#
#
# Mechanical properties :
#
#
# Convention : Reuss Voigt Hill
#
# Bulk Modulus (GPa) = 13.04863 40.32457 26.68660
# Shear Modulus (GPa) = 14.21638 28.60023 21.40830
#
# Velocity S-wave (km/s) = 2.51983 3.57406 3.09221
# Velocity P-wave (km/s) = 3.78075 5.91966 4.96671
#
# Compressibility (1/GPa) = 0.07663637
#
# Stress axis : x y z
#
# Youngs Moduli (GPa) = 31.48821 25.01152 18.90823
#
# Poissons Ratio (x) = 0.64310 0.44469
# Poissons Ratio (y) = 0.80963 -0.47716
# Poissons Ratio (z) = 0.74055 -0.63118
#
# Static dielectric constant tensor:
#      x y z
#    x 1.958190 -0.090510 -0.034010 
#    y -0.090510 2.238480 0.276780 
#    z -0.034010 0.276780 2.396870 
# 
# From -- ./inp_files/383370.got.cif
#   From: 2010.05.17/outbox.cif.g08.bks.cpg/sg2_192_cif.got.tgz:383370.got - 2010.06.03 11:33:40.
