data_PCOD9102190
_publ_section_title
;
Structure prediction by ZEFSAII (Michael W. Deem and Ramdas Pophale) SiO2 
 PCOD9102190
Probable space group: P -1
;
_chemical_formula_sum "Si O2"
_cell_formula_units_Z 12
_cell_length_a 9.410860
_cell_length_b 13.929921
_cell_length_c 9.420074
_cell_angle_alpha 115.411734
_cell_angle_beta 136.833308
_cell_angle_gamma 36.466767
_cell_volume 462.960473
_symmetry_space_group_name_H-M "P -1"
_symmetry_group_IT_number 2
_symmetry_cell_setting 'triclinic'
loop_
_space_group_symop_operation_xyz
x,y,z
-x,-y,-z
loop_
_atom_site_type_symbol
_atom_site_label
_atom_site_fract_x
_atom_site_fract_y
_atom_site_fract_z
Si Si1 0.327529 0.896157 0.552071
Si Si2 0.607594 0.439486 0.204005
Si Si3 0.858325 0.177135 0.857938
Si Si4 0.252033 0.298879 0.537921
Si Si5 0.352280 0.323969 0.072065
Si Si6 0.585630 0.921418 0.170920
O O1 0.081395 0.921774 0.297596
O O2 0.653795 0.762795 0.596796
O O3 0.428471 0.801409 0.711755
O O4 0.213174 0.061834 0.605042
O O5 0.374737 0.625936 0.227388
O O6 0.505374 0.364465 0.131593
O O7 0.012809 0.301844 0.421699
O O8 0.500000 0.500000 0.000000
O O9 0.618401 0.198634 0.793691
O O10 0.236330 0.058264 0.096813
O O11 0.000000 0.500000 0.500000
O O12 0.286542 0.249987 0.872836
O O13 0.000000 0.500000 0.000000
O O14 0.500000 0.000000 0.000000
#
# Coordination Sequence:
#
# PCOD9102190 Si02
#       6
#     2   2   2   2   2   2
#     4   9  20  40  65  87 126 153 204 245 302 357
#     4  11  20  37  64  86 124 163 201 246 300 358
#     4   9  20  38  64  86 118 162 201 242 308 351
#     4   8  17  35  58  86 113 158 193 235 293 352
#     4  11  23  37  60  95 118 157 209 250 301 357
#     4  10  20  38  62  87 125 161 195 250 307 357
#
# _framework density 25.92014
#
# number of rings (size 3 to 8) (size 9 to 14) (size 15 to 20)
#    1.000    1.333    0.000    4.000    0.000    3.333 
#    0.000    5.833    0.000    0.000    0.000    0.000 
#    0.000    0.000    0.000    0.000    0.000    0.000 
#
# Total GULP energy -67022.148650 kJ/mol
# GULP energy per Si atom -5585.179054 kJ/mol
# Density = 2.586114 g / cm^3
# Si number density = 25.920140 Si / 1000 Ang^3
#
#
#
# Elastic Constant Matrix: (Units=GPa)
#
#
# Indices 1 2 3 4 5 6 
#
# 1 172.0483 84.3061 35.0436 17.6996 35.4290 23.5621
# 2 84.3061 123.7779 41.2511 42.7625 21.1034 4.2244
# 3 35.0436 41.2511 104.4804 36.1751 29.0842 8.8844
# 4 17.6996 42.7625 36.1751 55.3363 -3.8015 6.9341
# 5 35.4290 21.1034 29.0842 -3.8015 51.4093 -4.1034
# 6 23.5621 4.2244 8.8844 6.9341 -4.1034 63.6429
#
#
#
# Elastic Compliance Matrix: (Units=1/GPa)
#
#
# Indices 1 2 3 4 5 6 
#
# 1 0.010488 -0.007021 0.000103 0.002187 -0.004559 -0.003964
# 2 -0.007021 0.017297 0.000264 -0.011819 -0.003085 0.002503
# 3 0.000103 0.000264 0.016497 -0.011520 -0.010507 -0.001781
# 4 0.002187 -0.011819 -0.011520 0.035065 0.012340 -0.001442
# 5 -0.004559 -0.003085 -0.010507 0.012340 0.031037 0.004016
# 6 -0.003964 0.002503 -0.001781 -0.001442 0.004016 0.017679
#
#
# Mechanical properties :
#
#
# Convention : Reuss Voigt Hill
#
# Bulk Modulus (GPa) = 32.28472 80.16757 56.22614
# Shear Modulus (GPa) = 32.96060 50.05808 41.50934
#
# Velocity S-wave (km/s) = 3.56985 4.39936 4.00613
# Velocity P-wave (km/s) = 5.42902 7.53669 6.56795
#
# Compressibility (1/GPa) = 0.03097440
#
# Stress axis : x y z
#
# Youngs Moduli (GPa) = 95.34349 57.81361 60.61578
#
# Poissons Ratio (x) = 0.40592 -0.00625
# Poissons Ratio (y) = 0.66942 -0.01600
# Poissons Ratio (z) = -0.00982 -0.01526
#
# Static dielectric constant tensor:
#      x y z
#    x 2.084800 -0.001170 -0.004290 
#    y -0.001170 2.073580 -0.097330 
#    z -0.004290 -0.097330 2.138650 
# 
# From -- ./inp_files/392870.got.cif
#   From: 2010.05.17/outbox.cif.g08.bks.cpg/sg2_197_cif.got.tgz:392870.got - 2010.06.03 11:33:40.
