data_PCOD9102600
_publ_section_title
;
Structure prediction by ZEFSAII (Michael W. Deem and Ramdas Pophale) SiO2 
 PCOD9102600
Probable space group: P -1
;
_chemical_formula_sum "Si O2"
_cell_formula_units_Z 14
_cell_length_a 7.713163
_cell_length_b 9.402639
_cell_length_c 12.406894
_cell_angle_alpha 133.794032
_cell_angle_beta 108.813796
_cell_angle_gamma 92.487003
_cell_volume 566.078050
_symmetry_space_group_name_H-M "P -1"
_symmetry_group_IT_number 2
_symmetry_cell_setting 'triclinic'
loop_
_space_group_symop_operation_xyz
x,y,z
-x,-y,-z
loop_
_atom_site_type_symbol
_atom_site_label
_atom_site_fract_x
_atom_site_fract_y
_atom_site_fract_z
Si Si1 0.721382 0.868123 0.568153
Si Si2 0.360936 0.014480 0.076166
Si Si3 0.881744 0.042802 0.350633
Si Si4 0.540835 0.149124 0.766057
Si Si5 0.985050 0.773088 0.735839
Si Si6 0.325969 0.450576 0.292627
Si Si7 0.176005 0.413737 0.006058
O O1 0.660822 0.068456 0.661474
O O2 0.840358 0.878039 0.709599
O O3 0.517930 0.664436 0.426186
O O4 0.888156 0.860157 0.514034
O O5 0.400584 0.900043 0.128831
O O6 0.402567 0.262105 0.231659
O O7 0.137599 0.897631 0.924091
O O8 0.500000 0.000000 0.000000
O O9 0.693457 0.992700 0.362024
O O10 0.853683 0.808200 0.174627
O O11 0.884999 0.200220 0.333156
O O12 0.620108 0.400392 0.896469
O O13 0.828115 0.560258 0.648406
O O14 0.203927 0.390802 0.126160
O O15 0.000000 0.500000 0.000000
#
# Coordination Sequence:
#
# PCOD9102600 Si02
#       7
#     2   2   2   2   2   2   2
#     4  10  23  42  63  92 130 169 196 265 316 365
#     4  12  21  39  66  97 119 161 213 265 302 363
#     4  10  22  42  64  93 125 161 211 260 308 363
#     4  12  23  40  68  91 132 161 213 255 316 367
#     4  10  20  38  63  92 123 162 205 263 305 360
#     4  12  23  40  67  91 127 166 213 247 322 378
#     4  12  23  42  67  94 122 173 208 261 309 369
#
# _framework density 24.731573000000001
#
# number of rings (size 3 to 8) (size 9 to 14) (size 15 to 20)
#    0.857    0.000    5.714    2.143    0.000    0.571 
#    2.571    2.857    0.000    0.000    0.000    0.000 
#    0.000    0.000    0.000    0.000    0.000    0.000 
#
# Total GULP energy -78172.648355 kJ/mol
# GULP energy per Si atom -5583.760597 kJ/mol
# Density = 2.467528 g / cm^3
# Si number density = 24.731573 Si / 1000 Ang^3
#
#
#
# Elastic Constant Matrix: (Units=GPa)
#
#
# Indices 1 2 3 4 5 6 
#
# 1 114.4990 4.8919 18.2081 4.8523 20.2987 11.9024
# 2 4.8919 101.0225 11.5161 -13.3204 2.5144 6.2502
# 3 18.2081 11.5161 73.5916 13.1450 24.3722 -3.3287
# 4 4.8523 -13.3204 13.1450 47.0176 1.8167 15.5035
# 5 20.2987 2.5144 24.3722 1.8167 43.4254 7.6741
# 6 11.9024 6.2502 -3.3287 15.5035 7.6741 22.4142
#
#
#
# Elastic Compliance Matrix: (Units=1/GPa)
#
#
# Indices 1 2 3 4 5 6 
#
# 1 0.010102 0.000518 -0.002473 0.002024 -0.002302 -0.006488
# 2 0.000518 0.012265 -0.005384 0.008667 0.003790 -0.011787
# 3 -0.002473 -0.005384 0.023478 -0.014271 -0.014870 0.021263
# 4 0.002024 0.008667 -0.014271 0.039124 0.011388 -0.036571
# 5 -0.002302 0.003790 -0.014870 0.011388 0.035665 -0.022130
# 6 -0.006488 -0.011787 0.021263 -0.036571 -0.022130 0.087377
#
#
# Mechanical properties :
#
#
# Convention : Reuss Voigt Hill
#
# Bulk Modulus (GPa) = 32.08410 39.81615 35.95012
# Shear Modulus (GPa) = 21.45220 39.53791 30.49505
#
# Velocity S-wave (km/s) = 2.94836 4.00269 3.51528
# Velocity P-wave (km/s) = 4.95899 6.12342 5.57171
#
# Compressibility (1/GPa) = 0.03116809
#
# Stress axis : x y z
#
# Youngs Moduli (GPa) = 98.99448 81.53221 42.59232
#
# Poissons Ratio (x) = -0.04226 0.10533
# Poissons Ratio (y) = -0.05131 0.22931
# Poissons Ratio (z) = 0.24481 0.43895
#
# Static dielectric constant tensor:
#      x y z
#    x 2.046810 0.041120 0.018410 
#    y 0.041120 1.945020 -0.021860 
#    z 0.018410 -0.021860 1.967340 
# 
# From -- ./inp_files/443624.got.cif
#   From: 2010.05.17/outbox.cif.g08.bks.cpg/sg2_222_cif.got.tgz:443624.got - 2010.06.03 11:33:40.
