data_PCOD9102343
_publ_section_title
;
Structure prediction by ZEFSAII (Michael W. Deem and Ramdas Pophale) SiO2 
 PCOD9102343
Probable space group: P -1
;
_chemical_formula_sum "Si O2"
_cell_formula_units_Z 13
_cell_length_a 19.302292
_cell_length_b 19.598350
_cell_length_c 5.884455
_cell_angle_alpha 122.620421
_cell_angle_beta 57.590211
_cell_angle_gamma 164.167078
_cell_volume 510.077769
_symmetry_space_group_name_H-M "P -1"
_symmetry_group_IT_number 2
_symmetry_cell_setting 'triclinic'
loop_
_space_group_symop_operation_xyz
x,y,z
-x,-y,-z
loop_
_atom_site_type_symbol
_atom_site_label
_atom_site_fract_x
_atom_site_fract_y
_atom_site_fract_z
Si Si1 0.320354 0.486907 0.028108
Si Si2 0.500000 0.500000 0.500000
Si Si3 0.311158 0.940081 0.753180
Si Si4 0.086907 0.162343 0.253754
Si Si5 0.125792 0.446423 0.540824
Si Si6 0.110894 0.885219 0.253584
Si Si7 0.688569 0.210491 0.238062
O O1 0.241732 0.356485 0.142843
O O2 0.349347 0.603253 0.301507
O O3 0.518454 0.615739 0.775954
O O4 0.075567 0.268292 0.902088
O O5 0.266465 0.307682 0.406878
O O6 0.197207 0.761742 0.791289
O O7 0.112099 0.774065 0.608410
O O8 0.553883 0.130851 0.543499
O O9 0.345320 0.052017 0.047946
O O10 0.854414 0.000402 0.460329
O O11 0.000000 0.000000 0.000000
O O12 0.169783 0.582103 0.754411
O O13 0.044485 0.319717 0.675069
O O14 0.500000 0.000000 0.000000
#
# Coordination Sequence:
#
# PCOD9102343 Si02
#       7
#     2   1   2   2   2   2   2
#     4   9  20  40  61  88 127 161 209 257 318 382
#     4  10  20  38  62  92 126 164 208 262 312 382
#     4  10  22  41  62  89 125 165 212 266 316 388
#     4  10  21  40  65  95 127 168 213 262 322 384
#     4  10  21  42  63  86 128 171 205 265 325 374
#     4   9  20  39  66  86 126 169 209 259 322 383
#     4  11  24  39  61  95 125 161 220 264 319 384
#
# _framework density 25.486312000000002
#
# number of rings (size 3 to 8) (size 9 to 14) (size 15 to 20)
#    0.000    2.154    0.000    1.846    0.000    9.846 
#   13.846    0.000    3.385    0.000    0.000    0.000 
#    0.000    0.000    0.000    0.000    0.000    0.000 
#
# Total GULP energy -72396.474270 kJ/mol
# GULP energy per Si atom -5568.959559 kJ/mol
# Density = 2.542830 g / cm^3
# Si number density = 25.486312 Si / 1000 Ang^3
#
#
#
# Elastic Constant Matrix: (Units=GPa)
#
#
# Indices 1 2 3 4 5 6 
#
# 1 84.8699 8.8148 26.0998 -9.4413 -37.2385 27.4663
# 2 8.8148 22.9445 16.2756 -5.7481 5.3738 -5.3743
# 3 26.0998 16.2756 143.7551 -1.2416 -42.9220 3.7601
# 4 -9.4413 -5.7481 -1.2416 35.0830 -2.6725 4.8950
# 5 -37.2385 5.3738 -42.9220 -2.6725 33.2951 12.3690
# 6 27.4663 -5.3743 3.7601 4.8950 12.3690 10.9678
#
#
#
# Elastic Compliance Matrix: (Units=1/GPa)
#
#
# Indices 1 2 3 4 5 6 
#
# 1 0.002029 0.009248 -0.005446 -0.001218 -0.012106 0.015515
# 2 0.009248 0.037531 -0.002298 0.012205 0.009991 -0.020696
# 3 -0.005446 -0.002298 0.008182 -0.002880 0.000883 0.009998
# 4 -0.001218 0.012205 -0.002880 0.029026 -0.006240 0.004102
# 5 -0.012106 0.009991 0.000883 -0.006240 0.002608 0.034753
# 6 0.015515 -0.020696 0.009998 0.004102 0.034753 -0.002270
#
#
# Mechanical properties :
#
#
# Convention : Reuss Voigt Hill
#
# Bulk Modulus (GPa) = 19.70488 39.32777 29.51632
# Shear Modulus (GPa) = 54.93532 29.22781 42.08157
#
# Velocity S-wave (km/s) = 4.64776 3.39012 4.06784
# Velocity P-wave (km/s) = 6.04570 5.54873 5.80254
#
# Compressibility (1/GPa) = 0.05074885
#
# Stress axis : x y z
#
# Youngs Moduli (GPa) = 492.91776 26.64467 122.21260
#
# Poissons Ratio (x) = -0.24641 0.66561
# Poissons Ratio (y) = -4.55851 0.28089
# Poissons Ratio (z) = 2.68458 0.06124
#
# Static dielectric constant tensor:
#      x y z
#    x 1.969060 -0.095580 -0.104340 
#    y -0.095580 2.079990 -0.039750 
#    z -0.104340 -0.039750 2.146180 
# 
# From -- ./inp_files/4549.got.cif
#   From: 2010.05.17/outbox.cif.g08.bks.cpg/sg2_3_cif.got.tgz:4549.got - 2010.06.03 11:33:40.
