data_PCOD9102808
_publ_section_title
;
Structure prediction by ZEFSAII (Michael W. Deem and Ramdas Pophale) SiO2 
 PCOD9102808
Probable space group: P -1
;
_chemical_formula_sum "Si O2"
_cell_formula_units_Z 16
_cell_length_a 7.904456
_cell_length_b 22.720213
_cell_length_c 7.137639
_cell_angle_alpha 132.673669
_cell_angle_beta 100.263276
_cell_angle_gamma 112.461489
_cell_volume 666.760051
_symmetry_space_group_name_H-M "P -1"
_symmetry_group_IT_number 2
_symmetry_cell_setting 'triclinic'
loop_
_space_group_symop_operation_xyz
x,y,z
-x,-y,-z
loop_
_atom_site_type_symbol
_atom_site_label
_atom_site_fract_x
_atom_site_fract_y
_atom_site_fract_z
Si Si1 0.111482 0.860707 0.344117
Si Si2 0.663250 0.911681 0.200874
Si Si3 0.495201 0.584733 0.268381
Si Si4 0.456122 0.233785 0.436529
Si Si5 0.259683 0.371908 0.213145
Si Si6 0.992766 0.628041 0.144898
Si Si7 0.385496 0.063720 0.323105
Si Si8 0.158959 0.830975 0.847712
O O1 0.349259 0.892514 0.543124
O O2 0.134599 0.963569 0.567390
O O3 0.121684 0.837566 0.075690
O O4 0.866449 0.750358 0.148659
O O5 0.646522 0.914039 0.424323
O O6 0.656385 0.823718 0.912840
O O7 0.421741 0.875629 0.998427
O O8 0.576487 0.682662 0.361729
O O9 0.677213 0.635246 0.582818
O O10 0.500000 0.500000 0.000000
O O11 0.219968 0.499286 0.103804
O O12 0.743069 0.319929 0.676262
O O13 0.366327 0.134134 0.337858
O O14 0.500000 0.500000 0.500000
O O15 0.065082 0.369265 0.078197
O O16 0.002014 0.712345 0.456854
O O17 0.194923 0.929625 0.970622
#
# Coordination Sequence:
#
# PCOD9102808 Si02
#       8
#     2   2   2   2   2   2   2   2
#     4   9  15  32  57  85 127 157 192 242 300 359
#     4   8  18  31  55  95 126 151 188 253 306 354
#     4  11  25  44  58  80 121 167 203 246 312 361
#     4  11  21  38  65  92 121 152 203 263 298 353
#     4  10  21  36  57  83 114 160 204 240 290 363
#     4  10  20  38  64  89 113 156 211 250 290 356
#     4   9  17  32  57  99 124 149 194 247 309 352
#     4   8  16  29  59  91 122 150 188 248 303 358
#
# _framework density 23.996638000000001
#
# number of rings (size 3 to 8) (size 9 to 14) (size 15 to 20)
#    0.000    2.500    1.250    2.625    1.750    1.500 
#    6.750    1.250    0.000    2.250    0.000    0.000 
#    0.000    0.000    0.000    0.000    0.000    0.000 
#
# Total GULP energy -89135.676012 kJ/mol
# GULP energy per Si atom -5570.979751 kJ/mol
# Density = 2.394202 g / cm^3
# Si number density = 23.996638 Si / 1000 Ang^3
#
#
#
# Elastic Constant Matrix: (Units=GPa)
#
#
# Indices 1 2 3 4 5 6 
#
# 1 54.7971 23.7473 25.5081 5.4112 -5.1190 -14.5843
# 2 23.7473 124.7230 42.3143 15.7953 -10.7087 -20.5739
# 3 25.5081 42.3143 131.1672 15.8568 7.7098 -9.3078
# 4 5.4112 15.7953 15.8568 41.7779 -4.9095 0.9307
# 5 -5.1190 -10.7087 7.7098 -4.9095 27.2257 13.2042
# 6 -14.5843 -20.5739 -9.3078 0.9307 13.2042 19.9307
#
#
#
# Elastic Compliance Matrix: (Units=1/GPa)
#
#
# Indices 1 2 3 4 5 6 
#
# 1 0.024804 -0.000645 -0.002557 -0.003023 -0.004980 0.019730
# 2 -0.000645 0.011018 -0.002168 -0.003621 -0.001039 0.010746
# 3 -0.002557 -0.002168 0.010154 -0.003749 -0.007775 0.005959
# 4 -0.003023 -0.003621 -0.003749 0.029016 0.012809 -0.017542
# 5 -0.004980 -0.001039 -0.007775 0.012809 0.065177 -0.052125
# 6 0.019730 0.010746 0.005959 -0.017542 -0.052125 0.113840
#
#
# Mechanical properties :
#
#
# Convention : Reuss Voigt Hill
#
# Bulk Modulus (GPa) = 28.38057 54.86964 41.62511
# Shear Modulus (GPa) = 18.08366 32.39470 25.23918
#
# Velocity S-wave (km/s) = 2.74814 3.67818 3.24663
# Velocity P-wave (km/s) = 4.68212 6.39952 5.60697
#
# Compressibility (1/GPa) = 0.03523537
#
# Stress axis : x y z
#
# Youngs Moduli (GPa) = 40.31663 90.76007 98.48790
#
# Poissons Ratio (x) = 0.05856 0.25185
# Poissons Ratio (y) = 0.02601 0.21348
# Poissons Ratio (z) = 0.10310 0.19673
#
# Static dielectric constant tensor:
#      x y z
#    x 1.938040 0.022900 0.070210 
#    y 0.022900 1.988050 0.017880 
#    z 0.070210 0.017880 1.922880 
# 
# From -- ./inp_files/225680.got.cif
#   From: 2010.05.17/outbox.cif.g08.bks.cpg/sg2_113_cif.got.tgz:225680.got - 2010.06.03 11:33:40.
