data_PCOD9102790
_publ_section_title
;
Structure prediction by ZEFSAII (Michael W. Deem and Ramdas Pophale) SiO2 
 PCOD9102790
Probable space group: P -1
;
_chemical_formula_sum "Si O2"
_cell_formula_units_Z 16
_cell_length_a 5.310388
_cell_length_b 9.387839
_cell_length_c 32.703951
_cell_angle_alpha 30.812377
_cell_angle_beta 87.614571
_cell_angle_gamma 102.036441
_cell_volume 733.224380
_symmetry_space_group_name_H-M "P -1"
_symmetry_group_IT_number 2
_symmetry_cell_setting 'triclinic'
loop_
_space_group_symop_operation_xyz
x,y,z
-x,-y,-z
loop_
_atom_site_type_symbol
_atom_site_label
_atom_site_fract_x
_atom_site_fract_y
_atom_site_fract_z
Si Si1 0.680805 0.854565 0.556911
Si Si2 0.803025 0.217640 0.266085
Si Si3 0.773993 0.788242 0.088270
Si Si4 0.984655 0.414353 0.973892
Si Si5 0.594137 0.101887 0.580107
Si Si6 0.600705 0.638616 0.873257
Si Si7 0.657551 0.234755 0.685552
Si Si8 0.041253 0.279590 0.606127
O O1 0.562623 0.479887 0.643007
O O2 0.500000 0.000000 0.500000
O O3 0.659914 0.920991 0.588375
O O4 0.000000 0.000000 0.500000
O O5 0.875177 0.566278 0.166634
O O6 0.688591 0.118603 0.337774
O O7 0.565745 0.997323 0.289047
O O8 0.012694 0.068961 0.296546
O O9 0.494526 0.565201 0.118179
O O10 0.772828 0.043746 0.056602
O O11 0.000000 0.000000 0.000000
O O12 0.849890 0.596244 0.903813
O O13 0.304845 0.502944 0.934736
O O14 0.000000 0.500000 0.000000
O O15 0.642794 0.437074 0.477669
O O16 0.837610 0.210710 0.585899
O O17 0.690909 0.003864 0.774304
O O18 0.943207 0.408477 0.613502
#
# Coordination Sequence:
#
# PCOD9102790 Si02
#       8
#     2   2   2   2   2   2   2   2
#     4  12  26  42  63  93 131 174 218 264 326 385
#     4  10  21  39  64  95 124 171 219 271 320 391
#     4   9  21  41  65  97 128 171 221 270 328 391
#     4  11  23  43  65  97 131 173 210 276 337 393
#     4  10  22  38  59  92 126 168 210 269 321 384
#     4  10  23  41  68  93 130 170 224 266 327 395
#     4  10  23  39  63  95 124 173 218 269 317 391
#     4  10  20  38  64  87 128 162 219 263 323 376
#
# _framework density 21.821424
#
# number of rings (size 3 to 8) (size 9 to 14) (size 15 to 20)
#    0.000    1.750    1.250    1.875    7.000    1.000 
#    9.000    0.000    0.000    0.000    0.000    0.000 
#    0.000    0.000    0.000    0.000    0.000    0.000 
#
# Total GULP energy -89261.827740 kJ/mol
# GULP energy per Si atom -5578.864234 kJ/mol
# Density = 2.177176 g / cm^3
# Si number density = 21.821424 Si / 1000 Ang^3
#
#
#
# Elastic Constant Matrix: (Units=GPa)
#
#
# Indices 1 2 3 4 5 6 
#
# 1 50.9564 7.3577 13.5881 -3.7903 6.3982 -8.9625
# 2 7.3577 120.0592 44.4425 -11.8668 -3.5508 -29.7291
# 3 13.5881 44.4425 133.5081 -16.4713 21.7296 -9.7894
# 4 -3.7903 -11.8668 -16.4713 25.2959 -10.9973 5.0147
# 5 6.3982 -3.5508 21.7296 -10.9973 36.1012 3.5520
# 6 -8.9625 -29.7291 -9.7894 5.0147 3.5520 28.3707
#
#
#
# Elastic Compliance Matrix: (Units=1/GPa)
#
#
# Indices 1 2 3 4 5 6 
#
# 1 0.021703 0.001006 -0.001388 -0.000427 -0.003828 0.007986
# 2 0.001006 0.012888 -0.003681 0.002790 0.003005 0.011683
# 3 -0.001388 -0.003681 0.009973 0.002356 -0.005342 -0.000602
# 4 -0.000427 0.002790 0.002356 0.050220 0.014933 -0.007144
# 5 -0.003828 0.003005 -0.005342 0.014933 0.037146 -0.007193
# 6 0.007986 0.011683 -0.000602 -0.007144 -0.007193 0.051968
#
#
# Mechanical properties :
#
#
# Convention : Reuss Voigt Hill
#
# Bulk Modulus (GPa) = 27.44406 48.36671 37.90539
# Shear Modulus (GPa) = 24.48956 33.89594 29.19275
#
# Velocity S-wave (km/s) = 3.35367 3.94551 3.66157
# Velocity P-wave (km/s) = 5.25358 6.55507 5.94008
#
# Compressibility (1/GPa) = 0.03643776
#
# Stress axis : x y z
#
# Youngs Moduli (GPa) = 46.07671 77.59336 100.27471
#
# Poissons Ratio (x) = -0.07803 0.13916
# Poissons Ratio (y) = -0.04634 0.36908
# Poissons Ratio (z) = 0.06394 0.28560
#
# Static dielectric constant tensor:
#      x y z
#    x 1.912650 -0.005120 -0.015150 
#    y -0.005120 1.798740 -0.000370 
#    z -0.015150 -0.000370 1.864670 
# 
# From -- ./inp_files/46218.got.cif
#   From: 2010.05.17/outbox.cif.g08.bks.cpg/sg2_24_cif.got.tgz:46218.got - 2010.06.03 11:33:40.
