data_PCOD9102188
_publ_section_title
;
Structure prediction by ZEFSAII (Michael W. Deem and Ramdas Pophale) SiO2 
 PCOD9102188
Probable space group: P -1
;
_chemical_formula_sum "Si O2"
_cell_formula_units_Z 16
_cell_length_a 14.251140
_cell_length_b 14.266581
_cell_length_c 11.232626
_cell_angle_alpha 133.549035
_cell_angle_beta 40.369928
_cell_angle_gamma 149.761050
_cell_volume 741.635062
_symmetry_space_group_name_H-M "P -1"
_symmetry_group_IT_number 2
_symmetry_cell_setting 'triclinic'
loop_
_space_group_symop_operation_xyz
x,y,z
-x,-y,-z
loop_
_atom_site_type_symbol
_atom_site_label
_atom_site_fract_x
_atom_site_fract_y
_atom_site_fract_z
Si Si1 0.699121 0.864890 0.257524
Si Si2 0.039468 0.102006 0.777770
Si Si3 0.629682 0.052305 0.653990
Si Si4 0.423865 0.459880 0.175843
Si Si5 0.041533 0.223182 0.498934
Si Si6 0.592507 0.827420 0.052876
Si Si7 0.849098 0.588778 0.200865
Si Si8 0.669788 0.202738 0.079803
O O1 0.888167 0.906048 0.170441
O O2 0.683308 0.997160 0.441998
O O3 0.512051 0.653426 0.300619
O O4 0.677585 0.861961 0.135032
O O5 0.170148 0.306954 0.783299
O O6 0.048491 0.980473 0.579302
O O7 0.797466 0.987686 0.917358
O O8 0.437882 0.862230 0.743231
O O9 0.564882 0.156035 0.780863
O O10 0.841677 0.185331 0.641998
O O11 0.182938 0.308606 0.317719
O O12 0.500000 0.500000 0.000000
O O13 0.498432 0.368848 0.072542
O O14 0.171833 0.357456 0.602115
O O15 0.700607 0.367373 0.141277
O O16 0.093124 0.698563 0.055328
O O17 0.500000 0.000000 0.000000
#
# Coordination Sequence:
#
# PCOD9102188 Si02
#       8
#     2   2   2   2   2   2   2   2
#     4  10  21  38  58  88 122 160 213 263 315 371
#     4  10  21  38  62  91 121 166 212 258 318 378
#     4  11  21  38  62  91 123 165 208 260 323 369
#     4   9  20  40  60  85 123 163 208 262 315 370
#     4  10  21  39  63  89 128 164 208 265 314 380
#     4  10  20  38  62  87 123 165 208 262 319 371
#     4  11  22  40  63  93 128 170 210 258 319 376
#     4  11  23  40  62  91 133 166 208 265 315 377
#
# _framework density 21.573951999999998
#
# number of rings (size 3 to 8) (size 9 to 14) (size 15 to 20)
#    0.000    1.750    2.500    1.875    0.000    2.000 
#    0.000    5.625    0.000    0.000    0.000    0.000 
#    0.000    0.000    0.000    0.000    0.000    0.000 
#
# Total GULP energy -89161.423595 kJ/mol
# GULP energy per Si atom -5572.588975 kJ/mol
# Density = 2.152485 g / cm^3
# Si number density = 21.573952 Si / 1000 Ang^3
#
#
#
# Elastic Constant Matrix: (Units=GPa)
#
#
# Indices 1 2 3 4 5 6 
#
# 1 85.6088 41.2025 42.3002 11.5816 -18.9528 -18.8071
# 2 41.2025 129.0636 22.0231 14.6093 -11.4441 -21.0804
# 3 42.3002 22.0231 73.1029 -3.0945 -15.2160 -7.7232
# 4 11.5816 14.6093 -3.0945 36.3385 -5.4179 -1.8922
# 5 -18.9528 -11.4441 -15.2160 -5.4179 33.1694 9.0304
# 6 -18.8071 -21.0804 -7.7232 -1.8922 9.0304 32.9026
#
#
#
# Elastic Compliance Matrix: (Units=1/GPa)
#
#
# Indices 1 2 3 4 5 6 
#
# 1 0.021085 -0.003014 -0.010066 -0.005472 0.003750 0.006414
# 2 -0.003014 0.009879 -0.000988 -0.002933 -0.000423 0.004322
# 3 -0.010066 -0.000988 0.020859 0.006017 0.005156 -0.002559
# 4 -0.005472 -0.002933 0.006017 0.031481 0.004592 -0.003045
# 5 0.003750 -0.000423 0.005156 0.004592 0.037123 -0.006842
# 6 0.006414 0.004322 -0.002559 -0.003045 -0.006842 0.037930
#
#
# Mechanical properties :
#
#
# Convention : Reuss Voigt Hill
#
# Bulk Modulus (GPa) = 42.21557 55.42521 48.82039
# Shear Modulus (GPa) = 25.72151 32.63206 29.17679
#
# Velocity S-wave (km/s) = 3.45664 3.89339 3.68150
# Velocity P-wave (km/s) = 5.96167 6.77923 6.38355
#
# Compressibility (1/GPa) = 0.02368794
#
# Stress axis : x y z
#
# Youngs Moduli (GPa) = 47.42677 101.22089 47.94078
#
# Poissons Ratio (x) = 0.30507 0.48258
# Poissons Ratio (y) = 0.14294 0.04736
# Poissons Ratio (z) = 0.47740 0.09998
#
# Static dielectric constant tensor:
#      x y z
#    x 1.825670 0.028940 0.027990 
#    y 0.028940 1.818710 0.025650 
#    z 0.027990 0.025650 1.791420 
# 
# From -- ./inp_files/454940.got.cif
#   From: 2010.05.17/outbox.cif.g08.bks.cpg/sg2_228_cif.got.tgz:454940.got - 2010.06.03 11:33:40.
