data_PCOD9102342
_publ_section_title
;
Structure prediction by ZEFSAII (Michael W. Deem and Ramdas Pophale) SiO2 
 PCOD9102342
Probable space group: P -1
;
_chemical_formula_sum "Si O2"
_cell_formula_units_Z 16
_cell_length_a 10.134507
_cell_length_b 7.410751
_cell_length_c 16.905040
_cell_angle_alpha 65.186294
_cell_angle_beta 139.588675
_cell_angle_gamma 94.459549
_cell_volume 681.098712
_symmetry_space_group_name_H-M "P -1"
_symmetry_group_IT_number 2
_symmetry_cell_setting 'triclinic'
loop_
_space_group_symop_operation_xyz
x,y,z
-x,-y,-z
loop_
_atom_site_type_symbol
_atom_site_label
_atom_site_fract_x
_atom_site_fract_y
_atom_site_fract_z
Si Si1 0.168285 0.280743 0.301958
Si Si2 0.401443 0.106149 0.017411
Si Si3 0.948223 0.202947 0.872287
Si Si4 0.507796 0.706902 0.423552
Si Si5 0.902063 0.618756 0.514724
Si Si6 0.626970 0.090524 0.276318
Si Si7 0.151730 0.238018 0.119961
Si Si8 0.775107 0.424378 0.201761
O O1 0.117317 0.536322 0.219729
O O2 0.373164 0.197070 0.474463
O O3 0.180675 0.190034 0.236270
O O4 0.954877 0.268593 0.250231
O O5 0.375895 0.356236 0.952963
O O6 0.169285 0.098108 0.938249
O O7 0.565692 0.000306 0.184149
O O8 0.500000 0.000000 0.000000
O O9 0.737693 0.165877 0.748392
O O10 0.012392 0.171716 0.000689
O O11 0.500000 0.500000 0.500000
O O12 0.669506 0.621055 0.437457
O O13 0.000000 0.500000 0.500000
O O14 0.078088 0.500759 0.685210
O O15 0.837640 0.879661 0.441589
O O16 0.403418 0.171889 0.212513
O O17 0.674241 0.296340 0.234864
O O18 0.000000 0.500000 0.000000
#
# Coordination Sequence:
#
# PCOD9102342 Si02
#       8
#     2   2   2   2   2   2   2   2
#     4   8  16  33  57  84 114 152 198 248 301 361
#     4  10  20  38  62  92 126 163 209 261 314 374
#     4   8  16  32  56  85 118 152 199 254 303 364
#     4   9  18  36  60  85 115 159 206 252 308 372
#     4  11  24  42  62  90 127 164 208 266 319 373
#     4  11  23  40  61  92 126 162 210 260 314 376
#     4   9  18  35  57  84 121 158 197 254 310 367
#     4  10  21  40  63  88 123 164 208 259 310 375
#
# _framework density 23.491455999999999
#
# number of rings (size 3 to 8) (size 9 to 14) (size 15 to 20)
#    0.000    2.500    0.000    3.000    0.000    3.000 
#    0.000   11.250    0.000    0.000    0.000    0.000 
#    0.000    0.000    0.000    0.000    0.000    0.000 
#
# Total GULP energy -89272.809564 kJ/mol
# GULP energy per Si atom -5579.550598 kJ/mol
# Density = 2.343799 g / cm^3
# Si number density = 23.491456 Si / 1000 Ang^3
#
#
#
# Elastic Constant Matrix: (Units=GPa)
#
#
# Indices 1 2 3 4 5 6 
#
# 1 164.0530 54.8080 17.7817 21.9062 -6.6332 -22.1533
# 2 54.8080 83.7524 20.5458 19.1879 9.8915 -30.3108
# 3 17.7817 20.5458 124.5777 5.4636 -15.5600 -16.2678
# 4 21.9062 19.1879 5.4636 30.1355 0.9698 -11.2541
# 5 -6.6332 9.8915 -15.5600 0.9698 33.7869 6.4517
# 6 -22.1533 -30.3108 -16.2678 -11.2541 6.4517 49.7889
#
#
#
# Elastic Compliance Matrix: (Units=1/GPa)
#
#
# Indices 1 2 3 4 5 6 
#
# 1 0.008364 -0.005518 0.000200 -0.002983 0.003571 -0.000709
# 2 -0.005518 0.022575 -0.002658 -0.005594 -0.010770 0.010551
# 3 0.000200 -0.002658 0.009153 0.000044 0.004871 0.000841
# 4 -0.002983 -0.005594 0.000044 0.040654 -0.000972 0.004597
# 5 0.003571 -0.010770 0.004871 -0.000972 0.037333 -0.008434
# 6 -0.000709 0.010551 0.000841 0.004597 -0.008434 0.028599
#
#
# Mechanical properties :
#
#
# Convention : Reuss Voigt Hill
#
# Bulk Modulus (GPa) = 41.42115 62.07268 51.74692
# Shear Modulus (GPa) = 29.29536 41.35875 35.32706
#
# Velocity S-wave (km/s) = 3.53521 4.20049 3.88213
# Velocity P-wave (km/s) = 5.85955 7.07152 6.49387
#
# Compressibility (1/GPa) = 0.02414226
#
# Stress axis : x y z
#
# Youngs Moduli (GPa) = 119.55727 44.29698 109.25320
#
# Poissons Ratio (x) = 0.24441 -0.02189
# Poissons Ratio (y) = 0.65967 0.29036
# Poissons Ratio (z) = -0.02395 0.11773
#
# Static dielectric constant tensor:
#      x y z
#    x 1.895240 0.101430 -0.006870 
#    y 0.101430 2.088650 -0.076210 
#    z -0.006870 -0.076210 1.907890 
# 
# From -- ./inp_files/494731.got.cif
#   From: 2010.05.17/outbox.cif.g08.bks.cpg/sg2_248_cif.got.tgz:494731.got - 2010.06.03 11:33:40.
