data_PCOD9102561
_publ_section_title
;
Structure prediction by ZEFSAII (Michael W. Deem and Ramdas Pophale) SiO2 
 PCOD9102561
Probable space group: P -1
;
_chemical_formula_sum "Si O2"
_cell_formula_units_Z 14
_cell_length_a 7.608740
_cell_length_b 6.882431
_cell_length_c 14.932083
_cell_angle_alpha 57.780143
_cell_angle_beta 81.488291
_cell_angle_gamma 91.724937
_cell_volume 648.666653
_symmetry_space_group_name_H-M "P -1"
_symmetry_group_IT_number 2
_symmetry_cell_setting 'triclinic'
loop_
_space_group_symop_operation_xyz
x,y,z
-x,-y,-z
loop_
_atom_site_type_symbol
_atom_site_label
_atom_site_fract_x
_atom_site_fract_y
_atom_site_fract_z
Si Si1 0.521325 0.690650 0.027158
Si Si2 0.006002 0.301846 0.817261
Si Si3 0.414252 0.272167 0.245971
Si Si4 0.237131 0.003977 0.957382
Si Si5 0.200529 0.961629 0.469105
Si Si6 0.881080 0.093324 0.699290
Si Si7 0.208646 0.813676 0.697832
O O1 0.433477 0.542632 0.155059
O O2 0.417914 0.898345 0.952157
O O3 0.500000 0.500000 0.000000
O O4 0.715901 0.799569 0.018406
O O5 0.092328 0.561863 0.762402
O O6 0.891334 0.203136 0.936125
O O7 0.903041 0.259171 0.741891
O O8 0.157503 0.127844 0.850684
O O9 0.278477 0.121868 0.224205
O O10 0.614207 0.199704 0.252938
O O11 0.315621 0.194665 0.365730
O O12 0.275180 0.871160 0.576793
O O13 0.176998 0.808131 0.417052
O O14 0.000000 0.000000 0.500000
O O15 0.068532 0.987808 0.695106
#
# Coordination Sequence:
#
# PCOD9102561 Si02
#       7
#     2   2   2   2   2   2   2
#     4  11  22  40  62  90 121 160 206 249 307 362
#     4  11  22  40  60  90 125 162 203 249 310 361
#     4  10  20  38  63  91 114 164 201 244 314 355
#     4  10  24  38  58  90 125 157 204 256 295 368
#     4   8  19  38  63  89 119 157 206 254 303 362
#     4   9  22  38  59  91 125 155 206 249 302 365
#     4  11  20  39  66  86 123 163 201 253 307 365
#
# _framework density 21.582736000000001
#
# number of rings (size 3 to 8) (size 9 to 14) (size 15 to 20)
#    0.857    1.143    1.429    2.143    2.000    0.571 
#    0.000    3.571    0.000    2.571    0.000    0.000 
#    0.000    0.000    0.000    0.000    0.000    0.000 
#
# Total GULP energy -77980.179552 kJ/mol
# GULP energy per Si atom -5570.012825 kJ/mol
# Density = 2.153361 g / cm^3
# Si number density = 21.582736 Si / 1000 Ang^3
#
#
#
# Elastic Constant Matrix: (Units=GPa)
#
#
# Indices 1 2 3 4 5 6 
#
# 1 78.1512 12.6290 -6.6726 3.8697 7.2193 11.3667
# 2 12.6290 38.2791 18.3589 8.7508 -2.5365 10.0402
# 3 -6.6726 18.3589 78.2277 -4.7116 -2.0186 10.4298
# 4 3.8697 8.7508 -4.7116 26.8569 14.7248 1.4572
# 5 7.2193 -2.5365 -2.0186 14.7248 35.3826 -6.1964
# 6 11.3667 10.0402 10.4298 1.4572 -6.1964 25.3120
#
#
#
# Elastic Compliance Matrix: (Units=1/GPa)
#
#
# Indices 1 2 3 4 5 6 
#
# 1 0.015790 -0.006595 0.004089 0.004806 -0.006883 -0.008121
# 2 -0.006595 0.039548 -0.010092 -0.019384 0.010831 -0.004800
# 3 0.004089 -0.010092 0.016784 0.009027 -0.005516 -0.006619
# 4 0.004806 -0.019384 0.009027 0.060586 -0.028588 -0.008675
# 5 -0.006883 0.010831 -0.005516 -0.028588 0.044405 0.013584
# 6 -0.008121 -0.004800 -0.006619 -0.008675 0.013584 0.051610
#
#
# Mechanical properties :
#
#
# Convention : Reuss Voigt Hill
#
# Bulk Modulus (GPa) = 21.31014 27.03208 24.17111
# Shear Modulus (GPa) = 18.54870 28.86647 23.70759
#
# Velocity S-wave (km/s) = 2.93477 3.66112 3.31788
# Velocity P-wave (km/s) = 4.62374 5.51578 5.08934
#
# Compressibility (1/GPa) = 0.04692601
#
# Stress axis : x y z
#
# Youngs Moduli (GPa) = 63.33243 25.28580 59.57939
#
# Poissons Ratio (x) = 0.16676 -0.24363
# Poissons Ratio (y) = 0.41769 0.60128
# Poissons Ratio (z) = -0.25898 0.25518
#
# Static dielectric constant tensor:
#      x y z
#    x 1.861430 0.012080 0.003010 
#    y 0.012080 1.793540 0.036220 
#    z 0.003010 0.036220 1.857250 
# 
# From -- ./inp_files/77294.got.cif
#   From: 2010.05.17/outbox.cif.g08.bks.cpg/sg2_39_cif.got.tgz:77294.got - 2010.06.03 11:33:40.
