data_PCOD9102843
_publ_section_title
;
Structure prediction by ZEFSAII (Michael W. Deem and Ramdas Pophale) SiO2 
 PCOD9102843
Probable space group: P -1
;
_chemical_formula_sum "Si O2"
_cell_formula_units_Z 16
_cell_length_a 9.157382
_cell_length_b 7.393277
_cell_length_c 14.521940
_cell_angle_alpha 80.238790
_cell_angle_beta 134.734828
_cell_angle_gamma 83.901172
_cell_volume 651.604174
_symmetry_space_group_name_H-M "P -1"
_symmetry_group_IT_number 2
_symmetry_cell_setting 'triclinic'
loop_
_space_group_symop_operation_xyz
x,y,z
-x,-y,-z
loop_
_atom_site_type_symbol
_atom_site_label
_atom_site_fract_x
_atom_site_fract_y
_atom_site_fract_z
Si Si1 0.476177 0.298793 0.119290
Si Si2 0.237366 0.908955 0.572987
Si Si3 0.695457 0.090265 0.066087
Si Si4 0.613435 0.314884 0.830721
Si Si5 0.344518 0.227542 0.469014
Si Si6 0.798628 0.491852 0.472799
Si Si7 0.059446 0.285784 0.000065
Si Si8 0.812537 0.971534 0.737946
O O1 0.602607 0.141555 0.264623
O O2 0.618161 0.262860 0.093393
O O3 0.440490 0.497992 0.141497
O O4 0.238516 0.278781 0.004121
O O5 0.244073 0.710619 0.542248
O O6 0.283049 0.064480 0.514388
O O7 0.000000 0.000000 0.500000
O O8 0.959105 0.008396 0.199563
O O9 0.668883 0.147452 0.943219
O O10 0.500000 0.000000 0.000000
O O11 0.404398 0.343395 0.675958
O O12 0.824471 0.285163 0.864598
O O13 0.210538 0.435560 0.433355
O O14 0.259744 0.195585 0.333768
O O15 0.605238 0.159934 0.605081
O O16 0.000000 0.500000 0.500000
O O17 0.145897 0.121881 0.132256
O O18 0.000000 0.500000 0.000000
#
# Coordination Sequence:
#
# PCOD9102843 Si02
#       8
#     2   2   2   2   2   2   2   2
#     4  10  20  38  64  90 122 171 214 270 334 386
#     4  11  21  38  67  97 131 172 220 271 331 399
#     4  11  24  38  63  96 129 170 225 271 332 397
#     4   9  22  39  61  91 131 161 216 278 328 393
#     4  11  23  43  70  94 143 177 220 279 332 412
#     4  11  24  40  65 103 129 175 226 271 338 400
#     4   9  18  39  67  92 123 169 226 266 329 401
#     4  10  23  43  66  97 137 184 214 276 349 384
#
# _framework density 24.554783
#
# number of rings (size 3 to 8) (size 9 to 14) (size 15 to 20)
#    0.000    1.750    2.500    1.125    3.500    2.000 
#    0.000    5.000    2.750    0.000    0.000    0.000 
#    0.000    0.000    0.000    0.000    0.000    0.000 
#
# Total GULP energy -89390.144641 kJ/mol
# GULP energy per Si atom -5586.884040 kJ/mol
# Density = 2.449889 g / cm^3
# Si number density = 24.554783 Si / 1000 Ang^3
#
#
#
# Elastic Constant Matrix: (Units=GPa)
#
#
# Indices 1 2 3 4 5 6 
#
# 1 133.8531 7.6223 30.1376 5.7139 44.3894 -13.0289
# 2 7.6223 99.4972 2.3778 10.8395 6.3834 -17.7184
# 3 30.1376 2.3778 81.3746 9.8709 31.3719 1.9213
# 4 5.7139 10.8395 9.8709 24.6132 -0.2649 -3.8924
# 5 44.3894 6.3834 31.3719 -0.2649 50.0810 2.7655
# 6 -13.0289 -17.7184 1.9213 -3.8924 2.7655 40.8373
#
#
#
# Elastic Compliance Matrix: (Units=1/GPa)
#
#
# Indices 1 2 3 4 5 6 
#
# 1 0.011456 0.000865 -0.000029 -0.002428 -0.010508 0.004512
# 2 0.000865 0.011598 0.001066 -0.004980 -0.003216 0.005001
# 3 -0.000029 0.001066 0.017475 -0.007645 -0.011078 -0.000347
# 4 -0.002428 -0.004980 -0.007645 0.046749 0.007749 0.001355
# 5 -0.010508 -0.003216 -0.011078 0.007749 0.037003 -0.005994
# 6 0.004512 0.005001 -0.000347 0.001355 -0.005994 0.028648
#
#
# Mechanical properties :
#
#
# Convention : Reuss Voigt Hill
#
# Bulk Modulus (GPa) = 22.55579 43.88892 33.22236
# Shear Modulus (GPa) = 30.50607 41.41210 35.95909
#
# Velocity S-wave (km/s) = 3.52855 4.11118 3.83096
# Velocity P-wave (km/s) = 5.08003 6.35991 5.75565
#
# Compressibility (1/GPa) = 0.04433451
#
# Stress axis : x y z
#
# Youngs Moduli (GPa) = 87.29309 86.22003 57.22489
#
# Poissons Ratio (x) = -0.07460 0.00165
# Poissons Ratio (y) = -0.07553 -0.06102
# Poissons Ratio (z) = 0.00252 -0.09195
#
# Static dielectric constant tensor:
#      x y z
#    x 1.970330 -0.056180 0.015110 
#    y -0.056180 2.080380 0.024270 
#    z 0.015110 0.024270 2.009230 
# 
# From -- ./inp_files/492849.got.cif
#   From: 2010.05.17/outbox.cif.g08.bks.cpg/sg2_247_cif.got.tgz:492849.got - 2010.06.03 11:33:40.
