data_PCOD9102382
_publ_section_title
;
Structure prediction by ZEFSAII (Michael W. Deem and Ramdas Pophale) SiO2 
 PCOD9102382
Probable space group: P -1
;
_chemical_formula_sum "Si O2"
_cell_formula_units_Z 15
_cell_length_a 8.692676
_cell_length_b 11.227059
_cell_length_c 8.748410
_cell_angle_alpha 81.484163
_cell_angle_beta 111.440456
_cell_angle_gamma 127.748909
_cell_volume 625.038948
_symmetry_space_group_name_H-M "P -1"
_symmetry_group_IT_number 2
_symmetry_cell_setting 'triclinic'
loop_
_space_group_symop_operation_xyz
x,y,z
-x,-y,-z
loop_
_atom_site_type_symbol
_atom_site_label
_atom_site_fract_x
_atom_site_fract_y
_atom_site_fract_z
Si Si1 0.664003 0.167259 0.709359
Si Si2 0.397645 0.398077 0.630847
Si Si3 0.195189 0.175649 0.035975
Si Si4 0.000000 0.000000 0.500000
Si Si5 0.324967 0.083044 0.351719
Si Si6 0.326730 0.129277 0.775041
Si Si7 0.307554 0.481551 0.014889
Si Si8 0.087581 0.450243 0.671393
O O1 0.514513 0.147283 0.522046
O O2 0.544933 0.164594 0.814519
O O3 0.884128 0.310943 0.708077
O O4 0.668701 0.026017 0.740235
O O5 0.500000 0.500000 0.500000
O O6 0.275486 0.214616 0.609094
O O7 0.594676 0.446696 0.799106
O O8 0.235047 0.417184 0.646130
O O9 0.331248 0.205201 0.229202
O O10 0.150939 0.298037 0.003948
O O11 0.307332 0.184743 0.918630
O O12 0.000000 0.000000 0.000000
O O13 0.118207 0.988146 0.395167
O O14 0.132467 0.965878 0.680292
O O15 0.500000 0.500000 0.000000
O O16 0.223489 0.544150 0.854887
O O17 0.000000 0.500000 0.500000
#
# Coordination Sequence:
#
# PCOD9102382 Si02
#       8
#     2   2   2   1   2   2   2   2
#     4  10  23  41  58  95 137 172 216 282 345 402
#     4  11  24  42  69  98 125 183 236 280 338 413
#     4  12  22  39  68 100 129 177 225 286 340 393
#     4  10  20  38  62  94 124 170 228 262 320 408
#     4  10  22  38  65  91 135 172 219 276 339 401
#     4  11  22  39  64  93 134 174 228 277 334 416
#     4  10  23  43  66  95 136 172 232 281 332 416
#     4  11  22  40  66  92 132 175 216 282 349 396
#
# _framework density 23.998504000000001
#
# number of rings (size 3 to 8) (size 9 to 14) (size 15 to 20)
#    0.000    1.333    4.000    2.400    7.467    0.533 
#    0.000    4.000    0.000    0.000    0.000    0.000 
#    0.000    0.000    0.000    0.000    0.000    0.000 
#
# Total GULP energy -83504.982547 kJ/mol
# GULP energy per Si atom -5566.998836 kJ/mol
# Density = 2.394388 g / cm^3
# Si number density = 23.998504 Si / 1000 Ang^3
#
#
#
# Elastic Constant Matrix: (Units=GPa)
#
#
# Indices 1 2 3 4 5 6 
#
# 1 141.3566 23.5877 25.4308 -0.3089 -5.2141 4.6456
# 2 23.5877 48.1654 10.3134 -1.6297 4.6492 7.1924
# 3 25.4308 10.3134 123.7671 -12.4098 24.7862 -7.3802
# 4 -0.3089 -1.6297 -12.4098 28.8291 -4.7692 0.8747
# 5 -5.2141 4.6492 24.7862 -4.7692 48.0419 -0.2729
# 6 4.6456 7.1924 -7.3802 0.8747 -0.2729 39.2576
#
#
#
# Elastic Compliance Matrix: (Units=1/GPa)
#
#
# Indices 1 2 3 4 5 6 
#
# 1 0.008132 -0.003715 -0.001885 -0.000559 0.002156 -0.000609
# 2 -0.003715 0.023627 -0.000952 0.000653 -0.002157 -0.004098
# 3 -0.001885 -0.000952 0.009998 0.003349 -0.004926 0.002168
# 4 -0.000559 0.000653 0.003349 0.036459 0.001766 -0.000224
# 5 0.002156 -0.002157 -0.004926 0.001766 0.023971 -0.000659
# 6 -0.000609 -0.004098 0.002168 -0.000224 -0.000659 0.026704
#
#
# Mechanical properties :
#
#
# Convention : Reuss Voigt Hill
#
# Bulk Modulus (GPa) = 34.90195 47.99475 41.44835
# Shear Modulus (GPa) = 32.99332 40.15619 36.57476
#
# Velocity S-wave (km/s) = 3.71186 4.09501 3.90813
# Velocity P-wave (km/s) = 5.73982 6.51163 6.13787
#
# Compressibility (1/GPa) = 0.02865169
#
# Stress axis : x y z
#
# Youngs Moduli (GPa) = 122.97616 42.32425 100.01944
#
# Poissons Ratio (x) = 0.15722 0.18858
# Poissons Ratio (y) = 0.45682 0.09527
# Poissons Ratio (z) = 0.23186 0.04031
#
# Static dielectric constant tensor:
#      x y z
#    x 1.756270 -0.243370 -0.095650 
#    y -0.243370 1.533000 -0.200370 
#    z -0.095650 -0.200370 1.944690 
# 
# From -- ./inp_files/169879.got.cif
#   From: 2010.05.17/outbox.cif.g08.bks.cpg/sg2_85_cif.got.tgz:169879.got - 2010.06.03 11:33:40.
