data_PCOD9102984
_publ_section_title
;
Structure prediction by ZEFSAII (Michael W. Deem and Ramdas Pophale) SiO2 
 PCOD9102984
Probable space group: P -1
;
_chemical_formula_sum "Si O2"
_cell_formula_units_Z 14
_cell_length_a 8.314594
_cell_length_b 5.203790
_cell_length_c 19.378683
_cell_angle_alpha 112.163418
_cell_angle_beta 135.725559
_cell_angle_gamma 76.799783
_cell_volume 540.948294
_symmetry_space_group_name_H-M "P -1"
_symmetry_group_IT_number 2
_symmetry_cell_setting 'triclinic'
loop_
_space_group_symop_operation_xyz
x,y,z
-x,-y,-z
loop_
_atom_site_type_symbol
_atom_site_label
_atom_site_fract_x
_atom_site_fract_y
_atom_site_fract_z
Si Si1 0.517287 0.659070 0.628816
Si Si2 0.082991 0.822547 0.571633
Si Si3 0.716576 0.825681 0.571701
Si Si4 0.337329 0.332821 0.874741
Si Si5 0.982785 0.075928 0.922726
Si Si6 0.488169 0.178056 0.084955
Si Si7 0.131235 0.576056 0.196798
O O1 0.702270 0.812174 0.649130
O O2 0.345091 0.488373 0.506293
O O3 0.638931 0.434077 0.689493
O O4 0.361216 0.832050 0.649292
O O5 0.951189 0.913349 0.610171
O O6 0.000000 0.500000 0.500000
O O7 0.000000 0.000000 0.500000
O O8 0.500000 0.000000 0.500000
O O9 0.342354 0.551814 0.836672
O O10 0.082837 0.277531 0.820351
O O11 0.453863 0.050056 0.864689
O O12 0.500000 0.500000 0.000000
O O13 0.829089 0.273116 0.849765
O O14 0.227664 0.252994 0.010404
O O15 0.955669 0.754361 0.857058
O O16 0.000000 0.000000 0.000000
O O17 0.500000 0.000000 0.000000
#
# Coordination Sequence:
#
# PCOD9102984 Si02
#       7
#     2   2   2   2   2   2   2
#     4  10  24  39  65  99 134 169 213 275 323 387
#     4  10  20  38  65  92 128 175 207 255 323 396
#     4  10  20  41  68  98 125 172 221 250 327 406
#     4  10  16  32  59  82 104 154 208 239 296 367
#     4  12  24  39  60  88 120 167 212 261 316 380
#     4  10  16  34  58  80 104 152 209 239 297 372
#     4  12  23  39  63  90 126 163 211 265 320 366
#
# _framework density 25.880476999999999
#
# number of rings (size 3 to 8) (size 9 to 14) (size 15 to 20)
#    0.000    1.429    7.143    0.429    2.000    0.000 
#    0.000    2.857    0.000    0.000    0.000    0.000 
#    0.000    0.000    0.000    0.000    0.000    0.000 
#
# Total GULP energy -78044.512599 kJ/mol
# GULP energy per Si atom -5574.608043 kJ/mol
# Density = 2.582157 g / cm^3
# Si number density = 25.880477 Si / 1000 Ang^3
#
#
#
# Elastic Constant Matrix: (Units=GPa)
#
#
# Indices 1 2 3 4 5 6 
#
# 1 163.1086 22.5218 60.6535 -20.3557 -18.3921 14.2041
# 2 22.5218 152.7888 39.6476 -35.2538 -11.8451 26.5926
# 3 60.6535 39.6476 83.4817 -30.6806 -10.9597 -4.2778
# 4 -20.3557 -35.2538 -30.6806 53.2725 8.5571 -2.2507
# 5 -18.3921 -11.8451 -10.9597 8.5571 28.9481 -5.8528
# 6 14.2041 26.5926 -4.2778 -2.2507 -5.8528 41.4449
#
#
#
# Elastic Compliance Matrix: (Units=1/GPa)
#
#
# Indices 1 2 3 4 5 6 
#
# 1 0.009409 0.001498 -0.007554 -0.000428 0.002933 -0.004575
# 2 0.001498 0.009648 -0.004472 0.003989 0.000641 -0.006859
# 3 -0.007554 -0.004472 0.022986 0.007498 0.001567 0.008459
# 4 -0.000428 0.003989 0.007498 0.026125 -0.003673 -0.000739
# 5 0.002933 0.000641 0.001567 -0.003673 0.039174 0.004078
# 6 -0.004575 -0.006859 0.008459 -0.000739 0.004078 0.031506
#
#
# Mechanical properties :
#
#
# Convention : Reuss Voigt Hill
#
# Bulk Modulus (GPa) = 47.64925 71.66943 59.65934
# Shear Modulus (GPa) = 29.95825 43.17017 36.56421
#
# Velocity S-wave (km/s) = 3.40599 4.08862 3.76282
# Velocity P-wave (km/s) = 5.82399 7.07401 6.47922
#
# Compressibility (1/GPa) = 0.02098669
#
# Stress axis : x y z
#
# Youngs Moduli (GPa) = 106.28429 103.64313 43.50521
#
# Poissons Ratio (x) = -0.15527 0.32865
# Poissons Ratio (y) = -0.15922 0.19455
# Poissons Ratio (z) = 0.80290 0.46349
#
# Static dielectric constant tensor:
#      x y z
#    x 1.953710 0.231920 -0.155550 
#    y 0.231920 2.043920 0.042340 
#    z -0.155550 0.042340 2.159090 
# 
# From -- ./inp_files/552853.got.cif
#   From: 2010.05.17/outbox.cif.g08.bks.cpg/sg2_277_cif.got.tgz:552853.got - 2010.06.03 11:33:40.
