data_PCOD9102232
_publ_section_title
;
Structure prediction by ZEFSAII (Michael W. Deem and Ramdas Pophale) SiO2 
 PCOD9102232
Probable space group: P -1
;
_chemical_formula_sum "Si O2"
_cell_formula_units_Z 12
_cell_length_a 4.985757
_cell_length_b 19.926572
_cell_length_c 9.551220
_cell_angle_alpha 29.728839
_cell_angle_beta 71.337024
_cell_angle_gamma 67.169427
_cell_volume 433.394633
_symmetry_space_group_name_H-M "P -1"
_symmetry_group_IT_number 2
_symmetry_cell_setting 'triclinic'
loop_
_space_group_symop_operation_xyz
x,y,z
-x,-y,-z
loop_
_atom_site_type_symbol
_atom_site_label
_atom_site_fract_x
_atom_site_fract_y
_atom_site_fract_z
Si Si1 0.279429 0.182977 0.186644
Si Si2 0.500915 0.830930 0.385401
Si Si3 0.841597 0.984177 0.232793
Si Si4 0.096232 0.233406 0.818977
Si Si5 0.722402 0.366026 0.855297
Si Si6 0.332939 0.447571 0.998876
O O1 0.550701 0.249343 0.049409
O O2 0.259518 0.061435 0.516877
O O3 0.980526 0.304470 0.033588
O O4 0.754421 0.845364 0.922113
O O5 0.156084 0.879115 0.343986
O O6 0.589763 0.719086 0.697524
O O7 0.633155 0.957059 0.192470
O O8 0.670726 0.757637 0.353917
O O9 0.904502 0.136153 0.958192
O O10 0.905250 0.375101 0.665685
O O11 0.477563 0.479062 0.771355
O O12 0.500000 0.500000 0.000000
O O13 0.000000 0.500000 0.000000
#
# Coordination Sequence:
#
# PCOD9102232 Si02
#       6
#     2   2   2   2   2   2
#     4  10  20  38  62  88 132 162 212 239 303 368
#     4  12  25  42  62  99 130 162 217 265 303 376
#     4  12  22  40  65  96 134 176 205 240 309 390
#     4  10  26  37  67  94 141 167 197 253 325 371
#     4  10  22  41  62  93 127 159 216 256 305 380
#     4  12  24  45  70  88 116 168 221 268 319 365
#
# _framework density 27.688389999999998
#
# number of rings (size 3 to 8) (size 9 to 14) (size 15 to 20)
#    1.000    0.000    3.333    3.500    4.667    0.667 
#    0.000    1.667    0.000    0.000    0.000    0.000 
#    0.000    0.000    0.000    0.000    0.000    0.000 
#
# Total GULP energy -67192.608873 kJ/mol
# GULP energy per Si atom -5599.384073 kJ/mol
# Density = 2.762537 g / cm^3
# Si number density = 27.688390 Si / 1000 Ang^3
#
#
#
# Elastic Constant Matrix: (Units=GPa)
#
#
# Indices 1 2 3 4 5 6 
#
# 1 144.7205 41.2719 8.1058 7.3977 -3.6739 -9.8087
# 2 41.2719 257.7914 14.4850 53.4718 -3.7335 -14.1874
# 3 8.1058 14.4850 48.6729 13.6226 9.9885 7.2782
# 4 7.3977 53.4718 13.6226 52.6947 11.0956 -6.1895
# 5 -3.6739 -3.7335 9.9885 11.0956 38.6204 1.8224
# 6 -9.8087 -14.1874 7.2782 -6.1895 1.8224 57.9222
#
#
#
# Elastic Compliance Matrix: (Units=1/GPa)
#
#
# Indices 1 2 3 4 5 6 
#
# 1 0.007381 -0.001118 -0.001346 0.000422 0.000766 0.001166
# 2 -0.001118 0.005269 -0.000343 -0.005473 0.002041 0.000495
# 3 -0.001346 -0.000343 0.023804 -0.005064 -0.004688 -0.003697
# 4 0.000422 -0.005473 -0.005064 0.027602 -0.007229 0.002544
# 5 0.000766 0.002041 -0.004688 -0.007229 0.029475 -0.000481
# 6 0.001166 0.000495 -0.003697 0.002544 -0.000481 0.018335
#
#
# Mechanical properties :
#
#
# Convention : Reuss Voigt Hill
#
# Bulk Modulus (GPa) = 32.42625 64.32332 48.37479
# Shear Modulus (GPa) = 39.13549 55.66894 47.40222
#
# Velocity S-wave (km/s) = 3.76363 4.48878 4.14211
# Velocity P-wave (km/s) = 5.53382 7.08146 6.35493
#
# Compressibility (1/GPa) = 0.03083921
#
# Stress axis : x y z
#
# Youngs Moduli (GPa) = 135.48099 189.77193 42.01022
#
# Poissons Ratio (x) = 0.21224 0.05655
# Poissons Ratio (y) = 0.15152 0.01441
# Poissons Ratio (z) = 0.18238 0.06509
#
# Static dielectric constant tensor:
#      x y z
#    x 2.079790 -0.086270 0.019410 
#    y -0.086270 2.255540 -0.032210 
#    z 0.019410 -0.032210 2.229730 
# 
# From -- ./inp_files/370593.got.cif
#   From: 2010.05.17/outbox.cif.g08.bks.cpg/sg2_186_cif.got.tgz:370593.got - 2010.06.03 11:33:40.
