data_PCOD9102544
_publ_section_title
;
Structure prediction by ZEFSAII (Michael W. Deem and Ramdas Pophale) SiO2 
 PCOD9102544
Probable space group: P -1
;
_chemical_formula_sum "Si O2"
_cell_formula_units_Z 14
_cell_length_a 12.544226
_cell_length_b 15.050387
_cell_length_c 11.662738
_cell_angle_alpha 52.923512
_cell_angle_beta 40.779677
_cell_angle_gamma 27.903913
_cell_volume 657.017600
_symmetry_space_group_name_H-M "P -1"
_symmetry_group_IT_number 2
_symmetry_cell_setting 'triclinic'
loop_
_space_group_symop_operation_xyz
x,y,z
-x,-y,-z
loop_
_atom_site_type_symbol
_atom_site_label
_atom_site_fract_x
_atom_site_fract_y
_atom_site_fract_z
Si Si1 0.599124 0.268176 0.530887
Si Si2 0.872754 0.241435 0.710441
Si Si3 0.188881 0.608855 0.985143
Si Si4 0.890580 0.886084 0.640377
Si Si5 0.966813 0.388065 0.137072
Si Si6 0.251619 0.820133 0.786834
Si Si7 0.836751 0.485325 0.689894
O O1 0.868560 0.188730 0.418450
O O2 0.317375 0.468335 0.665989
O O3 0.601670 0.269576 0.389881
O O4 0.643225 0.115853 0.653214
O O5 0.533540 0.412474 0.851660
O O6 0.982997 0.194815 0.527335
O O7 0.922612 0.325346 0.676514
O O8 0.037352 0.043094 0.782639
O O9 0.069148 0.645837 0.931180
O O10 0.107998 0.780207 0.951598
O O11 0.101545 0.572157 0.183069
O O12 0.811872 0.811066 0.816519
O O13 0.000000 0.500000 0.000000
O O14 0.501661 0.690376 0.776911
O O15 0.000000 0.500000 0.500000
#
# Coordination Sequence:
#
# PCOD9102544 Si02
#       7
#     2   2   2   2   2   2   2
#     4  10  20  38  63  90 117 151 197 242 288 352
#     4  10  21  41  67  87 113 156 202 246 289 341
#     4  11  23  39  60  90 116 156 203 245 281 351
#     4  10  20  38  63  90 117 151 197 242 288 352
#     4  12  24  35  60  90 128 160 184 236 307 350
#     4  10  21  41  67  87 113 156 202 246 289 341
#     4  11  26  41  59  87 125 152 196 245 297 354
#
# _framework density 21.308409000000001
#
# number of rings (size 3 to 8) (size 9 to 14) (size 15 to 20)
#    0.000    1.429    2.857    3.857    4.000    3.429 
#    0.000    0.000    0.000    0.000    0.000    0.000 
#    0.000    0.000    0.000    0.000    0.000    0.000 
#
# Total GULP energy -78289.929235 kJ/mol
# GULP energy per Si atom -5592.137802 kJ/mol
# Density = 2.125991 g / cm^3
# Si number density = 21.308409 Si / 1000 Ang^3
#
#
#
# Elastic Constant Matrix: (Units=GPa)
#
#
# Indices 1 2 3 4 5 6 
#
# 1 30.2997 15.4448 13.2042 -3.9803 12.6009 8.2196
# 2 15.4448 111.0347 40.1091 -42.2744 6.7217 15.8486
# 3 13.2042 40.1091 91.5538 -40.3347 6.8474 9.7560
# 4 -3.9803 -42.2744 -40.3347 43.3514 4.2269 0.8245
# 5 12.6009 6.7217 6.8474 4.2269 34.7080 -8.5453
# 6 8.2196 15.8486 9.7560 0.8245 -8.5453 20.8118
#
#
#
# Elastic Compliance Matrix: (Units=1/GPa)
#
#
# Indices 1 2 3 4 5 6 
#
# 1 0.059404 0.008509 0.007414 0.025553 -0.040344 -0.050994
# 2 0.008509 0.026411 0.011082 0.040085 -0.025276 -0.040635
# 3 0.007414 0.011082 0.029163 0.041735 -0.024747 -0.036853
# 4 0.025553 0.040085 0.041735 0.110968 -0.060837 -0.089558
# 5 -0.040344 -0.025276 -0.024747 -0.060837 0.080939 0.082427
# 6 -0.050994 -0.040635 -0.036853 -0.089558 0.082427 0.153802
#
#
# Mechanical properties :
#
#
# Convention : Reuss Voigt Hill
#
# Bulk Modulus (GPa) = 5.91760 41.15604 23.53682
# Shear Modulus (GPa) = 10.79898 30.71625 20.75762
#
# Velocity S-wave (km/s) = 2.25365 3.80084 3.12453
# Velocity P-wave (km/s) = 3.09113 6.21436 4.90782
#
# Compressibility (1/GPa) = 0.16898746
#
# Stress axis : x y z
#
# Youngs Moduli (GPa) = 16.83381 37.86305 34.29041
#
# Poissons Ratio (x) = -0.32216 -0.25422
# Poissons Ratio (y) = -0.14323 -0.38002
# Poissons Ratio (z) = -0.12480 -0.41961
#
# Static dielectric constant tensor:
#      x y z
#    x 1.739870 0.018760 0.000480 
#    y 0.018760 1.776690 -0.012620 
#    z 0.000480 -0.012620 1.782060 
# 
# From -- ./inp_files/251293.got.cif
#   From: 2010.05.17/outbox.cif.g08.bks.cpg/sg2_126_cif.got.tgz:251293.got - 2010.06.03 11:33:40.
