data_PCOD9102987
_publ_section_title
;
Structure prediction by ZEFSAII (Michael W. Deem and Ramdas Pophale) SiO2 
 PCOD9102987
Probable space group: P -1
;
_chemical_formula_sum "Si O2"
_cell_formula_units_Z 14
_cell_length_a 30.567472
_cell_length_b 29.856350
_cell_length_c 8.690852
_cell_angle_alpha 29.295525
_cell_angle_beta 29.407868
_cell_angle_gamma 9.932839
_cell_volume 662.524607
_symmetry_space_group_name_H-M "P -1"
_symmetry_group_IT_number 2
_symmetry_cell_setting 'triclinic'
loop_
_space_group_symop_operation_xyz
x,y,z
-x,-y,-z
loop_
_atom_site_type_symbol
_atom_site_label
_atom_site_fract_x
_atom_site_fract_y
_atom_site_fract_z
Si Si1 0.224489 0.239622 0.686574
Si Si2 0.263667 0.312373 0.654737
Si Si3 0.695408 0.023297 0.633092
Si Si4 0.032067 0.897197 0.353494
Si Si5 0.536260 0.453697 0.342777
Si Si6 0.201631 0.620780 0.389811
Si Si7 0.244555 0.141220 0.372792
O O1 0.203005 0.308800 0.708195
O O2 0.000000 0.500000 0.500000
O O3 0.500000 0.000000 0.500000
O O4 0.219574 0.136037 0.029069
O O5 0.049910 0.594230 0.486828
O O6 0.545158 0.082704 0.474119
O O7 0.252459 0.245916 0.023431
O O8 0.674765 0.989749 0.634848
O O9 0.940199 0.854514 0.394593
O O10 0.418833 0.332891 0.587148
O O11 0.268564 0.691909 0.359141
O O12 0.111005 0.731987 0.507801
O O13 0.761343 0.163733 0.475562
O O14 0.000000 0.000000 0.000000
O O15 0.500000 0.500000 0.500000
O O16 0.649669 0.438192 0.969727
#
# Coordination Sequence:
#
# PCOD9102987 Si02
#       7
#     2   2   2   2   2   2   2
#     4  11  22  37  58  82 113 154 209 248 298 350
#     4   9  17  31  53  75 100 139 185 247 274 339
#     4  11  22  36  61  87 115 158 199 252 298 357
#     4  10  20  38  64  95 120 167 211 239 290 382
#     4  11  22  39  67  96 126 160 205 252 302 360
#     4  11  21  38  63  90 126 159 206 246 299 368
#     4   9  17  31  52  79 102 133 193 232 289 332
#
# _framework density 21.13129
#
# number of rings (size 3 to 8) (size 9 to 14) (size 15 to 20)
#    0.000    1.714    0.000    7.286    0.000    4.571 
#    0.000    0.000   31.429    0.000    0.000    0.000 
#    0.000    0.000    0.000    0.000    0.000    0.000 
#
# Total GULP energy -78012.252869 kJ/mol
# GULP energy per Si atom -5572.303776 kJ/mol
# Density = 2.108319 g / cm^3
# Si number density = 21.131290 Si / 1000 Ang^3
#
#
#
# Elastic Constant Matrix: (Units=GPa)
#
#
# Indices 1 2 3 4 5 6 
#
# 1 114.4705 67.0985 10.9802 -9.6209 0.3934 9.8164
# 2 67.0985 200.6254 8.8121 -19.4921 1.5516 8.9560
# 3 10.9802 8.8121 14.5555 -4.1441 0.1971 6.2895
# 4 -9.6209 -19.4921 -4.1441 24.4270 3.7725 -5.7312
# 5 0.3934 1.5516 0.1971 3.7725 22.5803 0.7405
# 6 9.8164 8.9560 6.2895 -5.7312 0.7405 55.4214
#
#
#
# Elastic Compliance Matrix: (Units=1/GPa)
#
#
# Indices 1 2 3 4 5 6 
#
# 1 0.011468 -0.003485 -0.006078 0.000531 0.000028 -0.000724
# 2 -0.003485 0.006554 -0.000192 0.003989 -0.001055 0.000007
# 3 -0.006078 -0.000192 0.079116 0.009568 -0.001945 -0.006856
# 4 0.000531 0.003989 0.009568 0.048030 -0.008498 0.003256
# 5 0.000028 -0.001055 -0.001945 -0.008498 0.045831 -0.001105
# 6 -0.000724 0.000007 -0.006856 0.003256 -0.001105 0.019300
#
#
# Mechanical properties :
#
#
# Convention : Reuss Voigt Hill
#
# Bulk Modulus (GPa) = 12.88171 55.93699 34.40935
# Shear Modulus (GPa) = 19.55527 36.66978 28.11253
#
# Velocity S-wave (km/s) = 3.04537 4.17025 3.65139
# Velocity P-wave (km/s) = 4.29825 7.05100 5.83916
#
# Compressibility (1/GPa) = 0.07762947
#
# Stress axis : x y z
#
# Youngs Moduli (GPa) = 87.19778 152.58415 12.63959
#
# Poissons Ratio (x) = 0.53174 0.07682
# Poissons Ratio (y) = 0.30387 0.00242
# Poissons Ratio (z) = 0.52999 0.02924
#
# Static dielectric constant tensor:
#      x y z
#    x 1.691330 -0.036390 0.015720 
#    y -0.036390 1.978100 0.149220 
#    z 0.015720 0.149220 2.011220 
# 
# From -- ./inp_files/359095.got.cif
#   From: 2010.05.17/outbox.cif.g08.bks.cpg/sg2_180_cif.got.tgz:359095.got - 2010.06.03 11:33:40.
