data_PCOD9102540
_publ_section_title
;
Structure prediction by ZEFSAII (Michael W. Deem and Ramdas Pophale) SiO2 
 PCOD9102540
Probable space group: P -1
;
_chemical_formula_sum "Si O2"
_cell_formula_units_Z 14
_cell_length_a 5.494174
_cell_length_b 22.944358
_cell_length_c 5.352533
_cell_angle_alpha 102.789809
_cell_angle_beta 86.022628
_cell_angle_gamma 56.317781
_cell_volume 531.970794
_symmetry_space_group_name_H-M "P -1"
_symmetry_group_IT_number 2
_symmetry_cell_setting 'triclinic'
loop_
_space_group_symop_operation_xyz
x,y,z
-x,-y,-z
loop_
_atom_site_type_symbol
_atom_site_label
_atom_site_fract_x
_atom_site_fract_y
_atom_site_fract_z
Si Si1 0.744040 0.751891 0.944652
Si Si2 0.735988 0.710114 0.404956
Si Si3 0.818635 0.163582 0.643652
Si Si4 0.385185 0.549592 0.799728
Si Si5 0.328920 0.116048 0.200678
Si Si6 0.230252 0.023762 0.737793
Si Si7 0.788719 0.585385 0.008989
O O1 0.886869 0.700035 0.646250
O O2 0.711921 0.824427 0.931120
O O3 0.899592 0.718355 0.167852
O O4 0.401731 0.778210 0.067918
O O5 0.427010 0.793183 0.517226
O O6 0.685050 0.647473 0.287624
O O7 0.111525 0.152175 0.492068
O O8 0.930240 0.083190 0.661135
O O9 0.500000 0.500000 0.500000
O O10 0.531363 0.593631 0.866278
O O11 0.030811 0.590310 0.853431
O O12 0.500000 0.500000 0.000000
O O13 0.665614 0.052838 0.214369
O O14 0.231926 0.071701 0.007153
O O15 0.500000 0.000000 0.500000
O O16 0.000000 0.500000 0.000000
#
# Coordination Sequence:
#
# PCOD9102540 Si02
#       7
#     2   2   2   2   2   2   2
#     4  10  24  41  62  90 134 171 231 280 354 425
#     4  10  24  43  61  98 133 177 233 289 350 437
#     4   9  21  38  61  87 133 164 227 277 350 411
#     4  10  22  41  69 104 140 181 227 293 356 426
#     4  10  20  38  63  89 130 176 226 290 355 410
#     4   9  19  35  60  94 124 171 232 285 350 420
#     4  10  23  46  75 106 146 189 244 300 367 432
#
# _framework density 26.317233000000002
#
# number of rings (size 3 to 8) (size 9 to 14) (size 15 to 20)
#    0.857    1.429    0.000    1.286    4.000    6.286 
#    0.000    8.571    0.000    0.000    0.000    0.000 
#    0.000    0.000    0.000    0.000    0.000    0.000 
#
# Total GULP energy -78035.563748 kJ/mol
# GULP energy per Si atom -5573.968839 kJ/mol
# Density = 2.625733 g / cm^3
# Si number density = 26.317233 Si / 1000 Ang^3
#
#
#
# Elastic Constant Matrix: (Units=GPa)
#
#
# Indices 1 2 3 4 5 6 
#
# 1 116.2719 5.9926 40.6100 11.5253 3.8709 6.2233
# 2 5.9926 132.8065 27.1601 -26.1256 3.6478 17.5670
# 3 40.6100 27.1601 178.8761 -10.0817 11.5770 17.8024
# 4 11.5253 -26.1256 -10.0817 47.8509 0.8392 0.7546
# 5 3.8709 3.6478 11.5770 0.8392 38.1623 8.1512
# 6 6.2233 17.5670 17.8024 0.7546 8.1512 35.5844
#
#
#
# Elastic Compliance Matrix: (Units=1/GPa)
#
#
# Indices 1 2 3 4 5 6 
#
# 1 0.009750 -0.000561 -0.002277 -0.003129 -0.000135 -0.000192
# 2 -0.000561 0.009249 -0.000567 0.005131 0.000157 -0.004329
# 3 -0.002277 -0.000567 0.006606 0.001690 -0.001248 -0.002377
# 4 -0.003129 0.005131 0.001690 0.024870 -0.000542 -0.003234
# 5 -0.000135 0.000157 -0.001248 -0.000542 0.027830 -0.005793
# 6 -0.000192 -0.004329 -0.002377 -0.003234 -0.005793 0.032857
#
#
# Mechanical properties :
#
#
# Convention : Reuss Voigt Hill
#
# Bulk Modulus (GPa) = 53.20588 63.94223 58.57405
# Shear Modulus (GPa) = 40.24610 47.93230 44.08920
#
# Velocity S-wave (km/s) = 3.91483 4.27233 4.09748
# Velocity P-wave (km/s) = 6.37930 6.97757 6.68514
#
# Compressibility (1/GPa) = 0.01879492
#
# Stress axis : x y z
#
# Youngs Moduli (GPa) = 102.56906 108.12453 151.37648
#
# Poissons Ratio (x) = 0.06062 0.34465
# Poissons Ratio (y) = 0.05751 0.08586
# Poissons Ratio (z) = 0.23353 0.06132
#
# Static dielectric constant tensor:
#      x y z
#    x 2.138280 0.005550 0.031230 
#    y 0.005550 2.174810 0.045930 
#    z 0.031230 0.045930 2.124540 
# 
# From -- ./inp_files/11266.got.cif
#   From: 2010.05.17/outbox.cif.g08.bks.cpg/sg2_6_cif.got.tgz:11266.got - 2010.06.03 11:33:40.
