data_PCOD9102577
_publ_section_title
;
Structure prediction by ZEFSAII (Michael W. Deem and Ramdas Pophale) SiO2 
 PCOD9102577
Probable space group: P -1
;
_chemical_formula_sum "Si O2"
_cell_formula_units_Z 14
_cell_length_a 7.860968
_cell_length_b 8.636436
_cell_length_c 16.264709
_cell_angle_alpha 80.832439
_cell_angle_beta 144.601237
_cell_angle_gamma 96.194541
_cell_volume 631.000005
_symmetry_space_group_name_H-M "P -1"
_symmetry_group_IT_number 2
_symmetry_cell_setting 'triclinic'
loop_
_space_group_symop_operation_xyz
x,y,z
-x,-y,-z
loop_
_atom_site_type_symbol
_atom_site_label
_atom_site_fract_x
_atom_site_fract_y
_atom_site_fract_z
Si Si1 0.306672 0.309247 0.189881
Si Si2 0.683557 0.412676 0.953279
Si Si3 0.166221 0.336987 0.875498
Si Si4 0.388089 0.836736 0.363110
Si Si5 0.689067 0.995828 0.330000
Si Si6 0.802111 0.813538 0.676862
Si Si7 0.577374 0.085927 0.106718
O O1 0.379657 0.467458 0.157317
O O2 0.515721 0.164318 0.255350
O O3 0.338643 0.298274 0.302135
O O4 0.950807 0.293223 0.040981
O O5 0.392181 0.352982 0.886967
O O6 0.824412 0.516276 0.072891
O O7 0.855238 0.290898 0.723087
O O8 0.286594 0.194981 0.993874
O O9 0.653102 0.794394 0.532348
O O10 0.506481 0.868384 0.316314
O O11 0.259393 0.006772 0.330466
O O12 0.686766 0.973459 0.233131
O O13 0.000000 0.000000 0.500000
O O14 0.152180 0.799773 0.808502
O O15 0.500000 0.000000 0.000000
#
# Coordination Sequence:
#
# PCOD9102577 Si02
#       7
#     2   2   2   2   2   2   2
#     4  10  21  39  67  89 124 169 214 259 325 373
#     4  10  22  40  64  91 128 170 215 268 304 380
#     4  11  22  40  64  94 124 170 222 256 318 384
#     4  10  22  39  63  93 130 165 208 266 331 385
#     4  11  23  41  67  95 129 169 211 271 334 383
#     4  10  20  38  63  91 127 166 204 271 330 377
#     4  12  22  37  64  98 127 164 212 273 324 377
#
# _framework density 22.187003000000001
#
# number of rings (size 3 to 8) (size 9 to 14) (size 15 to 20)
#    0.000    1.429    5.714    0.000    0.000    1.714 
#    0.000    1.429    0.000    0.000    0.000    0.000 
#    0.000    0.000    0.000    0.000    0.000    0.000 
#
# Total GULP energy -78162.969922 kJ/mol
# GULP energy per Si atom -5583.069280 kJ/mol
# Density = 2.213650 g / cm^3
# Si number density = 22.187003 Si / 1000 Ang^3
#
#
#
# Elastic Constant Matrix: (Units=GPa)
#
#
# Indices 1 2 3 4 5 6 
#
# 1 106.4772 24.8650 46.8405 1.1873 -18.0816 27.6114
# 2 24.8650 57.9453 41.4370 -0.6924 -4.1379 6.7335
# 3 46.8405 41.4370 130.7286 8.8603 -11.6524 8.0900
# 4 1.1873 -0.6924 8.8603 36.8062 8.1241 4.9516
# 5 -18.0816 -4.1379 -11.6524 8.1241 44.4273 -11.9791
# 6 27.6114 6.7335 8.0900 4.9516 -11.9791 38.1241
#
#
#
# Elastic Compliance Matrix: (Units=1/GPa)
#
#
# Indices 1 2 3 4 5 6 
#
# 1 0.014090 -0.002253 -0.003697 0.001084 0.002061 -0.008516
# 2 -0.002253 0.023191 -0.006749 0.002722 -0.001528 -0.001866
# 3 -0.003697 -0.006749 0.011393 -0.003591 0.002216 0.002615
# 4 0.001084 0.002722 -0.003591 0.030685 -0.007723 -0.006916
# 5 0.002061 -0.001528 0.002216 -0.007723 0.027328 0.007897
# 6 -0.008516 -0.001866 0.002615 -0.006916 0.007897 0.035552
#
#
# Mechanical properties :
#
#
# Convention : Reuss Voigt Hill
#
# Bulk Modulus (GPa) = 42.96289 57.93735 50.45012
# Shear Modulus (GPa) = 28.50709 36.00543 32.25626
#
# Velocity S-wave (km/s) = 3.58838 4.03279 3.81706
# Velocity P-wave (km/s) = 6.04770 6.91769 6.49727
#
# Compressibility (1/GPa) = 0.02327590
#
# Stress axis : x y z
#
# Youngs Moduli (GPa) = 70.97011 43.12088 87.77698
#
# Poissons Ratio (x) = 0.09714 0.32455
# Poissons Ratio (y) = 0.15987 0.59239
# Poissons Ratio (z) = 0.26241 0.29101
#
# Static dielectric constant tensor:
#      x y z
#    x 1.927080 -0.027610 -0.022040 
#    y -0.027610 1.893310 -0.037050 
#    z -0.022040 -0.037050 1.788530 
# 
# From -- ./inp_files/218324.got.cif
#   From: 2010.05.17/outbox.cif.g08.bks.cpg/sg2_110_cif.got.tgz:218324.got - 2010.06.03 11:33:40.
