data_PCOD9102679
_publ_section_title
;
Structure prediction by ZEFSAII (Michael W. Deem and Ramdas Pophale) SiO2 
 PCOD9102679
Probable space group: P -1
;
_chemical_formula_sum "Si O2"
_cell_formula_units_Z 16
_cell_length_a 19.064213
_cell_length_b 9.092649
_cell_length_c 12.262414
_cell_angle_alpha 107.482183
_cell_angle_beta 135.842812
_cell_angle_gamma 37.154837
_cell_volume 683.424991
_symmetry_space_group_name_H-M "P -1"
_symmetry_group_IT_number 2
_symmetry_cell_setting 'triclinic'
loop_
_space_group_symop_operation_xyz
x,y,z
-x,-y,-z
loop_
_atom_site_type_symbol
_atom_site_label
_atom_site_fract_x
_atom_site_fract_y
_atom_site_fract_z
Si Si1 0.563778 0.283834 0.676924
Si Si2 0.785613 0.517892 0.994819
Si Si3 0.982294 0.340001 0.944226
Si Si4 0.404800 0.824917 0.550608
Si Si5 0.770369 0.474954 0.532980
Si Si6 0.594695 0.831844 0.200663
Si Si7 0.040278 0.826559 0.663194
Si Si8 0.805403 0.846797 0.406561
O O1 0.439156 0.599695 0.568118
O O2 0.609990 0.128833 0.582869
O O3 0.427620 0.367229 0.625056
O O4 0.789161 0.029959 0.913469
O O5 0.607296 0.640849 0.779809
O O6 0.915438 0.381898 0.001060
O O7 0.651101 0.839797 0.969869
O O8 0.913395 0.266641 0.178027
O O9 0.830824 0.478931 0.713061
O O10 0.000000 0.500000 0.000000
O O11 0.207592 0.130326 0.472002
O O12 0.701849 0.678498 0.405464
O O13 0.955398 0.112732 0.620036
O O14 0.744427 0.510679 0.232108
O O15 0.625688 0.960153 0.206756
O O16 0.852567 0.959297 0.448633
O O17 0.000000 0.500000 0.500000
#
# Coordination Sequence:
#
# PCOD9102679 Si02
#       8
#     2   2   2   2   2   2   2   2
#     4  11  23  40  65  94 136 168 216 273 336 390
#     4  11  23  40  69  96 134 173 231 272 331 401
#     4  12  28  41  65 101 136 176 221 275 342 407
#     4  10  20  38  63  95 127 168 213 276 324 385
#     4  12  25  44  69  99 139 177 218 277 347 400
#     4  10  24  42  66  95 135 178 219 279 338 391
#     4  11  22  42  69  97 128 176 233 274 326 401
#     4   9  19  37  62  90 122 170 221 263 315 385
#
# _framework density 23.411496
#
# number of rings (size 3 to 8) (size 9 to 14) (size 15 to 20)
#    0.000    1.250    2.500    3.000    7.000    2.000 
#    0.000    0.000    0.000    3.000    0.000    0.000 
#    0.000    0.000    0.000    0.000    0.000    0.000 
#
# Total GULP energy -89259.621861 kJ/mol
# GULP energy per Si atom -5578.726366 kJ/mol
# Density = 2.335821 g / cm^3
# Si number density = 23.411496 Si / 1000 Ang^3
#
#
#
# Elastic Constant Matrix: (Units=GPa)
#
#
# Indices 1 2 3 4 5 6 
#
# 1 67.7558 26.2657 27.0764 -5.8578 4.8393 -9.2458
# 2 26.2657 93.4496 10.2618 -8.1536 0.1764 -6.1414
# 3 27.0764 10.2618 69.2214 -14.9706 -4.8155 -6.6431
# 4 -5.8578 -8.1536 -14.9706 29.8682 -1.9691 -2.0977
# 5 4.8393 0.1764 -4.8155 -1.9691 38.7210 -5.3993
# 6 -9.2458 -6.1414 -6.6431 -2.0977 -5.3993 40.7236
#
#
#
# Elastic Compliance Matrix: (Units=1/GPa)
#
#
# Indices 1 2 3 4 5 6 
#
# 1 0.019963 -0.004755 -0.007362 -0.001130 -0.003148 0.002139
# 2 -0.004755 0.012281 0.000871 0.003004 0.000966 0.001198
# 3 -0.007362 0.000871 0.019729 0.009150 0.004213 0.002708
# 4 -0.001130 0.003004 0.009150 0.039215 0.003848 0.004219
# 5 -0.003148 0.000966 0.004213 0.003848 0.027487 0.003961
# 6 0.002139 0.001198 0.002708 0.004219 0.003961 0.026406
#
#
# Mechanical properties :
#
#
# Convention : Reuss Voigt Hill
#
# Bulk Modulus (GPa) = 33.91930 39.73716 36.82823
# Shear Modulus (GPa) = 28.18508 32.98409 30.58458
#
# Velocity S-wave (km/s) = 3.47349 3.75758 3.61833
# Velocity P-wave (km/s) = 5.53232 5.98633 5.76380
#
# Compressibility (1/GPa) = 0.02948174
#
# Stress axis : x y z
#
# Youngs Moduli (GPa) = 50.09275 81.42868 50.68714
#
# Poissons Ratio (x) = 0.38716 0.37316
# Poissons Ratio (y) = 0.23817 -0.04416
# Poissons Ratio (z) = 0.36878 -0.07094
#
# Static dielectric constant tensor:
#      x y z
#    x 1.861160 0.002530 0.045330 
#    y 0.002530 1.969770 0.048050 
#    z 0.045330 0.048050 1.942380 
# 
# From -- ./inp_files/403246.got.cif
#   From: 2010.05.17/outbox.cif.g08.bks.cpg/sg2_202_cif.got.tgz:403246.got - 2010.06.03 11:33:40.
