data_PCOD9102802
_publ_section_title
;
Structure prediction by ZEFSAII (Michael W. Deem and Ramdas Pophale) SiO2 
 PCOD9102802
Probable space group: P -1
;
_chemical_formula_sum "Si O2"
_cell_formula_units_Z 16
_cell_length_a 14.114546
_cell_length_b 11.684911
_cell_length_c 14.984040
_cell_angle_alpha 28.070132
_cell_angle_beta 132.005829
_cell_angle_gamma 144.383798
_cell_volume 666.680276
_symmetry_space_group_name_H-M "P -1"
_symmetry_group_IT_number 2
_symmetry_cell_setting 'triclinic'
loop_
_space_group_symop_operation_xyz
x,y,z
-x,-y,-z
loop_
_atom_site_type_symbol
_atom_site_label
_atom_site_fract_x
_atom_site_fract_y
_atom_site_fract_z
Si Si1 0.855114 0.683902 0.239651
Si Si2 0.536707 0.417686 0.673050
Si Si3 0.712027 0.146786 0.972887
Si Si4 0.369326 0.983336 0.369060
Si Si5 0.267933 0.218650 0.293884
Si Si6 0.031160 0.544626 0.681270
Si Si7 0.330513 0.073834 0.090190
Si Si8 0.939924 0.645066 0.996972
O O1 0.782568 0.394685 0.460657
O O2 0.934664 0.628501 0.248343
O O3 0.979745 0.020683 0.133330
O O4 0.719013 0.702255 0.099563
O O5 0.500000 0.500000 0.500000
O O6 0.379767 0.079609 0.844531
O O7 0.596255 0.655901 0.629675
O O8 0.682495 0.396213 0.770095
O O9 0.902383 0.291449 0.993017
O O10 0.615547 0.920601 0.979962
O O11 0.500000 0.000000 0.500000
O O12 0.321675 0.165108 0.270585
O O13 0.419475 0.109478 0.213146
O O14 0.209290 0.424572 0.104335
O O15 0.106531 0.877072 0.460063
O O16 0.839124 0.290028 0.758599
O O17 0.121593 0.599916 0.793687
#
# Coordination Sequence:
#
# PCOD9102802 Si02
#       8
#     2   2   2   2   2   2   2   2
#     4   9  18  34  57  87 128 169 201 243 308 371
#     4  11  26  47  67  88 127 169 211 265 320 377
#     4   9  24  45  68  93 115 174 215 255 321 376
#     4  11  24  35  56  98 137 167 205 247 309 383
#     4  11  24  39  63  98 127 164 211 262 314 367
#     4   9  18  35  59  95 123 165 203 251 311 364
#     4  10  20  38  64  88 128 165 205 251 308 375
#     4  10  20  39  67  90 126 160 214 263 306 372
#
# _framework density 23.999509
#
# number of rings (size 3 to 8) (size 9 to 14) (size 15 to 20)
#    0.000    2.250    0.000    3.750    5.250    7.000 
#    2.250    4.375    0.000    0.000    0.000    0.000 
#    0.000    0.000    0.000    0.000    0.000    0.000 
#
# Total GULP energy -89426.634981 kJ/mol
# GULP energy per Si atom -5589.164686 kJ/mol
# Density = 2.394489 g / cm^3
# Si number density = 23.999509 Si / 1000 Ang^3
#
#
#
# Elastic Constant Matrix: (Units=GPa)
#
#
# Indices 1 2 3 4 5 6 
#
# 1 76.3433 5.5905 35.7760 20.8919 -4.5483 -1.2629
# 2 5.5905 81.5584 34.9867 28.9035 -6.4356 -13.7078
# 3 35.7760 34.9867 115.8181 40.9266 -14.0853 -12.1292
# 4 20.8919 28.9035 40.9266 52.3860 -1.1610 -4.0193
# 5 -4.5483 -6.4356 -14.0853 -1.1610 28.2252 10.2888
# 6 -1.2629 -13.7078 -12.1292 -4.0193 10.2888 21.4929
#
#
#
# Elastic Compliance Matrix: (Units=1/GPa)
#
#
# Indices 1 2 3 4 5 6 
#
# 1 0.016118 0.002073 -0.003982 -0.004546 0.001451 -0.001523
# 2 0.002073 0.017315 -0.002164 -0.008038 -0.000249 0.008560
# 3 -0.003982 -0.002164 0.014187 -0.007994 0.004641 0.002676
# 4 -0.004546 -0.008038 -0.007994 0.031338 -0.004592 -0.001846
# 5 0.001451 -0.000249 0.004641 -0.004592 0.044965 -0.019838
# 6 -0.001523 0.008560 0.002676 -0.001846 -0.019838 0.062558
#
#
# Mechanical properties :
#
#
# Convention : Reuss Voigt Hill
#
# Bulk Modulus (GPa) = 25.33334 47.38071 36.35702
# Shear Modulus (GPa) = 24.06316 33.57859 28.82087
#
# Velocity S-wave (km/s) = 3.16990 3.74456 3.46915
# Velocity P-wave (km/s) = 4.89657 6.20330 5.58826
#
# Compressibility (1/GPa) = 0.03947367
#
# Stress axis : x y z
#
# Youngs Moduli (GPa) = 62.04231 57.75306 70.48584
#
# Poissons Ratio (x) = -0.11971 0.28065
# Poissons Ratio (y) = -0.12860 0.15256
# Poissons Ratio (z) = 0.24703 0.12500
#
# Static dielectric constant tensor:
#      x y z
#    x 1.944210 -0.006470 -0.010770 
#    y -0.006470 2.072770 0.029510 
#    z -0.010770 0.029510 1.888980 
# 
# From -- ./inp_files/532282.got.cif
#   From: 2010.05.17/outbox.cif.g08.bks.cpg/sg2_267_cif.got.tgz:532282.got - 2010.06.03 11:33:40.
