data_PCOD9102137
_publ_section_title
;
Structure prediction by ZEFSAII (Michael W. Deem and Ramdas Pophale) SiO2 
 PCOD9102137
Probable space group: P -1
;
_chemical_formula_sum "Si O2"
_cell_formula_units_Z 16
_cell_length_a 9.322173
_cell_length_b 10.084206
_cell_length_c 17.395001
_cell_angle_alpha 130.515290
_cell_angle_beta 124.725553
_cell_angle_gamma 42.663288
_cell_volume 828.961619
_symmetry_space_group_name_H-M "P -1"
_symmetry_group_IT_number 2
_symmetry_cell_setting 'triclinic'
loop_
_space_group_symop_operation_xyz
x,y,z
-x,-y,-z
loop_
_atom_site_type_symbol
_atom_site_label
_atom_site_fract_x
_atom_site_fract_y
_atom_site_fract_z
Si Si1 0.702608 0.868272 0.831914
Si Si2 0.975883 0.469742 0.302601
Si Si3 0.076360 0.113061 0.748752
Si Si4 0.595627 0.831446 0.035508
Si Si5 0.342194 0.044952 0.661068
Si Si6 0.215567 0.667871 0.682198
Si Si7 0.614346 0.587606 0.520877
Si Si8 0.341074 0.433663 0.178659
O O1 0.658107 0.721439 0.815319
O O2 0.940315 0.698374 0.806629
O O3 0.611593 0.074875 0.937080
O O4 0.544811 0.972500 0.749999
O O5 0.779137 0.714000 0.315823
O O6 0.915355 0.383828 0.323046
O O7 0.181241 0.466463 0.387786
O O8 0.229490 0.159254 0.860157
O O9 0.173871 0.050358 0.669404
O O10 0.840521 0.328375 0.760429
O O11 0.086376 0.916812 0.714073
O O12 0.700577 0.612275 0.937812
O O13 0.500000 0.000000 0.000000
O O14 0.442643 0.846239 0.558456
O O15 0.298345 0.527929 0.577295
O O16 0.427491 0.613360 0.769156
O O17 0.500000 0.500000 0.500000
#
# Coordination Sequence:
#
# PCOD9102137 Si02
#       8
#     2   2   2   2   2   2   2   2
#     4   9  18  37  60  86 116 153 198 241 280 351
#     4  11  24  39  62  85 124 159 189 242 309 347
#     4  11  20  36  65  90 116 157 201 241 292 345
#     4   9  17  35  62  92 116 149 203 251 280 339
#     4  10  20  38  62  86 113 158 199 235 289 354
#     4  12  24  40  56  93 123 151 196 252 294 347
#     4  11  23  41  63  86 118 153 204 246 283 353
#     4  11  20  36  63  90 117 154 205 246 286 349
#
# _framework density 19.301255000000001
#
# number of rings (size 3 to 8) (size 9 to 14) (size 15 to 20)
#    0.000    1.500    6.250    1.500    0.000    4.000 
#    0.000    0.625    0.000    3.750    0.000    0.000 
#    0.000    0.000    0.000    0.000    0.000    0.000 
#
# Total GULP energy -89193.077500 kJ/mol
# GULP energy per Si atom -5574.567344 kJ/mol
# Density = 1.925732 g / cm^3
# Si number density = 19.301255 Si / 1000 Ang^3
#
#
#
# Elastic Constant Matrix: (Units=GPa)
#
#
# Indices 1 2 3 4 5 6 
#
# 1 6.1147 -1.5256 7.2879 -22.3322 -15.2973 -16.5359
# 2 -1.5256 97.3050 6.6887 17.5820 -3.6616 -15.2414
# 3 7.2879 6.6887 51.7739 0.8351 -24.4775 -1.4305
# 4 -22.3322 17.5820 0.8351 6.7179 -7.6709 -18.9897
# 5 -15.2973 -3.6616 -24.4775 -7.6709 23.0544 4.7687
# 6 -16.5359 -15.2414 -1.4305 -18.9897 4.7687 17.4393
#
#
#
# Elastic Compliance Matrix: (Units=1/GPa)
#
#
# Indices 1 2 3 4 5 6 
#
# 1 0.009894 0.002353 -0.002101 -0.028193 -0.000691 -0.019244
# 2 0.002353 0.012641 -0.003187 -0.005167 -0.003246 0.008280
# 3 -0.002101 -0.003187 0.039763 -0.003782 0.042636 -0.017292
# 4 -0.028193 -0.005167 -0.003782 0.012609 -0.016599 -0.013289
# 5 -0.000691 -0.003246 0.042636 -0.016599 0.091033 -0.042962
# 6 -0.019244 0.008280 -0.017292 -0.013289 -0.042962 0.042190
#
#
# Mechanical properties :
#
#
# Convention : Reuss Voigt Hill
#
# Bulk Modulus (GPa) = 17.72103 20.01063 18.86583
# Shear Modulus (GPa) = 21.47683 18.95849 20.21766
#
# Velocity S-wave (km/s) = 3.33936 3.13747 3.23999
# Velocity P-wave (km/s) = 4.90608 4.84923 4.87774
#
# Compressibility (1/GPa) = 0.05643013
#
# Stress axis : x y z
#
# Youngs Moduli (GPa) = 101.06642 79.10618 25.14922
#
# Poissons Ratio (x) = -0.18617 0.05283
# Poissons Ratio (y) = -0.23785 0.08015
# Poissons Ratio (z) = 0.21229 0.25211
#
# Static dielectric constant tensor:
#      x y z
#    x 1.662690 -0.021850 -0.021640 
#    y -0.021850 1.672810 0.021630 
#    z -0.021640 0.021630 1.749750 
# 
# From -- ./inp_files/218763.got.cif
#   From: 2010.05.17/outbox.cif.g08.bks.cpg/sg2_110_cif.got.tgz:218763.got - 2010.06.03 11:33:40.
