data_PCOD9102699
_publ_section_title
;
Structure prediction by ZEFSAII (Michael W. Deem and Ramdas Pophale) SiO2 
 PCOD9102699
Probable space group: P -1
;
_chemical_formula_sum "Si O2"
_cell_formula_units_Z 14
_cell_length_a 13.060750
_cell_length_b 8.728353
_cell_length_c 11.043382
_cell_angle_alpha 52.766415
_cell_angle_beta 134.307967
_cell_angle_gamma 96.163580
_cell_volume 597.431801
_symmetry_space_group_name_H-M "P -1"
_symmetry_group_IT_number 2
_symmetry_cell_setting 'triclinic'
loop_
_space_group_symop_operation_xyz
x,y,z
-x,-y,-z
loop_
_atom_site_type_symbol
_atom_site_label
_atom_site_fract_x
_atom_site_fract_y
_atom_site_fract_z
Si Si1 0.580849 0.460188 0.453891
Si Si2 0.862692 0.931335 0.905975
Si Si3 0.578967 0.527576 0.924660
Si Si4 0.584736 0.873495 0.258083
Si Si5 0.734304 0.009614 0.519430
Si Si6 0.112720 0.696875 0.570289
Si Si7 0.792121 0.792614 0.154210
O O1 0.500000 0.500000 0.500000
O O2 0.694445 0.188749 0.658665
O O3 0.458456 0.557905 0.187966
O O4 0.671646 0.600114 0.456983
O O5 0.839469 0.845356 0.797917
O O6 0.878683 0.774344 0.105393
O O7 0.000000 0.000000 0.000000
O O8 0.464061 0.805020 0.692086
O O9 0.500000 0.500000 0.000000
O O10 0.781935 0.389310 0.176659
O O11 0.708916 0.921751 0.412784
O O12 0.402191 0.994726 0.118650
O O13 0.500000 0.000000 0.000000
O O14 0.829550 0.145156 0.516288
O O15 0.192351 0.446146 0.692228
O O16 0.909493 0.817648 0.336493
#
# Coordination Sequence:
#
# PCOD9102699 Si02
#       7
#     2   2   2   2   2   2   2
#     4  11  24  41  65  98 139 171 216 283 337 388
#     4  11  23  44  69  93 130 175 222 271 329 401
#     4   9  18  36  64  93 123 173 222 260 315 397
#     4  12  25  41  63 100 135 173 218 272 341 397
#     4  10  21  39  68  92 128 173 220 265 325 395
#     4  10  20  38  63  97 124 160 221 276 305 379
#     4  11  23  37  65  99 127 164 221 272 326 381
#
# _framework density 23.433638999999999
#
# number of rings (size 3 to 8) (size 9 to 14) (size 15 to 20)
#    0.000    1.429    4.286    1.714    4.000    1.714 
#    0.000    5.000    0.000    0.000    0.000    0.000 
#    0.000    0.000    0.000    0.000    0.000    0.000 
#
# Total GULP energy -77992.540064 kJ/mol
# GULP energy per Si atom -5570.895719 kJ/mol
# Density = 2.338030 g / cm^3
# Si number density = 23.433639 Si / 1000 Ang^3
#
#
#
# Elastic Constant Matrix: (Units=GPa)
#
#
# Indices 1 2 3 4 5 6 
#
# 1 58.8294 29.3435 25.0619 22.7913 -27.2454 3.4055
# 2 29.3435 112.6304 42.2753 30.1112 -23.1804 11.3545
# 3 25.0619 42.2753 97.7208 43.5048 -19.5284 4.1952
# 4 22.7913 30.1112 43.5048 52.0445 -3.4246 -5.4117
# 5 -27.2454 -23.1804 -19.5284 -3.4246 36.9811 6.8387
# 6 3.4055 11.3545 4.1952 -5.4117 6.8387 25.0905
#
#
#
# Elastic Compliance Matrix: (Units=1/GPa)
#
#
# Indices 1 2 3 4 5 6 
#
# 1 0.043292 0.004466 0.009898 -0.029898 0.042241 -0.027514
# 2 0.004466 0.015011 0.001504 -0.012410 0.015011 -0.014419
# 3 0.009898 0.001504 0.023118 -0.024903 0.021292 -0.017064
# 4 -0.029898 -0.012410 -0.024903 0.061453 -0.044519 0.039226
# 5 0.042241 0.015011 0.021292 -0.044519 0.083659 -0.048491
# 6 -0.027514 -0.014419 -0.017064 0.039226 -0.048491 0.074646
#
#
# Mechanical properties :
#
#
# Convention : Reuss Voigt Hill
#
# Bulk Modulus (GPa) = 8.83718 51.39354 30.11536
# Shear Modulus (GPa) = 16.27801 34.32322 25.30062
#
# Velocity S-wave (km/s) = 2.63847 3.83129 3.28940
# Velocity P-wave (km/s) = 3.61405 6.44599 5.22552
#
# Compressibility (1/GPa) = 0.11315822
#
# Stress axis : x y z
#
# Youngs Moduli (GPa) = 23.09877 66.61707 43.25553
#
# Poissons Ratio (x) = -0.29753 -0.42813
# Poissons Ratio (y) = -0.10317 -0.06506
# Poissons Ratio (z) = -0.22863 -0.10020
#
# Static dielectric constant tensor:
#      x y z
#    x 2.026430 -0.043440 -0.001340 
#    y -0.043440 1.964890 0.009810 
#    z -0.001340 0.009810 1.974350 
# 
# From -- ./inp_files/280981.got.cif
#   From: 2010.05.17/outbox.cif.g08.bks.cpg/sg2_141_cif.got.tgz:280981.got - 2010.06.03 11:33:40.
