data_PCOD9102799
_publ_section_title
;
Structure prediction by ZEFSAII (Michael W. Deem and Ramdas Pophale) SiO2 
 PCOD9102799
Probable space group: P -1
;
_chemical_formula_sum "Si O2"
_cell_formula_units_Z 15
_cell_length_a 17.626995
_cell_length_b 9.028975
_cell_length_c 5.060727
_cell_angle_alpha 56.206841
_cell_angle_beta 73.000142
_cell_angle_gamma 74.072348
_cell_volume 633.742602
_symmetry_space_group_name_H-M "P -1"
_symmetry_group_IT_number 2
_symmetry_cell_setting 'triclinic'
loop_
_space_group_symop_operation_xyz
x,y,z
-x,-y,-z
loop_
_atom_site_type_symbol
_atom_site_label
_atom_site_fract_x
_atom_site_fract_y
_atom_site_fract_z
Si Si1 0.387756 0.088520 0.555440
Si Si2 0.090201 0.838601 0.791029
Si Si3 0.478822 0.357381 0.885752
Si Si4 0.765217 0.460160 0.962101
Si Si5 0.500000 0.000000 0.000000
Si Si6 0.607946 0.287694 0.271796
Si Si7 0.092955 0.079179 0.043759
Si Si8 0.763014 0.705988 0.220144
O O1 0.415723 0.267448 0.233066
O O2 0.449401 0.981632 0.800523
O O3 0.306087 0.142401 0.743904
O O4 0.390252 0.931081 0.477904
O O5 0.093984 0.920329 0.414716
O O6 0.150798 0.657014 0.934208
O O7 0.112982 0.986274 0.832185
O O8 0.998059 0.820395 0.967695
O O9 0.558447 0.352487 0.991053
O O10 0.476576 0.217495 0.791309
O O11 0.434528 0.553996 0.652311
O O12 0.770030 0.548311 0.584702
O O13 0.698920 0.325301 0.146811
O O14 0.745734 0.618951 0.042726
O O15 0.155744 0.206548 0.945526
#
# Coordination Sequence:
#
# PCOD9102799 Si02
#       8
#     2   2   2   2   1   2   2   2
#     4  11  23  42  62  91 130 179 225 289 337 413
#     4  10  22  43  72  99 139 169 242 265 352 400
#     4  10  21  43  60  92 126 171 229 283 337 408
#     4  12  25  44  64 104 134 183 223 293 327 427
#     4  10  20  38  64  88 122 170 224 276 340 392
#     4  10  21  41  64  88 131 173 229 272 348 388
#     4  10  22  44  69 102 132 187 215 293 326 423
#     4  12  26  43  69  95 147 172 233 278 352 393
#
# _framework density 23.668914999999998
#
# number of rings (size 3 to 8) (size 9 to 14) (size 15 to 20)
#    0.000    1.333    1.333    4.800    0.000    1.067 
#   12.000    6.000    0.000    0.000    0.000    0.000 
#    0.000    0.000    0.000    0.000    0.000    0.000 
#
# Total GULP energy -83680.876959 kJ/mol
# GULP energy per Si atom -5578.725131 kJ/mol
# Density = 2.361504 g / cm^3
# Si number density = 23.668915 Si / 1000 Ang^3
#
#
#
# Elastic Constant Matrix: (Units=GPa)
#
#
# Indices 1 2 3 4 5 6 
#
# 1 101.8192 22.1746 0.6674 -4.3657 -8.2312 3.9864
# 2 22.1746 108.1689 3.4972 -5.4751 -9.5209 2.0776
# 3 0.6674 3.4972 28.6073 -4.3793 7.6940 5.4735
# 4 -4.3657 -5.4751 -4.3793 33.0347 11.9471 -0.7755
# 5 -8.2312 -9.5209 7.6940 11.9471 32.2259 -9.5795
# 6 3.9864 2.0776 5.4735 -0.7755 -9.5795 42.5818
#
#
#
# Elastic Compliance Matrix: (Units=1/GPa)
#
#
# Indices 1 2 3 4 5 6 
#
# 1 0.010431 -0.001929 -0.000426 0.000277 0.001981 -0.000377
# 2 -0.001929 0.009976 -0.002167 -0.000025 0.003186 0.000689
# 3 -0.000426 -0.002167 0.043780 0.011813 -0.018376 -0.009401
# 4 0.000277 -0.000025 0.011813 0.038441 -0.018496 -0.005004
# 5 0.001981 0.003186 -0.018376 -0.018496 0.047393 0.012346
# 6 -0.000377 0.000689 -0.009401 -0.005004 0.012346 0.027381
#
#
# Mechanical properties :
#
#
# Convention : Reuss Voigt Hill
#
# Bulk Modulus (GPa) = 18.13448 32.36376 25.24912
# Shear Modulus (GPa) = 24.41085 35.71888 30.06487
#
# Velocity S-wave (km/s) = 3.21494 3.88893 3.56789
# Velocity P-wave (km/s) = 4.63244 5.81965 5.25965
#
# Compressibility (1/GPa) = 0.05514358
#
# Stress axis : x y z
#
# Youngs Moduli (GPa) = 95.86784 100.23809 22.84140
#
# Poissons Ratio (x) = 0.19335 0.00973
# Poissons Ratio (y) = 0.18492 0.04950
# Poissons Ratio (z) = 0.04083 0.21722
#
# Static dielectric constant tensor:
#      x y z
#    x 1.517120 -0.338450 1.111000 
#    y -0.338450 1.694500 0.905650 
#    z 1.111000 0.905650 -1.832240 
# 
# From -- ./inp_files/104392.got.cif
#   From: 2010.05.17/outbox.cif.g08.bks.cpg/sg2_53_cif.got.tgz:104392.got - 2010.06.03 11:33:40.
