data_PCOD9102874
_publ_section_title
;
Structure prediction by ZEFSAII (Michael W. Deem and Ramdas Pophale) SiO2 
 PCOD9102874
Probable space group: P -1
;
_chemical_formula_sum "Si O2"
_cell_formula_units_Z 14
_cell_length_a 8.789870
_cell_length_b 12.675163
_cell_length_c 18.251487
_cell_angle_alpha 25.513345
_cell_angle_beta 47.602922
_cell_angle_gamma 61.896329
_cell_volume 583.306090
_symmetry_space_group_name_H-M "P -1"
_symmetry_group_IT_number 2
_symmetry_cell_setting 'triclinic'
loop_
_space_group_symop_operation_xyz
x,y,z
-x,-y,-z
loop_
_atom_site_type_symbol
_atom_site_label
_atom_site_fract_x
_atom_site_fract_y
_atom_site_fract_z
Si Si1 0.329957 0.046153 0.973672
Si Si2 0.006875 0.711607 0.193410
Si Si3 0.674872 0.862773 0.531086
Si Si4 0.440448 0.839286 0.332124
Si Si5 0.636332 0.410020 0.942399
Si Si6 0.576827 0.372847 0.381177
Si Si7 0.005084 0.227846 0.298879
O O1 0.441431 0.116682 0.812314
O O2 0.301267 0.304519 0.849637
O O3 0.500000 0.000000 0.000000
O O4 0.109719 0.765975 0.207362
O O5 0.171322 0.659600 0.115400
O O6 0.782401 0.438087 0.431857
O O7 0.000000 0.000000 0.000000
O O8 0.616774 0.637337 0.754875
O O9 0.613070 0.712569 0.567289
O O10 0.500000 0.000000 0.500000
O O11 0.927133 0.091268 0.329143
O O12 0.547108 0.772021 0.412492
O O13 0.422453 0.115590 0.188583
O O14 0.750318 0.523664 0.913738
O O15 0.787805 0.293407 0.347315
O O16 0.000000 0.000000 0.500000
#
# Coordination Sequence:
#
# PCOD9102874 Si02
#       7
#     2   2   2   2   2   2   2
#     4  11  24  40  62  93 130 164 204 252 310 374
#     4  11  21  38  63  92 128 164 203 247 310 374
#     4   9  20  38  66  86 120 167 207 257 314 358
#     4  11  23  37  65  96 125 163 212 247 310 381
#     4  10  20  38  64  91 124 163 205 256 311 361
#     4  11  19  38  61  91 125 162 204 258 305 363
#     4   9  18  37  64  88 116 165 206 254 311 360
#
# _framework density 24.001121000000001
#
# number of rings (size 3 to 8) (size 9 to 14) (size 15 to 20)
#    0.000    1.714    2.857    2.143    2.000    0.571 
#    0.000    7.143    9.429    0.000    0.000    0.000 
#    0.000    0.000    0.000    0.000    0.000    0.000 
#
# Total GULP energy -78100.564765 kJ/mol
# GULP energy per Si atom -5578.611769 kJ/mol
# Density = 2.394649 g / cm^3
# Si number density = 24.001121 Si / 1000 Ang^3
#
#
#
# Elastic Constant Matrix: (Units=GPa)
#
#
# Indices 1 2 3 4 5 6 
#
# 1 192.1661 43.8405 67.2950 -19.3052 -17.2879 49.1196
# 2 43.8405 86.9704 40.3742 -21.6951 0.4276 19.9123
# 3 67.2950 40.3742 117.8369 -34.3706 -15.9634 9.6188
# 4 -19.3052 -21.6951 -34.3706 44.7700 8.5884 -3.5915
# 5 -17.2879 0.4276 -15.9634 8.5884 35.7312 -24.9437
# 6 49.1196 19.9123 9.6188 -3.5915 -24.9437 47.3906
#
#
#
# Elastic Compliance Matrix: (Units=1/GPa)
#
#
# Indices 1 2 3 4 5 6 
#
# 1 0.009666 0.000808 -0.005500 0.000631 -0.006893 -0.012822
# 2 0.000808 0.018761 -0.005685 0.006612 -0.014061 -0.014466
# 3 -0.005500 -0.005685 0.015842 0.005857 0.010733 0.010967
# 4 0.000631 0.006612 0.005857 0.031623 -0.009977 -0.007475
# 5 -0.006893 -0.014061 0.010733 -0.009977 0.061774 0.042632
# 6 -0.012822 -0.014466 0.010967 -0.007475 0.042632 0.060116
#
#
# Mechanical properties :
#
#
# Convention : Reuss Voigt Hill
#
# Bulk Modulus (GPa) = 42.52633 77.77698 60.15166
# Shear Modulus (GPa) = 22.08720 41.94262 32.01491
#
# Velocity S-wave (km/s) = 3.03686 4.18488 3.65621
# Velocity P-wave (km/s) = 5.48212 7.47174 6.55288
#
# Compressibility (1/GPa) = 0.02351484
#
# Stress axis : x y z
#
# Youngs Moduli (GPa) = 103.45013 53.30307 63.12272
#
# Poissons Ratio (x) = -0.04305 0.34719
# Poissons Ratio (y) = -0.08354 0.35882
# Poissons Ratio (z) = 0.56900 0.30300
#
# Static dielectric constant tensor:
#      x y z
#    x 2.075880 -0.065980 -0.128960 
#    y -0.065980 2.033660 -0.008100 
#    z -0.128960 -0.008100 2.005550 
# 
# From -- ./inp_files/215404.got.cif
#   From: 2010.05.17/outbox.cif.g08.bks.cpg/sg2_108_cif.got.tgz:215404.got - 2010.06.03 11:33:40.
