data_PCOD9102876
_publ_section_title
;
Structure prediction by ZEFSAII (Michael W. Deem and Ramdas Pophale) SiO2 
 PCOD9102876
Probable space group: P -1
;
_chemical_formula_sum "Si O2"
_cell_formula_units_Z 16
_cell_length_a 9.508884
_cell_length_b 13.811465
_cell_length_c 11.810816
_cell_angle_alpha 113.189427
_cell_angle_beta 83.190366
_cell_angle_gamma 149.013205
_cell_volume 650.733981
_symmetry_space_group_name_H-M "P -1"
_symmetry_group_IT_number 2
_symmetry_cell_setting 'triclinic'
loop_
_space_group_symop_operation_xyz
x,y,z
-x,-y,-z
loop_
_atom_site_type_symbol
_atom_site_label
_atom_site_fract_x
_atom_site_fract_y
_atom_site_fract_z
Si Si1 0.635725 0.176915 0.822557
Si Si2 0.087596 0.475360 0.381670
Si Si3 0.393940 0.546444 0.551559
Si Si4 0.415284 0.032573 0.431336
Si Si5 0.417375 0.277599 0.155980
Si Si6 0.977059 0.052394 0.641290
Si Si7 0.260893 0.146902 0.871256
Si Si8 0.215149 0.673806 0.883794
O O1 0.417907 0.137343 0.825867
O O2 0.941765 0.413000 0.831008
O O3 0.503350 0.982138 0.694326
O O4 0.732577 0.221492 0.963244
O O5 0.148644 0.410489 0.415978
O O6 0.399701 0.743081 0.437686
O O7 0.000000 0.500000 0.500000
O O8 0.892273 0.340675 0.225645
O O9 0.500000 0.500000 0.500000
O O10 0.340461 0.528194 0.680509
O O11 0.665275 0.807193 0.618769
O O12 0.094293 0.875713 0.354387
O O13 0.500000 0.000000 0.500000
O O14 0.479350 0.192993 0.107348
O O15 0.438095 0.319369 0.039763
O O16 0.084002 0.092599 0.151564
O O17 0.000000 0.000000 0.500000
O O18 0.230363 0.191290 0.776715
#
# Coordination Sequence:
#
# PCOD9102876 Si02
#       8
#     2   2   2   2   2   2   2   2
#     4  10  21  38  65  93 122 164 211 256 312 370
#     4  11  22  38  63  87 125 163 207 259 312 368
#     4  10  22  38  57  85 118 159 203 249 305 365
#     4  11  22  39  63  93 125 165 210 255 313 377
#     4   9  18  37  61  83 117 166 201 247 310 365
#     4  10  22  37  60  89 121 158 205 254 300 367
#     4   9  19  37  61  83 120 163 204 245 308 370
#     4  10  20  38  64  91 125 163 206 260 313 368
#
# _framework density 24.587622
#
# number of rings (size 3 to 8) (size 9 to 14) (size 15 to 20)
#    0.000    2.000    2.500    0.750    1.750    4.000 
#    2.250    0.625    0.000    3.000    0.000    0.000 
#    0.000    0.000    0.000    0.000    0.000    0.000 
#
# Total GULP energy -89193.637944 kJ/mol
# GULP energy per Si atom -5574.602371 kJ/mol
# Density = 2.453166 g / cm^3
# Si number density = 24.587622 Si / 1000 Ang^3
#
#
#
# Elastic Constant Matrix: (Units=GPa)
#
#
# Indices 1 2 3 4 5 6 
#
# 1 181.3263 22.1825 83.8726 -27.9112 30.1549 2.5012
# 2 22.1825 73.3540 19.8652 -8.6764 -0.1956 0.4428
# 3 83.8726 19.8652 218.1331 -50.8670 45.2577 -18.2095
# 4 -27.9112 -8.6764 -50.8670 35.3560 -5.8735 -3.4883
# 5 30.1549 -0.1956 45.2577 -5.8735 54.2599 -11.1247
# 6 2.5012 0.4428 -18.2095 -3.4883 -11.1247 26.7290
#
#
#
# Elastic Compliance Matrix: (Units=1/GPa)
#
#
# Indices 1 2 3 4 5 6 
#
# 1 0.007401 -0.001483 -0.001878 0.002003 -0.002931 -0.002906
# 2 -0.001483 0.014469 -0.000658 0.001752 0.001694 0.000384
# 3 -0.001878 -0.000658 0.009652 0.012164 -0.004352 0.006538
# 4 0.002003 0.001752 0.012164 0.048526 -0.003331 0.013017
# 5 -0.002931 0.001694 -0.004352 -0.003331 0.024804 0.007170
# 6 -0.002906 0.000384 0.006538 0.013017 0.007170 0.046815
#
#
# Mechanical properties :
#
#
# Convention : Reuss Voigt Hill
#
# Bulk Modulus (GPa) = 42.58368 80.51712 61.55040
# Shear Modulus (GPa) = 29.84501 46.39521 38.12011
#
# Velocity S-wave (km/s) = 3.48778 4.34860 3.94176
# Velocity P-wave (km/s) = 5.79450 7.61786 6.76787
#
# Compressibility (1/GPa) = 0.02348317
#
# Stress axis : x y z
#
# Youngs Moduli (GPa) = 135.12069 69.11504 103.60973
#
# Poissons Ratio (x) = 0.10248 0.19457
# Poissons Ratio (y) = 0.20036 0.06820
# Poissons Ratio (z) = 0.25375 0.04549
#
# Static dielectric constant tensor:
#      x y z
#    x 1.946220 0.063360 0.064920 
#    y 0.063360 2.229150 0.040320 
#    z 0.064920 0.040320 1.996180 
# 
# From -- ./inp_files/397639.got.cif
#   From: 2010.05.17/outbox.cif.g08.bks.cpg/sg2_199_cif.got.tgz:397639.got - 2010.06.03 11:33:40.
