data_PCOD9102306
_publ_section_title
;
Structure prediction by ZEFSAII (Michael W. Deem and Ramdas Pophale) SiO2 
 PCOD9102306
Probable space group: P -1
;
_chemical_formula_sum "Si O2"
_cell_formula_units_Z 16
_cell_length_a 10.051004
_cell_length_b 11.420105
_cell_length_c 11.162224
_cell_angle_alpha 98.444254
_cell_angle_beta 59.073477
_cell_angle_gamma 60.463418
_cell_volume 807.144374
_symmetry_space_group_name_H-M "P -1"
_symmetry_group_IT_number 2
_symmetry_cell_setting 'triclinic'
loop_
_space_group_symop_operation_xyz
x,y,z
-x,-y,-z
loop_
_atom_site_type_symbol
_atom_site_label
_atom_site_fract_x
_atom_site_fract_y
_atom_site_fract_z
Si Si1 0.413174 0.192120 0.133436
Si Si2 0.826428 0.489740 0.600660
Si Si3 0.266980 0.565492 0.618992
Si Si4 0.053757 0.680639 0.226377
Si Si5 0.802225 0.620381 0.200234
Si Si6 0.152000 0.113306 0.165964
Si Si7 0.422713 0.336283 0.909069
Si Si8 0.895382 0.095266 0.685507
O O1 0.375075 0.326343 0.250896
O O2 0.236958 0.180341 0.217179
O O3 0.393398 0.256317 0.017677
O O4 0.639169 0.020948 0.026775
O O5 0.782712 0.435841 0.496893
O O6 0.897800 0.383398 0.669281
O O7 0.000000 0.500000 0.500000
O O8 0.500000 0.500000 0.500000
O O9 0.241702 0.461922 0.697188
O O10 0.064506 0.746645 0.778062
O O11 0.009280 0.842394 0.278284
O O12 0.863459 0.704177 0.260450
O O13 0.258587 0.527385 0.035883
O O14 0.615294 0.710820 0.205485
O O15 0.000000 0.500000 0.000000
O O16 0.115074 0.015917 0.245961
O O17 0.658656 0.258588 0.794199
O O18 0.000000 0.000000 0.500000
#
# Coordination Sequence:
#
# PCOD9102306 Si02
#       8
#     2   2   2   2   2   2   2   2
#     4   9  19  38  70  90 111 164 212 257 296 367
#     4  11  19  37  65  90 118 155 218 259 293 362
#     4  12  25  39  65  95 126 160 204 268 316 355
#     4  10  20  38  62  91 117 160 209 247 294 372
#     4  10  21  40  66  90 122 163 209 248 308 368
#     4  10  20  39  59  87 127 155 207 246 310 371
#     4   9  20  39  64  89 117 153 209 249 303 363
#     4  11  23  34  58  90 124 159 192 256 307 352
#
# _framework density 19.822970000000002
#
# number of rings (size 3 to 8) (size 9 to 14) (size 15 to 20)
#    0.000    1.750    2.500    2.625    3.500    0.000 
#    4.500    1.250    8.250    0.000    0.000    0.000 
#    0.000    0.000    0.000    0.000    0.000    0.000 
#
# Total GULP energy -89172.642188 kJ/mol
# GULP energy per Si atom -5573.290137 kJ/mol
# Density = 1.977785 g / cm^3
# Si number density = 19.822970 Si / 1000 Ang^3
#
#
#
# Elastic Constant Matrix: (Units=GPa)
#
#
# Indices 1 2 3 4 5 6 
#
# 1 113.1657 29.7662 33.7482 -10.6117 -0.7662 9.1844
# 2 29.7662 53.1645 27.4673 2.0065 -2.6187 22.5101
# 3 33.7482 27.4673 54.8729 -2.2288 -1.8036 5.4162
# 4 -10.6117 2.0065 -2.2288 25.3148 -0.6386 -5.7285
# 5 -0.7662 -2.6187 -1.8036 -0.6386 32.4731 -0.8605
# 6 9.1844 22.5101 5.4162 -5.7285 -0.8605 32.8586
#
#
#
# Elastic Compliance Matrix: (Units=1/GPa)
#
#
# Indices 1 2 3 4 5 6 
#
# 1 0.011995 -0.005406 -0.004660 0.005509 -0.000248 0.002073
# 2 -0.005406 0.041629 -0.015357 -0.012922 0.001415 -0.026692
# 3 -0.004660 -0.015357 0.028166 0.003523 0.000492 0.007808
# 4 0.005509 -0.012922 0.003523 0.046524 0.000592 0.014858
# 5 -0.000248 0.001415 0.000492 0.000592 0.030940 -0.000068
# 6 0.002073 -0.026692 0.007808 0.014858 -0.000068 0.049441
#
#
# Mechanical properties :
#
#
# Convention : Reuss Voigt Hill
#
# Bulk Modulus (GPa) = 32.31664 44.79629 38.55647
# Shear Modulus (GPa) = 18.52836 26.81071 22.66954
#
# Velocity S-wave (km/s) = 3.06059 3.68163 3.38538
# Velocity P-wave (km/s) = 5.36914 6.38121 5.89692
#
# Compressibility (1/GPa) = 0.03094381
#
# Stress axis : x y z
#
# Youngs Moduli (GPa) = 83.36818 24.02150 35.50394
#
# Poissons Ratio (x) = 0.12986 0.16545
# Poissons Ratio (y) = 0.45068 0.54524
# Poissons Ratio (z) = 0.38851 0.36890
#
# Static dielectric constant tensor:
#      x y z
#    x 1.779690 0.052900 -0.039120 
#    y 0.052900 1.739260 0.018460 
#    z -0.039120 0.018460 1.786790 
# 
# From -- ./inp_files/390640.got.cif
#   From: 2010.05.17/outbox.cif.g08.bks.cpg/sg2_196_cif.got.tgz:390640.got - 2010.06.03 11:33:40.
