data_PCOD9102047
_publ_section_title
;
Structure prediction by ZEFSAII (Michael W. Deem and Ramdas Pophale) SiO2 
 PCOD9102047
Probable space group: P -1
;
_chemical_formula_sum "Si O2"
_cell_formula_units_Z 16
_cell_length_a 10.035177
_cell_length_b 14.756999
_cell_length_c 9.726413
_cell_angle_alpha 95.876368
_cell_angle_beta 121.789089
_cell_angle_gamma 130.891657
_cell_volume 664.527664
_symmetry_space_group_name_H-M "P -1"
_symmetry_group_IT_number 2
_symmetry_cell_setting 'triclinic'
loop_
_space_group_symop_operation_xyz
x,y,z
-x,-y,-z
loop_
_atom_site_type_symbol
_atom_site_label
_atom_site_fract_x
_atom_site_fract_y
_atom_site_fract_z
Si Si1 0.290894 0.814607 0.332858
Si Si2 0.773586 0.347410 0.961878
Si Si3 0.126263 0.883925 0.683204
Si Si4 0.541890 0.822597 0.708448
Si Si5 0.875782 0.803328 0.820196
Si Si6 0.306793 0.272412 0.778412
Si Si7 0.729292 0.246518 0.193220
Si Si8 0.696317 0.620476 0.950788
O O1 0.335653 0.792961 0.204620
O O2 0.359968 0.774524 0.478972
O O3 0.970343 0.694839 0.155052
O O4 0.500000 0.000000 0.500000
O O5 0.523927 0.298623 0.855582
O O6 0.903468 0.375160 0.181691
O O7 0.000000 0.500000 0.000000
O O8 0.154535 0.788182 0.675663
O O9 0.912567 0.797687 0.681247
O O10 0.003172 0.879240 0.485727
O O11 0.432696 0.071406 0.929572
O O12 0.691341 0.803655 0.739980
O O13 0.352845 0.723517 0.727426
O O14 0.804254 0.019858 0.918816
O O15 0.733542 0.659096 0.817287
O O16 0.296090 0.283752 0.938273
O O17 0.427864 0.427568 0.810659
#
# Coordination Sequence:
#
# PCOD9102047 Si02
#       8
#     2   2   2   2   2   2   2   2
#     4  12  24  42  72  98 128 180 225 271 330 400
#     4  12  26  46  66  98 141 174 218 280 338 389
#     4  10  22  40  66  95 126 169 225 266 330 389
#     4  10  21  38  63  95 127 163 219 272 325 379
#     4  10  20  38  61  93 128 165 213 273 322 385
#     4  11  25  43  63  96 135 177 218 273 336 396
#     4  10  23  41  67  95 130 170 218 277 321 397
#     4  11  23  42  65  93 135 176 219 270 332 397
#
# _framework density 24.077249999999999
#
# number of rings (size 3 to 8) (size 9 to 14) (size 15 to 20)
#    0.000    1.250    2.500    3.000    5.250    1.000 
#    2.250    0.625    0.000    0.000    0.000    0.000 
#    0.000    0.000    0.000    0.000    0.000    0.000 
#
# Total GULP energy -89600.207951 kJ/mol
# GULP energy per Si atom -5600.012997 kJ/mol
# Density = 2.402245 g / cm^3
# Si number density = 24.077250 Si / 1000 Ang^3
#
#
#
# Elastic Constant Matrix: (Units=GPa)
#
#
# Indices 1 2 3 4 5 6 
#
# 1 145.1774 -3.2227 26.8681 -4.6860 -8.9847 12.1689
# 2 -3.2227 70.3029 -0.9634 -12.6286 -1.1781 15.7105
# 3 26.8681 -0.9634 48.1997 -5.9146 2.6730 -0.6484
# 4 -4.6860 -12.6286 -5.9146 29.3754 2.9164 -3.4776
# 5 -8.9847 -1.1781 2.6730 2.9164 31.6686 -13.0395
# 6 12.1689 15.7105 -0.6484 -3.4776 -13.0395 30.7360
#
#
#
# Elastic Compliance Matrix: (Units=1/GPa)
#
#
# Indices 1 2 3 4 5 6 
#
# 1 0.008132 0.001125 -0.004589 0.000334 0.001355 -0.003279
# 2 0.001125 0.017838 0.000690 0.007150 -0.004038 -0.010453
# 3 -0.004589 0.000690 0.024116 0.004881 -0.003297 0.001126
# 4 0.000334 0.007150 0.004881 0.038428 -0.004019 -0.001041
# 5 0.001355 -0.004038 -0.003297 -0.004019 0.039830 0.017901
# 6 -0.003279 -0.010453 0.001126 -0.001041 0.017901 0.046676
#
#
# Mechanical properties :
#
#
# Convention : Reuss Voigt Hill
#
# Bulk Modulus (GPa) = 22.45249 34.33823 28.39536
# Shear Modulus (GPa) = 25.58685 34.42252 30.00469
#
# Velocity S-wave (km/s) = 3.26344 3.78520 3.53396
# Velocity P-wave (km/s) = 4.85237 5.77895 5.33581
#
# Compressibility (1/GPa) = 0.04453850
#
# Stress axis : x y z
#
# Youngs Moduli (GPa) = 122.97329 56.06068 41.46676
#
# Poissons Ratio (x) = -0.06309 0.19028
# Poissons Ratio (y) = -0.13839 -0.02861
# Poissons Ratio (z) = 0.56429 -0.03868
#
# Static dielectric constant tensor:
#      x y z
#    x 1.874480 0.001460 -0.025100 
#    y 0.001460 1.988080 0.068310 
#    z -0.025100 0.068310 1.965480 
# 
# From -- ./inp_files/207923.got.cif
#   From: 2010.05.17/outbox.cif.g08.bks.cpg/sg2_104_cif.got.tgz:207923.got - 2010.06.03 11:33:40.
