data_PCOD9102272
_publ_section_title
;
Structure prediction by ZEFSAII (Michael W. Deem and Ramdas Pophale) SiO2 
 PCOD9102272
Probable space group: P -1
;
_chemical_formula_sum "Si O2"
_cell_formula_units_Z 16
_cell_length_a 9.179982
_cell_length_b 9.141558
_cell_length_c 17.951250
_cell_angle_alpha 92.757861
_cell_angle_beta 30.210578
_cell_angle_gamma 93.290436
_cell_volume 756.765315
_symmetry_space_group_name_H-M "P -1"
_symmetry_group_IT_number 2
_symmetry_cell_setting 'triclinic'
loop_
_space_group_symop_operation_xyz
x,y,z
-x,-y,-z
loop_
_atom_site_type_symbol
_atom_site_label
_atom_site_fract_x
_atom_site_fract_y
_atom_site_fract_z
Si Si1 0.575484 0.664239 0.836156
Si Si2 0.915332 0.647224 0.187694
Si Si3 0.760414 0.114783 0.589139
Si Si4 0.368184 0.923428 0.859321
Si Si5 0.500045 0.846778 0.452856
Si Si6 0.091694 0.648231 0.724314
Si Si7 0.104076 0.190847 0.041047
Si Si8 0.514843 0.380853 0.764980
O O1 0.603780 0.823754 0.789723
O O2 0.816329 0.640528 0.790989
O O3 0.600079 0.542010 0.758425
O O4 0.250381 0.656974 0.014621
O O5 0.801143 0.789899 0.284630
O O6 0.708123 0.621617 0.206244
O O7 0.868918 0.508522 0.259085
O O8 0.703715 0.133584 0.528233
O O9 0.774111 0.275546 0.624301
O O10 0.479366 0.036099 0.749895
O O11 0.000000 0.000000 0.500000
O O12 0.137126 0.817741 0.917408
O O13 0.225085 0.027896 0.985421
O O14 0.362245 0.717897 0.561726
O O15 0.500000 0.000000 0.500000
O O16 0.023846 0.757731 0.824424
O O17 0.350884 0.304901 0.906028
#
# Coordination Sequence:
#
# PCOD9102272 Si02
#       8
#     2   2   2   2   2   2   2   2
#     4  12  23  39  64 102 127 158 206 270 321 358
#     4  11  23  43  65  92 128 170 213 251 306 386
#     4  10  22  43  63  91 124 162 209 263 308 365
#     4  10  21  37  66  89 119 158 216 257 306 361
#     4  11  26  45  64  89 128 175 210 247 313 390
#     4  12  25  40  62  95 134 161 207 259 323 365
#     4  10  20  38  62  90 118 162 209 255 303 372
#     4  10  21  40  67  90 121 164 212 255 305 373
#
# _framework density 21.142620000000001
#
# number of rings (size 3 to 8) (size 9 to 14) (size 15 to 20)
#    0.000    1.250    2.500    3.375    3.500    1.500 
#    2.250    6.875    0.000    0.000    0.000    0.000 
#    0.000    0.000    0.000    0.000    0.000    0.000 
#
# Total GULP energy -89422.297704 kJ/mol
# GULP energy per Si atom -5588.893607 kJ/mol
# Density = 2.109450 g / cm^3
# Si number density = 21.142620 Si / 1000 Ang^3
#
#
#
# Elastic Constant Matrix: (Units=GPa)
#
#
# Indices 1 2 3 4 5 6 
#
# 1 55.5167 47.3176 23.2428 19.2425 13.2193 -8.6266
# 2 47.3176 98.6077 35.4794 21.8811 13.1200 1.3584
# 3 23.2428 35.4794 66.7773 17.8688 10.0044 6.2836
# 4 19.2425 21.8811 17.8688 41.1620 -4.1523 13.7284
# 5 13.2193 13.1200 10.0044 -4.1523 30.7294 -0.0560
# 6 -8.6266 1.3584 6.2836 13.7284 -0.0560 24.8182
#
#
#
# Elastic Compliance Matrix: (Units=1/GPa)
#
#
# Indices 1 2 3 4 5 6 
#
# 1 0.052823 -0.015933 -0.002734 -0.028905 -0.018871 0.035871
# 2 -0.015933 0.019143 -0.004430 0.001283 0.000285 -0.006174
# 3 -0.002734 -0.004430 0.020444 -0.004537 -0.004207 -0.003383
# 4 -0.028905 0.001283 -0.004537 0.054136 0.020608 -0.038868
# 5 -0.018871 0.000285 -0.004207 0.020608 0.044662 -0.016808
# 6 0.035871 -0.006174 -0.003383 -0.038868 -0.016808 0.075418
#
#
# Mechanical properties :
#
#
# Convention : Reuss Voigt Hill
#
# Bulk Modulus (GPa) = 21.63814 48.10901 34.87358
# Shear Modulus (GPa) = 15.23337 26.99940 21.11638
#
# Velocity S-wave (km/s) = 2.68713 3.57741 3.16374
# Velocity P-wave (km/s) = 4.45917 6.31409 5.46589
#
# Compressibility (1/GPa) = 0.04621469
#
# Stress axis : x y z
#
# Youngs Moduli (GPa) = 18.93104 52.23776 48.91514
#
# Poissons Ratio (x) = 0.83232 0.13374
# Poissons Ratio (y) = 0.30163 0.21672
# Poissons Ratio (z) = 0.05176 0.23144
#
# Static dielectric constant tensor:
#      x y z
#    x 1.708070 -0.007770 -0.010380 
#    y -0.007770 1.772520 -0.000760 
#    z -0.010380 -0.000760 1.826880 
# 
# From -- ./inp_files/203167.got.cif
#   From: 2010.05.17/outbox.cif.g08.bks.cpg/sg2_102_cif.got.tgz:203167.got - 2010.06.03 11:33:40.
