data_PCOD9102820
_publ_section_title
;
Structure prediction by ZEFSAII (Michael W. Deem and Ramdas Pophale) SiO2 
 PCOD9102820
Probable space group: P -1
;
_chemical_formula_sum "Si O2"
_cell_formula_units_Z 16
_cell_length_a 7.849897
_cell_length_b 21.430026
_cell_length_c 18.036936
_cell_angle_alpha 19.756328
_cell_angle_beta 133.537137
_cell_angle_gamma 141.432470
_cell_volume 623.293421
_symmetry_space_group_name_H-M "P -1"
_symmetry_group_IT_number 2
_symmetry_cell_setting 'triclinic'
loop_
_space_group_symop_operation_xyz
x,y,z
-x,-y,-z
loop_
_atom_site_type_symbol
_atom_site_label
_atom_site_fract_x
_atom_site_fract_y
_atom_site_fract_z
Si Si1 0.204468 0.510628 0.443863
Si Si2 0.006104 0.357111 0.095129
Si Si3 0.647067 0.932303 0.559803
Si Si4 0.128572 0.204269 0.648736
Si Si5 0.894801 0.725500 0.177107
Si Si6 0.932818 0.194468 0.102624
Si Si7 0.647770 0.746084 0.492404
Si Si8 0.445649 0.589952 0.768386
O O1 0.075000 0.378707 0.476028
O O2 0.541551 0.677030 0.361568
O O3 0.095884 0.303192 0.699554
O O4 0.099807 0.660792 0.275307
O O5 0.885077 0.313391 0.024086
O O6 0.335744 0.457911 0.074513
O O7 0.827877 0.119679 0.344264
O O8 0.000000 0.500000 0.000000
O O9 0.872344 0.888651 0.712484
O O10 0.422494 0.737885 0.657122
O O11 0.500000 0.000000 0.500000
O O12 0.122140 0.205002 0.556407
O O13 0.955937 0.955472 0.907154
O O14 0.592278 0.503982 0.319226
O O15 0.148525 0.369435 0.912940
O O16 0.661277 0.976932 0.231186
O O17 0.612390 0.716551 0.603449
#
# Coordination Sequence:
#
# PCOD9102820 Si02
#       8
#     2   2   2   2   2   2   2   2
#     4   9  20  38  64  95 116 152 206 245 278 354
#     4  11  20  37  60  88 108 148 207 251 301 354
#     4  11  20  37  60  82 108 144 203 253 287 354
#     4  10  20  38  64  89 123 158 196 240 298 349
#     4  10  20  38  64  89 123 158 196 240 298 349
#     4  11  21  39  58  80 115 153 192 251 303 345
#     4  11  22  39  54  85 124 156 188 241 300 369
#     4  11  21  39  58  80 115 153 192 251 303 345
#
# _framework density 25.670093000000001
#
# number of rings (size 3 to 8) (size 9 to 14) (size 15 to 20)
#    0.000    1.500    2.500    5.250    0.000    0.000 
#    2.250    2.500    0.000    0.000    0.000    0.000 
#    0.000    0.000    0.000    0.000    0.000    0.000 
#
# Total GULP energy -89200.721823 kJ/mol
# GULP energy per Si atom -5575.045114 kJ/mol
# Density = 2.561167 g / cm^3
# Si number density = 25.670093 Si / 1000 Ang^3
#
#
#
# Elastic Constant Matrix: (Units=GPa)
#
#
# Indices 1 2 3 4 5 6 
#
# 1 83.6813 42.9567 37.8617 -8.4414 -10.9782 -28.7534
# 2 42.9567 81.9125 38.9716 -21.2813 -6.8023 -40.5382
# 3 37.8617 38.9716 116.5858 -27.4911 -33.7180 14.6407
# 4 -8.4414 -21.2813 -27.4911 38.0723 -4.1297 1.5830
# 5 -10.9782 -6.8023 -33.7180 -4.1297 48.1411 -7.9043
# 6 -28.7534 -40.5382 14.6407 1.5830 -7.9043 45.9339
#
#
#
# Elastic Compliance Matrix: (Units=1/GPa)
#
#
# Indices 1 2 3 4 5 6 
#
# 1 0.022353 0.003644 -0.011284 -0.001921 0.000999 0.021043
# 2 0.003644 0.049540 -0.020775 0.011624 0.002935 0.052728
# 3 -0.011284 -0.020775 0.028099 0.008576 0.009486 -0.033017
# 4 -0.001921 0.011624 0.008576 0.039514 0.011747 0.006982
# 5 0.000999 0.002935 0.009486 0.011747 0.029876 0.004928
# 6 0.021043 0.052728 -0.033017 0.006982 0.004928 0.092608
#
#
# Mechanical properties :
#
#
# Convention : Reuss Voigt Hill
#
# Bulk Modulus (GPa) = 23.16887 57.97329 40.57108
# Shear Modulus (GPa) = 15.00579 37.25545 26.13062
#
# Velocity S-wave (km/s) = 2.42040 3.81375 3.19398
# Velocity P-wave (km/s) = 4.10564 6.48274 5.42597
#
# Compressibility (1/GPa) = 0.04316136
#
# Stress axis : x y z
#
# Youngs Moduli (GPa) = 44.73766 20.18586 35.58904
#
# Poissons Ratio (x) = -0.07356 0.40158
# Poissons Ratio (y) = -0.16304 0.73937
# Poissons Ratio (z) = 0.50481 0.41936
#
# Static dielectric constant tensor:
#      x y z
#    x 2.037360 0.001490 0.061190 
#    y 0.001490 2.224500 -0.058150 
#    z 0.061190 -0.058150 2.115740 
# 
# From -- ./inp_files/562556.got.cif
#   From: 2010.05.17/outbox.cif.g08.bks.cpg/sg2_282_cif.got.tgz:562556.got - 2010.06.03 11:33:40.
