data_PCOD9102516
_publ_section_title
;
Structure prediction by ZEFSAII (Michael W. Deem and Ramdas Pophale) SiO2 
 PCOD9102516
Probable space group: P -1
;
_chemical_formula_sum "Si O2"
_cell_formula_units_Z 16
_cell_length_a 8.084943
_cell_length_b 9.229966
_cell_length_c 19.352689
_cell_angle_alpha 45.563355
_cell_angle_beta 135.208831
_cell_angle_gamma 116.633309
_cell_volume 723.091656
_symmetry_space_group_name_H-M "P -1"
_symmetry_group_IT_number 2
_symmetry_cell_setting 'triclinic'
loop_
_space_group_symop_operation_xyz
x,y,z
-x,-y,-z
loop_
_atom_site_type_symbol
_atom_site_label
_atom_site_fract_x
_atom_site_fract_y
_atom_site_fract_z
Si Si1 0.933728 0.332956 0.978577
Si Si2 0.327522 0.850781 0.469005
Si Si3 0.547237 0.430601 0.616054
Si Si4 0.571970 0.782643 0.128648
Si Si5 0.774254 0.413975 0.111289
Si Si6 0.050500 0.506308 0.725649
Si Si7 0.069332 0.325585 0.520216
Si Si8 0.045448 0.974277 0.797795
O O1 0.988219 0.116244 0.105434
O O2 0.656387 0.325207 0.879748
O O3 0.000000 0.500000 0.000000
O O4 0.083914 0.400122 0.936773
O O5 0.467651 0.630982 0.571133
O O6 0.105476 0.839040 0.457507
O O7 0.500000 0.000000 0.500000
O O8 0.207520 0.939282 0.333916
O O9 0.500000 0.500000 0.500000
O O10 0.826351 0.385319 0.719165
O O11 0.351880 0.275979 0.624706
O O12 0.709397 0.637955 0.162482
O O13 0.783016 0.845149 0.219020
O O14 0.500000 0.000000 0.000000
O O15 0.887666 0.352429 0.239906
O O16 0.833723 0.218225 0.145091
O O17 0.500000 0.500000 0.000000
O O18 0.993711 0.602483 0.601053
O O19 0.000000 0.500000 0.500000
#
# Coordination Sequence:
#
# PCOD9102516 Si02
#       8
#     2   2   2   2   2   2   2   2
#     4   9  20  38  62  87 116 159 203 235 292 374
#     4  11  22  37  59  88 117 153 200 243 289 354
#     4   9  19  38  59  85 115 149 195 243 290 354
#     4  10  20  38  63  89 115 153 202 244 291 357
#     4  11  23  40  59  88 122 157 202 245 291 358
#     4  11  21  37  64  89 117 157 195 250 303 343
#     4   9  20  38  61  88 117 157 203 236 292 378
#     4  10  21  40  60  84 120 161 195 248 299 344
#
# _framework density 22.127208
#
# number of rings (size 3 to 8) (size 9 to 14) (size 15 to 20)
#    0.000    2.000    0.000    5.250    0.000    6.000 
#    0.000   16.250    0.000    4.500    0.000    0.000 
#    0.000    0.000    0.000    0.000    0.000    0.000 
#
# Total GULP energy -89190.876412 kJ/mol
# GULP energy per Si atom -5574.429776 kJ/mol
# Density = 2.207685 g / cm^3
# Si number density = 22.127208 Si / 1000 Ang^3
#
#
#
# Elastic Constant Matrix: (Units=GPa)
#
#
# Indices 1 2 3 4 5 6 
#
# 1 118.4292 40.3161 21.6023 8.9725 8.3112 36.0889
# 2 40.3161 103.0557 14.6357 25.1353 2.5735 30.6924
# 3 21.6023 14.6357 68.0294 14.7892 -0.6538 9.9058
# 4 8.9725 25.1353 14.7892 37.2049 -0.2155 7.4020
# 5 8.3112 2.5735 -0.6538 -0.2155 34.8904 14.8354
# 6 36.0889 30.6924 9.9058 7.4020 14.8354 43.8384
#
#
#
# Elastic Compliance Matrix: (Units=1/GPa)
#
#
# Indices 1 2 3 4 5 6 
#
# 1 0.012003 -0.002206 -0.002385 0.001193 0.000779 -0.008262
# 2 -0.002206 0.014866 0.000491 -0.008030 0.002935 -0.008340
# 3 -0.002385 0.000491 0.016949 -0.006149 0.001530 -0.001689
# 4 0.001193 -0.008030 -0.006149 0.034444 0.000368 0.000089
# 5 0.000779 0.002935 0.001530 0.000368 0.034587 -0.014809
# 6 -0.008262 -0.008340 -0.001689 0.000089 -0.014809 0.040830
#
#
# Mechanical properties :
#
#
# Convention : Reuss Voigt Hill
#
# Bulk Modulus (GPa) = 28.07785 49.18026 38.62906
# Shear Modulus (GPa) = 28.77664 37.38409 33.08036
#
# Velocity S-wave (km/s) = 3.61017 4.11482 3.87073
# Velocity P-wave (km/s) = 5.48585 6.69702 6.12147
#
# Compressibility (1/GPa) = 0.03561527
#
# Stress axis : x y z
#
# Youngs Moduli (GPa) = 83.31368 67.26746 59.00139
#
# Poissons Ratio (x) = 0.14842 0.14074
# Poissons Ratio (y) = 0.18382 -0.02895
# Poissons Ratio (z) = 0.19874 -0.03300
#
# Static dielectric constant tensor:
#      x y z
#    x 1.860310 -0.029430 -0.059070 
#    y -0.029430 1.876120 0.084680 
#    z -0.059070 0.084680 1.945220 
# 
# From -- ./inp_files/562630.got.cif
#   From: 2010.05.17/outbox.cif.g08.bks.cpg/sg2_282_cif.got.tgz:562630.got - 2010.06.03 11:33:40.
