data_PCOD9102675
_publ_section_title
;
Structure prediction by ZEFSAII (Michael W. Deem and Ramdas Pophale) SiO2 
 PCOD9102675
Probable space group: P -1
;
_chemical_formula_sum "Si O2"
_cell_formula_units_Z 16
_cell_length_a 10.222373
_cell_length_b 8.864936
_cell_length_c 15.083328
_cell_angle_alpha 47.166448
_cell_angle_beta 58.435866
_cell_angle_gamma 47.752745
_cell_volume 736.435658
_symmetry_space_group_name_H-M "P -1"
_symmetry_group_IT_number 2
_symmetry_cell_setting 'triclinic'
loop_
_space_group_symop_operation_xyz
x,y,z
-x,-y,-z
loop_
_atom_site_type_symbol
_atom_site_label
_atom_site_fract_x
_atom_site_fract_y
_atom_site_fract_z
Si Si1 0.793092 0.785347 0.681717
Si Si2 0.924286 0.597923 0.388840
Si Si3 0.273474 0.049990 0.170885
Si Si4 0.484657 0.172194 0.517275
Si Si5 0.365594 0.563911 0.103511
Si Si6 0.955677 0.029734 0.864347
Si Si7 0.453216 0.463616 0.758482
Si Si8 0.169160 0.526806 0.947262
O O1 0.818455 0.873207 0.732142
O O2 0.709453 0.616291 0.796139
O O3 0.969357 0.624964 0.625978
O O4 0.643940 0.011595 0.590987
O O5 0.712428 0.713349 0.418052
O O6 0.000000 0.500000 0.500000
O O7 0.970076 0.800655 0.261578
O O8 0.150990 0.002544 0.166557
O O9 0.457450 0.802595 0.204102
O O10 0.303064 0.264743 0.042682
O O11 0.509277 0.379236 0.384231
O O12 0.500000 0.000000 0.500000
O O13 0.194266 0.831288 0.063688
O O14 0.464690 0.531129 0.176281
O O15 0.500000 0.500000 0.000000
O O16 0.108325 0.757645 0.937293
O O17 0.248789 0.563819 0.814477
O O18 0.000000 0.500000 0.000000
#
# Coordination Sequence:
#
# PCOD9102675 Si02
#       8
#     2   2   2   2   2   2   2   2
#     4  11  24  41  63  97 135 167 214 278 318 382
#     4  11  21  41  68  91 130 169 216 271 316 380
#     4  10  22  43  62  92 133 167 212 264 332 382
#     4  12  22  42  69  96 126 171 225 263 326 387
#     4  10  20  38  63  95 125 167 214 262 322 378
#     4   9  21  40  65  94 126 173 213 257 330 387
#     4  11  22  41  66  90 125 172 214 259 322 394
#     4  10  21  39  65  92 126 169 211 261 321 393
#
# _framework density 21.726271000000001
#
# number of rings (size 3 to 8) (size 9 to 14) (size 15 to 20)
#    0.000    1.500    2.500    3.375    0.000    2.500 
#    6.750    4.375    0.000    0.000    0.000    0.000 
#    0.000    0.000    0.000    0.000    0.000    0.000 
#
# Total GULP energy -89439.382906 kJ/mol
# GULP energy per Si atom -5589.961432 kJ/mol
# Density = 2.167682 g / cm^3
# Si number density = 21.726271 Si / 1000 Ang^3
#
#
#
# Elastic Constant Matrix: (Units=GPa)
#
#
# Indices 1 2 3 4 5 6 
#
# 1 56.4061 45.7482 27.5642 14.2268 -6.9592 4.0717
# 2 45.7482 207.4396 92.7204 14.0154 -7.0775 -8.8261
# 3 27.5642 92.7204 104.8542 12.6856 -16.6502 -0.4453
# 4 14.2268 14.0154 12.6856 50.9944 -1.2189 1.2204
# 5 -6.9592 -7.0775 -16.6502 -1.2189 30.2516 16.8761
# 6 4.0717 -8.8261 -0.4453 1.2204 16.8761 31.1685
#
#
#
# Elastic Compliance Matrix: (Units=1/GPa)
#
#
# Indices 1 2 3 4 5 6 
#
# 1 0.025285 -0.005503 0.000428 -0.005159 0.010248 -0.010202
# 2 -0.005503 0.009896 -0.008604 0.000582 -0.007946 0.007678
# 3 0.000428 -0.008604 0.019495 -0.002029 0.014219 -0.009833
# 4 -0.005159 0.000582 -0.002029 0.021326 -0.001854 0.000979
# 5 0.010248 -0.007946 0.014219 -0.001854 0.061830 -0.036791
# 6 -0.010202 0.007678 -0.009833 0.000979 -0.036791 0.055332
#
#
# Mechanical properties :
#
#
# Convention : Reuss Voigt Hill
#
# Bulk Modulus (GPa) = 36.60781 77.86282 57.23532
# Shear Modulus (GPa) = 21.77425 35.99403 28.88414
#
# Velocity S-wave (km/s) = 3.16920 4.07468 3.65013
# Velocity P-wave (km/s) = 5.50254 7.61927 6.64572
#
# Compressibility (1/GPa) = 0.02731657
#
# Stress axis : x y z
#
# Youngs Moduli (GPa) = 39.54902 101.04649 51.29623
#
# Poissons Ratio (x) = 0.55609 -0.02194
# Poissons Ratio (y) = 0.21765 0.44136
# Poissons Ratio (z) = -0.01691 0.86941
#
# Static dielectric constant tensor:
#      x y z
#    x 1.832330 -0.052490 0.029780 
#    y -0.052490 1.837830 -0.018120 
#    z 0.029780 -0.018120 1.787540 
# 
# From -- ./inp_files/499988.got.cif
#   From: 2010.05.17/outbox.cif.g08.bks.cpg/sg2_250_cif.got.tgz:499988.got - 2010.06.03 11:33:40.
