data_PCOD9102640
_publ_section_title
;
Structure prediction by ZEFSAII (Michael W. Deem and Ramdas Pophale) SiO2 
 PCOD9102640
Probable space group: P -1
;
_chemical_formula_sum "Si O2"
_cell_formula_units_Z 10
_cell_length_a 14.914993
_cell_length_b 11.891157
_cell_length_c 14.830642
_cell_angle_alpha 152.638948
_cell_angle_beta 19.879015
_cell_angle_gamma 149.131566
_cell_volume 406.530565
_symmetry_space_group_name_H-M "P -1"
_symmetry_group_IT_number 2
_symmetry_cell_setting 'triclinic'
loop_
_space_group_symop_operation_xyz
x,y,z
-x,-y,-z
loop_
_atom_site_type_symbol
_atom_site_label
_atom_site_fract_x
_atom_site_fract_y
_atom_site_fract_z
Si Si1 0.451268 0.827928 0.221013
Si Si2 0.960517 0.015663 0.155118
Si Si3 0.530981 0.793876 0.686417
Si Si4 0.768456 0.842167 0.682527
Si Si5 0.753375 0.456035 0.948377
O O1 0.404344 0.054344 0.358824
O O2 0.267753 0.835562 0.487207
O O3 0.362810 0.583149 0.071064
O O4 0.760912 0.876362 0.986132
O O5 0.860228 0.731234 0.072713
O O6 0.000000 0.000000 0.000000
O O7 0.500000 0.500000 0.500000
O O8 0.749626 0.866740 0.610209
O O9 0.271044 0.905030 0.048896
O O10 0.998164 0.693542 0.389902
O O11 0.490491 0.665760 0.846048
#
# Coordination Sequence:
#
# PCOD9102640 Si02
#       5
#     2   2   2   2   2
#     4  11  25  42  65  95 125 167 211 255 320 374
#     4  12  26  44  67  93 122 164 217 268 318 368
#     4  10  20  38  63  93 129 165 207 249 300 377
#     4  10  23  38  62  96 129 169 201 246 314 368
#     4  11  23  44  65  92 134 163 205 264 308 375
#
# _framework density 24.598396999999999
#
# number of rings (size 3 to 8) (size 9 to 14) (size 15 to 20)
#    0.000    1.200    0.000    6.600    0.000   10.400 
#    0.000   12.000    0.000    0.000    0.000    0.000 
#    0.000    0.000    0.000    0.000    0.000    0.000 
#
# Total GULP energy -56016.215810 kJ/mol
# GULP energy per Si atom -5601.621581 kJ/mol
# Density = 2.454241 g / cm^3
# Si number density = 24.598397 Si / 1000 Ang^3
#
#
#
# Elastic Constant Matrix: (Units=GPa)
#
#
# Indices 1 2 3 4 5 6 
#
# 1 66.8299 18.2848 26.5559 2.1291 8.2157 11.5505
# 2 18.2848 65.0354 47.6128 -0.0991 -17.6122 12.2592
# 3 26.5559 47.6128 125.8666 -13.1470 -3.7532 14.8894
# 4 2.1291 -0.0991 -13.1470 35.0057 2.4444 3.0739
# 5 8.2157 -17.6122 -3.7532 2.4444 47.8719 -12.5915
# 6 11.5505 12.2592 14.8894 3.0739 -12.5915 41.7992
#
#
#
# Elastic Compliance Matrix: (Units=1/GPa)
#
#
# Indices 1 2 3 4 5 6 
#
# 1 0.018642 -0.004639 -0.001884 -0.000980 -0.006305 -0.004947
# 2 -0.004639 0.025825 -0.008894 -0.003680 0.009815 0.000103
# 3 -0.001884 -0.008894 0.012467 0.005201 -0.002914 -0.002572
# 4 -0.000980 -0.003680 0.005201 0.031139 -0.003369 -0.003808
# 5 -0.006305 0.009815 -0.002914 -0.003369 0.027765 0.008513
# 6 -0.004947 0.000103 -0.002572 -0.003808 0.008513 0.029021
#
#
# Mechanical properties :
#
#
# Convention : Reuss Voigt Hill
#
# Bulk Modulus (GPa) = 38.31173 49.18211 43.74692
# Shear Modulus (GPa) = 27.11595 35.95391 31.53493
#
# Velocity S-wave (km/s) = 3.32376 3.82728 3.58437
# Velocity P-wave (km/s) = 5.50804 6.29033 5.91214
#
# Compressibility (1/GPa) = 0.02610167
#
# Stress axis : x y z
#
# Youngs Moduli (GPa) = 53.64133 38.72249 80.20857
#
# Poissons Ratio (x) = 0.17962 0.15108
# Poissons Ratio (y) = 0.24882 0.71339
# Poissons Ratio (z) = 0.10104 0.34441
#
# Static dielectric constant tensor:
#      x y z
#    x 1.993070 -0.029220 0.024110 
#    y -0.029220 2.025000 -0.039060 
#    z 0.024110 -0.039060 1.931930 
# 
# From -- ./inp_files/21540.got.cif
#   From: 2010.05.17/outbox.cif.g08.bks.cpg/sg2_11_cif.got.tgz:21540.got - 2010.06.03 11:33:40.
