data_PCOD9102225
_publ_section_title
;
Structure prediction by ZEFSAII (Michael W. Deem and Ramdas Pophale) SiO2 
 PCOD9102225
Probable space group: P -1
;
_chemical_formula_sum "Si O2"
_cell_formula_units_Z 16
_cell_length_a 24.893020
_cell_length_b 15.826175
_cell_length_c 15.836002
_cell_angle_alpha 153.267438
_cell_angle_beta 159.916460
_cell_angle_gamma 18.708543
_cell_volume 686.805247
_symmetry_space_group_name_H-M "P -1"
_symmetry_group_IT_number 2
_symmetry_cell_setting 'triclinic'
loop_
_space_group_symop_operation_xyz
x,y,z
-x,-y,-z
loop_
_atom_site_type_symbol
_atom_site_label
_atom_site_fract_x
_atom_site_fract_y
_atom_site_fract_z
Si Si1 0.253290 0.784968 0.374794
Si Si2 0.040894 0.913031 0.358080
Si Si3 0.238251 0.572072 0.497274
Si Si4 0.056499 0.253815 0.183894
Si Si5 0.328117 0.146480 0.800568
Si Si6 0.526816 0.617021 0.064405
Si Si7 0.761149 0.691617 0.360211
Si Si8 0.719971 0.887361 0.791955
O O1 0.500000 0.500000 0.500000
O O2 0.133433 0.879354 0.373254
O O3 0.272501 0.980461 0.549017
O O4 0.101859 0.793401 0.095423
O O5 0.200912 0.647739 0.411497
O O6 0.975273 0.156849 0.528312
O O7 0.818056 0.973472 0.075062
O O8 0.255295 0.338842 0.335715
O O9 0.427694 0.548317 0.788636
O O10 0.882698 0.568505 0.220079
O O11 0.232115 0.133966 0.411159
O O12 0.163254 0.178816 0.182623
O O13 0.397407 0.173296 0.835547
O O14 0.500000 0.000000 0.000000
O O15 0.714878 0.546854 0.218082
O O16 0.517358 0.822843 0.293046
O O17 0.500000 0.500000 0.000000
O O18 0.000000 0.500000 0.500000
#
# Coordination Sequence:
#
# PCOD9102225 Si02
#       8
#     2   2   2   2   2   2   2   2
#     4  11  22  37  61  94 128 173 220 267 336 393
#     4   9  21  36  58  93 128 167 220 269 330 396
#     4  10  20  38  62  88 127 171 211 276 324 393
#     4  10  22  43  65  93 135 174 226 281 332 406
#     4  11  23  42  67  93 134 180 221 282 334 398
#     4  11  25  43  67  97 133 174 227 277 338 405
#     4  10  25  45  68 100 132 179 228 271 343 408
#     4  10  21  40  65  95 129 172 222 276 343 397
#
# _framework density 23.29627
#
# number of rings (size 3 to 8) (size 9 to 14) (size 15 to 20)
#    0.000    1.750    1.250    1.875    1.750    8.500 
#    2.250    1.250    0.000    0.000    0.000    0.000 
#    0.000    0.000    0.000    0.000    0.000    0.000 
#
# Total GULP energy -89082.009145 kJ/mol
# GULP energy per Si atom -5567.625572 kJ/mol
# Density = 2.324325 g / cm^3
# Si number density = 23.296270 Si / 1000 Ang^3
#
#
#
# Elastic Constant Matrix: (Units=GPa)
#
#
# Indices 1 2 3 4 5 6 
#
# 1 107.7631 30.1396 23.9684 -2.8580 10.3379 12.2014
# 2 30.1396 67.0742 36.1998 20.8036 5.7486 7.8123
# 3 23.9684 36.1998 113.4597 -1.2431 8.2942 14.4762
# 4 -2.8580 20.8036 -1.2431 59.1325 7.4678 -8.1866
# 5 10.3379 5.7486 8.2942 7.4678 41.8367 -5.6164
# 6 12.2014 7.8123 14.4762 -8.1866 -5.6164 29.6845
#
#
#
# Elastic Compliance Matrix: (Units=1/GPa)
#
#
# Indices 1 2 3 4 5 6 
#
# 1 0.011459 -0.005170 -0.000121 0.002296 -0.002938 -0.003213
# 2 -0.005170 0.023851 -0.006186 -0.009325 0.000404 -0.003630
# 3 -0.000121 -0.006186 0.011483 0.002181 -0.002290 -0.003754
# 4 0.002296 -0.009325 0.002181 0.021509 -0.002772 0.005854
# 5 -0.002938 0.000404 -0.002290 -0.002772 0.026387 0.006446
# 6 -0.003213 -0.003630 -0.003754 0.005854 0.006446 0.040628
#
#
# Mechanical properties :
#
#
# Convention : Reuss Voigt Hill
#
# Bulk Modulus (GPa) = 41.94850 52.10137 47.02493
# Shear Modulus (GPa) = 30.08089 39.33002 34.70546
#
# Velocity S-wave (km/s) = 3.59727 4.11329 3.86391
# Velocity P-wave (km/s) = 5.94133 6.70613 6.33528
#
# Compressibility (1/GPa) = 0.02383876
#
# Stress axis : x y z
#
# Youngs Moduli (GPa) = 87.26700 41.92729 87.08323
#
# Poissons Ratio (x) = 0.21675 0.01057
# Poissons Ratio (y) = 0.45115 0.53870
# Poissons Ratio (z) = 0.01059 0.25936
#
# Static dielectric constant tensor:
#      x y z
#    x 1.971520 -0.056130 -0.054690 
#    y -0.056130 2.006020 -0.086500 
#    z -0.054690 -0.086500 1.950070 
# 
# From -- ./inp_files/543090.got.cif
#   From: 2010.05.17/outbox.cif.g08.bks.cpg/sg2_272_cif.got.tgz:543090.got - 2010.06.03 11:33:40.
