data_PCOD9102093
_publ_section_title
;
Structure prediction by ZEFSAII (Michael W. Deem and Ramdas Pophale) SiO2 
 PCOD9102093
Probable space group: P -1
;
_chemical_formula_sum "Si O2"
_cell_formula_units_Z 16
_cell_length_a 5.481569
_cell_length_b 12.219767
_cell_length_c 11.546058
_cell_angle_alpha 64.448420
_cell_angle_beta 78.963254
_cell_angle_gamma 100.585247
_cell_volume 653.154990
_symmetry_space_group_name_H-M "P -1"
_symmetry_group_IT_number 2
_symmetry_cell_setting 'triclinic'
loop_
_space_group_symop_operation_xyz
x,y,z
-x,-y,-z
loop_
_atom_site_type_symbol
_atom_site_label
_atom_site_fract_x
_atom_site_fract_y
_atom_site_fract_z
Si Si1 0.584660 0.859361 0.421566
Si Si2 0.765091 0.598636 0.388029
Si Si3 0.283331 0.067676 0.388281
Si Si4 0.889232 0.348884 0.465784
Si Si5 0.288266 0.592564 0.025806
Si Si6 0.804620 0.702227 0.087324
Si Si7 0.986041 0.910954 0.811934
Si Si8 0.902856 0.323616 0.207305
O O1 0.621784 0.827683 0.567760
O O2 0.398847 0.737211 0.431204
O O3 0.424933 0.960561 0.411043
O O4 0.833547 0.945298 0.288740
O O5 0.500000 0.500000 0.500000
O O6 0.929551 0.499639 0.388499
O O7 0.744466 0.672968 0.240399
O O8 0.909614 0.677353 0.449357
O O9 0.260340 0.108943 0.240832
O O10 0.000000 0.000000 0.500000
O O11 0.903432 0.309749 0.350747
O O12 0.541655 0.643182 0.061113
O O13 0.047572 0.645667 0.064865
O O14 0.168222 0.439994 0.110673
O O15 0.306249 0.630391 0.870244
O O16 0.906276 0.850358 0.971922
O O17 0.114685 0.812282 0.783686
#
# Coordination Sequence:
#
# PCOD9102093 Si02
#       8
#     2   2   2   2   2   2   2   2
#     4  10  21  37  59  92 130 171 214 267 322 401
#     4  11  26  45  67  92 122 177 228 282 332 384
#     4   9  18  34  56  90 132 169 209 249 327 390
#     4  11  23  42  66  91 129 170 226 274 328 392
#     4  10  23  39  64 100 137 174 210 272 345 402
#     4  11  24  44  68  96 139 174 225 275 336 401
#     4  10  23  36  62  98 134 175 205 268 336 403
#     4  10  20  38  62 101 136 169 213 265 339 403
#
# _framework density 24.496485
#
# number of rings (size 3 to 8) (size 9 to 14) (size 15 to 20)
#    0.000    1.750    1.250    3.000    7.000    8.500 
#    2.250    0.625    0.000    1.500    0.000    0.000 
#    0.000    0.000    0.000    0.000    0.000    0.000 
#
# Total GULP energy -89304.726829 kJ/mol
# GULP energy per Si atom -5581.545427 kJ/mol
# Density = 2.444073 g / cm^3
# Si number density = 24.496485 Si / 1000 Ang^3
#
#
#
# Elastic Constant Matrix: (Units=GPa)
#
#
# Indices 1 2 3 4 5 6 
#
# 1 98.7657 24.1839 47.0324 12.2832 18.0682 29.2745
# 2 24.1839 82.9240 51.8853 -9.5799 6.2792 26.5354
# 3 47.0324 51.8853 236.0550 8.1066 25.3775 30.4274
# 4 12.2832 -9.5799 8.1066 39.9331 5.7687 2.0257
# 5 18.0682 6.2792 25.3775 5.7687 33.8030 4.6550
# 6 29.2745 26.5354 30.4274 2.0257 4.6550 48.1013
#
#
#
# Elastic Compliance Matrix: (Units=1/GPa)
#
#
# Indices 1 2 3 4 5 6 
#
# 1 0.014284 -0.001425 -0.001010 -0.003456 -0.005109 -0.006628
# 2 -0.001425 0.017088 -0.002717 0.005496 -0.000341 -0.007039
# 3 -0.001010 -0.002717 0.005503 -0.001004 -0.002770 -0.001057
# 4 -0.003456 0.005496 -0.001004 0.028129 -0.003057 -0.001182
# 5 -0.005109 -0.000341 -0.002770 -0.003057 0.034728 0.001818
# 6 -0.006628 -0.007039 -0.001057 -0.001182 0.001818 0.029249
#
#
# Mechanical properties :
#
#
# Convention : Reuss Voigt Hill
#
# Bulk Modulus (GPa) = 37.63493 73.77203 55.70348
# Shear Modulus (GPa) = 33.75110 44.01034 38.88072
#
# Velocity S-wave (km/s) = 3.71589 4.24323 3.98828
# Velocity P-wave (km/s) = 5.81440 7.36121 6.63305
#
# Compressibility (1/GPa) = 0.02657106
#
# Stress axis : x y z
#
# Youngs Moduli (GPa) = 70.00753 58.52070 181.70881
#
# Poissons Ratio (x) = 0.08339 0.18362
# Poissons Ratio (y) = 0.09976 0.49365
# Poissons Ratio (z) = 0.07074 0.15898
#
# Static dielectric constant tensor:
#      x y z
#    x 2.132730 -0.029950 -0.030180 
#    y -0.029950 1.998210 0.010270 
#    z -0.030180 0.010270 1.995730 
# 
# From -- ./inp_files/93618.got.cif
#   From: 2010.05.17/outbox.cif.g08.bks.cpg/sg2_47_cif.got.tgz:93618.got - 2010.06.03 11:33:40.
