data_PCOD9102854
_publ_section_title
;
Structure prediction by ZEFSAII (Michael W. Deem and Ramdas Pophale) SiO2 
 PCOD9102854
Probable space group: P -1
;
_chemical_formula_sum "Si O2"
_cell_formula_units_Z 16
_cell_length_a 20.620089
_cell_length_b 10.464967
_cell_length_c 14.378529
_cell_angle_alpha 148.463360
_cell_angle_beta 30.013711
_cell_angle_gamma 154.909365
_cell_volume 623.279498
_symmetry_space_group_name_H-M "P -1"
_symmetry_group_IT_number 2
_symmetry_cell_setting 'triclinic'
loop_
_space_group_symop_operation_xyz
x,y,z
-x,-y,-z
loop_
_atom_site_type_symbol
_atom_site_label
_atom_site_fract_x
_atom_site_fract_y
_atom_site_fract_z
Si Si1 0.475873 0.635541 0.020250
Si Si2 0.939684 0.540954 0.245114
Si Si3 0.801576 0.722467 0.196162
Si Si4 0.026045 0.849738 0.142205
Si Si5 0.172542 0.398622 0.115820
Si Si6 0.028006 0.403516 0.549081
Si Si7 0.604427 0.938718 0.550419
Si Si8 0.590934 0.362473 0.575823
O O1 0.299993 0.453497 0.068116
O O2 0.495005 0.947611 0.213841
O O3 0.500000 0.500000 0.000000
O O4 0.577732 0.589390 0.794130
O O5 0.051057 0.757468 0.154340
O O6 0.014348 0.628066 0.308655
O O7 0.786508 0.541402 0.437245
O O8 0.865700 0.189555 0.086268
O O9 0.674628 0.784577 0.420339
O O10 0.990555 0.050386 0.139414
O O11 0.846933 0.615616 0.163296
O O12 0.754936 0.550760 0.047348
O O13 0.037641 0.146184 0.337328
O O14 0.115887 0.610801 0.331309
O O15 0.217614 0.739510 0.512119
O O16 0.493927 0.700902 0.456824
O O17 0.500000 0.000000 0.500000
#
# Coordination Sequence:
#
# PCOD9102854 Si02
#       8
#     2   2   2   2   2   2   2   2
#     4  12  23  36  58  91 127 162 200 251 317 380
#     4  11  25  42  61  93 124 172 213 249 320 366
#     4  10  20  38  64  90 128 162 204 264 312 367
#     4  11  24  41  65  89 127 167 211 263 302 382
#     4  10  21  35  64  96 122 161 205 261 324 361
#     4  11  21  39  65  94 127 156 210 270 309 365
#     4  11  23  37  63  99 121 164 205 255 325 369
#     4  12  24  39  60  89 132 162 202 262 311 377
#
# _framework density 25.670663999999999
#
# number of rings (size 3 to 8) (size 9 to 14) (size 15 to 20)
#    0.000    1.000    5.000    1.875    3.500    3.000 
#    0.000    0.625    0.000    1.500    0.000    0.000 
#    0.000    0.000    0.000    0.000    0.000    0.000 
#
# Total GULP energy -89331.915639 kJ/mol
# GULP energy per Si atom -5583.244727 kJ/mol
# Density = 2.561224 g / cm^3
# Si number density = 25.670664 Si / 1000 Ang^3
#
#
#
# Elastic Constant Matrix: (Units=GPa)
#
#
# Indices 1 2 3 4 5 6 
#
# 1 149.3914 18.2299 68.6453 0.5509 -14.7449 19.8344
# 2 18.2299 23.6863 23.8891 0.2177 0.1800 6.7123
# 3 68.6453 23.8891 245.3186 8.9385 -7.3202 3.2870
# 4 0.5509 0.2177 8.9385 16.1630 7.4444 -4.1261
# 5 -14.7449 0.1800 -7.3202 7.4444 60.7576 2.0637
# 6 19.8344 6.7123 3.2870 -4.1261 2.0637 24.0877
#
#
#
# Elastic Compliance Matrix: (Units=1/GPa)
#
#
# Indices 1 2 3 4 5 6 
#
# 1 0.009180 -0.003032 -0.002029 -0.002083 0.002485 -0.007007
# 2 -0.003032 0.051904 -0.004046 -0.000887 -0.000878 -0.011491
# 3 -0.002029 -0.004046 0.005117 -0.002462 0.000382 0.001646
# 4 -0.002083 -0.000887 -0.002462 0.071939 -0.010140 0.015490
# 5 0.002485 -0.000878 0.000382 -0.010140 0.018529 -0.005178
# 6 -0.007007 -0.011491 0.001646 0.015490 -0.005178 0.053359
#
#
# Mechanical properties :
#
#
# Convention : Reuss Voigt Hill
#
# Bulk Modulus (GPa) = 20.83951 71.10277 45.97114
# Shear Modulus (GPa) = 20.47179 40.71045 30.59112
#
# Velocity S-wave (km/s) = 2.82703 3.98662 3.45581
# Velocity P-wave (km/s) = 4.33495 6.99636 5.81983
#
# Compressibility (1/GPa) = 0.04798578
#
# Stress axis : x y z
#
# Youngs Moduli (GPa) = 108.93705 19.26628 195.41835
#
# Poissons Ratio (x) = 0.05842 0.39658
# Poissons Ratio (y) = 0.33034 0.79062
# Poissons Ratio (z) = 0.22108 0.07795
#
# Static dielectric constant tensor:
#      x y z
#    x 2.094090 -0.113760 0.000750 
#    y -0.113760 2.148610 0.011330 
#    z 0.000750 0.011330 2.022760 
# 
# From -- ./inp_files/541169.got.cif
#   From: 2010.05.17/outbox.cif.g08.bks.cpg/sg2_271_cif.got.tgz:541169.got - 2010.06.03 11:33:40.
