data_PCOD9102488
_publ_section_title
;
Structure prediction by ZEFSAII (Michael W. Deem and Ramdas Pophale) SiO2 
 PCOD9102488
Probable space group: P -1
;
_chemical_formula_sum "Si O2"
_cell_formula_units_Z 16
_cell_length_a 7.996743
_cell_length_b 11.790368
_cell_length_c 12.888149
_cell_angle_alpha 89.115355
_cell_angle_beta 78.124841
_cell_angle_gamma 139.655347
_cell_volume 740.824313
_symmetry_space_group_name_H-M "P -1"
_symmetry_group_IT_number 2
_symmetry_cell_setting 'triclinic'
loop_
_space_group_symop_operation_xyz
x,y,z
-x,-y,-z
loop_
_atom_site_type_symbol
_atom_site_label
_atom_site_fract_x
_atom_site_fract_y
_atom_site_fract_z
Si Si1 0.085849 0.969278 0.192371
Si Si2 0.400406 0.751082 0.007467
Si Si3 0.007597 0.647772 0.885364
Si Si4 0.853377 0.398289 0.352135
Si Si5 0.171888 0.833599 0.540171
Si Si6 0.190014 0.949887 0.756448
Si Si7 0.777576 0.209570 0.762834
Si Si8 0.774474 0.943475 0.597971
O O1 0.072377 0.827089 0.215977
O O2 0.231694 0.083979 0.279482
O O3 0.834774 0.928355 0.220630
O O4 0.284869 0.089624 0.067923
O O5 0.332090 0.783335 0.119696
O O6 0.265892 0.556795 0.038130
O O7 0.240890 0.735280 0.936676
O O8 0.090512 0.633370 0.765502
O O9 0.001277 0.777921 0.860795
O O10 0.944495 0.352135 0.425754
O O11 0.526008 0.239737 0.404839
O O12 0.014551 0.598323 0.324120
O O13 0.101929 0.871779 0.651197
O O14 0.500000 0.000000 0.500000
O O15 0.125676 0.875239 0.438996
O O16 0.494093 0.057427 0.735801
O O17 0.000000 0.000000 0.500000
#
# Coordination Sequence:
#
# PCOD9102488 Si02
#       8
#     2   2   2   2   2   2   2   2
#     4  12  23  39  62  90 123 158 197 246 299 353
#     4  10  20  38  63  87 118 163 196 244 296 346
#     4   9  18  37  63  87 115 152 211 244 283 348
#     4   9  19  38  63  87 113 160 194 244 299 347
#     4   9  18  37  64  83 107 153 206 246 290 334
#     4  11  22  38  60  90 122 157 197 243 298 358
#     4  11  23  41  58  87 132 159 188 234 308 372
#     4  11  20  39  63  88 112 148 207 256 288 337
#
# _framework density 21.597563999999998
#
# number of rings (size 3 to 8) (size 9 to 14) (size 15 to 20)
#    0.000    1.750    3.750    1.875    0.000    1.000 
#    2.250    6.250    0.000    0.000    0.000    0.000 
#    0.000    0.000    0.000    0.000    0.000    0.000 
#
# Total GULP energy -89198.432515 kJ/mol
# GULP energy per Si atom -5574.902032 kJ/mol
# Density = 2.154841 g / cm^3
# Si number density = 21.597564 Si / 1000 Ang^3
#
#
#
# Elastic Constant Matrix: (Units=GPa)
#
#
# Indices 1 2 3 4 5 6 
#
# 1 84.7272 25.6299 30.9662 -17.1355 4.1704 -36.0335
# 2 25.6299 62.3533 17.0520 -19.7761 2.5455 -25.6581
# 3 30.9662 17.0520 91.5237 -16.1835 2.8251 -10.8955
# 4 -17.1355 -19.7761 -16.1835 35.7002 -3.2608 10.0500
# 5 4.1704 2.5455 2.8251 -3.2608 28.2371 4.5504
# 6 -36.0335 -25.6581 -10.8955 10.0500 4.5504 28.6226
#
#
#
# Elastic Compliance Matrix: (Units=1/GPa)
#
#
# Indices 1 2 3 4 5 6 
#
# 1 0.033464 0.009984 -0.006253 0.003676 -0.012759 0.049435
# 2 0.009984 0.031772 -0.002791 0.009580 -0.009088 0.038069
# 3 -0.006253 -0.002791 0.013340 0.003520 0.001334 -0.006744
# 4 0.003676 0.009580 0.003520 0.036491 0.002232 0.001388
# 5 -0.012759 -0.009088 0.001334 0.002232 0.043297 -0.031368
# 6 0.049435 0.038069 -0.006744 0.001388 -0.031368 0.133231
#
#
# Mechanical properties :
#
#
# Convention : Reuss Voigt Hill
#
# Bulk Modulus (GPa) = 12.42925 42.87783 27.65354
# Shear Modulus (GPa) = 15.79610 29.50906 22.65258
#
# Velocity S-wave (km/s) = 2.70734 3.70038 3.24211
# Velocity P-wave (km/s) = 3.94213 6.17683 5.18139
#
# Compressibility (1/GPa) = 0.08045538
#
# Stress axis : x y z
#
# Youngs Moduli (GPa) = 29.88323 31.47462 74.96081
#
# Poissons Ratio (x) = -0.31426 0.46876
# Poissons Ratio (y) = -0.29837 0.20922
# Poissons Ratio (z) = 0.18687 0.08785
#
# Static dielectric constant tensor:
#      x y z
#    x 1.836720 -0.059490 0.008740 
#    y -0.059490 1.840070 0.035730 
#    z 0.008740 0.035730 1.808260 
# 
# From -- ./inp_files/227860.got.cif
#   From: 2010.05.17/outbox.cif.g08.bks.cpg/sg2_114_cif.got.tgz:227860.got - 2010.06.03 11:33:40.
