data_PCOD9102079
_publ_section_title
;
Structure prediction by ZEFSAII (Michael W. Deem and Ramdas Pophale) SiO2 
 PCOD9102079
Probable space group: P -1
;
_chemical_formula_sum "Si O2"
_cell_formula_units_Z 16
_cell_length_a 8.299114
_cell_length_b 12.873896
_cell_length_c 8.960331
_cell_angle_alpha 102.897719
_cell_angle_beta 99.238643
_cell_angle_gamma 47.975552
_cell_volume 693.143729
_symmetry_space_group_name_H-M "P -1"
_symmetry_group_IT_number 2
_symmetry_cell_setting 'triclinic'
loop_
_space_group_symop_operation_xyz
x,y,z
-x,-y,-z
loop_
_atom_site_type_symbol
_atom_site_label
_atom_site_fract_x
_atom_site_fract_y
_atom_site_fract_z
Si Si1 0.222599 0.816095 0.524221
Si Si2 0.850790 0.108846 0.144642
Si Si3 0.068265 0.351712 0.990018
Si Si4 0.319481 0.462885 0.524805
Si Si5 0.960670 0.742478 0.363965
Si Si6 0.683917 0.408617 0.124718
Si Si7 0.473466 0.112630 0.134777
Si Si8 0.594450 0.811805 0.522843
O O1 0.078290 0.890342 0.676331
O O2 0.438148 0.653020 0.547054
O O3 0.071005 0.811608 0.393519
O O4 0.649889 0.135312 0.509157
O O5 0.724843 0.267005 0.117996
O O6 0.694208 0.080334 0.154181
O O7 0.000000 0.000000 0.000000
O O8 0.068772 0.290652 0.814800
O O9 0.905254 0.360190 0.075619
O O10 0.000000 0.500000 0.000000
O O11 0.297298 0.259357 0.073788
O O12 0.353145 0.507068 0.702926
O O13 0.268625 0.358697 0.506925
O O14 0.138235 0.597947 0.440400
O O15 0.724185 0.830522 0.433656
O O16 0.500000 0.500000 0.000000
O O17 0.401035 0.130859 0.299542
O O18 0.500000 0.000000 0.000000
#
# Coordination Sequence:
#
# PCOD9102079 Si02
#       8
#     2   2   2   2   2   2   2   2
#     4   9  22  36  65  95 123 175 231 269 329 408
#     4  11  24  44  70  99 132 181 230 279 340 413
#     4  12  26  40  64 107 139 173 224 284 344 396
#     4  10  20  38  61  96 133 174 222 275 335 404
#     4  12  20  38  65  91 138 171 220 273 340 397
#     4  12  24  39  69 104 140 175 221 284 343 398
#     4  11  24  46  70  95 136 181 231 276 338 418
#     4   9  22  37  64  94 127 176 224 271 333 404
#
# _framework density 23.083233
#
# number of rings (size 3 to 8) (size 9 to 14) (size 15 to 20)
#    0.750    0.500    1.250    5.250    3.500    0.000 
#    0.000    0.625    2.750    3.000    0.000    0.000 
#    0.000    0.000    0.000    0.000    0.000    0.000 
#
# Total GULP energy -89345.865175 kJ/mol
# GULP energy per Si atom -5584.116573 kJ/mol
# Density = 2.303069 g / cm^3
# Si number density = 23.083233 Si / 1000 Ang^3
#
#
#
# Elastic Constant Matrix: (Units=GPa)
#
#
# Indices 1 2 3 4 5 6 
#
# 1 79.9435 -5.2269 32.0235 11.1073 -5.0380 -0.1558
# 2 -5.2269 78.7488 25.2334 6.6454 -11.2942 -3.4896
# 3 32.0235 25.2334 135.8550 30.7989 -6.6053 -14.1625
# 4 11.1073 6.6454 30.7989 38.6274 -4.6216 2.8940
# 5 -5.0380 -11.2942 -6.6053 -4.6216 26.0797 7.9268
# 6 -0.1558 -3.4896 -14.1625 2.8940 7.9268 31.3508
#
#
#
# Elastic Compliance Matrix: (Units=1/GPa)
#
#
# Indices 1 2 3 4 5 6 
#
# 1 0.014539 0.002653 -0.003719 -0.001102 0.003453 -0.002084
# 2 0.002653 0.014776 -0.003246 0.000182 0.006574 -0.001487
# 3 -0.003719 -0.003246 0.011169 -0.008038 -0.002560 0.006055
# 4 -0.001102 0.000182 -0.008038 0.033975 0.006395 -0.008369
# 5 0.003453 0.006574 -0.002560 0.006395 0.046196 -0.012678
# 6 -0.002084 -0.001487 0.006055 -0.008369 -0.012678 0.038435
#
#
# Mechanical properties :
#
#
# Convention : Reuss Voigt Hill
#
# Bulk Modulus (GPa) = 31.38853 44.28971 37.83912
# Shear Modulus (GPa) = 28.03694 35.37940 31.70817
#
# Velocity S-wave (km/s) = 3.48889 3.91920 3.71029
# Velocity P-wave (km/s) = 5.46419 6.30149 5.89772
#
# Compressibility (1/GPa) = 0.03185878
#
# Stress axis : x y z
#
# Youngs Moduli (GPa) = 68.78133 67.67504 89.53012
#
# Poissons Ratio (x) = -0.17952 0.33299
# Poissons Ratio (y) = -0.18246 0.29066
# Poissons Ratio (z) = 0.25582 0.21970
#
# Static dielectric constant tensor:
#      x y z
#    x 1.949230 0.019860 -0.012080 
#    y 0.019860 1.939660 0.052470 
#    z -0.012080 0.052470 2.014420 
# 
# From -- ./inp_files/208462.got.cif
#   From: 2010.05.17/outbox.cif.g08.bks.cpg/sg2_105_cif.got.tgz:208462.got - 2010.06.03 11:33:40.
