data_PCOD9102875
_publ_section_title
;
Structure prediction by ZEFSAII (Michael W. Deem and Ramdas Pophale) SiO2 
 PCOD9102875
Probable space group: P -1
;
_chemical_formula_sum "Si O2"
_cell_formula_units_Z 14
_cell_length_a 14.736637
_cell_length_b 11.201087
_cell_length_c 11.983041
_cell_angle_alpha 44.408344
_cell_angle_beta 155.390924
_cell_angle_gamma 133.497573
_cell_volume 571.246612
_symmetry_space_group_name_H-M "P -1"
_symmetry_group_IT_number 2
_symmetry_cell_setting 'triclinic'
loop_
_space_group_symop_operation_xyz
x,y,z
-x,-y,-z
loop_
_atom_site_type_symbol
_atom_site_label
_atom_site_fract_x
_atom_site_fract_y
_atom_site_fract_z
Si Si1 0.511859 0.925120 0.278372
Si Si2 0.232670 0.328104 0.323392
Si Si3 0.062631 0.448683 0.280574
Si Si4 0.071790 0.011649 0.842652
Si Si5 0.509758 0.527335 0.859363
Si Si6 0.772647 0.230069 0.257954
Si Si7 0.300771 0.091230 0.260389
O O1 0.597133 0.059981 0.187471
O O2 0.524460 0.727517 0.385579
O O3 0.673833 0.931541 0.563607
O O4 0.297499 0.990752 0.045226
O O5 0.194253 0.420598 0.333648
O O6 0.084766 0.143266 0.286091
O O7 0.113234 0.421866 0.030193
O O8 0.257333 0.511836 0.542771
O O9 0.906312 0.280123 0.261371
O O10 0.970202 0.186512 0.588488
O O11 0.112693 0.002745 0.026373
O O12 0.639365 0.709715 0.842418
O O13 0.500000 0.500000 0.000000
O O14 0.642750 0.382355 0.052325
O O15 0.500000 0.000000 0.500000
#
# Coordination Sequence:
#
# PCOD9102875 Si02
#       7
#     2   2   2   2   2   2   2
#     4  10  21  40  64  94 127 169 214 258 313 372
#     4  10  24  42  68  92 122 171 212 259 316 370
#     4  11  24  44  63  95 130 161 213 262 313 378
#     4  10  22  42  63  91 128 166 214 259 306 377
#     4  12  25  42  66  96 130 166 206 261 318 373
#     4  11  24  40  63  92 126 167 205 257 320 370
#     4  10  20  38  64  91 124 166 210 257 310 367
#
# _framework density 24.507804
#
# number of rings (size 3 to 8) (size 9 to 14) (size 15 to 20)
#    0.000    1.429    0.000    6.000    0.000    9.143 
#    0.000    7.857    0.000    0.000    0.000    0.000 
#    0.000    0.000    0.000    0.000    0.000    0.000 
#
# Total GULP energy -78141.819638 kJ/mol
# GULP energy per Si atom -5581.558546 kJ/mol
# Density = 2.445202 g / cm^3
# Si number density = 24.507804 Si / 1000 Ang^3
#
#
#
# Elastic Constant Matrix: (Units=GPa)
#
#
# Indices 1 2 3 4 5 6 
#
# 1 94.9044 9.3010 18.6213 1.3069 7.2986 -1.3096
# 2 9.3010 48.9184 19.6540 -2.8049 -11.0294 1.1102
# 3 18.6213 19.6540 118.7703 -6.7322 10.5519 -19.1490
# 4 1.3069 -2.8049 -6.7322 46.9003 -8.1647 5.8166
# 5 7.2986 -11.0294 10.5519 -8.1647 36.9155 -0.4453
# 6 -1.3096 1.1102 -19.1490 5.8166 -0.4453 22.3065
#
#
#
# Elastic Compliance Matrix: (Units=1/GPa)
#
#
# Indices 1 2 3 4 5 6 
#
# 1 0.011234 -0.002365 -0.001182 -0.001118 -0.002837 -0.000002
# 2 -0.002365 0.025979 -0.005819 0.003511 0.010583 -0.007132
# 3 -0.001182 -0.005819 0.011617 -0.000773 -0.004872 0.010297
# 4 -0.001118 0.003511 -0.000773 0.023454 0.006595 -0.006888
# 5 -0.002837 0.010583 -0.004872 0.006595 0.033592 -0.005925
# 6 -0.000002 -0.007132 0.010297 -0.006888 -0.005925 0.055702
#
#
# Mechanical properties :
#
#
# Convention : Reuss Voigt Hill
#
# Bulk Modulus (GPa) = 33.22406 39.74953 36.48680
# Shear Modulus (GPa) = 26.26828 35.55891 30.91360
#
# Velocity S-wave (km/s) = 3.27744 3.81323 3.55544
# Velocity P-wave (km/s) = 5.28281 5.97009 5.63693
#
# Compressibility (1/GPa) = 0.03009867
#
# Stress axis : x y z
#
# Youngs Moduli (GPa) = 89.01469 38.49231 86.07992
#
# Poissons Ratio (x) = 0.09103 0.10172
# Poissons Ratio (y) = 0.21051 0.50092
# Poissons Ratio (z) = 0.10518 0.22400
#
# Static dielectric constant tensor:
#      x y z
#    x 2.006670 0.089110 0.015790 
#    y 0.089110 2.088370 -0.028230 
#    z 0.015790 -0.028230 2.037880 
# 
# From -- ./inp_files/447779.got.cif
#   From: 2010.05.17/outbox.cif.g08.bks.cpg/sg2_224_cif.got.tgz:447779.got - 2010.06.03 11:33:40.
