data_PCOD9102436
_publ_section_title
;
Structure prediction by ZEFSAII (Michael W. Deem and Ramdas Pophale) SiO2 
 PCOD9102436
Probable space group: P -1
;
_chemical_formula_sum "Si O2"
_cell_formula_units_Z 14
_cell_length_a 9.244595
_cell_length_b 5.133931
_cell_length_c 17.802193
_cell_angle_alpha 75.014805
_cell_angle_beta 139.898476
_cell_angle_gamma 100.253761
_cell_volume 525.471087
_symmetry_space_group_name_H-M "P -1"
_symmetry_group_IT_number 2
_symmetry_cell_setting 'triclinic'
loop_
_space_group_symop_operation_xyz
x,y,z
-x,-y,-z
loop_
_atom_site_type_symbol
_atom_site_label
_atom_site_fract_x
_atom_site_fract_y
_atom_site_fract_z
Si Si1 0.249817 0.655051 0.520694
Si Si2 0.394730 0.747495 0.020595
Si Si3 0.314727 0.298814 0.229456
Si Si4 0.322786 0.896047 0.140716
Si Si5 0.805640 0.844362 0.393297
Si Si6 0.162909 0.522295 0.803052
Si Si7 0.877009 0.016107 0.682678
O O1 0.413165 0.741985 0.646922
O O2 0.297297 0.336660 0.566922
O O3 0.295004 0.822824 0.452174
O O4 0.978757 0.674833 0.419809
O O5 0.272155 0.864633 0.035838
O O6 0.601681 0.544047 0.140399
O O7 0.241941 0.585989 0.914785
O O8 0.500000 0.000000 0.000000
O O9 0.263611 0.615610 0.177927
O O10 0.234706 0.148892 0.134414
O O11 0.220213 0.158808 0.275964
O O12 0.593722 0.923330 0.252758
O O13 0.000000 0.000000 0.500000
O O14 0.021463 0.255293 0.757553
O O15 0.021695 0.795391 0.707022
#
# Coordination Sequence:
#
# PCOD9102436 Si02
#       7
#     2   2   2   2   2   2   2
#     4  10  23  39  65  99 136 181 224 271 330 396
#     4  11  25  47  76 101 131 166 224 293 352 397
#     4  11  25  45  63 100 139 187 223 260 329 407
#     4  11  25  42  69  96 138 175 220 284 341 388
#     4  10  20  38  62  99 134 168 221 280 334 389
#     4  11  26  44  70 106 126 167 233 280 342 398
#     4  12  25  44  70  96 141 182 226 270 320 407
#
# _framework density 26.642758000000001
#
# number of rings (size 3 to 8) (size 9 to 14) (size 15 to 20)
#    0.000    1.143    2.857    2.143    6.000    0.000 
#    0.000    7.857    0.000    0.000    0.000    0.000 
#    0.000    0.000    0.000    0.000    0.000    0.000 
#
# Total GULP energy -78295.459254 kJ/mol
# GULP energy per Si atom -5592.532804 kJ/mol
# Density = 2.658212 g / cm^3
# Si number density = 26.642758 Si / 1000 Ang^3
#
#
#
# Elastic Constant Matrix: (Units=GPa)
#
#
# Indices 1 2 3 4 5 6 
#
# 1 62.3381 19.2480 24.1330 6.5748 1.6975 13.1702
# 2 19.2480 164.4054 32.1349 12.4019 -4.2203 11.3317
# 3 24.1330 32.1349 87.6424 20.1690 -11.9805 1.1820
# 4 6.5748 12.4019 20.1690 42.2093 -3.2801 -13.7091
# 5 1.6975 -4.2203 -11.9805 -3.2801 40.1849 -9.4632
# 6 13.1702 11.3317 1.1820 -13.7091 -9.4632 38.0211
#
#
#
# Elastic Compliance Matrix: (Units=1/GPa)
#
#
# Indices 1 2 3 4 5 6 
#
# 1 0.020819 -0.000589 -0.005127 -0.004143 -0.005077 -0.009634
# 2 -0.000589 0.006840 -0.001963 -0.001871 -0.000607 -0.002599
# 3 -0.005127 -0.001963 0.015340 -0.005259 0.004410 0.001086
# 4 -0.004143 -0.001871 -0.005259 0.032659 0.004628 0.015084
# 5 -0.005077 -0.000607 0.004410 0.004628 0.029261 0.010754
# 6 -0.009634 -0.002599 0.001086 0.015084 0.010754 0.038495
#
#
# Mechanical properties :
#
#
# Convention : Reuss Voigt Hill
#
# Bulk Modulus (GPa) = 36.17863 51.71306 43.94584
# Shear Modulus (GPa) = 29.76457 40.00774 34.88615
#
# Velocity S-wave (km/s) = 3.34604 3.87930 3.62250
# Velocity P-wave (km/s) = 5.34197 6.28627 5.83326
#
# Compressibility (1/GPa) = 0.02764063
#
# Stress axis : x y z
#
# Youngs Moduli (GPa) = 48.03301 146.20072 65.18854
#
# Poissons Ratio (x) = 0.08611 0.33424
# Poissons Ratio (y) = 0.02829 0.12796
# Poissons Ratio (z) = 0.24628 0.28699
#
# Static dielectric constant tensor:
#      x y z
#    x 2.237240 -0.062070 0.014120 
#    y -0.062070 2.148100 -0.045980 
#    z 0.014120 -0.045980 2.146330 
# 
# From -- ./inp_files/563553.got.cif
#   From: 2010.05.17/outbox.cif.g08.bks.cpg/sg2_282_cif.got.tgz:563553.got - 2010.06.03 11:33:40.
