data_PCOD9102147
_publ_section_title
;
Structure prediction by ZEFSAII (Michael W. Deem and Ramdas Pophale) SiO2 
 PCOD9102147
Probable space group: P -1
;
_chemical_formula_sum "Si O2"
_cell_formula_units_Z 16
_cell_length_a 9.686412
_cell_length_b 11.120609
_cell_length_c 17.835300
_cell_angle_alpha 117.606285
_cell_angle_beta 143.179455
_cell_angle_gamma 88.062678
_cell_volume 788.342421
_symmetry_space_group_name_H-M "P -1"
_symmetry_group_IT_number 2
_symmetry_cell_setting 'triclinic'
loop_
_space_group_symop_operation_xyz
x,y,z
-x,-y,-z
loop_
_atom_site_type_symbol
_atom_site_label
_atom_site_fract_x
_atom_site_fract_y
_atom_site_fract_z
Si Si1 0.142224 0.522240 0.148545
Si Si2 0.376108 0.502181 0.623903
Si Si3 0.136525 0.158075 0.163956
Si Si4 0.361543 0.836676 0.587683
Si Si5 0.870320 0.451116 0.325025
Si Si6 0.657236 0.163941 0.919640
Si Si7 0.564557 0.671893 0.038295
Si Si8 0.804602 0.177264 0.654758
O O1 0.470333 0.577961 0.304398
O O2 0.161227 0.660373 0.249230
O O3 0.000000 0.500000 0.000000
O O4 0.910296 0.331361 0.028970
O O5 0.619372 0.657996 0.718981
O O6 0.319329 0.574922 0.692774
O O7 0.059495 0.386973 0.409586
O O8 0.347867 0.145422 0.304622
O O9 0.853552 0.145714 0.058230
O O10 0.000000 0.000000 0.000000
O O11 0.208657 0.826356 0.442086
O O12 0.128475 0.658829 0.481420
O O13 0.471807 0.996816 0.736303
O O14 0.669454 0.381993 0.144427
O O15 0.467243 0.214164 0.886246
O O16 0.895584 0.788413 0.182701
O O17 0.500000 0.500000 0.000000
O O18 0.500000 0.000000 0.500000
#
# Coordination Sequence:
#
# PCOD9102147 Si02
#       8
#     2   2   2   2   2   2   2   2
#     4  11  21  37  60  87 123 161 203 249 304 364
#     4   9  20  34  61  91 115 160 206 246 301 358
#     4   8  17  35  59  88 118 151 198 247 301 359
#     4  10  20  38  62  86 122 158 199 254 299 360
#     4  10  20  39  61  87 123 158 203 254 299 363
#     4  10  21  37  61  89 114 160 205 239 307 363
#     4  12  23  41  59  85 122 161 202 250 303 361
#     4  12  26  41  58  89 122 156 205 256 308 356
#
# _framework density 20.295750000000002
#
# number of rings (size 3 to 8) (size 9 to 14) (size 15 to 20)
#    0.000    1.750    2.500    1.500    0.000    4.500 
#    0.000    3.750    0.000   13.500    0.000    0.000 
#    0.000    0.000    0.000    0.000    0.000    0.000 
#
# Total GULP energy -89199.515385 kJ/mol
# GULP energy per Si atom -5574.969712 kJ/mol
# Density = 2.024956 g / cm^3
# Si number density = 20.295750 Si / 1000 Ang^3
#
#
#
# Elastic Constant Matrix: (Units=GPa)
#
#
# Indices 1 2 3 4 5 6 
#
# 1 56.8165 25.6209 31.2038 -12.9613 3.3315 -27.4237
# 2 25.6209 72.1090 45.7919 -27.6338 -4.0107 -28.8212
# 3 31.2038 45.7919 118.4838 -20.3980 -4.8653 -17.1740
# 4 -12.9613 -27.6338 -20.3980 31.9964 0.6025 7.5865
# 5 3.3315 -4.0107 -4.8653 0.6025 30.9198 -8.0266
# 6 -27.4237 -28.8212 -17.1740 7.5865 -8.0266 37.2659
#
#
#
# Elastic Compliance Matrix: (Units=1/GPa)
#
#
# Indices 1 2 3 4 5 6 
#
# 1 0.031084 0.004420 -0.005179 0.007656 0.002183 0.022817
# 2 0.004420 0.035906 -0.007219 0.022057 0.009151 0.025176
# 3 -0.005179 -0.007219 0.012121 0.000272 0.000551 -0.003745
# 4 0.007656 0.022057 0.000272 0.050271 0.004625 0.013580
# 5 0.002183 0.009151 0.000551 0.004625 0.037461 0.016065
# 6 0.022817 0.025176 -0.003745 0.013580 0.016065 0.062066
#
#
# Mechanical properties :
#
#
# Convention : Reuss Voigt Hill
#
# Bulk Modulus (GPa) = 15.83438 50.29363 33.06400
# Shear Modulus (GPa) = 18.80300 29.68927 24.24613
#
# Velocity S-wave (km/s) = 3.04707 3.82885 3.46011
# Velocity P-wave (km/s) = 4.49425 6.66190 5.68239
#
# Compressibility (1/GPa) = 0.06315371
#
# Stress axis : x y z
#
# Youngs Moduli (GPa) = 32.17125 27.85051 82.50453
#
# Poissons Ratio (x) = -0.12310 0.42733
# Poissons Ratio (y) = -0.14220 0.59558
# Poissons Ratio (z) = 0.16663 0.20105
#
# Static dielectric constant tensor:
#      x y z
#    x 1.720590 -0.029110 0.025070 
#    y -0.029110 1.797540 -0.039050 
#    z 0.025070 -0.039050 1.722180 
# 
# From -- ./inp_files/181336.got.cif
#   From: 2010.05.17/outbox.cif.g08.bks.cpg/sg2_91_cif.got.tgz:181336.got - 2010.06.03 11:33:40.
