data_PCOD9102032
_publ_section_title
;
Structure prediction by ZEFSAII (Michael W. Deem and Ramdas Pophale) SiO2 
 PCOD9102032
Probable space group: P -1
;
_chemical_formula_sum "Si O2"
_cell_formula_units_Z 15
_cell_length_a 9.461816
_cell_length_b 11.547501
_cell_length_c 8.541049
_cell_angle_alpha 96.312602
_cell_angle_beta 129.863865
_cell_angle_gamma 92.531141
_cell_volume 703.867682
_symmetry_space_group_name_H-M "P -1"
_symmetry_group_IT_number 2
_symmetry_cell_setting 'triclinic'
loop_
_space_group_symop_operation_xyz
x,y,z
-x,-y,-z
loop_
_atom_site_type_symbol
_atom_site_label
_atom_site_fract_x
_atom_site_fract_y
_atom_site_fract_z
Si Si1 0.000000 0.500000 0.500000
Si Si2 0.967525 0.381432 0.767074
Si Si3 0.596813 0.687364 0.531631
Si Si4 0.522742 0.085681 0.379609
Si Si5 0.299937 0.504463 0.178663
Si Si6 0.863791 0.020919 0.051222
Si Si7 0.980978 0.756315 0.657396
Si Si8 0.060182 0.869400 0.394795
O O1 0.103432 0.582556 0.445394
O O2 0.003239 0.620313 0.631347
O O3 0.842994 0.428080 0.817046
O O4 0.963945 0.242948 0.755667
O O5 0.182579 0.445898 0.940501
O O6 0.484738 0.782363 0.543795
O O7 0.481632 0.601882 0.308539
O O8 0.649809 0.600747 0.692360
O O9 0.781300 0.755997 0.595901
O O10 0.720309 0.082483 0.437532
O O11 0.500000 0.000000 0.500000
O O12 0.342798 0.042733 0.140305
O O13 0.874890 0.159589 0.118326
O O14 0.946297 0.962894 0.252140
O O15 0.000000 0.000000 0.000000
O O16 0.986802 0.815153 0.499277
#
# Coordination Sequence:
#
# PCOD9102032 Si02
#       8
#     1   2   2   2   2   2   2   2
#     4  10  22  40  60  92 130 168 208 248 344 382
#     4  10  20  38  61  92 124 173 209 267 316 392
#     4  11  21  40  63  97 127 168 219 275 319 382
#     4  12  24  40  67  99 127 169 223 273 324 390
#     4  10  21  34  66  90 123 165 227 260 311 380
#     4  12  24  42  71  98 130 172 223 275 322 389
#     4  11  24  42  67  91 139 176 207 276 334 389
#     4  11  24  44  64  97 136 171 215 271 337 386
#
# _framework density 21.310822999999999
#
# number of rings (size 3 to 8) (size 9 to 14) (size 15 to 20)
#    0.000    1.067    5.333    1.200    0.000    1.600 
#    0.000    5.333    0.000    0.000    0.000    0.000 
#    0.000    0.000    0.000    0.000    0.000    0.000 
#
# Total GULP energy -83541.733661 kJ/mol
# GULP energy per Si atom -5569.448911 kJ/mol
# Density = 2.126232 g / cm^3
# Si number density = 21.310823 Si / 1000 Ang^3
#
#
#
# Elastic Constant Matrix: (Units=GPa)
#
#
# Indices 1 2 3 4 5 6 
#
# 1 39.3247 6.7324 15.8848 -1.6140 10.1785 13.6423
# 2 6.7324 116.3442 20.0415 10.9823 2.6928 -16.5927
# 3 15.8848 20.0415 65.4220 10.9086 30.6532 -1.7005
# 4 -1.6140 10.9823 10.9086 27.3423 3.4984 -6.2603
# 5 10.1785 2.6928 30.6532 3.4984 30.9282 9.5707
# 6 13.6423 -16.5927 -1.7005 -6.2603 9.5707 36.7313
#
#
#
# Elastic Compliance Matrix: (Units=1/GPa)
#
#
# Indices 1 2 3 4 5 6 
#
# 1 0.034308 -0.002774 -0.009655 0.003316 0.002653 -0.014568
# 2 -0.002774 0.010048 -0.002534 -0.002283 0.001350 0.004711
# 3 -0.009655 -0.002534 0.036789 -0.006765 -0.036138 0.012407
# 4 0.003316 -0.002283 -0.006765 0.041468 -0.000292 0.004568
# 5 0.002653 0.001350 -0.036138 -0.000292 0.073791 -0.021325
# 6 -0.014568 0.004711 0.012407 0.004568 -0.021325 0.041673
#
#
# Mechanical properties :
#
#
# Convention : Reuss Voigt Hill
#
# Bulk Modulus (GPa) = 19.52429 34.04536 26.78483
# Shear Modulus (GPa) = 17.53918 30.89584 24.21751
#
# Velocity S-wave (km/s) = 2.87194 3.81172 3.37470
# Velocity P-wave (km/s) = 4.49210 5.94832 5.27075
#
# Compressibility (1/GPa) = 0.05121826
#
# Stress axis : x y z
#
# Youngs Moduli (GPa) = 29.14794 99.51819 27.18238
#
# Poissons Ratio (x) = 0.27609 0.26244
# Poissons Ratio (y) = 0.08086 0.06888
# Poissons Ratio (z) = 0.28142 0.25218
#
# Static dielectric constant tensor:
#      x y z
#    x 1.765130 -0.038520 -0.008520 
#    y -0.038520 1.782710 0.040920 
#    z -0.008520 0.040920 1.847850 
# 
# From -- ./inp_files/188935.got.cif
#   From: 2010.05.17/outbox.cif.g08.bks.cpg/sg2_95_cif.got.tgz:188935.got - 2010.06.03 11:33:40.
