data_PCOD9102201
_publ_section_title
;
Structure prediction by ZEFSAII (Michael W. Deem and Ramdas Pophale) SiO2 
 PCOD9102201
Probable space group: P -1
;
_chemical_formula_sum "Si O2"
_cell_formula_units_Z 16
_cell_length_a 13.953530
_cell_length_b 12.789916
_cell_length_c 8.502983
_cell_angle_alpha 83.743767
_cell_angle_beta 122.614778
_cell_angle_gamma 50.061063
_cell_volume 695.522504
_symmetry_space_group_name_H-M "P -1"
_symmetry_group_IT_number 2
_symmetry_cell_setting 'triclinic'
loop_
_space_group_symop_operation_xyz
x,y,z
-x,-y,-z
loop_
_atom_site_type_symbol
_atom_site_label
_atom_site_fract_x
_atom_site_fract_y
_atom_site_fract_z
Si Si1 0.097614 0.701924 0.381748
Si Si2 0.232408 0.940698 0.793176
Si Si3 0.629406 0.329526 0.264509
Si Si4 0.969168 0.581958 0.700383
Si Si5 0.304976 0.341613 0.766188
Si Si6 0.006320 0.347285 0.976773
Si Si7 0.622119 0.542017 0.715581
Si Si8 0.207813 0.820804 0.109789
O O1 0.250977 0.683046 0.512338
O O2 0.238293 0.493854 0.578663
O O3 0.964262 0.773289 0.098113
O O4 0.953512 0.834819 0.382684
O O5 0.216069 0.869138 0.651463
O O6 0.447712 0.836655 0.976507
O O7 0.215568 0.883643 0.947080
O O8 0.465319 0.384853 0.199743
O O9 0.500000 0.500000 0.000000
O O10 0.781022 0.692133 0.401886
O O11 0.040266 0.424585 0.890819
O O12 0.163870 0.456399 0.779875
O O13 0.898121 0.718056 0.752787
O O14 0.764213 0.524253 0.781604
O O15 0.417697 0.691007 0.405911
O O16 0.757811 0.329642 0.868988
O O17 0.000000 0.000000 0.000000
#
# Coordination Sequence:
#
# PCOD9102201 Si02
#       8
#     2   2   2   2   2   2   2   2
#     4  11  23  39  59  91 126 160 200 248 294 366
#     4  12  23  39  62  90 125 162 200 245 301 360
#     4  12  22  39  60  90 125 164 200 242 293 358
#     4   9  20  38  65  90 114 156 204 262 304 354
#     4  10  20  41  66  89 119 157 204 250 311 352
#     4  10  20  38  62  88 119 156 206 251 306 354
#     4  11  21  37  59  85 119 158 196 240 295 361
#     4  11  22  36  58  88 122 158 194 237 294 360
#
# _framework density 23.004287999999999
#
# number of rings (size 3 to 8) (size 9 to 14) (size 15 to 20)
#    0.000    1.250    2.500    5.625    0.000    0.000 
#    0.000    7.500    0.000    3.000    0.000    0.000 
#    0.000    0.000    0.000    0.000    0.000    0.000 
#
# Total GULP energy -89351.448416 kJ/mol
# GULP energy per Si atom -5584.465526 kJ/mol
# Density = 2.295193 g / cm^3
# Si number density = 23.004288 Si / 1000 Ang^3
#
#
#
# Elastic Constant Matrix: (Units=GPa)
#
#
# Indices 1 2 3 4 5 6 
#
# 1 106.8748 17.7223 24.6856 10.5064 24.5469 -29.0394
# 2 17.7223 124.5867 18.8626 19.5184 13.5964 -8.4434
# 3 24.6856 18.8626 44.9054 5.7327 17.2463 8.4586
# 4 10.5064 19.5184 5.7327 43.3399 -1.8476 7.1238
# 5 24.5469 13.5964 17.2463 -1.8476 33.3754 6.1573
# 6 -29.0394 -8.4434 8.4586 7.1238 6.1573 36.4515
#
#
#
# Elastic Compliance Matrix: (Units=1/GPa)
#
#
# Indices 1 2 3 4 5 6 
#
# 1 0.025515 0.004419 -0.012062 -0.012395 -0.020562 0.030045
# 2 0.004419 0.010742 -0.005115 -0.007151 -0.007188 0.009807
# 3 -0.012062 -0.005115 0.035640 0.003496 -0.003741 -0.019116
# 4 -0.012395 -0.007151 0.003496 0.033054 0.016020 -0.021508
# 5 -0.020562 -0.007188 -0.003741 0.016020 0.056335 -0.029824
# 6 0.030045 0.009807 -0.019116 -0.021508 -0.029824 0.067318
#
#
# Mechanical properties :
#
#
# Convention : Reuss Voigt Hill
#
# Bulk Modulus (GPa) = 21.56152 44.32309 32.94230
# Shear Modulus (GPa) = 18.54732 36.97311 27.76021
#
# Velocity S-wave (km/s) = 2.84254 4.01337 3.47759
# Velocity P-wave (km/s) = 4.49072 6.38634 5.52050
#
# Compressibility (1/GPa) = 0.04637892
#
# Stress axis : x y z
#
# Youngs Moduli (GPa) = 39.19295 93.09490 28.05848
#
# Poissons Ratio (x) = -0.41137 0.33845
# Poissons Ratio (y) = -0.17319 0.14352
# Poissons Ratio (z) = 0.47276 0.47619
#
# Static dielectric constant tensor:
#      x y z
#    x 1.888770 0.017720 0.007830 
#    y 0.017720 1.939580 0.067990 
#    z 0.007830 0.067990 1.878970 
# 
# From -- ./inp_files/273719.got.cif
#   From: 2010.05.17/outbox.cif.g08.bks.cpg/sg2_137_cif.got.tgz:273719.got - 2010.06.03 11:33:40.
