data_PCOD9102567
_publ_section_title
;
Structure prediction by ZEFSAII (Michael W. Deem and Ramdas Pophale) SiO2 
 PCOD9102567
Probable space group: P -1
;
_chemical_formula_sum "Si O2"
_cell_formula_units_Z 15
_cell_length_a 12.985726
_cell_length_b 11.902070
_cell_length_c 8.279992
_cell_angle_alpha 114.246286
_cell_angle_beta 149.848529
_cell_angle_gamma 69.804275
_cell_volume 585.955379
_symmetry_space_group_name_H-M "P -1"
_symmetry_group_IT_number 2
_symmetry_cell_setting 'triclinic'
loop_
_space_group_symop_operation_xyz
x,y,z
-x,-y,-z
loop_
_atom_site_type_symbol
_atom_site_label
_atom_site_fract_x
_atom_site_fract_y
_atom_site_fract_z
Si Si1 0.085099 0.648952 0.060218
Si Si2 0.573392 0.439929 0.285465
Si Si3 0.500000 0.000000 0.500000
Si Si4 0.910098 0.437366 0.501393
Si Si5 0.756934 0.155210 0.818783
Si Si6 0.646954 0.976028 0.332947
Si Si7 0.656289 0.716857 0.667362
Si Si8 0.216938 0.258736 0.780005
O O1 0.271399 0.635434 0.430354
O O2 0.145512 0.714343 0.010865
O O3 0.027254 0.508618 0.848460
O O4 0.876569 0.709733 0.876455
O O5 0.562046 0.578898 0.424464
O O6 0.679365 0.440501 0.253014
O O7 0.359685 0.365464 0.955120
O O8 0.238459 0.961844 0.131051
O O9 0.517558 0.954948 0.306119
O O10 0.985803 0.299357 0.514893
O O11 0.000000 0.500000 0.500000
O O12 0.509973 0.178923 0.545545
O O13 0.772009 0.098655 0.625222
O O14 0.775296 0.859308 0.390303
O O15 0.500000 0.000000 0.000000
O O16 0.690214 0.748307 0.919143
#
# Coordination Sequence:
#
# PCOD9102567 Si02
#       8
#     2   2   1   2   2   2   2   2
#     4  11  20  38  64  88 121 160 204 251 306 373
#     4  11  21  37  63  95 118 160 206 249 309 375
#     4   8  22  40  60  82 124 156 202 268 298 350
#     4  11  25  39  54  93 133 155 200 256 308 378
#     4  10  21  40  61  88 118 159 211 254 309 366
#     4  10  20  38  63  91 118 160 215 256 301 372
#     4  11  19  34  65  92 118 160 200 255 312 365
#     4  12  20  37  66  86 125 163 202 257 311 361
#
# _framework density 25.599218
#
# number of rings (size 3 to 8) (size 9 to 14) (size 15 to 20)
#    0.800    0.533    5.333    2.000    0.000    3.733 
#    0.000    2.667    0.000    0.000    0.000    0.000 
#    0.000    0.000    0.000    0.000    0.000    0.000 
#
# Total GULP energy -83544.381782 kJ/mol
# GULP energy per Si atom -5569.625452 kJ/mol
# Density = 2.554095 g / cm^3
# Si number density = 25.599218 Si / 1000 Ang^3
#
#
#
# Elastic Constant Matrix: (Units=GPa)
#
#
# Indices 1 2 3 4 5 6 
#
# 1 145.3686 27.9641 25.2839 -5.0713 -8.7352 -9.3728
# 2 27.9641 111.2339 27.0560 5.2874 -3.8563 -38.9948
# 3 25.2839 27.0560 51.2923 6.7753 9.7517 -12.6070
# 4 -5.0713 5.2874 6.7753 40.5031 -1.8281 1.2916
# 5 -8.7352 -3.8563 9.7517 -1.8281 45.4377 6.8668
# 6 -9.3728 -38.9948 -12.6070 1.2916 6.8668 48.3991
#
#
#
# Elastic Compliance Matrix: (Units=1/GPa)
#
#
# Indices 1 2 3 4 5 6 
#
# 1 0.008043 -0.001370 -0.004272 0.002052 0.002593 -0.001081
# 2 -0.001370 0.013858 -0.004042 -0.001609 0.000226 0.009858
# 3 -0.004272 -0.004042 0.026890 -0.004988 -0.007764 0.004155
# 4 0.002052 -0.001609 -0.004988 0.026226 0.002883 -0.003307
# 5 0.002593 0.000226 -0.007764 0.002883 0.025059 -0.004971
# 6 -0.001081 0.009858 0.004155 -0.003307 -0.004971 0.030270
#
#
# Mechanical properties :
#
#
# Convention : Reuss Voigt Hill
#
# Bulk Modulus (GPa) = 33.98638 52.05586 43.02112
# Shear Modulus (GPa) = 31.34342 42.04071 36.69206
#
# Velocity S-wave (km/s) = 3.50292 4.05688 3.79004
# Velocity P-wave (km/s) = 5.44663 6.50565 5.99955
#
# Compressibility (1/GPa) = 0.02942355
#
# Stress axis : x y z
#
# Youngs Moduli (GPa) = 124.32760 72.16220 37.18788
#
# Poissons Ratio (x) = 0.09884 0.15887
# Poissons Ratio (y) = 0.17029 0.15032
# Poissons Ratio (z) = 0.53115 0.29169
#
# Static dielectric constant tensor:
#      x y z
#    x 3.608770 2.466360 0.589800 
#    y 2.466360 5.786270 0.805760 
#    z 0.589800 0.805760 2.395720 
# 
# From -- ./inp_files/269134.got.cif
#   From: 2010.05.17/outbox.cif.g08.bks.cpg/sg2_135_cif.got.tgz:269134.got - 2010.06.03 11:33:40.
