data_PCOD9102500
_publ_section_title
;
Structure prediction by ZEFSAII (Michael W. Deem and Ramdas Pophale) SiO2 
 PCOD9102500
Probable space group: P -1
;
_chemical_formula_sum "Si O2"
_cell_formula_units_Z 16
_cell_length_a 15.079765
_cell_length_b 17.911602
_cell_length_c 23.486017
_cell_angle_alpha 156.298764
_cell_angle_beta 19.376915
_cell_angle_gamma 148.943125
_cell_volume 844.809906
_symmetry_space_group_name_H-M "P -1"
_symmetry_group_IT_number 2
_symmetry_cell_setting 'triclinic'
loop_
_space_group_symop_operation_xyz
x,y,z
-x,-y,-z
loop_
_atom_site_type_symbol
_atom_site_label
_atom_site_fract_x
_atom_site_fract_y
_atom_site_fract_z
Si Si1 0.903073 0.908272 0.583486
Si Si2 0.307720 0.081693 0.539705
Si Si3 0.712498 0.940391 0.281185
Si Si4 0.910644 0.642847 0.036895
Si Si5 0.269935 0.758051 0.683564
Si Si6 0.526645 0.581314 0.604027
Si Si7 0.878631 0.864159 0.895235
Si Si8 0.701254 0.246523 0.862628
O O1 0.676086 0.770972 0.641530
O O2 0.111534 0.803993 0.340647
O O3 0.777698 0.088385 0.752364
O O4 0.068643 0.973611 0.582740
O O5 0.537700 0.941614 0.330200
O O6 0.451984 0.191712 0.479328
O O7 0.206839 0.226282 0.750085
O O8 0.929311 0.093575 0.244715
O O9 0.500000 0.000000 0.500000
O O10 0.854275 0.751822 0.087370
O O11 0.771446 0.448209 0.982988
O O12 0.227441 0.610336 0.829382
O O13 0.307866 0.568911 0.562912
O O14 0.051276 0.757791 0.765477
O O15 0.195211 0.930515 0.890968
O O16 0.500000 0.500000 0.500000
O O17 0.608731 0.768689 0.976360
#
# Coordination Sequence:
#
# PCOD9102500 Si02
#       8
#     2   2   2   2   2   2   2   2
#     4  11  23  38  59  88 124 157 196 257 295 347
#     4  10  22  42  61  88 124 158 198 246 301 357
#     4   9  20  40  62  89 124 160 192 245 302 355
#     4  11  23  39  64  89 121 163 199 244 303 356
#     4  10  21  38  61  88 120 155 200 249 295 352
#     4  12  23  38  59  89 122 156 201 250 298 353
#     4  10  20  38  63  88 117 161 199 241 300 357
#     4  11  22  38  60  91 120 157 204 244 298 356
#
# _framework density 18.939171000000002
#
# number of rings (size 3 to 8) (size 9 to 14) (size 15 to 20)
#    0.000    1.500    2.500    3.000    0.000    3.500 
#    0.000    9.375    0.000    0.000    0.000    0.000 
#    0.000    0.000    0.000    0.000    0.000    0.000 
#
# Total GULP energy -89381.641232 kJ/mol
# GULP energy per Si atom -5586.352577 kJ/mol
# Density = 1.889606 g / cm^3
# Si number density = 18.939171 Si / 1000 Ang^3
#
#
#
# Elastic Constant Matrix: (Units=GPa)
#
#
# Indices 1 2 3 4 5 6 
#
# 1 67.8432 56.9970 32.7370 12.2329 -9.9678 6.4494
# 2 56.9970 136.1457 41.1892 -2.5635 -18.5477 19.6530
# 3 32.7370 41.1892 78.9632 1.9095 -13.4157 2.6537
# 4 12.2329 -2.5635 1.9095 36.2788 -4.4762 -3.9281
# 5 -9.9678 -18.5477 -13.4157 -4.4762 31.2037 -1.2076
# 6 6.4494 19.6530 2.6537 -3.9281 -1.2076 41.3671
#
#
#
# Elastic Compliance Matrix: (Units=1/GPa)
#
#
# Indices 1 2 3 4 5 6 
#
# 1 0.027881 -0.010121 -0.006243 -0.009952 -0.001226 -0.000119
# 2 -0.010121 0.013488 -0.002065 0.004568 0.004392 -0.004136
# 3 -0.006243 -0.002065 0.016993 0.001730 0.004377 0.001157
# 4 -0.009952 0.004568 0.001730 0.032031 0.004970 0.002457
# 5 -0.001226 0.004392 0.004377 0.004970 0.036837 -0.000629
# 6 -0.000119 -0.004136 0.001157 0.002457 -0.000629 0.026298
#
#
# Mechanical properties :
#
#
# Convention : Reuss Voigt Hill
#
# Bulk Modulus (GPa) = 46.50476 60.53315 53.51895
# Shear Modulus (GPa) = 25.30960 31.90519 28.60740
#
# Velocity S-wave (km/s) = 3.65960 4.10886 3.89072
# Velocity P-wave (km/s) = 6.51651 7.38522 6.96443
#
# Compressibility (1/GPa) = 0.02150318
#
# Stress axis : x y z
#
# Youngs Moduli (GPa) = 35.86711 74.13912 58.84859
#
# Poissons Ratio (x) = 0.75033 0.36742
# Poissons Ratio (y) = 0.36299 0.12154
# Poissons Ratio (z) = 0.22393 0.15312
#
# Static dielectric constant tensor:
#      x y z
#    x 1.666510 -0.026060 -0.004210 
#    y -0.026060 1.635260 -0.031070 
#    z -0.004210 -0.031070 1.686720 
# 
# From -- ./inp_files/207032.got.cif
#   From: 2010.05.17/outbox.cif.g08.bks.cpg/sg2_104_cif.got.tgz:207032.got - 2010.06.03 11:33:40.
