data_PCOD9102548
_publ_section_title
;
Structure prediction by ZEFSAII (Michael W. Deem and Ramdas Pophale) SiO2 
 PCOD9102548
Probable space group: P -1
;
_chemical_formula_sum "Si O2"
_cell_formula_units_Z 16
_cell_length_a 9.789658
_cell_length_b 15.830159
_cell_length_c 11.550622
_cell_angle_alpha 147.362684
_cell_angle_beta 54.598689
_cell_angle_gamma 131.588971
_cell_volume 721.124992
_symmetry_space_group_name_H-M "P -1"
_symmetry_group_IT_number 2
_symmetry_cell_setting 'triclinic'
loop_
_space_group_symop_operation_xyz
x,y,z
-x,-y,-z
loop_
_atom_site_type_symbol
_atom_site_label
_atom_site_fract_x
_atom_site_fract_y
_atom_site_fract_z
Si Si1 0.771249 0.876079 0.183863
Si Si2 0.385128 0.807073 0.208516
Si Si3 0.899140 0.812461 0.275232
Si Si4 0.124587 0.199802 0.185377
Si Si5 0.284571 0.887175 0.110257
Si Si6 0.054589 0.734910 0.457160
Si Si7 0.584441 0.780564 0.734767
Si Si8 0.705229 0.553282 0.273719
O O1 0.588301 0.897889 0.261890
O O2 0.760385 0.800594 0.227932
O O3 0.927539 0.068583 0.342687
O O4 0.805836 0.759485 0.933242
O O5 0.344764 0.914541 0.248285
O O6 0.234316 0.745878 0.313993
O O7 0.371889 0.635698 0.953300
O O8 0.793308 0.679916 0.270944
O O9 0.067924 0.781168 0.099640
O O10 0.000000 0.000000 0.500000
O O11 0.284277 0.211735 0.211684
O O12 0.997266 0.285537 0.404877
O O13 0.000000 0.000000 0.000000
O O14 0.327067 0.058183 0.210822
O O15 0.400857 0.792668 0.884699
O O16 0.880272 0.596409 0.320305
O O17 0.565208 0.613251 0.479259
#
# Coordination Sequence:
#
# PCOD9102548 Si02
#       8
#     2   2   2   2   2   2   2   2
#     4  11  22  40  64  92 128 165 209 257 320 367
#     4  12  24  39  62 102 128 161 207 271 313 366
#     4  12  21  41  67  89 123 170 210 252 310 381
#     4   9  18  36  59  92 124 159 205 262 309 356
#     4  11  21  37  65  94 123 161 223 252 302 369
#     4  10  20  38  63  90 121 164 213 254 296 378
#     4  10  21  39  62  94 126 166 211 262 299 375
#     4  11  23  40  64  93 132 166 207 255 324 368
#
# _framework density 22.187555
#
# number of rings (size 3 to 8) (size 9 to 14) (size 15 to 20)
#    0.000    1.250    5.000    2.250    0.000    1.000 
#    0.000    0.000    0.000    1.500    0.000    0.000 
#    0.000    0.000    0.000    0.000    0.000    0.000 
#
# Total GULP energy -89313.615496 kJ/mol
# GULP energy per Si atom -5582.100968 kJ/mol
# Density = 2.213706 g / cm^3
# Si number density = 22.187555 Si / 1000 Ang^3
#
#
#
# Elastic Constant Matrix: (Units=GPa)
#
#
# Indices 1 2 3 4 5 6 
#
# 1 64.3860 22.5570 36.0270 -3.0661 12.7468 -5.9164
# 2 22.5570 80.6028 34.4934 -19.3639 -5.9698 -5.8598
# 3 36.0270 34.4934 132.1022 -24.9740 -3.1857 3.3585
# 4 -3.0661 -19.3639 -24.9740 41.5037 9.6178 -3.5684
# 5 12.7468 -5.9698 -3.1857 9.6178 26.4999 -10.0602
# 6 -5.9164 -5.8598 3.3585 -3.5684 -10.0602 33.4781
#
#
#
# Elastic Compliance Matrix: (Units=1/GPa)
#
#
# Indices 1 2 3 4 5 6 
#
# 1 0.022764 -0.005301 -0.005333 -0.001132 -0.012464 -0.000236
# 2 -0.005301 0.016739 -0.001896 0.005303 0.005883 0.004516
# 3 -0.005333 -0.001896 0.010458 0.004619 0.001156 -0.001484
# 4 -0.001132 0.005303 0.004619 0.031369 -0.008715 0.000989
# 5 -0.012464 0.005883 0.001156 -0.008715 0.053635 0.013900
# 6 -0.000236 0.004516 -0.001484 0.000989 0.013900 0.035050
#
#
# Mechanical properties :
#
#
# Convention : Reuss Voigt Hill
#
# Bulk Modulus (GPa) = 40.15593 51.47176 45.81384
# Shear Modulus (GPa) = 24.58512 32.56391 28.57451
#
# Velocity S-wave (km/s) = 3.33236 3.83517 3.59257
# Velocity P-wave (km/s) = 5.73968 6.54677 6.15646
#
# Compressibility (1/GPa) = 0.02490292
#
# Stress axis : x y z
#
# Youngs Moduli (GPa) = 43.92841 59.74031 95.61972
#
# Poissons Ratio (x) = 0.31667 0.50992
# Poissons Ratio (y) = 0.23286 0.18126
# Poissons Ratio (z) = 0.23426 0.11325
#
# Static dielectric constant tensor:
#      x y z
#    x 1.807020 0.001170 -0.041590 
#    y 0.001170 1.870290 -0.070690 
#    z -0.041590 -0.070690 1.854830 
# 
# From -- ./inp_files/321074.got.cif
#   From: 2010.05.17/outbox.cif.g08.bks.cpg/sg2_161_cif.got.tgz:321074.got - 2010.06.03 11:33:40.
