data_PCOD9102889
_publ_section_title
;
Structure prediction by ZEFSAII (Michael W. Deem and Ramdas Pophale) SiO2 
 PCOD9102889
Probable space group: P -1
;
_chemical_formula_sum "Si O2"
_cell_formula_units_Z 15
_cell_length_a 9.775468
_cell_length_b 9.676992
_cell_length_c 14.524786
_cell_angle_alpha 49.893148
_cell_angle_beta 137.260049
_cell_angle_gamma 136.659352
_cell_volume 621.880728
_symmetry_space_group_name_H-M "P -1"
_symmetry_group_IT_number 2
_symmetry_cell_setting 'triclinic'
loop_
_space_group_symop_operation_xyz
x,y,z
-x,-y,-z
loop_
_atom_site_type_symbol
_atom_site_label
_atom_site_fract_x
_atom_site_fract_y
_atom_site_fract_z
Si Si1 0.745010 0.156138 0.508675
Si Si2 0.500000 0.000000 0.000000
Si Si3 0.148808 0.439901 0.725568
Si Si4 0.588282 0.427633 0.926939
Si Si5 0.990688 0.933314 0.659840
Si Si6 0.444347 0.355881 0.678013
Si Si7 0.180175 0.474640 0.361240
Si Si8 0.979521 0.283198 0.051014
O O1 0.749507 0.346524 0.374491
O O2 0.956074 0.259604 0.642753
O O3 0.500000 0.000000 0.500000
O O4 0.821907 0.029846 0.532076
O O5 0.399552 0.783846 0.978946
O O6 0.711186 0.123360 0.977136
O O7 0.360679 0.404711 0.872658
O O8 0.008975 0.465505 0.729318
O O9 0.533063 0.442664 0.784777
O O10 0.829954 0.637759 0.969122
O O11 0.957067 0.824514 0.788414
O O12 0.931189 0.760019 0.629232
O O13 0.254669 0.117121 0.705557
O O14 0.320178 0.475671 0.520869
O O15 0.639764 0.390234 0.686491
O O16 0.000000 0.500000 0.000000
#
# Coordination Sequence:
#
# PCOD9102889 Si02
#       8
#     2   1   2   2   2   2   2   2
#     4  11  23  33  58  84 122 163 205 238 295 350
#     4  10  20  38  64  92 106 146 204 264 292 350
#     4  11  22  39  53  89 126 157 192 258 294 347
#     4  11  20  39  63  89 116 154 205 251 299 349
#     4  12  21  39  58  89 120 164 202 244 289 368
#     4  11  21  37  59  85 125 166 200 239 288 363
#     4  11  25  35  58  89 131 164 198 232 305 355
#     4  10  21  35  62  92 110 145 204 259 298 342
#
# _framework density 24.120379
#
# number of rings (size 3 to 8) (size 9 to 14) (size 15 to 20)
#    0.000    1.067    5.333    2.000    3.733    0.000 
#    0.000    0.000    0.000    4.000    0.000    0.000 
#    0.000    0.000    0.000    0.000    0.000    0.000 
#
# Total GULP energy -83694.708223 kJ/mol
# GULP energy per Si atom -5579.647215 kJ/mol
# Density = 2.406548 g / cm^3
# Si number density = 24.120379 Si / 1000 Ang^3
#
#
#
# Elastic Constant Matrix: (Units=GPa)
#
#
# Indices 1 2 3 4 5 6 
#
# 1 139.9125 48.3228 14.0615 -0.8974 30.0163 30.2541
# 2 48.3228 112.5982 6.4100 -7.1630 1.0295 50.7695
# 3 14.0615 6.4100 55.4446 -2.9905 -3.4802 -1.0613
# 4 -0.8974 -7.1630 -2.9905 27.6670 0.7136 2.5271
# 5 30.0163 1.0295 -3.4802 0.7136 48.2317 0.9034
# 6 30.2541 50.7695 -1.0613 2.5271 0.9034 58.4767
#
#
#
# Elastic Compliance Matrix: (Units=1/GPa)
#
#
# Indices 1 2 3 4 5 6 
#
# 1 0.010492 -0.003103 -0.002787 -0.000350 -0.006609 -0.002667
# 2 -0.003103 0.016398 -0.000971 0.005175 0.001676 -0.012898
# 3 -0.002787 -0.000971 0.019173 0.001421 0.003070 0.002524
# 4 -0.000350 0.005175 0.001421 0.038174 -0.000244 -0.005932
# 5 -0.006609 0.001676 0.003070 -0.000244 0.025005 0.001644
# 6 -0.002667 -0.012898 0.002524 -0.005932 0.001644 0.029956
#
#
# Mechanical properties :
#
#
# Convention : Reuss Voigt Hill
#
# Bulk Modulus (GPa) = 30.92207 49.50489 40.21348
# Shear Modulus (GPa) = 30.54386 42.81915 36.68150
#
# Velocity S-wave (km/s) = 3.56238 4.21792 3.90393
# Velocity P-wave (km/s) = 5.45605 6.65505 6.08516
#
# Compressibility (1/GPa) = 0.03233936
#
# Stress axis : x y z
#
# Youngs Moduli (GPa) = 95.31505 60.98413 52.15737
#
# Poissons Ratio (x) = 0.18924 0.14535
# Poissons Ratio (y) = 0.29578 0.05066
# Poissons Ratio (z) = 0.26562 0.05924
#
# Static dielectric constant tensor:
#      x y z
#    x 1.958780 0.016780 0.033840 
#    y 0.016780 1.922580 0.076390 
#    z 0.033840 0.076390 2.234410 
# 
# From -- ./inp_files/202854.got.cif
#   From: 2010.05.17/outbox.cif.g08.bks.cpg/sg2_102_cif.got.tgz:202854.got - 2010.06.03 11:33:40.
