data_PCOD9102711
_publ_section_title
;
Structure prediction by ZEFSAII (Michael W. Deem and Ramdas Pophale) SiO2 
 PCOD9102711
Probable space group: P -1
;
_chemical_formula_sum "Si O2"
_cell_formula_units_Z 13
_cell_length_a 9.679009
_cell_length_b 8.303714
_cell_length_c 11.430366
_cell_angle_alpha 56.870698
_cell_angle_beta 50.723872
_cell_angle_gamma 87.653178
_cell_volume 525.496758
_symmetry_space_group_name_H-M "P -1"
_symmetry_group_IT_number 2
_symmetry_cell_setting 'triclinic'
loop_
_space_group_symop_operation_xyz
x,y,z
-x,-y,-z
loop_
_atom_site_type_symbol
_atom_site_label
_atom_site_fract_x
_atom_site_fract_y
_atom_site_fract_z
Si Si1 0.445446 0.625842 0.876989
Si Si2 0.760932 0.101401 0.052716
Si Si3 0.782130 0.429209 0.584893
Si Si4 0.795577 0.083024 0.567051
Si Si5 0.847184 0.820753 0.832699
Si Si6 0.155257 0.149430 0.716021
Si Si7 0.500000 0.000000 0.000000
O O1 0.640595 0.868522 0.662654
O O2 0.500000 0.500000 0.000000
O O3 0.280705 0.703525 0.965757
O O4 0.316230 0.417637 0.946544
O O5 0.627950 0.994174 0.053146
O O6 0.996428 0.184899 0.867939
O O7 0.707137 0.921469 0.254615
O O8 0.767789 0.292208 0.529038
O O9 0.746217 0.633939 0.499406
O O10 0.628371 0.265922 0.824235
O O11 0.000000 0.500000 0.500000
O O12 0.016218 0.175609 0.354351
O O13 0.758949 0.977799 0.762569
O O14 0.008547 0.948224 0.793854
#
# Coordination Sequence:
#
# PCOD9102711 Si02
#       7
#     2   2   2   2   2   2   1
#     4  10  22  40  66  96 133 177 232 282 327 412
#     4  11  24  45  71 104 140 182 237 286 351 419
#     4  12  22  40  71 100 135 181 234 289 341 410
#     4  10  20  38  63  98 129 179 237 272 337 410
#     4  10  21  39  64  94 139 181 221 282 343 405
#     4  11  25  44  68 107 145 181 226 294 359 404
#     4  12  24  40  76  96 130 182 238 284 336 416
#
# _framework density 24.738498
#
# number of rings (size 3 to 8) (size 9 to 14) (size 15 to 20)
#    0.000    1.231    4.615    0.923    2.154    2.462 
#    0.000    0.769    0.000    0.000    0.000    0.000 
#    0.000    0.000    0.000    0.000    0.000    0.000 
#
# Total GULP energy -72403.042556 kJ/mol
# GULP energy per Si atom -5569.464812 kJ/mol
# Density = 2.468219 g / cm^3
# Si number density = 24.738498 Si / 1000 Ang^3
#
#
#
# Elastic Constant Matrix: (Units=GPa)
#
#
# Indices 1 2 3 4 5 6 
#
# 1 132.4932 47.0031 48.2803 -30.4936 25.8855 -2.2862
# 2 47.0031 117.6709 34.0589 -34.0545 2.0705 -5.7320
# 3 48.2803 34.0589 123.7419 -41.3736 -7.7115 9.7440
# 4 -30.4936 -34.0545 -41.3736 41.8369 0.5686 -11.0022
# 5 25.8855 2.0705 -7.7115 0.5686 37.4302 -2.2154
# 6 -2.2862 -5.7320 9.7440 -11.0022 -2.2154 33.9951
#
#
#
# Elastic Compliance Matrix: (Units=1/GPa)
#
#
# Indices 1 2 3 4 5 6 
#
# 1 0.012539 -0.002449 -0.003495 0.004409 -0.009189 0.002260
# 2 -0.002449 0.012534 0.000661 0.010425 0.001287 0.005217
# 3 -0.003495 0.000661 0.013261 0.011029 0.004943 -0.000033
# 4 0.004409 0.010425 0.011029 0.050513 -0.001223 0.015161
# 5 -0.009189 0.001287 0.004943 -0.001223 0.034037 0.000005
# 6 0.002260 0.005217 -0.000033 0.015161 0.000005 0.035364
#
#
# Mechanical properties :
#
#
# Convention : Reuss Voigt Hill
#
# Bulk Modulus (GPa) = 36.01284 70.28784 53.15034
# Shear Modulus (GPa) = 28.07871 38.95669 33.51770
#
# Velocity S-wave (km/s) = 3.37266 3.97260 3.68486
# Velocity P-wave (km/s) = 5.45486 7.03677 6.29570
#
# Compressibility (1/GPa) = 0.02776787
#
# Stress axis : x y z
#
# Youngs Moduli (GPa) = 79.75149 79.78293 75.40733
#
# Poissons Ratio (x) = 0.19542 0.26353
# Poissons Ratio (y) = 0.19535 -0.04984
# Poissons Ratio (z) = 0.27871 -0.05273
#
# Static dielectric constant tensor:
#      x y z
#    x 1.975410 -0.023970 0.016880 
#    y -0.023970 2.002310 0.019840 
#    z 0.016880 0.019840 1.952750 
# 
# From -- ./inp_files/183348.got.cif
#   From: 2010.05.17/outbox.cif.g08.bks.cpg/sg2_92_cif.got.tgz:183348.got - 2010.06.03 11:33:40.
