data_PCOD9102112
_publ_section_title
;
Structure prediction by ZEFSAII (Michael W. Deem and Ramdas Pophale) SiO2 
 PCOD9102112
Probable space group: P -1
;
_chemical_formula_sum "Si O2"
_cell_formula_units_Z 16
_cell_length_a 18.161355
_cell_length_b 8.831790
_cell_length_c 7.539020
_cell_angle_alpha 50.491493
_cell_angle_beta 56.232255
_cell_angle_gamma 48.400557
_cell_volume 678.755935
_symmetry_space_group_name_H-M "P -1"
_symmetry_group_IT_number 2
_symmetry_cell_setting 'triclinic'
loop_
_space_group_symop_operation_xyz
x,y,z
-x,-y,-z
loop_
_atom_site_type_symbol
_atom_site_label
_atom_site_fract_x
_atom_site_fract_y
_atom_site_fract_z
Si Si1 0.222023 0.293302 0.468679
Si Si2 0.595824 0.188984 0.462582
Si Si3 0.117461 0.928580 0.409005
Si Si4 0.855814 0.232781 0.889398
Si Si5 0.557682 0.950549 0.147054
Si Si6 0.280273 0.459496 0.606385
Si Si7 0.085914 0.140374 0.634207
Si Si8 0.439959 0.621290 0.228077
O O1 0.219940 0.501617 0.210287
O O2 0.249598 0.330198 0.600856
O O3 0.113411 0.309304 0.572718
O O4 0.299640 0.038050 0.508014
O O5 0.516603 0.098049 0.596921
O O6 0.553755 0.410386 0.231019
O O7 0.583220 0.290528 0.601963
O O8 0.157150 0.882268 0.188321
O O9 0.178899 0.689667 0.602810
O O10 0.122938 0.103997 0.406675
O O11 0.000000 0.000000 0.500000
O O12 0.968902 0.203496 0.749328
O O13 0.856007 0.092426 0.161122
O O14 0.661684 0.717422 0.184462
O O15 0.500000 0.000000 0.000000
O O16 0.570227 0.163490 0.021498
O O17 0.358508 0.538510 0.363862
#
# Coordination Sequence:
#
# PCOD9102112 Si02
#       8
#     2   2   2   2   2   2   2   2
#     4  11  22  35  55  84 118 150 195 250 293 347
#     4   9  19  34  53  78 103 141 188 234 291 345
#     4   9  19  38  62  87 120 156 193 243 293 345
#     4   9  21  39  58  87 120 153 199 245 291 353
#     4   9  19  35  56  79 107 145 192 242 288 342
#     4  10  21  35  54  83 114 149 193 240 292 349
#     4  10  20  38  62  84 117 162 196 237 300 353
#     4   9  18  35  54  73 107 144 185 238 285 342
#
# _framework density 23.572537000000001
#
# number of rings (size 3 to 8) (size 9 to 14) (size 15 to 20)
#    0.000    2.500    0.000    1.875    0.000    7.000 
#    0.000    3.750    0.000   13.500    0.000    0.000 
#    0.000    0.000    0.000    0.000    0.000    0.000 
#
# Total GULP energy -89206.895364 kJ/mol
# GULP energy per Si atom -5575.430960 kJ/mol
# Density = 2.351888 g / cm^3
# Si number density = 23.572537 Si / 1000 Ang^3
#
#
#
# Elastic Constant Matrix: (Units=GPa)
#
#
# Indices 1 2 3 4 5 6 
#
# 1 125.5951 34.8645 29.0520 -4.3132 4.2505 16.2996
# 2 34.8645 77.8613 30.6599 -11.4362 12.7127 -11.8628
# 3 29.0520 30.6599 52.9107 -21.0774 2.5496 -2.8886
# 4 -4.3132 -11.4362 -21.0774 29.5280 -1.9782 19.8482
# 5 4.2505 12.7127 2.5496 -1.9782 31.4610 -13.6925
# 6 16.2996 -11.8628 -2.8886 19.8482 -13.6925 47.4290
#
#
#
# Elastic Compliance Matrix: (Units=1/GPa)
#
#
# Indices 1 2 3 4 5 6 
#
# 1 0.010719 -0.003890 -0.003096 0.001936 -0.002247 -0.006304
# 2 -0.003890 0.019776 -0.010992 -0.005600 -0.003961 0.006814
# 3 -0.003096 -0.010992 0.039085 0.031984 -0.002081 -0.013290
# 4 0.001936 -0.005600 0.031984 0.078394 -0.011426 -0.036224
# 5 -0.002247 -0.003961 -0.002081 -0.011426 0.040110 0.016016
# 6 -0.006304 0.006814 -0.013290 -0.036224 0.016016 0.043928
#
#
# Mechanical properties :
#
#
# Convention : Reuss Voigt Hill
#
# Bulk Modulus (GPa) = 29.74022 49.50221 39.62121
# Shear Modulus (GPa) = 17.90994 32.46966 25.18980
#
# Velocity S-wave (km/s) = 2.75940 3.71541 3.27250
# Velocity P-wave (km/s) = 4.77454 6.28102 5.57886
#
# Compressibility (1/GPa) = 0.03362450
#
# Stress axis : x y z
#
# Youngs Moduli (GPa) = 93.29516 50.56738 25.58534
#
# Poissons Ratio (x) = 0.19668 0.07921
# Poissons Ratio (y) = 0.36288 0.28123
# Poissons Ratio (z) = 0.28885 0.55582
#
# Static dielectric constant tensor:
#      x y z
#    x 1.918900 -0.038390 0.065860 
#    y -0.038390 1.889150 0.151770 
#    z 0.065860 0.151770 1.581380 
# 
# From -- ./inp_files/218521.got.cif
#   From: 2010.05.17/outbox.cif.g08.bks.cpg/sg2_110_cif.got.tgz:218521.got - 2010.06.03 11:33:40.
