data_PCOD9102353
_publ_section_title
;
Structure prediction by ZEFSAII (Michael W. Deem and Ramdas Pophale) SiO2 
 PCOD9102353
Probable space group: P -1
;
_chemical_formula_sum "Si O2"
_cell_formula_units_Z 13
_cell_length_a 7.555389
_cell_length_b 8.683322
_cell_length_c 12.066713
_cell_angle_alpha 112.456026
_cell_angle_beta 131.252813
_cell_angle_gamma 55.500118
_cell_volume 490.446707
_symmetry_space_group_name_H-M "P -1"
_symmetry_group_IT_number 2
_symmetry_cell_setting 'triclinic'
loop_
_space_group_symop_operation_xyz
x,y,z
-x,-y,-z
loop_
_atom_site_type_symbol
_atom_site_label
_atom_site_fract_x
_atom_site_fract_y
_atom_site_fract_z
Si Si1 0.242470 0.710623 0.938983
Si Si2 0.132947 0.716469 0.663106
Si Si3 0.239369 0.457681 0.432264
Si Si4 0.653154 0.007999 0.828215
Si Si5 0.500000 0.000000 0.000000
Si Si6 0.664364 0.058511 0.496830
Si Si7 0.910995 0.583718 0.111385
O O1 0.315984 0.716918 0.840904
O O2 0.251594 0.520317 0.932189
O O3 0.351709 0.792799 0.104197
O O4 0.929488 0.866199 0.848142
O O5 0.240907 0.603433 0.563841
O O6 0.958465 0.621381 0.618752
O O7 0.962968 0.931923 0.617896
O O8 0.525661 0.279822 0.499358
O O9 0.138056 0.525268 0.284390
O O10 0.406616 0.010973 0.664814
O O11 0.660922 0.936458 0.934145
O O12 0.731952 0.805191 0.101415
O O13 0.500000 0.000000 0.500000
O O14 0.000000 0.500000 0.000000
#
# Coordination Sequence:
#
# PCOD9102353 Si02
#       7
#     2   2   2   2   1   2   2
#     4  10  21  39  61  88 125 153 188 257 299 337
#     4   9  17  32  55  84 112 150 195 238 288 344
#     4   9  17  29  52  82 114 149 193 238 284 346
#     4  11  21  38  61  91 119 155 197 242 303 345
#     4  12  24  36  62  84 116 164 200 234 288 368
#     4  10  16  32  56  86 112 150 193 240 281 355
#     4  11  20  38  57  88 123 158 194 243 298 348
#
# _framework density 26.506447000000001
#
# number of rings (size 3 to 8) (size 9 to 14) (size 15 to 20)
#    0.000    1.846    6.154    0.923    0.000    1.846 
#    0.000    0.000    0.000    5.538    0.000   14.000 
#    0.000    0.000    0.000    0.000    0.000    0.000 
#
# Total GULP energy -72519.443731 kJ/mol
# GULP energy per Si atom -5578.418749 kJ/mol
# Density = 2.644612 g / cm^3
# Si number density = 26.506447 Si / 1000 Ang^3
#
#
#
# Elastic Constant Matrix: (Units=GPa)
#
#
# Indices 1 2 3 4 5 6 
#
# 1 70.9782 9.9300 25.5623 8.6851 -20.8742 0.6873
# 2 9.9300 186.6489 102.5162 -30.3962 -10.3640 -45.5612
# 3 25.5623 102.5162 130.0024 -1.6255 -17.3653 -27.7424
# 4 8.6851 -30.3962 -1.6255 54.3525 -9.9328 -6.9206
# 5 -20.8742 -10.3640 -17.3653 -9.9328 39.3134 4.2055
# 6 0.6873 -45.5612 -27.7424 -6.9206 4.2055 25.8710
#
#
#
# Elastic Compliance Matrix: (Units=1/GPa)
#
#
# Indices 1 2 3 4 5 6 
#
# 1 0.018341 -0.001397 -0.003358 -0.003477 0.007947 -0.008771
# 2 -0.001397 0.020183 -0.008887 0.015296 0.001316 0.029929
# 3 -0.003358 -0.008887 0.015516 -0.003661 0.001824 -0.000199
# 4 -0.003477 0.015296 -0.003661 0.032322 0.005433 0.030867
# 5 0.007947 0.001316 0.001824 0.005433 0.032150 0.000290
# 6 -0.008771 0.029929 -0.000199 0.030867 0.000290 0.099590
#
#
# Mechanical properties :
#
#
# Convention : Reuss Voigt Hill
#
# Bulk Modulus (GPa) = 37.37668 73.73851 55.55759
# Shear Modulus (GPa) = 19.66133 40.54877 30.10505
#
# Velocity S-wave (km/s) = 2.72648 3.91547 3.37377
# Velocity P-wave (km/s) = 4.90338 6.95131 6.01514
#
# Compressibility (1/GPa) = 0.02675465
#
# Stress axis : x y z
#
# Youngs Moduli (GPa) = 54.52182 49.54685 64.45020
#
# Poissons Ratio (x) = 0.06924 0.21644
# Poissons Ratio (y) = 0.07619 0.57277
# Poissons Ratio (z) = 0.18310 0.44032
#
# Static dielectric constant tensor:
#      x y z
#    x 2.314040 -0.005860 0.214350 
#    y -0.005860 2.202720 -0.102710 
#    z 0.214350 -0.102710 2.482470 
# 
# From -- ./inp_files/382720.got.cif
#   From: 2010.05.17/outbox.cif.g08.bks.cpg/sg2_192_cif.got.tgz:382720.got - 2010.06.03 11:33:40.
