data_PCOD9102113
_publ_section_title
;
Structure prediction by ZEFSAII (Michael W. Deem and Ramdas Pophale) SiO2 
 PCOD9102113
Probable space group: P -1
;
_chemical_formula_sum "Si O2"
_cell_formula_units_Z 9
_cell_length_a 6.935474
_cell_length_b 7.926447
_cell_length_c 9.563144
_cell_angle_alpha 122.374112
_cell_angle_beta 93.770731
_cell_angle_gamma 121.032218
_cell_volume 335.353392
_symmetry_space_group_name_H-M "P -1"
_symmetry_group_IT_number 2
_symmetry_cell_setting 'triclinic'
loop_
_space_group_symop_operation_xyz
x,y,z
-x,-y,-z
loop_
_atom_site_type_symbol
_atom_site_label
_atom_site_fract_x
_atom_site_fract_y
_atom_site_fract_z
Si Si1 0.416547 0.717661 0.353612
Si Si2 0.374297 0.661015 0.923414
Si Si3 0.788352 0.529594 0.478863
Si Si4 0.000000 0.500000 0.000000
Si Si5 0.170747 0.145329 0.784099
O O1 0.384070 0.594977 0.447553
O O2 0.637354 0.764071 0.294550
O O3 0.500000 0.000000 0.500000
O O4 0.157398 0.545085 0.177815
O O5 0.334037 0.610631 0.737356
O O6 0.141959 0.366590 0.862798
O O7 0.283001 0.786044 0.064253
O O8 0.653154 0.784170 0.042392
O O9 0.000000 0.500000 0.500000
O O10 0.937559 0.841507 0.623145
#
# Coordination Sequence:
#
# PCOD9102113 Si02
#       5
#     2   2   2   1   2
#     4  11  22  38  61  90 120 158 199 244 298 354
#     4  10  22  41  63  88 123 160 196 252 297 353
#     4  12  22  38  65  93 117 159 203 245 297 357
#     4  10  20  38  62  84 118 162 196 238 304 350
#     4  10  23  42  61  89 126 156 198 247 301 353
#
# _framework density 26.837361000000001
#
# number of rings (size 3 to 8) (size 9 to 14) (size 15 to 20)
#    0.000    1.333    4.444    0.667    0.000    3.556 
#    0.000   10.000    0.000    0.000    0.000    0.000 
#    0.000    0.000    0.000    0.000    0.000    0.000 
#
# Total GULP energy -50294.556343 kJ/mol
# GULP energy per Si atom -5588.284038 kJ/mol
# Density = 2.677628 g / cm^3
# Si number density = 26.837361 Si / 1000 Ang^3
#
#
#
# Elastic Constant Matrix: (Units=GPa)
#
#
# Indices 1 2 3 4 5 6 
#
# 1 144.5080 31.5236 54.0616 -11.4306 9.0404 7.2804
# 2 31.5236 128.8102 91.3590 -18.9776 17.3685 10.9108
# 3 54.0616 91.3590 186.6143 -66.0053 17.7909 9.7008
# 4 -11.4306 -18.9776 -66.0053 62.4739 -7.9689 -7.9526
# 5 9.0404 17.3685 17.7909 -7.9689 49.5307 -6.9808
# 6 7.2804 10.9108 9.7008 -7.9526 -6.9808 31.7582
#
#
#
# Elastic Compliance Matrix: (Units=1/GPa)
#
#
# Indices 1 2 3 4 5 6 
#
# 1 0.007955 0.000031 -0.002779 -0.001808 -0.000989 -0.001656
# 2 0.000031 0.013364 -0.007853 -0.005191 -0.003302 -0.004225
# 3 -0.002779 -0.007853 0.014284 0.012538 0.000459 0.002212
# 4 -0.001808 -0.005191 0.012538 0.028531 0.003110 0.006196
# 5 -0.000989 -0.003302 0.000459 0.003110 0.022853 0.007023
# 6 -0.001656 -0.004225 0.002212 0.006196 0.007023 0.035739
#
#
# Mechanical properties :
#
#
# Convention : Reuss Voigt Hill
#
# Bulk Modulus (GPa) = 69.43655 90.42454 79.93054
# Shear Modulus (GPa) = 33.61846 47.61843 40.61845
#
# Velocity S-wave (km/s) = 3.54315 4.21685 3.89460
# Velocity P-wave (km/s) = 6.53206 7.58128 7.07614
#
# Compressibility (1/GPa) = 0.01440164
#
# Stress axis : x y z
#
# Youngs Moduli (GPa) = 125.70488 74.82895 70.00801
#
# Poissons Ratio (x) = -0.00236 0.19456
# Poissons Ratio (y) = -0.00396 0.54978
# Poissons Ratio (z) = 0.34935 0.58763
#
# Static dielectric constant tensor:
#      x y z
#    x 2.542890 -0.138040 -0.154890 
#    y -0.138040 2.280990 0.075080 
#    z -0.154890 0.075080 2.100210 
# 
# From -- ./inp_files/16474.got.cif
#   From: 2010.05.17/outbox.cif.g08.bks.cpg/sg2_9_cif.got.tgz:16474.got - 2010.06.03 11:33:40.
