data_PCOD9102795
_publ_section_title
;
Structure prediction by ZEFSAII (Michael W. Deem and Ramdas Pophale) SiO2 
 PCOD9102795
Probable space group: P -1
;
_chemical_formula_sum "Si O2"
_cell_formula_units_Z 11
_cell_length_a 13.016999
_cell_length_b 4.825733
_cell_length_c 7.514378
_cell_angle_alpha 108.526906
_cell_angle_beta 120.299191
_cell_angle_gamma 72.570510
_cell_volume 380.799318
_symmetry_space_group_name_H-M "P -1"
_symmetry_group_IT_number 2
_symmetry_cell_setting 'triclinic'
loop_
_space_group_symop_operation_xyz
x,y,z
-x,-y,-z
loop_
_atom_site_type_symbol
_atom_site_label
_atom_site_fract_x
_atom_site_fract_y
_atom_site_fract_z
Si Si1 0.191733 0.525196 0.086329
Si Si2 0.051860 0.355788 0.248354
Si Si3 0.209891 0.142294 0.681824
Si Si4 0.000000 0.000000 0.500000
Si Si5 0.440089 0.689946 0.366037
Si Si6 0.528335 0.988135 0.227491
O O1 0.155062 0.347050 0.189761
O O2 0.299732 0.684327 0.274496
O O3 0.236016 0.331016 0.913017
O O4 0.068739 0.732170 0.958990
O O5 0.092503 0.213042 0.449182
O O6 0.002088 0.704048 0.312931
O O7 0.327121 0.115041 0.658182
O O8 0.151154 0.873310 0.655864
O O9 0.489728 0.663885 0.639118
O O10 0.500000 0.000000 0.500000
O O11 0.448383 0.749474 0.172571
O O12 0.500000 0.000000 0.000000
#
# Coordination Sequence:
#
# PCOD9102795 Si02
#       6
#     2   2   2   1   2   2
#     4  10  21  39  64  90 123 163 205 256 315 372
#     4  10  22  41  62  93 128 162 206 261 316 375
#     4  11  23  41  62  91 127 164 209 259 314 378
#     4  10  20  38  64  88 120 162 202 248 312 374
#     4  11  24  44  66  93 128 169 215 267 320 379
#     4  11  26  43  65  95 127 169 219 264 318 382
#
# _framework density 28.886607000000001
#
# number of rings (size 3 to 8) (size 9 to 14) (size 15 to 20)
#    0.000    1.455    0.000    5.455    0.000    8.727 
#    0.000   26.364    0.000    0.000    0.000    0.000 
#    0.000    0.000    0.000    0.000    0.000    0.000 
#
# Total GULP energy -61260.784451 kJ/mol
# GULP energy per Si atom -5569.162223 kJ/mol
# Density = 2.882086 g / cm^3
# Si number density = 28.886607 Si / 1000 Ang^3
#
#
#
# Elastic Constant Matrix: (Units=GPa)
#
#
# Indices 1 2 3 4 5 6 
#
# 1 195.5538 45.0467 72.0698 6.2970 16.4855 27.8586
# 2 45.0467 125.3956 65.5378 2.6264 -11.9978 11.1301
# 3 72.0698 65.5378 203.5055 4.0130 1.8657 19.3465
# 4 6.2970 2.6264 4.0130 46.7788 15.6791 -9.6708
# 5 16.4855 -11.9978 1.8657 15.6791 76.4206 2.5240
# 6 27.8586 11.1301 19.3465 -9.6708 2.5240 57.2374
#
#
#
# Elastic Compliance Matrix: (Units=1/GPa)
#
#
# Indices 1 2 3 4 5 6 
#
# 1 0.006507 -0.001405 -0.001596 -0.000703 -0.001361 -0.002413
# 2 -0.001405 0.010192 -0.002723 -0.001021 0.002200 -0.000647
# 3 -0.001596 -0.002723 0.006452 -0.000329 -0.000143 -0.000923
# 4 -0.000703 -0.001021 -0.000329 0.024316 -0.005154 0.004987
# 5 -0.001361 0.002200 -0.000143 -0.005154 0.014827 -0.001242
# 6 -0.002413 -0.000647 -0.000923 0.004987 -0.001242 0.019981
#
#
# Mechanical properties :
#
#
# Convention : Reuss Voigt Hill
#
# Bulk Modulus (GPa) = 85.45398 98.86263 92.15830
# Shear Modulus (GPa) = 51.21743 58.87406 55.04575
#
# Velocity S-wave (km/s) = 4.21533 4.51944 4.37003
# Velocity P-wave (km/s) = 7.30334 7.84426 7.57863
#
# Compressibility (1/GPa) = 0.01170221
#
# Stress axis : x y z
#
# Youngs Moduli (GPa) = 153.68933 98.11554 154.99529
#
# Poissons Ratio (x) = 0.13780 0.24741
# Poissons Ratio (y) = 0.21586 0.42212
# Poissons Ratio (z) = 0.24532 0.26721
#
# Static dielectric constant tensor:
#      x y z
#    x 6.808040 4.695090 -0.046750 
#    y 4.695090 7.329380 -0.322410 
#    z -0.046750 -0.322410 2.122260 
# 
# From -- ./inp_files/286508.got.cif
#   From: 2010.05.17/outbox.cif.g08.bks.cpg/sg2_144_cif.got.tgz:286508.got - 2010.06.03 11:33:40.
