data_PCOD9102408
_publ_section_title
;
Structure prediction by ZEFSAII (Michael W. Deem and Ramdas Pophale) SiO2 
 PCOD9102408
Probable space group: P -1
;
_chemical_formula_sum "Si O2"
_cell_formula_units_Z 16
_cell_length_a 7.801722
_cell_length_b 22.421784
_cell_length_c 8.749516
_cell_angle_alpha 147.337094
_cell_angle_beta 112.190456
_cell_angle_gamma 51.928392
_cell_volume 613.188065
_symmetry_space_group_name_H-M "P -1"
_symmetry_group_IT_number 2
_symmetry_cell_setting 'triclinic'
loop_
_space_group_symop_operation_xyz
x,y,z
-x,-y,-z
loop_
_atom_site_type_symbol
_atom_site_label
_atom_site_fract_x
_atom_site_fract_y
_atom_site_fract_z
Si Si1 0.175258 0.340524 0.041250
Si Si2 0.271724 0.775589 0.682425
Si Si3 0.257101 0.548464 0.099684
Si Si4 0.670443 0.711183 0.480562
Si Si5 0.890570 0.952105 0.689948
Si Si6 0.968865 0.879309 0.225385
Si Si7 0.924601 0.382663 0.370121
Si Si8 0.472714 0.079494 0.378042
O O1 0.077326 0.348089 0.192704
O O2 0.231638 0.451967 0.310916
O O3 0.390252 0.193388 0.731037
O O4 0.960780 0.387220 0.951617
O O5 0.227542 0.662922 0.448426
O O6 0.526469 0.717873 0.591916
O O7 0.126447 0.857651 0.657544
O O8 0.176434 0.896607 0.032048
O O9 0.500000 0.500000 0.000000
O O10 0.295849 0.410895 0.874645
O O11 0.908028 0.664962 0.531530
O O12 0.561299 0.843484 0.624451
O O13 0.913754 0.879332 0.385233
O O14 0.696676 0.963646 0.752651
O O15 0.732246 0.947548 0.200791
O O16 0.148386 0.719595 0.893404
O O17 0.000000 0.000000 0.500000
#
# Coordination Sequence:
#
# PCOD9102408 Si02
#       8
#     2   2   2   2   2   2   2   2
#     4  10  21  41  67  98 122 171 213 264 313 384
#     4  10  20  38  62  96 126 165 211 259 318 379
#     4   9  18  38  63  92 127 165 207 257 319 376
#     4  10  23  38  65  96 127 167 209 266 317 377
#     4  11  23  39  65  90 128 168 213 263 313 385
#     4  12  26  44  64  91 132 172 213 265 326 378
#     4  10  22  42  68  91 129 169 218 255 325 379
#     4  12  24  41  67  95 133 164 219 267 316 375
#
# _framework density 26.093135
#
# number of rings (size 3 to 8) (size 9 to 14) (size 15 to 20)
#    0.000    1.500    2.500    1.875    1.750    7.000 
#    2.250    0.625    0.000    0.000    0.000    0.000 
#    0.000    0.000    0.000    0.000    0.000    0.000 
#
# Total GULP energy -89489.823517 kJ/mol
# GULP energy per Si atom -5593.113970 kJ/mol
# Density = 2.603375 g / cm^3
# Si number density = 26.093135 Si / 1000 Ang^3
#
#
#
# Elastic Constant Matrix: (Units=GPa)
#
#
# Indices 1 2 3 4 5 6 
#
# 1 91.7932 4.5055 22.1693 1.7276 18.3618 -1.3003
# 2 4.5055 26.9457 6.0620 -6.5955 6.2347 5.9312
# 3 22.1693 6.0620 204.8246 25.4689 25.0556 18.3751
# 4 1.7276 -6.5955 25.4689 33.3001 9.6605 -5.3644
# 5 18.3618 6.2347 25.0556 9.6605 44.3735 0.9020
# 6 -1.3003 5.9312 18.3751 -5.3644 0.9020 24.9302
#
#
#
# Elastic Compliance Matrix: (Units=1/GPa)
#
#
# Indices 1 2 3 4 5 6 
#
# 1 0.012147 -0.000721 -0.001141 0.001826 -0.004723 0.002210
# 2 -0.000721 0.043238 -0.000943 0.010301 -0.007341 -0.007147
# 3 -0.001141 -0.000943 0.006435 -0.005466 -0.001723 -0.005692
# 4 0.001826 0.010301 -0.005466 0.040213 -0.008087 0.010619
# 5 -0.004723 -0.007341 -0.001723 -0.008087 0.028255 0.000008
# 6 0.002210 -0.007147 -0.005692 0.010619 0.000008 0.048407
#
#
# Mechanical properties :
#
#
# Convention : Reuss Voigt Hill
#
# Bulk Modulus (GPa) = 17.79084 43.22637 30.50860
# Shear Modulus (GPa) = 24.62556 39.90920 32.26738
#
# Velocity S-wave (km/s) = 3.07539 3.91511 3.52038
# Velocity P-wave (km/s) = 4.40951 6.08602 5.31429
#
# Compressibility (1/GPa) = 0.05620871
#
# Stress axis : x y z
#
# Youngs Moduli (GPa) = 82.32662 23.12804 155.40750
#
# Poissons Ratio (x) = 0.01667 0.17730
# Poissons Ratio (y) = 0.05936 0.14660
# Poissons Ratio (z) = 0.09392 0.02182
#
# Static dielectric constant tensor:
#      x y z
#    x 2.085500 0.023390 0.004340 
#    y 0.023390 2.024450 -0.006330 
#    z 0.004340 -0.006330 2.139030 
# 
# From -- ./inp_files/222896.got.cif
#   From: 2010.05.17/outbox.cif.g08.bks.cpg/sg2_112_cif.got.tgz:222896.got - 2010.06.03 11:33:40.
