data_PCOD9102813
_publ_section_title
;
Structure prediction by ZEFSAII (Michael W. Deem and Ramdas Pophale) SiO2 
 PCOD9102813
Probable space group: P -1
;
_chemical_formula_sum "Si O2"
_cell_formula_units_Z 16
_cell_length_a 24.684632
_cell_length_b 8.294651
_cell_length_c 5.125372
_cell_angle_alpha 96.754648
_cell_angle_beta 110.311922
_cell_angle_gamma 37.655318
_cell_volume 578.159523
_symmetry_space_group_name_H-M "P -1"
_symmetry_group_IT_number 2
_symmetry_cell_setting 'triclinic'
loop_
_space_group_symop_operation_xyz
x,y,z
-x,-y,-z
loop_
_atom_site_type_symbol
_atom_site_label
_atom_site_fract_x
_atom_site_fract_y
_atom_site_fract_z
Si Si1 0.996209 0.663667 0.838524
Si Si2 0.482940 0.865866 0.805939
Si Si3 0.145453 0.547581 0.283317
Si Si4 0.703813 0.727763 0.151040
Si Si5 0.305307 0.968252 0.178766
Si Si6 0.848934 0.897721 0.254509
Si Si7 0.231007 0.675960 0.187732
Si Si8 0.410408 0.479210 0.595806
O O1 0.075805 0.423949 0.707923
O O2 0.892604 0.902771 0.564886
O O3 0.038986 0.724529 0.064977
O O4 0.000000 0.500000 0.000000
O O5 0.538423 0.623389 0.058706
O O6 0.522099 0.758274 0.559722
O O7 0.500000 0.000000 0.000000
O O8 0.366304 0.109529 0.685076
O O9 0.183712 0.487337 0.629048
O O10 0.178239 0.640407 0.219595
O O11 0.214501 0.242350 0.247006
O O12 0.705694 0.550934 0.982628
O O13 0.663245 0.956029 0.934747
O O14 0.380335 0.715460 0.451447
O O15 0.257261 0.942647 0.901318
O O16 0.842098 0.036640 0.027220
O O17 0.311102 0.596243 0.467313
#
# Coordination Sequence:
#
# PCOD9102813 Si02
#       8
#     2   2   2   2   2   2   2   2
#     4  10  20  38  64  89 120 157 203 260 311 379
#     4  12  25  41  66  94 130 169 218 267 320 375
#     4  10  22  39  61  90 124 164 204 257 321 377
#     4  11  23  38  63  86 129 162 207 262 317 372
#     4   9  22  41  61  90 123 164 210 259 315 377
#     4   9  20  40  62  87 119 160 206 253 313 379
#     4  10  22  41  61  88 123 165 207 256 318 380
#     4  11  25  43  67  94 125 173 219 266 317 374
#
# _framework density 27.674025
#
# number of rings (size 3 to 8) (size 9 to 14) (size 15 to 20)
#    0.000    1.750    1.250    1.875    5.250    3.500 
#    4.500    1.250    0.000    0.000    0.000    0.000 
#    0.000    0.000    0.000    0.000    0.000    0.000 
#
# Total GULP energy -89658.107961 kJ/mol
# GULP energy per Si atom -5603.631748 kJ/mol
# Density = 2.761104 g / cm^3
# Si number density = 27.674025 Si / 1000 Ang^3
#
#
#
# Elastic Constant Matrix: (Units=GPa)
#
#
# Indices 1 2 3 4 5 6 
#
# 1 83.6504 21.8308 45.4717 -12.0847 2.2842 9.7087
# 2 21.8308 100.1465 8.8456 -6.2002 -0.8431 13.4151
# 3 45.4717 8.8456 177.9799 -17.7949 25.0774 5.5527
# 4 -12.0847 -6.2002 -17.7949 43.2063 4.3900 -0.1299
# 5 2.2842 -0.8431 25.0774 4.3900 48.8440 -3.6254
# 6 9.7087 13.4151 5.5527 -0.1299 -3.6254 38.8671
#
#
#
# Elastic Compliance Matrix: (Units=1/GPa)
#
#
# Indices 1 2 3 4 5 6 
#
# 1 0.015119 -0.002522 -0.003526 0.002339 0.000677 -0.002332
# 2 -0.002522 0.011000 0.000327 0.001018 -0.000191 -0.003228
# 3 -0.003526 0.000327 0.007312 0.002461 -0.003851 -0.000628
# 4 0.002339 0.001018 0.002461 0.025335 -0.003748 -0.001552
# 5 0.000677 -0.000191 -0.003851 -0.003748 0.022944 0.002575
# 6 -0.002332 -0.003228 -0.000628 -0.001552 0.002575 0.027750
#
#
# Mechanical properties :
#
#
# Convention : Reuss Voigt Hill
#
# Bulk Modulus (GPa) = 45.47683 57.11923 51.29803
# Shear Modulus (GPa) = 38.99214 45.22539 42.10876
#
# Velocity S-wave (km/s) = 3.75771 4.04693 3.90500
# Velocity P-wave (km/s) = 5.94103 6.52087 6.23769
#
# Compressibility (1/GPa) = 0.02198922
#
# Stress axis : x y z
#
# Youngs Moduli (GPa) = 66.13987 90.90938 136.76935
#
# Poissons Ratio (x) = 0.22923 0.48228
# Poissons Ratio (y) = 0.16678 -0.04471
# Poissons Ratio (z) = 0.23323 -0.02972
#
# Static dielectric constant tensor:
#      x y z
#    x 2.180730 -0.085260 0.014900 
#    y -0.085260 2.222380 0.028490 
#    z 0.014900 0.028490 2.160160 
# 
# From -- ./inp_files/39946.got.cif
#   From: 2010.05.17/outbox.cif.g08.bks.cpg/sg2_20_cif.got.tgz:39946.got - 2010.06.03 11:33:40.
