data_PCOD9102456
_publ_section_title
;
Structure prediction by ZEFSAII (Michael W. Deem and Ramdas Pophale) SiO2 
 PCOD9102456
Probable space group: P -1
;
_chemical_formula_sum "Si O2"
_cell_formula_units_Z 16
_cell_length_a 13.015266
_cell_length_b 8.665445
_cell_length_c 12.954702
_cell_angle_alpha 98.921001
_cell_angle_beta 43.097639
_cell_angle_gamma 66.219390
_cell_volume 634.947194
_symmetry_space_group_name_H-M "P -1"
_symmetry_group_IT_number 2
_symmetry_cell_setting 'triclinic'
loop_
_space_group_symop_operation_xyz
x,y,z
-x,-y,-z
loop_
_atom_site_type_symbol
_atom_site_label
_atom_site_fract_x
_atom_site_fract_y
_atom_site_fract_z
Si Si1 0.572041 0.136690 0.068008
Si Si2 0.182012 0.696708 0.359457
Si Si3 0.438648 0.414705 0.645755
Si Si4 0.018748 0.369230 0.070454
Si Si5 0.079234 0.912651 0.248629
Si Si6 0.750888 0.118596 0.210131
Si Si7 0.253099 0.451698 0.003349
Si Si8 0.673787 0.965556 0.752050
O O1 0.380981 0.416346 0.206217
O O2 0.420466 0.123641 0.233900
O O3 0.797225 0.066396 0.919986
O O4 0.674607 0.963675 0.875511
O O5 0.223924 0.771146 0.236149
O O6 0.141249 0.829002 0.508514
O O7 0.940147 0.799842 0.515588
O O8 0.674614 0.176048 0.392019
O O9 0.422679 0.615328 0.684284
O O10 0.376807 0.386946 0.796216
O O11 0.229738 0.519695 0.733805
O O12 0.094621 0.422507 0.111909
O O13 0.217677 0.081144 0.874538
O O14 0.000000 0.500000 0.000000
O O15 0.095845 0.727520 0.170446
O O16 0.000000 0.000000 0.000000
O O17 0.469834 0.246434 0.897228
#
# Coordination Sequence:
#
# PCOD9102456 Si02
#       8
#     2   2   2   2   2   2   2   2
#     4  10  20  40  62  81 122 165 209 251 315 369
#     4  10  20  38  63  84 118 171 213 245 317 370
#     4   9  20  40  67  88 119 168 200 250 313 373
#     4   9  20  38  61  88 123 163 195 250 310 375
#     4  10  22  36  62  87 119 163 209 259 301 363
#     4   9  18  40  67  89 115 159 204 243 313 383
#     4  11  22  39  57  92 130 152 214 264 302 361
#     4  10  22  37  60  89 121 161 204 265 308 364
#
# _framework density 25.198945999999999
#
# number of rings (size 3 to 8) (size 9 to 14) (size 15 to 20)
#    0.000    2.250    1.250    0.750    3.500    3.000 
#    9.000    0.000    5.500    0.000    0.000    0.000 
#    0.000    0.000    0.000    0.000    0.000    0.000 
#
# Total GULP energy -89302.340266 kJ/mol
# GULP energy per Si atom -5581.396267 kJ/mol
# Density = 2.514159 g / cm^3
# Si number density = 25.198946 Si / 1000 Ang^3
#
#
#
# Elastic Constant Matrix: (Units=GPa)
#
#
# Indices 1 2 3 4 5 6 
#
# 1 85.7376 21.4673 35.4592 2.7069 1.9197 25.4394
# 2 21.4673 86.8976 26.4189 4.4022 1.3407 30.8362
# 3 35.4592 26.4189 116.3382 -2.8449 6.9091 16.9590
# 4 2.7069 4.4022 -2.8449 34.1796 -0.2719 3.3587
# 5 1.9197 1.3407 6.9091 -0.2719 33.9287 6.3339
# 6 25.4394 30.8362 16.9590 3.3587 6.3339 46.5565
#
#
#
# Elastic Compliance Matrix: (Units=1/GPa)
#
#
# Indices 1 2 3 4 5 6 
#
# 1 0.015315 -0.000140 -0.003702 -0.000802 0.001199 -0.007032
# 2 -0.000140 0.015676 -0.002241 -0.001236 0.001631 -0.009622
# 3 -0.003702 -0.002241 0.010395 0.001447 -0.001781 -0.000141
# 4 -0.000802 -0.001236 0.001447 0.029746 0.000310 -0.001458
# 5 0.001199 0.001631 -0.001781 0.000310 0.030693 -0.005285
# 6 -0.007032 -0.009622 -0.000141 -0.001458 -0.005285 0.032571
#
#
# Mechanical properties :
#
#
# Convention : Reuss Voigt Hill
#
# Bulk Modulus (GPa) = 34.22536 50.62937 42.42736
# Shear Modulus (GPa) = 31.98949 36.64150 34.31549
#
# Velocity S-wave (km/s) = 3.56684 3.81739 3.69424
# Velocity P-wave (km/s) = 5.52944 6.29010 5.92200
#
# Compressibility (1/GPa) = 0.02921810
#
# Stress axis : x y z
#
# Youngs Moduli (GPa) = 65.29731 63.79196 96.20376
#
# Poissons Ratio (x) = 0.00896 0.35611
# Poissons Ratio (y) = 0.00917 0.21563
# Poissons Ratio (z) = 0.24171 0.14299
#
# Static dielectric constant tensor:
#      x y z
#    x 2.150520 0.022510 -0.018890 
#    y 0.022510 2.024420 -0.021130 
#    z -0.018890 -0.021130 1.978770 
# 
# From -- ./inp_files/528724.got.cif
#   From: 2010.05.17/outbox.cif.g08.bks.cpg/sg2_265_cif.got.tgz:528724.got - 2010.06.03 11:33:40.
