data_PCOD9102501
_publ_section_title
;
Structure prediction by ZEFSAII (Michael W. Deem and Ramdas Pophale) SiO2 
 PCOD9102501
Probable space group: P -1
;
_chemical_formula_sum "Si O2"
_cell_formula_units_Z 16
_cell_length_a 13.877765
_cell_length_b 14.420623
_cell_length_c 18.303994
_cell_angle_alpha 130.206975
_cell_angle_beta 139.808114
_cell_angle_gamma 20.912859
_cell_volume 806.197960
_symmetry_space_group_name_H-M "P -1"
_symmetry_group_IT_number 2
_symmetry_cell_setting 'triclinic'
loop_
_space_group_symop_operation_xyz
x,y,z
-x,-y,-z
loop_
_atom_site_type_symbol
_atom_site_label
_atom_site_fract_x
_atom_site_fract_y
_atom_site_fract_z
Si Si1 0.714810 0.930071 0.274780
Si Si2 0.380827 0.615388 0.171395
Si Si3 0.398767 0.701981 0.078346
Si Si4 0.271693 0.477773 0.243563
Si Si5 0.728057 0.942103 0.076727
Si Si6 0.961661 0.025106 0.270552
Si Si7 0.673720 0.025823 0.924867
Si Si8 0.086184 0.845643 0.537519
O O1 0.976811 0.702755 0.247437
O O2 0.945129 0.820733 0.415760
O O3 0.471259 0.211614 0.244821
O O4 0.475418 0.995119 0.195802
O O5 0.501561 0.620919 0.181413
O O6 0.685629 0.310465 0.217647
O O7 0.224693 0.796212 0.243613
O O8 0.075452 0.759620 0.030272
O O9 0.491212 0.748298 0.104221
O O10 0.500000 0.500000 0.000000
O O11 0.000000 0.000000 0.000000
O O12 0.518763 0.414507 0.357850
O O13 0.092918 0.613692 0.130019
O O14 0.789625 0.023868 0.194583
O O15 0.589829 0.086624 0.992895
O O16 0.500000 0.000000 0.000000
O O17 0.074067 0.003934 0.400682
O O18 0.000000 0.000000 0.500000
#
# Coordination Sequence:
#
# PCOD9102501 Si02
#       8
#     2   2   2   2   2   2   2   2
#     4  11  24  38  57  84 118 161 199 252 285 343
#     4  10  22  39  63  86 118 148 198 250 303 357
#     4  10  20  38  63  88 118 152 190 246 301 362
#     4  11  23  38  55  82 119 168 203 236 286 343
#     4  11  21  35  58  83 127 153 191 236 293 356
#     4  11  23  39  59  87 112 161 201 241 293 352
#     4  10  22  36  59  90 121 149 196 237 310 352
#     4  10  22  40  60  80 119 161 215 238 281 344
#
# _framework density 19.846243999999999
#
# number of rings (size 3 to 8) (size 9 to 14) (size 15 to 20)
#    0.000    1.500    1.250    5.625    1.750    5.500 
#    0.000    0.000    0.000    1.500    0.000    0.000 
#    0.000    1.000    0.000    0.000    0.000    0.000 
#
# Total GULP energy -89172.645358 kJ/mol
# GULP energy per Si atom -5573.290335 kJ/mol
# Density = 1.980107 g / cm^3
# Si number density = 19.846244 Si / 1000 Ang^3
#
#
#
# Elastic Constant Matrix: (Units=GPa)
#
#
# Indices 1 2 3 4 5 6 
#
# 1 135.8031 46.3830 47.0836 9.0662 -21.3564 25.7681
# 2 46.3830 124.6602 11.5298 -0.9651 -10.1103 5.7299
# 3 47.0836 11.5298 92.5687 6.4403 3.4914 6.0992
# 4 9.0662 -0.9651 6.4403 26.2538 2.0757 -3.4906
# 5 -21.3564 -10.1103 3.4914 2.0757 28.5241 1.0286
# 6 25.7681 5.7299 6.0992 -3.4906 1.0286 33.9848
#
#
#
# Elastic Compliance Matrix: (Units=1/GPa)
#
#
# Indices 1 2 3 4 5 6 
#
# 1 0.015156 -0.003640 -0.006568 -0.006101 0.011691 -0.010680
# 2 -0.003640 0.009315 0.000482 0.001620 0.000354 0.001259
# 3 -0.006568 0.000482 0.014189 -0.000342 -0.006550 0.002516
# 4 -0.006101 0.001620 -0.000342 0.042112 -0.007339 0.008961
# 5 0.011691 0.000354 -0.006550 -0.007339 0.045629 -0.009883
# 6 -0.010680 0.001259 0.002516 0.008961 -0.009883 0.038078
#
#
# Mechanical properties :
#
#
# Convention : Reuss Voigt Hill
#
# Bulk Modulus (GPa) = 52.06291 62.55832 57.31061
# Shear Modulus (GPa) = 26.26959 34.28825 30.27892
#
# Velocity S-wave (km/s) = 3.64215 4.16106 3.91023
# Velocity P-wave (km/s) = 6.63153 7.39431 7.02328
#
# Compressibility (1/GPa) = 0.01920753
#
# Stress axis : x y z
#
# Youngs Moduli (GPa) = 65.97884 107.35409 70.47818
#
# Poissons Ratio (x) = 0.39077 0.46294
# Poissons Ratio (y) = 0.24016 -0.03398
# Poissons Ratio (z) = 0.43338 -0.05176
#
# Static dielectric constant tensor:
#      x y z
#    x 1.770610 -0.026490 -0.027800 
#    y -0.026490 1.771650 0.010240 
#    z -0.027800 0.010240 1.765430 
# 
# From -- ./inp_files/574038.got.cif
#   From: 2010.05.17/outbox.cif.g08.bks.cpg/sg2_288_cif.got.tgz:574038.got - 2010.06.03 11:33:40.
