data_PCOD9102830
_publ_section_title
;
Structure prediction by ZEFSAII (Michael W. Deem and Ramdas Pophale) SiO2 
 PCOD9102830
Probable space group: P -1
;
_chemical_formula_sum "Si O2"
_cell_formula_units_Z 12
_cell_length_a 6.918537
_cell_length_b 12.361282
_cell_length_c 13.413681
_cell_angle_alpha 135.796934
_cell_angle_beta 132.138476
_cell_angle_gamma 61.863979
_cell_volume 592.979305
_symmetry_space_group_name_H-M "P -1"
_symmetry_group_IT_number 2
_symmetry_cell_setting 'triclinic'
loop_
_space_group_symop_operation_xyz
x,y,z
-x,-y,-z
loop_
_atom_site_type_symbol
_atom_site_label
_atom_site_fract_x
_atom_site_fract_y
_atom_site_fract_z
Si Si1 0.693039 0.887980 0.780243
Si Si2 0.860577 0.419294 0.990995
Si Si3 0.973073 0.903090 0.091020
Si Si4 0.278103 0.405141 0.745780
Si Si5 0.168674 0.824030 0.643235
Si Si6 0.877497 0.354823 0.303491
O O1 0.395327 0.833316 0.646392
O O2 0.891067 0.753047 0.727519
O O3 0.759476 0.029466 0.822371
O O4 0.771811 0.932218 0.949960
O O5 0.015273 0.275609 0.994843
O O6 0.575060 0.353949 0.817908
O O7 0.814936 0.545895 0.144765
O O8 0.000000 0.500000 0.000000
O O9 0.911117 0.007402 0.234090
O O10 0.274132 0.565418 0.785841
O O11 0.078666 0.277958 0.547008
O O12 0.271342 0.740965 0.725407
O O13 0.000000 0.500000 0.500000
#
# Coordination Sequence:
#
# PCOD9102830 Si02
#       6
#     2   2   2   2   2   2
#     4  10  20  38  64  89 127 155 194 258 304 347
#     4  11  25  42  63  82 123 170 200 242 299 361
#     4  10  22  40  59  93 118 161 206 244 296 364
#     4  10  23  41  57  92 124 156 207 247 291 364
#     4  10  22  37  66  93 119 158 199 253 309 349
#     4   9  19  35  59  94 122 148 196 252 298 356
#
# _framework density 20.236795000000001
#
# number of rings (size 3 to 8) (size 9 to 14) (size 15 to 20)
#    0.000    2.000    1.667    0.500    2.333   10.000 
#    0.000    1.667    0.000    0.000    0.000    0.000 
#    0.000    0.000    0.000    0.000    0.000    0.000 
#
# Total GULP energy -66964.527946 kJ/mol
# GULP energy per Si atom -5580.377329 kJ/mol
# Density = 2.019074 g / cm^3
# Si number density = 20.236795 Si / 1000 Ang^3
#
#
#
# Elastic Constant Matrix: (Units=GPa)
#
#
# Indices 1 2 3 4 5 6 
#
# 1 56.2967 17.1146 10.4673 1.9862 -0.0089 12.5053
# 2 17.1146 51.0440 0.8144 4.2598 -4.3220 10.1887
# 3 10.4673 0.8144 66.5108 6.8304 -1.4286 -7.0153
# 4 1.9862 4.2598 6.8304 29.0806 0.2544 -3.2637
# 5 -0.0089 -4.3220 -1.4286 0.2544 20.6578 -3.0780
# 6 12.5053 10.1887 -7.0153 -3.2637 -3.0780 20.4871
#
#
#
# Elastic Compliance Matrix: (Units=1/GPa)
#
#
# Indices 1 2 3 4 5 6 
#
# 1 0.023477 -0.005145 -0.005084 -0.001223 -0.003524 -0.014237
# 2 -0.005145 0.023717 0.000106 -0.004159 0.003719 -0.008722
# 3 -0.005084 0.000106 0.017102 -0.002713 0.002556 0.008858
# 4 -0.001223 -0.004159 -0.002713 0.036580 -0.000368 0.007658
# 5 -0.003524 0.003719 0.002556 -0.000368 0.050667 0.008730
# 6 -0.014237 -0.008722 0.008858 0.007658 0.008730 0.067404
#
#
# Mechanical properties :
#
#
# Convention : Reuss Voigt Hill
#
# Bulk Modulus (GPa) = 22.70065 25.62713 24.16389
# Shear Modulus (GPa) = 19.69470 23.74213 21.71842
#
# Velocity S-wave (km/s) = 3.12302 3.42894 3.27955
# Velocity P-wave (km/s) = 4.92404 5.32616 5.12904
#
# Compressibility (1/GPa) = 0.04405161
#
# Stress axis : x y z
#
# Youngs Moduli (GPa) = 42.59409 42.16318 58.47356
#
# Poissons Ratio (x) = 0.21694 0.29726
# Poissons Ratio (y) = 0.21916 -0.00622
# Poissons Ratio (z) = 0.21653 -0.00449
#
# Static dielectric constant tensor:
#      x y z
#    x 1.718350 0.014510 0.007850 
#    y 0.014510 1.737540 -0.005090 
#    z 0.007850 -0.005090 1.727930 
# 
# From -- ./inp_files/28070.got.cif
#   From: 2010.05.17/outbox.cif.g08.bks.cpg/sg2_15_cif.got.tgz:28070.got - 2010.06.03 11:33:40.
