data_PCOD9102422
_publ_section_title
;
Structure prediction by ZEFSAII (Michael W. Deem and Ramdas Pophale) SiO2 
 PCOD9102422
Probable space group: P -1
;
_chemical_formula_sum "Si O2"
_cell_formula_units_Z 16
_cell_length_a 9.903311
_cell_length_b 12.400770
_cell_length_c 19.751883
_cell_angle_alpha 159.084549
_cell_angle_beta 50.858132
_cell_angle_gamma 128.954363
_cell_volume 664.905110
_symmetry_space_group_name_H-M "P -1"
_symmetry_group_IT_number 2
_symmetry_cell_setting 'triclinic'
loop_
_space_group_symop_operation_xyz
x,y,z
-x,-y,-z
loop_
_atom_site_type_symbol
_atom_site_label
_atom_site_fract_x
_atom_site_fract_y
_atom_site_fract_z
Si Si1 0.027396 0.308043 0.812673
Si Si2 0.682028 0.937749 0.697735
Si Si3 0.183423 0.498936 0.403993
Si Si4 0.492410 0.479458 0.602034
Si Si5 0.564967 0.602761 0.927803
Si Si6 0.908624 0.548078 0.849296
Si Si7 0.254424 0.947817 0.981080
Si Si8 0.247796 0.858140 0.454787
O O1 0.969022 0.463296 0.854313
O O2 0.886815 0.002885 0.685235
O O3 0.217681 0.201665 0.680130
O O4 0.000000 0.500000 0.000000
O O5 0.586647 0.704714 0.646330
O O6 0.633028 0.787742 0.552726
O O7 0.606718 0.260521 0.916007
O O8 0.351896 0.638126 0.475575
O O9 0.191444 0.669245 0.429668
O O10 0.000000 0.500000 0.500000
O O11 0.213083 0.148722 0.175549
O O12 0.374838 0.686144 0.802733
O O13 0.716786 0.656222 0.968915
O O14 0.571790 0.258906 0.696766
O O15 0.644446 0.820338 0.968860
O O16 0.879198 0.267731 0.641575
O O17 0.069404 0.794588 0.918767
#
# Coordination Sequence:
#
# PCOD9102422 Si02
#       8
#     2   2   2   2   2   2   2   2
#     4  12  26  42  65  93 129 172 219 262 312 385
#     4  10  22  42  63  96 129 166 214 261 324 375
#     4  11  23  34  65  98 133 157 209 281 316 374
#     4  10  22  39  66  95 131 166 206 270 323 380
#     4   8  20  38  67  88 126 161 216 262 307 383
#     4  10  22  40  68  87 130 177 208 257 317 397
#     4  10  20  38  62  97 127 166 210 259 328 375
#     4   9  22  42  59  90 124 169 217 250 319 380
#
# _framework density 24.063585
#
# number of rings (size 3 to 8) (size 9 to 14) (size 15 to 20)
#    0.750    1.250    0.000    2.625    5.250    1.500 
#    0.000    0.625    0.000    0.000    0.000    0.000 
#    0.000    0.000    0.000    0.000    0.000    0.000 
#
# Total GULP energy -89394.445641 kJ/mol
# GULP energy per Si atom -5587.152853 kJ/mol
# Density = 2.400882 g / cm^3
# Si number density = 24.063585 Si / 1000 Ang^3
#
#
#
# Elastic Constant Matrix: (Units=GPa)
#
#
# Indices 1 2 3 4 5 6 
#
# 1 118.7730 22.1785 47.2712 -13.4550 -8.3793 -10.2849
# 2 22.1785 62.2431 31.4819 -5.8342 -2.4595 -1.3150
# 3 47.2712 31.4819 131.7527 -18.4557 -6.7888 -16.7779
# 4 -13.4550 -5.8342 -18.4557 13.7691 0.5271 9.8682
# 5 -8.3793 -2.4595 -6.7888 0.5271 37.2333 -2.0085
# 6 -10.2849 -1.3150 -16.7779 9.8682 -2.0085 22.8028
#
#
#
# Elastic Compliance Matrix: (Units=1/GPa)
#
#
# Indices 1 2 3 4 5 6 
#
# 1 0.010552 -0.001944 -0.002335 0.005913 0.001765 0.000525
# 2 -0.001944 0.018986 -0.003824 0.004201 -0.000179 -0.004429
# 3 -0.002335 -0.003824 0.011010 0.008454 0.001287 0.003282
# 4 0.005913 0.004201 0.008454 0.123322 -0.000987 -0.044326
# 5 0.001765 -0.000179 0.001287 -0.000987 0.027740 0.004603
# 6 0.000525 -0.004429 0.003282 -0.044326 0.004603 0.065839
#
#
# Mechanical properties :
#
#
# Convention : Reuss Voigt Hill
#
# Bulk Modulus (GPa) = 41.08147 57.18132 49.13140
# Shear Modulus (GPa) = 17.74509 28.88352 23.31430
#
# Velocity S-wave (km/s) = 2.71850 3.46829 3.11603
# Velocity P-wave (km/s) = 5.19257 6.31292 5.77995
#
# Compressibility (1/GPa) = 0.02434187
#
# Stress axis : x y z
#
# Youngs Moduli (GPa) = 94.77204 52.67081 90.82638
#
# Poissons Ratio (x) = 0.10237 0.21210
# Poissons Ratio (y) = 0.18419 0.34733
# Poissons Ratio (z) = 0.22131 0.20142
#
# Static dielectric constant tensor:
#      x y z
#    x 1.905020 0.000190 -0.016320 
#    y 0.000190 1.933970 0.020640 
#    z -0.016320 0.020640 1.956880 
# 
# From -- ./inp_files/559374.got.cif
#   From: 2010.05.17/outbox.cif.g08.bks.cpg/sg2_280_cif.got.tgz:559374.got - 2010.06.03 11:33:40.
