data_PCOD9102883
_publ_section_title
;
Structure prediction by ZEFSAII (Michael W. Deem and Ramdas Pophale) SiO2 
 PCOD9102883
Probable space group: P -1
;
_chemical_formula_sum "Si O2"
_cell_formula_units_Z 16
_cell_length_a 11.088859
_cell_length_b 16.353740
_cell_length_c 11.425427
_cell_angle_alpha 38.843831
_cell_angle_beta 40.799332
_cell_angle_gamma 66.411920
_cell_volume 752.956862
_symmetry_space_group_name_H-M "P -1"
_symmetry_group_IT_number 2
_symmetry_cell_setting 'triclinic'
loop_
_space_group_symop_operation_xyz
x,y,z
-x,-y,-z
loop_
_atom_site_type_symbol
_atom_site_label
_atom_site_fract_x
_atom_site_fract_y
_atom_site_fract_z
Si Si1 0.031684 0.422735 0.677033
Si Si2 0.103523 0.332851 0.154263
Si Si3 0.373709 0.164952 0.434206
Si Si4 0.153177 0.640849 0.875278
Si Si5 0.236630 0.829667 0.977892
Si Si6 0.069135 0.879046 0.279959
Si Si7 0.393485 0.213880 0.629415
Si Si8 0.448189 0.504472 0.396294
O O1 0.247539 0.513896 0.484531
O O2 0.000000 0.500000 0.500000
O O3 0.867848 0.385277 0.942762
O O4 0.968790 0.262454 0.847517
O O5 0.019239 0.322075 0.096533
O O6 0.948167 0.199864 0.496115
O O7 0.122558 0.486824 0.016899
O O8 0.339613 0.361105 0.955323
O O9 0.580062 0.211539 0.150057
O O10 0.394573 0.244789 0.454888
O O11 0.167986 0.157712 0.535087
O O12 0.318711 0.999846 0.698382
O O13 0.377401 0.772412 0.533862
O O14 0.161831 0.812837 0.185824
O O15 0.213725 0.054564 0.973837
O O16 0.404029 0.348400 0.546755
O O17 0.500000 0.500000 0.500000
#
# Coordination Sequence:
#
# PCOD9102883 Si02
#       8
#     2   2   2   2   2   2   2   2
#     4  12  23  37  63  96 122 159 222 268 312 386
#     4  10  23  41  62  89 129 172 210 268 321 386
#     4  10  20  38  64  91 129 169 210 260 330 384
#     4  10  21  41  62  86 126 172 210 254 332 387
#     4  10  21  38  60  95 128 169 205 266 327 381
#     4  11  22  40  64  98 130 165 219 268 317 383
#     4  10  21  40  66  89 127 173 210 262 325 393
#     4  11  23  42  66  90 128 176 212 262 335 385
#
# _framework density 21.249558
#
# number of rings (size 3 to 8) (size 9 to 14) (size 15 to 20)
#    0.000    1.500    2.500    3.750    1.750    0.500 
#    0.000    3.750    0.000    0.000    0.000    0.000 
#    0.000    0.000    0.000    0.000    0.000    0.000 
#
# Total GULP energy -89182.774369 kJ/mol
# GULP energy per Si atom -5573.923398 kJ/mol
# Density = 2.120119 g / cm^3
# Si number density = 21.249558 Si / 1000 Ang^3
#
#
#
# Elastic Constant Matrix: (Units=GPa)
#
#
# Indices 1 2 3 4 5 6 
#
# 1 113.9389 30.2634 53.9384 11.1832 -0.4841 6.3684
# 2 30.2634 62.7060 18.9896 12.2097 -1.0481 18.0031
# 3 53.9384 18.9896 120.2739 21.1912 2.0757 -0.8032
# 4 11.1832 12.2097 21.1912 21.4358 5.4336 -6.7441
# 5 -0.4841 -1.0481 2.0757 5.4336 31.9674 11.4328
# 6 6.3684 18.0031 -0.8032 -6.7441 11.4328 26.8245
#
#
#
# Elastic Compliance Matrix: (Units=1/GPa)
#
#
# Indices 1 2 3 4 5 6 
#
# 1 0.012249 -0.004946 -0.004996 0.001662 -0.000210 0.000769
# 2 -0.004946 0.040704 0.003045 -0.045579 0.026222 -0.048688
# 3 -0.004996 0.003045 0.012461 -0.014113 0.003605 -0.005569
# 4 0.001662 -0.045579 -0.014113 0.124911 -0.051516 0.083134
# 5 -0.000210 0.026222 0.003605 -0.051516 0.060797 -0.056305
# 6 0.000769 -0.048688 -0.005569 0.083134 -0.056305 0.114505
#
#
# Mechanical properties :
#
#
# Convention : Reuss Voigt Hill
#
# Bulk Modulus (GPa) = 19.37293 55.92240 37.64766
# Shear Modulus (GPa) = 12.60619 28.96069 20.78344
#
# Velocity S-wave (km/s) = 2.43830 3.69573 3.13080
# Velocity P-wave (km/s) = 4.13083 6.67723 5.55199
#
# Compressibility (1/GPa) = 0.05161842
#
# Stress axis : x y z
#
# Youngs Moduli (GPa) = 81.64200 24.56743 80.24809
#
# Poissons Ratio (x) = 0.12152 0.40092
# Poissons Ratio (y) = 0.40384 -0.24432
# Poissons Ratio (z) = 0.40789 -0.07480
#
# Static dielectric constant tensor:
#      x y z
#    x 1.815720 -0.029350 -0.047560 
#    y -0.029350 1.842360 0.033810 
#    z -0.047560 0.033810 1.799240 
# 
# From -- ./inp_files/437232.got.cif
#   From: 2010.05.17/outbox.cif.g08.bks.cpg/sg2_219_cif.got.tgz:437232.got - 2010.06.03 11:33:40.
