data_PCOD9102160
_publ_section_title
;
Structure prediction by ZEFSAII (Michael W. Deem and Ramdas Pophale) SiO2 
 PCOD9102160
Probable space group: P -1
;
_chemical_formula_sum "Si O2"
_cell_formula_units_Z 15
_cell_length_a 11.243849
_cell_length_b 14.168507
_cell_length_c 9.630092
_cell_angle_alpha 114.783977
_cell_angle_beta 103.761950
_cell_angle_gamma 129.016045
_cell_volume 760.616150
_symmetry_space_group_name_H-M "P -1"
_symmetry_group_IT_number 2
_symmetry_cell_setting 'triclinic'
loop_
_space_group_symop_operation_xyz
x,y,z
-x,-y,-z
loop_
_atom_site_type_symbol
_atom_site_label
_atom_site_fract_x
_atom_site_fract_y
_atom_site_fract_z
Si Si1 0.084409 0.352422 0.393941
Si Si2 0.425146 0.715340 0.537457
Si Si3 0.389123 0.622049 0.862924
Si Si4 0.076149 0.937999 0.014099
Si Si5 0.322654 0.789429 0.782537
Si Si6 0.739869 0.697946 0.008623
Si Si7 0.000000 0.000000 0.500000
Si Si8 0.495645 0.314272 0.752139
O O1 0.283616 0.525279 0.455252
O O2 0.184586 0.415733 0.614754
O O3 0.969243 0.167945 0.194877
O O4 0.909682 0.322288 0.321952
O O5 0.337089 0.759930 0.609344
O O6 0.420791 0.695847 0.359882
O O7 0.675341 0.886844 0.761526
O O8 0.372206 0.721914 0.846140
O O9 0.601519 0.703590 0.930835
O O10 0.402290 0.643785 0.044740
O O11 0.917114 0.789709 0.001344
O O12 0.000000 0.000000 0.000000
O O13 0.500000 0.000000 0.000000
O O14 0.573431 0.487081 0.853563
O O15 0.863721 0.820194 0.256331
O O16 0.235088 0.126669 0.574464
#
# Coordination Sequence:
#
# PCOD9102160 Si02
#       8
#     2   2   2   2   2   2   1   2
#     4  11  24  44  67  89 134 169 218 278 321 376
#     4  11  22  42  67  92 128 173 212 272 329 380
#     4  10  23  41  65  95 127 175 212 263 328 391
#     4  12  24  36  66 101 128 171 218 264 325 393
#     4  11  23  46  66  93 124 171 228 273 321 378
#     4  11  23  40  62 100 133 170 211 261 327 396
#     4  10  20  38  62  86 138 174 200 252 330 386
#     4  11  23  42  65  97 137 168 214 264 331 396
#
# _framework density 19.720855
#
# number of rings (size 3 to 8) (size 9 to 14) (size 15 to 20)
#    0.000    1.067    4.000    4.800    1.867    2.133 
#    4.800    3.333    0.000    0.000    0.000    0.000 
#    0.000    0.000    0.000    0.000    0.000    0.000 
#
# Total GULP energy -83510.582256 kJ/mol
# GULP energy per Si atom -5567.372150 kJ/mol
# Density = 1.967597 g / cm^3
# Si number density = 19.720855 Si / 1000 Ang^3
#
#
#
# Elastic Constant Matrix: (Units=GPa)
#
#
# Indices 1 2 3 4 5 6 
#
# 1 116.9283 43.0797 61.2591 0.1782 -14.4330 5.3515
# 2 43.0797 61.8412 45.7310 -4.0522 7.9350 17.2654
# 3 61.2591 45.7310 132.5322 7.5504 -14.3056 13.5888
# 4 0.1782 -4.0522 7.5504 28.8798 10.8614 -4.7896
# 5 -14.4330 7.9350 -14.3056 10.8614 41.7029 2.8590
# 6 5.3515 17.2654 13.5888 -4.7896 2.8590 27.7890
#
#
#
# Elastic Compliance Matrix: (Units=1/GPa)
#
#
# Indices 1 2 3 4 5 6 
#
# 1 0.014235 -0.009901 -0.002716 -0.002524 0.006286 0.003656
# 2 -0.009901 0.035691 -0.008721 0.010989 -0.015211 -0.012545
# 3 -0.002716 -0.008721 0.013367 -0.008009 0.007579 -0.002755
# 4 -0.002524 0.010989 -0.008009 0.046399 -0.018308 0.007456
# 5 0.006286 -0.015211 0.007579 -0.018308 0.036581 -0.002385
# 6 0.003656 -0.012545 -0.002755 0.007456 -0.002385 0.045953
#
#
# Mechanical properties :
#
#
# Convention : Reuss Voigt Hill
#
# Bulk Modulus (GPa) = 48.50230 67.93791 58.22010
# Shear Modulus (GPa) = 20.68052 30.42314 25.55183
#
# Velocity S-wave (km/s) = 3.24182 3.93197 3.60345
# Velocity P-wave (km/s) = 6.21774 7.42552 6.84831
#
# Compressibility (1/GPa) = 0.02061758
#
# Stress axis : x y z
#
# Youngs Moduli (GPa) = 70.24767 28.01862 74.81224
#
# Poissons Ratio (x) = 0.27741 0.20320
# Poissons Ratio (y) = 0.69551 0.65241
# Poissons Ratio (z) = 0.19080 0.24434
#
# Static dielectric constant tensor:
#      x y z
#    x 1.700350 0.024900 -0.018570 
#    y 0.024900 1.750830 -0.008520 
#    z -0.018570 -0.008520 1.697970 
# 
# From -- ./inp_files/270748.got.cif
#   From: 2010.05.17/outbox.cif.g08.bks.cpg/sg2_136_cif.got.tgz:270748.got - 2010.06.03 11:33:40.
