data_PCOD9102101
_publ_section_title
;
Structure prediction by ZEFSAII (Michael W. Deem and Ramdas Pophale) SiO2 
 PCOD9102101
Probable space group: P -1
;
_chemical_formula_sum "Si O2"
_cell_formula_units_Z 14
_cell_length_a 7.579355
_cell_length_b 11.299393
_cell_length_c 11.336418
_cell_angle_alpha 120.064762
_cell_angle_beta 136.630679
_cell_angle_gamma 78.169531
_cell_volume 555.922476
_symmetry_space_group_name_H-M "P -1"
_symmetry_group_IT_number 2
_symmetry_cell_setting 'triclinic'
loop_
_space_group_symop_operation_xyz
x,y,z
-x,-y,-z
loop_
_atom_site_type_symbol
_atom_site_label
_atom_site_fract_x
_atom_site_fract_y
_atom_site_fract_z
Si Si1 0.867657 0.556773 0.171263
Si Si2 0.117075 0.003644 0.726797
Si Si3 0.030173 0.690036 0.553513
Si Si4 0.912812 0.253864 0.959238
Si Si5 0.699539 0.170574 0.573245
Si Si6 0.886481 0.852026 0.763919
Si Si7 0.572567 0.703250 0.936209
O O1 0.889252 0.582721 0.333289
O O2 0.862275 0.400614 0.050522
O O3 0.132439 0.672533 0.307090
O O4 0.630919 0.610257 0.024942
O O5 0.876445 0.059266 0.584018
O O6 0.118435 0.846638 0.612497
O O7 0.376499 0.134841 0.909982
O O8 0.051798 0.976120 0.821153
O O9 0.295129 0.658323 0.714126
O O10 0.861359 0.715137 0.596985
O O11 0.959545 0.169229 0.055285
O O12 0.189619 0.290809 0.038184
O O13 0.689832 0.180078 0.717368
O O14 0.410110 0.133773 0.357418
#
# Coordination Sequence:
#
# PCOD9102101 Si02
#       7
#     2   2   2   2   2   2   2
#     4  10  22  39  59  82 109 149 194 229 269 327
#     4   8  20  38  58  84 114 144 186 226 278 334
#     4  10  22  37  56  88 115 146 180 228 287 330
#     4  10  22  39  59  82 109 149 194 229 269 327
#     4  10  20  38  62  83 109 147 189 232 273 325
#     4  10  22  37  56  88 115 146 180 228 287 330
#     4  10  20  38  62  83 109 147 189 232 273 325
#
# _framework density 25.183368000000002
#
# number of rings (size 3 to 8) (size 9 to 14) (size 15 to 20)
#    0.857    1.714    0.000    3.429    0.000    9.714 
#    0.000    7.143    0.000    0.000    0.000    0.000 
#    0.000    0.000    0.000    0.000    0.000    0.000 
#
# Total GULP energy -78372.827143 kJ/mol
# GULP energy per Si atom -5598.059082 kJ/mol
# Density = 2.512605 g / cm^3
# Si number density = 25.183368 Si / 1000 Ang^3
#
#
#
# Elastic Constant Matrix: (Units=GPa)
#
#
# Indices 1 2 3 4 5 6 
#
# 1 55.6641 18.8993 28.4792 -3.2272 0.5047 -4.8001
# 2 18.8993 140.3178 56.7609 -9.1162 4.6243 4.9831
# 3 28.4792 56.7609 125.1713 -6.1043 9.6159 -4.9902
# 4 -3.2272 -9.1162 -6.1043 28.8850 -12.5274 -7.7136
# 5 0.5047 4.6243 9.6159 -12.5274 30.3023 6.5395
# 6 -4.8001 4.9831 -4.9902 -7.7136 6.5395 36.4717
#
#
#
# Elastic Compliance Matrix: (Units=1/GPa)
#
#
# Indices 1 2 3 4 5 6 
#
# 1 0.020806 -0.001115 -0.004128 0.002481 0.001607 0.002563
# 2 -0.001115 0.008995 -0.003879 0.001886 0.001021 -0.001691
# 3 -0.004128 -0.003879 0.011016 -0.000284 -0.003393 0.002042
# 4 0.002481 0.001886 -0.000284 0.044404 0.016733 0.006421
# 5 0.001607 0.001021 -0.003393 0.016733 0.041749 -0.004339
# 6 0.002563 -0.001691 0.002042 0.006421 -0.004339 0.030402
#
#
# Mechanical properties :
#
#
# Convention : Reuss Voigt Hill
#
# Bulk Modulus (GPa) = 44.30390 58.82578 51.56484
# Shear Modulus (GPa) = 27.30143 33.59940 30.45041
#
# Velocity S-wave (km/s) = 3.29615 3.65662 3.48105
# Velocity P-wave (km/s) = 5.66717 6.42164 6.05617
#
# Compressibility (1/GPa) = 0.02257138
#
# Stress axis : x y z
#
# Youngs Moduli (GPa) = 48.06308 111.17377 90.78021
#
# Poissons Ratio (x) = 0.12397 0.37478
# Poissons Ratio (y) = 0.05359 0.35214
# Poissons Ratio (z) = 0.19842 0.43125
#
# Static dielectric constant tensor:
#      x y z
#    x 2.036140 0.001750 -0.074470 
#    y 0.001750 1.995250 0.027710 
#    z -0.074470 0.027710 1.936400 
# 
# From -- ./inp_files/171961.got.cif
#   From: 2010.05.17/outbox.cif.g08.bks.cpg/sg2_86_cif.got.tgz:171961.got - 2010.06.03 11:33:40.
