data_PCOD9102040
_publ_section_title
;
Structure prediction by ZEFSAII (Michael W. Deem and Ramdas Pophale) SiO2 
 PCOD9102040
Probable space group: P -1
;
_chemical_formula_sum "Si O2"
_cell_formula_units_Z 14
_cell_length_a 16.076343
_cell_length_b 6.975841
_cell_length_c 7.048335
_cell_angle_alpha 63.721535
_cell_angle_beta 123.996633
_cell_angle_gamma 109.699500
_cell_volume 583.328396
_symmetry_space_group_name_H-M "P -1"
_symmetry_group_IT_number 2
_symmetry_cell_setting 'triclinic'
loop_
_space_group_symop_operation_xyz
x,y,z
-x,-y,-z
loop_
_atom_site_type_symbol
_atom_site_label
_atom_site_fract_x
_atom_site_fract_y
_atom_site_fract_z
Si Si1 0.770965 0.865901 0.103938
Si Si2 0.702186 0.606932 0.616600
Si Si3 0.934258 0.156262 0.960119
Si Si4 0.385585 0.845927 0.199491
Si Si5 0.611385 0.028527 0.402827
Si Si6 0.619973 0.495899 0.138201
Si Si7 0.099749 0.381708 0.335516
O O1 0.686356 0.671439 0.017745
O O2 0.850962 0.756811 0.381992
O O3 0.833759 0.012163 0.964751
O O4 0.701756 0.025014 0.050317
O O5 0.643038 0.408409 0.741515
O O6 0.679954 0.842238 0.539344
O O7 0.661188 0.563351 0.369619
O O8 0.821239 0.593283 0.751895
O O9 0.997162 0.254608 0.180625
O O10 0.912464 0.373460 0.727062
O O11 0.000000 0.000000 0.000000
O O12 0.498104 0.930069 0.243457
O O13 0.387434 0.904722 0.402642
O O14 0.639300 0.252605 0.232313
O O15 0.500000 0.500000 0.000000
#
# Coordination Sequence:
#
# PCOD9102040 Si02
#       7
#     2   2   2   2   2   2   2
#     4  11  22  43  68  95 135 169 210 269 325 378
#     4  10  21  38  63  90 127 172 219 259 318 382
#     4  11  25  46  71  92 126 168 217 272 331 387
#     4  10  20  38  61  92 134 170 211 264 312 376
#     4  10  21  37  61  91 133 177 216 255 313 382
#     4  10  21  39  58  89 134 172 207 263 315 373
#     4  10  24  44  66  96 128 165 213 276 327 380
#
# _framework density 24.000202999999999
#
# number of rings (size 3 to 8) (size 9 to 14) (size 15 to 20)
#    0.000    1.714    2.857    0.857    2.000    1.143 
#    0.000    7.143    0.000    0.000    0.000    0.000 
#    0.000    0.000    0.000    0.000    0.000    0.000 
#
# Total GULP energy -78337.912589 kJ/mol
# GULP energy per Si atom -5595.565185 kJ/mol
# Density = 2.394558 g / cm^3
# Si number density = 24.000203 Si / 1000 Ang^3
#
#
#
# Elastic Constant Matrix: (Units=GPa)
#
#
# Indices 1 2 3 4 5 6 
#
# 1 76.5818 67.5531 22.9507 -4.5687 18.5329 22.3097
# 2 67.5531 187.9470 46.1854 -39.1135 5.4364 11.4058
# 3 22.9507 46.1854 102.1831 -21.4011 13.0214 0.7948
# 4 -4.5687 -39.1135 -21.4011 49.8155 -0.0711 7.1536
# 5 18.5329 5.4364 13.0214 -0.0711 38.8268 -5.2484
# 6 22.3097 11.4058 0.7948 7.1536 -5.2484 49.7711
#
#
#
# Elastic Compliance Matrix: (Units=1/GPa)
#
#
# Indices 1 2 3 4 5 6 
#
# 1 0.028019 -0.009547 -0.000993 -0.003762 -0.013226 -0.011210
# 2 -0.009547 0.010268 -0.001695 0.006254 0.003897 0.001465
# 3 -0.000993 -0.001695 0.011990 0.003760 -0.003337 -0.000250
# 4 -0.003762 0.006254 0.003760 0.026791 -0.000798 -0.003742
# 5 -0.013226 0.003897 -0.003337 -0.000798 0.033826 0.008770
# 6 -0.011210 0.001465 -0.000250 -0.003742 0.008770 0.026247
#
#
# Mechanical properties :
#
#
# Convention : Reuss Voigt Hill
#
# Bulk Modulus (GPa) = 38.74932 71.12113 54.93522
# Shear Modulus (GPa) = 29.37475 43.01752 36.19613
#
# Velocity S-wave (km/s) = 3.50228 4.23825 3.88772
# Velocity P-wave (km/s) = 5.70395 7.32449 6.56442
#
# Compressibility (1/GPa) = 0.02580691
#
# Stress axis : x y z
#
# Youngs Moduli (GPa) = 35.69060 97.38695 83.40043
#
# Poissons Ratio (x) = 0.92971 0.08285
# Poissons Ratio (y) = 0.34072 0.14138
# Poissons Ratio (z) = 0.03546 0.16509
#
# Static dielectric constant tensor:
#      x y z
#    x 2.079950 -0.052610 -0.057170 
#    y -0.052610 1.953760 0.004530 
#    z -0.057170 0.004530 1.974230 
# 
# From -- ./inp_files/134889.got.cif
#   From: 2010.05.17/outbox.cif.g08.bks.cpg/sg2_68_cif.got.tgz:134889.got - 2010.06.03 11:33:40.
