data_PCOD9102096
_publ_section_title
;
Structure prediction by ZEFSAII (Michael W. Deem and Ramdas Pophale) SiO2 
 PCOD9102096
Probable space group: P -1
;
_chemical_formula_sum "Si O2"
_cell_formula_units_Z 14
_cell_length_a 15.034547
_cell_length_b 7.829573
_cell_length_c 7.307299
_cell_angle_alpha 39.088508
_cell_angle_beta 83.787456
_cell_angle_gamma 91.947099
_cell_volume 529.535289
_symmetry_space_group_name_H-M "P -1"
_symmetry_group_IT_number 2
_symmetry_cell_setting 'triclinic'
loop_
_space_group_symop_operation_xyz
x,y,z
-x,-y,-z
loop_
_atom_site_type_symbol
_atom_site_label
_atom_site_fract_x
_atom_site_fract_y
_atom_site_fract_z
Si Si1 0.181688 0.229681 0.752731
Si Si2 0.697388 0.552131 0.811256
Si Si3 0.117214 0.276775 0.217376
Si Si4 0.625965 0.049486 0.459893
Si Si5 0.547512 0.245173 0.659669
Si Si6 0.253842 0.804122 0.349948
Si Si7 0.950740 0.185401 0.102543
O O1 0.242328 0.314879 0.484174
O O2 0.093444 0.013242 0.884218
O O3 0.175972 0.536215 0.568665
O O4 0.233155 0.054809 0.024717
O O5 0.617770 0.726456 0.701542
O O6 0.775584 0.611217 0.902626
O O7 0.652069 0.234905 0.121048
O O8 0.057691 0.224799 0.089731
O O9 0.094230 0.984652 0.568430
O O10 0.077490 0.515320 0.139056
O O11 0.551938 0.148944 0.526350
O O12 0.715338 0.107003 0.526572
O O13 0.500000 0.500000 0.500000
O O14 0.653537 0.297695 0.648112
O O15 0.500000 0.000000 0.000000
#
# Coordination Sequence:
#
# PCOD9102096 Si02
#       7
#     2   2   2   2   2   2   2
#     4  11  19  34  56  83 113 140 180 229 273 308
#     4  11  19  34  56  83 113 140 180 229 273 308
#     4   9  17  29  48  76 108 145 185 221 257 307
#     4  10  22  35  57  83 105 144 177 227 261 331
#     4  10  20  38  62  80  99 140 189 216 250 330
#     4  10  22  35  57  83 105 144 177 227 261 331
#     4   9  17  29  48  76 108 145 185 221 257 307
#
# _framework density 26.438275000000001
#
# number of rings (size 3 to 8) (size 9 to 14) (size 15 to 20)
#    0.857    1.143    0.000    6.857    0.000    0.000 
#    0.000    0.000    0.000   22.286    0.000    0.000 
#    0.000    0.000    0.000    0.000    0.000    0.000 
#
# Total GULP energy -78232.134350 kJ/mol
# GULP energy per Si atom -5588.009596 kJ/mol
# Density = 2.637810 g / cm^3
# Si number density = 26.438275 Si / 1000 Ang^3
#
#
#
# Elastic Constant Matrix: (Units=GPa)
#
#
# Indices 1 2 3 4 5 6 
#
# 1 85.4714 -8.7447 11.5921 6.7081 8.5238 0.3619
# 2 -8.7447 54.5434 13.1548 4.2769 8.7095 8.3036
# 3 11.5921 13.1548 171.5277 -0.1521 13.0447 -15.9391
# 4 6.7081 4.2769 -0.1521 42.7511 -4.4019 0.2721
# 5 8.5238 8.7095 13.0447 -4.4019 44.3993 -1.3845
# 6 0.3619 8.3036 -15.9391 0.2721 -1.3845 40.4637
#
#
#
# Elastic Compliance Matrix: (Units=1/GPa)
#
#
# Indices 1 2 3 4 5 6 
#
# 1 0.012671 0.003150 -0.000982 -0.002614 -0.003059 -0.001234
# 2 0.003150 0.021096 -0.001971 -0.003055 -0.004631 -0.005272
# 3 -0.000982 -0.001971 0.006408 0.000233 -0.001194 0.002895
# 4 -0.002614 -0.003055 0.000233 0.024462 0.003480 0.000697
# 5 -0.003059 -0.004631 -0.001194 0.003480 0.024756 0.001331
# 6 -0.001234 -0.005272 0.002895 0.000697 0.001331 0.026987
#
#
# Mechanical properties :
#
#
# Convention : Reuss Voigt Hill
#
# Bulk Modulus (GPa) = 24.65062 38.17186 31.41124
# Shear Modulus (GPa) = 38.60736 45.22550 41.91643
#
# Velocity S-wave (km/s) = 3.82551 4.14044 3.98608
# Velocity P-wave (km/s) = 5.37185 6.10959 5.75256
#
# Compressibility (1/GPa) = 0.04056694
#
# Stress axis : x y z
#
# Youngs Moduli (GPa) = 78.92193 47.40247 156.06662
#
# Poissons Ratio (x) = -0.14930 0.15328
# Poissons Ratio (y) = -0.24857 0.30763
# Poissons Ratio (z) = 0.07751 0.09344
#
# Static dielectric constant tensor:
#      x y z
#    x 2.124990 0.053300 0.023120 
#    y 0.053300 2.195380 0.033410 
#    z 0.023120 0.033410 1.931140 
# 
# From -- ./inp_files/326915.got.cif
#   From: 2010.05.17/outbox.cif.g08.bks.cpg/sg2_164_cif.got.tgz:326915.got - 2010.06.03 11:33:40.
