data_PCOD9102287
_publ_section_title
;
Structure prediction by ZEFSAII (Michael W. Deem and Ramdas Pophale) SiO2 
 PCOD9102287
Probable space group: P -1
;
_chemical_formula_sum "Si O2"
_cell_formula_units_Z 10
_cell_length_a 9.650633
_cell_length_b 6.551522
_cell_length_c 8.312141
_cell_angle_alpha 106.072875
_cell_angle_beta 59.774538
_cell_angle_gamma 106.037079
_cell_volume 430.376997
_symmetry_space_group_name_H-M "P -1"
_symmetry_group_IT_number 2
_symmetry_cell_setting 'triclinic'
loop_
_space_group_symop_operation_xyz
x,y,z
-x,-y,-z
loop_
_atom_site_type_symbol
_atom_site_label
_atom_site_fract_x
_atom_site_fract_y
_atom_site_fract_z
Si Si1 0.260604 0.108895 0.351254
Si Si2 0.325473 0.351728 0.035236
Si Si3 0.321217 0.536213 0.555934
Si Si4 0.157177 0.634977 0.357446
Si Si5 0.590969 0.031540 0.282518
O O1 0.259935 0.206069 0.195765
O O2 0.230459 0.290325 0.538219
O O3 0.149142 0.882440 0.392809
O O4 0.446230 0.063267 0.252715
O O5 0.203836 0.524869 0.142011
O O6 0.500000 0.500000 0.000000
O O7 0.336089 0.179873 0.852337
O O8 0.500000 0.500000 0.500000
O O9 0.297934 0.618915 0.405324
O O10 0.500000 0.000000 0.500000
O O11 0.287952 0.738954 0.725435
O O12 0.000000 0.500000 0.500000
#
# Coordination Sequence:
#
# PCOD9102287 Si02
#       5
#     2   2   2   2   2
#     4  10  20  38  62  90 125 162 210 257 311 366
#     4  11  22  37  61  96 124 163 211 259 306 378
#     4   9  20  35  60  90 117 160 207 253 306 363
#     4  11  23  41  63  91 128 170 209 255 315 379
#     4  11  18  35  61  93 123 154 208 264 307 359
#
# _framework density 23.235443
#
# number of rings (size 3 to 8) (size 9 to 14) (size 15 to 20)
#    0.000    1.600    4.000    1.800    0.000    3.200 
#    0.000    1.000    0.000    2.400    0.000    0.000 
#    0.000    0.000    0.000    0.000    0.000    0.000 
#
# Total GULP energy -55748.835273 kJ/mol
# GULP energy per Si atom -5574.883527 kJ/mol
# Density = 2.318256 g / cm^3
# Si number density = 23.235443 Si / 1000 Ang^3
#
#
#
# Elastic Constant Matrix: (Units=GPa)
#
#
# Indices 1 2 3 4 5 6 
#
# 1 48.0475 21.4169 18.1120 5.0938 8.5501 -2.1967
# 2 21.4169 240.9666 77.3962 37.5124 2.1040 46.2010
# 3 18.1120 77.3962 108.3061 37.7387 1.5598 31.4412
# 4 5.0938 37.5124 37.7387 58.8210 1.8051 10.2703
# 5 8.5501 2.1040 1.5598 1.8051 20.3112 -0.8554
# 6 -2.1967 46.2010 31.4412 10.2703 -0.8554 44.2255
#
#
#
# Elastic Compliance Matrix: (Units=1/GPa)
#
#
# Indices 1 2 3 4 5 6 
#
# 1 0.025548 -0.002024 -0.005085 0.001522 -0.010018 0.006451
# 2 -0.002024 0.006154 -0.002185 -0.001553 0.000326 -0.004609
# 3 -0.005085 -0.002185 0.016522 -0.007419 0.001422 -0.007965
# 4 0.001522 -0.001553 -0.007419 0.022371 -0.001825 0.001742
# 5 -0.010018 0.000326 0.001422 -0.001825 0.053454 -0.000392
# 6 0.006451 -0.004609 -0.007965 0.001742 -0.000392 0.032998
#
#
# Mechanical properties :
#
#
# Convention : Reuss Voigt Hill
#
# Bulk Modulus (GPa) = 33.74146 70.13006 51.93576
# Shear Modulus (GPa) = 26.95228 43.36454 35.15841
#
# Velocity S-wave (km/s) = 3.40952 4.32477 3.89413
# Velocity P-wave (km/s) = 5.48205 7.42873 6.52836
#
# Compressibility (1/GPa) = 0.02963713
#
# Stress axis : x y z
#
# Youngs Moduli (GPa) = 39.14214 162.48859 60.52572
#
# Poissons Ratio (x) = 0.32883 0.30776
# Poissons Ratio (y) = 0.07921 0.13224
# Poissons Ratio (z) = 0.19903 0.35502
#
# Static dielectric constant tensor:
#      x y z
#    x 1.936380 -0.003490 0.006360 
#    y -0.003490 1.983070 0.040330 
#    z 0.006360 0.040330 1.915900 
# 
# From -- ./inp_files/18501.got.cif
#   From: 2010.05.17/outbox.cif.g08.bks.cpg/sg2_10_cif.got.tgz:18501.got - 2010.06.03 11:33:40.
