data_PCOD9102749
_publ_section_title
;
Structure prediction by ZEFSAII (Michael W. Deem and Ramdas Pophale) SiO2 
 PCOD9102749
Probable space group: P -1
;
_chemical_formula_sum "Si O2"
_cell_formula_units_Z 16
_cell_length_a 8.597085
_cell_length_b 14.741144
_cell_length_c 9.888725
_cell_angle_alpha 104.727569
_cell_angle_beta 122.470683
_cell_angle_gamma 115.163188
_cell_volume 741.708147
_symmetry_space_group_name_H-M "P -1"
_symmetry_group_IT_number 2
_symmetry_cell_setting 'triclinic'
loop_
_space_group_symop_operation_xyz
x,y,z
-x,-y,-z
loop_
_atom_site_type_symbol
_atom_site_label
_atom_site_fract_x
_atom_site_fract_y
_atom_site_fract_z
Si Si1 0.374775 0.208448 0.136093
Si Si2 0.132709 0.718529 0.638437
Si Si3 0.916353 0.115093 0.698553
Si Si4 0.663378 0.870250 0.613047
Si Si5 0.553120 0.444164 0.885015
Si Si6 0.071537 0.157128 0.495690
Si Si7 0.906897 0.333644 0.716546
Si Si8 0.616777 0.492245 0.422033
O O1 0.582317 0.211688 0.169019
O O2 0.282005 0.129957 0.204100
O O3 0.520089 0.353873 0.303059
O O4 0.160042 0.164740 0.915494
O O5 0.081834 0.663420 0.440672
O O6 0.078696 0.809664 0.631976
O O7 0.921809 0.603030 0.596021
O O8 0.919840 0.078468 0.531330
O O9 0.926932 0.231628 0.735083
O O10 0.688375 0.988118 0.629218
O O11 0.855810 0.886856 0.607362
O O12 0.375941 0.733674 0.402298
O O13 0.342985 0.289623 0.731374
O O14 0.488061 0.479622 0.735545
O O15 0.500000 0.500000 0.000000
O O16 0.850631 0.525009 0.063199
O O17 0.500000 0.500000 0.500000
#
# Coordination Sequence:
#
# PCOD9102749 Si02
#       8
#     2   2   2   2   2   2   2   2
#     4  11  21  37  58  86 111 154 196 225 278 345
#     4   9  20  36  59  82 114 152 187 226 289 347
#     4  11  21  40  62  81 114 154 195 232 272 343
#     4  11  24  39  56  87 117 152 190 234 286 329
#     4  11  17  37  64  83 110 150 191 228 284 343
#     4  10  21  39  61  82 117 149 185 242 288 327
#     4  10  20  38  64  84 108 152 197 231 276 344
#     4  11  20  34  57  87 122 146 175 241 297 330
#
# _framework density 21.571829000000001
#
# number of rings (size 3 to 8) (size 9 to 14) (size 15 to 20)
#    0.000    1.500    5.000    3.000    0.000    0.500 
#    2.250    0.625    0.000    0.000    0.000    0.000 
#    0.000    0.000    0.000    0.000    0.000    0.000 
#
# Total GULP energy -89359.571705 kJ/mol
# GULP energy per Si atom -5584.973232 kJ/mol
# Density = 2.152273 g / cm^3
# Si number density = 21.571829 Si / 1000 Ang^3
#
#
#
# Elastic Constant Matrix: (Units=GPa)
#
#
# Indices 1 2 3 4 5 6 
#
# 1 70.7216 11.1657 11.9418 -11.8125 0.0640 7.2699
# 2 11.1657 75.2257 -2.1830 -8.5506 -4.0983 25.7610
# 3 11.9418 -2.1830 41.2362 -11.1904 16.0237 3.4170
# 4 -11.8125 -8.5506 -11.1904 24.1918 7.1966 -3.0441
# 5 0.0640 -4.0983 16.0237 7.1966 35.4275 -5.1361
# 6 7.2699 25.7610 3.4170 -3.0441 -5.1361 29.0613
#
#
#
# Elastic Compliance Matrix: (Units=1/GPa)
#
#
# Indices 1 2 3 4 5 6 
#
# 1 0.015997 -0.001020 -0.002647 0.006097 -0.000512 -0.002239
# 2 -0.001020 0.021176 0.008160 0.010130 -0.006124 -0.019497
# 3 -0.002647 0.008160 0.044959 0.028765 -0.027209 -0.013653
# 4 0.006097 0.010130 0.028765 0.067865 -0.027318 -0.011606
# 5 -0.000512 -0.006124 -0.027209 -0.027318 0.047445 0.014279
# 6 -0.002239 -0.019497 -0.013653 -0.011606 0.014279 0.055166
#
#
# Mechanical properties :
#
#
# Convention : Reuss Voigt Hill
#
# Bulk Modulus (GPa) = 10.97465 25.44807 18.21136
# Shear Modulus (GPa) = 18.24853 28.82005 23.53429
#
# Velocity S-wave (km/s) = 2.91166 3.65910 3.30657
# Velocity P-wave (km/s) = 4.04997 5.44744 4.79983
#
# Compressibility (1/GPa) = 0.09111908
#
# Stress axis : x y z
#
# Youngs Moduli (GPa) = 62.51215 47.22342 22.24227
#
# Poissons Ratio (x) = 0.04815 0.05889
# Poissons Ratio (y) = 0.06373 -0.18151
# Poissons Ratio (z) = 0.16550 -0.38536
#
# Static dielectric constant tensor:
#      x y z
#    x 1.805700 0.006540 0.031150 
#    y 0.006540 1.816350 0.032740 
#    z 0.031150 0.032740 1.768160 
# 
# From -- ./inp_files/177540.got.cif
#   From: 2010.05.17/outbox.cif.g08.bks.cpg/sg2_89_cif.got.tgz:177540.got - 2010.06.03 11:33:40.
