data_PCOD9102630
_publ_section_title
;
Structure prediction by ZEFSAII (Michael W. Deem and Ramdas Pophale) SiO2 
 PCOD9102630
Probable space group: P -1
;
_chemical_formula_sum "Si O2"
_cell_formula_units_Z 14
_cell_length_a 8.719291
_cell_length_b 10.760984
_cell_length_c 10.645741
_cell_angle_alpha 80.911371
_cell_angle_beta 135.993757
_cell_angle_gamma 87.584788
_cell_volume 667.343569
_symmetry_space_group_name_H-M "P -1"
_symmetry_group_IT_number 2
_symmetry_cell_setting 'triclinic'
loop_
_space_group_symop_operation_xyz
x,y,z
-x,-y,-z
loop_
_atom_site_type_symbol
_atom_site_label
_atom_site_fract_x
_atom_site_fract_y
_atom_site_fract_z
Si Si1 0.767011 0.631931 0.098237
Si Si2 0.973449 0.092173 0.593140
Si Si3 0.415375 0.004237 0.589151
Si Si4 0.675690 0.939043 0.003794
Si Si5 0.665314 0.431830 0.251268
Si Si6 0.895992 0.740113 0.543241
Si Si7 0.270402 0.510669 0.441913
O O1 0.697151 0.785913 0.028136
O O2 0.724056 0.565140 0.216243
O O3 0.031877 0.582650 0.227205
O O4 0.591997 0.575342 0.919290
O O5 0.089936 0.040939 0.801085
O O6 0.101171 0.201046 0.604823
O O7 0.705482 0.116406 0.447200
O O8 0.000000 0.000000 0.500000
O O9 0.221720 0.136842 0.464424
O O10 0.500000 0.000000 0.500000
O O11 0.587838 0.000028 0.807595
O O12 0.500000 0.000000 0.000000
O O13 0.718578 0.417389 0.431250
O O14 0.834611 0.325538 0.281227
O O15 0.766007 0.629990 0.517161
O O16 0.500000 0.500000 0.500000
#
# Coordination Sequence:
#
# PCOD9102630 Si02
#       7
#     2   2   2   2   2   2   2
#     4  10  23  40  65  97 124 168 233 269 321 399
#     4  10  20  38  63  93 124 176 228 265 317 400
#     4  11  26  42  62 102 142 174 218 281 344 389
#     4  12  22  38  69  96 129 178 224 270 322 404
#     4  10  21  40  67  93 126 171 228 278 313 398
#     4  10  20  40  68  92 128 182 227 271 327 402
#     4  11  24  41  65  98 135 170 212 284 345 383
#
# _framework density 20.978698999999999
#
# number of rings (size 3 to 8) (size 9 to 14) (size 15 to 20)
#    0.000    1.429    2.857    4.286    2.000    4.571 
#    0.000    2.857    0.000    0.000    0.000    0.000 
#    0.000    0.000    0.000    0.000    0.000    0.000 
#
# Total GULP energy -77940.143033 kJ/mol
# GULP energy per Si atom -5567.153074 kJ/mol
# Density = 2.093095 g / cm^3
# Si number density = 20.978699 Si / 1000 Ang^3
#
#
#
# Elastic Constant Matrix: (Units=GPa)
#
#
# Indices 1 2 3 4 5 6 
#
# 1 142.9810 47.2955 58.5042 2.7270 9.0239 -5.3956
# 2 47.2955 108.2129 31.4057 -8.7015 9.9442 -3.1579
# 3 58.5042 31.4057 135.9631 14.2474 8.1870 -5.0283
# 4 2.7270 -8.7015 14.2474 30.1705 -0.1625 5.7973
# 5 9.0239 9.9442 8.1870 -0.1625 35.3161 2.7318
# 6 -5.3956 -3.1579 -5.0283 5.7973 2.7318 27.5681
#
#
#
# Elastic Compliance Matrix: (Units=1/GPa)
#
#
# Indices 1 2 3 4 5 6 
#
# 1 0.009441 -0.003122 -0.003200 -0.000456 -0.000878 0.001089
# 2 -0.003122 0.011640 -0.001706 0.004498 -0.002038 -0.000333
# 3 -0.003200 -0.001706 0.009831 -0.005274 -0.001175 0.002197
# 4 -0.000456 0.004498 -0.005274 0.038662 0.000928 -0.008758
# 5 -0.000878 -0.002038 -0.001175 0.000928 0.029681 -0.003756
# 6 0.001089 -0.000333 0.002197 -0.008758 -0.003756 0.039064
#
#
# Mechanical properties :
#
#
# Convention : Reuss Voigt Hill
#
# Bulk Modulus (GPa) = 67.31796 73.50754 70.41275
# Shear Modulus (GPa) = 31.38195 35.27437 33.32816
#
# Velocity S-wave (km/s) = 3.87188 4.10498 3.99013
# Velocity P-wave (km/s) = 7.22129 7.58835 7.40709
#
# Compressibility (1/GPa) = 0.01485488
#
# Stress axis : x y z
#
# Youngs Moduli (GPa) = 105.91694 85.91123 101.72082
#
# Poissons Ratio (x) = 0.26820 0.32556
# Poissons Ratio (y) = 0.33065 0.17357
# Poissons Ratio (z) = 0.33899 0.14659
#
# Static dielectric constant tensor:
#      x y z
#    x 2.029800 0.006130 -0.132000 
#    y 0.006130 1.879240 -0.018960 
#    z -0.132000 -0.018960 1.961990 
# 
# From -- ./inp_files/387453.got.cif
#   From: 2010.05.17/outbox.cif.g08.bks.cpg/sg2_194_cif.got.tgz:387453.got - 2010.06.03 11:33:40.
