data_PCOD9102268
_publ_section_title
;
Structure prediction by ZEFSAII (Michael W. Deem and Ramdas Pophale) SiO2 
 PCOD9102268
Probable space group: P -1
;
_chemical_formula_sum "Si O2"
_cell_formula_units_Z 13
_cell_length_a 13.372279
_cell_length_b 6.535856
_cell_length_c 6.614543
_cell_angle_alpha 64.988520
_cell_angle_beta 80.558890
_cell_angle_gamma 69.572274
_cell_volume 490.855069
_symmetry_space_group_name_H-M "P -1"
_symmetry_group_IT_number 2
_symmetry_cell_setting 'triclinic'
loop_
_space_group_symop_operation_xyz
x,y,z
-x,-y,-z
loop_
_atom_site_type_symbol
_atom_site_label
_atom_site_fract_x
_atom_site_fract_y
_atom_site_fract_z
Si Si1 0.238212 0.024281 0.071481
Si Si2 0.438447 0.332541 0.688673
Si Si3 0.582990 0.825275 0.838538
Si Si4 0.000000 0.500000 0.500000
Si Si5 0.093852 0.978061 0.814342
Si Si6 0.745051 0.502537 0.594413
Si Si7 0.099033 0.485717 0.133535
O O1 0.200016 0.019799 0.856528
O O2 0.347098 0.068002 0.076757
O O3 0.152951 0.230847 0.134645
O O4 0.244307 0.769478 0.263280
O O5 0.500000 0.500000 0.500000
O O6 0.314116 0.422293 0.628204
O O7 0.492568 0.063123 0.703072
O O8 0.454037 0.337417 0.922701
O O9 0.660929 0.669775 0.710855
O O10 0.981205 0.534629 0.235917
O O11 0.041058 0.186997 0.590173
O O12 0.127279 0.688642 0.913321
O O13 0.000000 0.000000 0.000000
O O14 0.860422 0.512329 0.634342
#
# Coordination Sequence:
#
# PCOD9102268 Si02
#       7
#     2   2   2   1   2   2   2
#     4  10  20  42  61  85 126 165 199 253 305 362
#     4  11  22  41  64  94 124 164 209 253 310 365
#     4  10  23  41  62  93 125 164 210 253 305 363
#     4  10  20  38  62  90 112 158 202 242 310 362
#     4   9  20  38  58  85 119 151 198 251 298 358
#     4  10  21  42  62  90 130 163 204 258 302 363
#     4   9  21  40  60  89 122 157 204 251 301 362
#
# _framework density 26.484394000000002
#
# number of rings (size 3 to 8) (size 9 to 14) (size 15 to 20)
#    0.000    2.154    1.538    0.462    2.154    3.077 
#   11.077    7.692    0.000    0.000    0.000    0.000 
#    0.000    0.000    0.000    0.000    0.000    0.000 
#
# Total GULP energy -72424.635357 kJ/mol
# GULP energy per Si atom -5571.125797 kJ/mol
# Density = 2.642411 g / cm^3
# Si number density = 26.484394 Si / 1000 Ang^3
#
#
#
# Elastic Constant Matrix: (Units=GPa)
#
#
# Indices 1 2 3 4 5 6 
#
# 1 86.2238 37.0783 36.8751 -6.9569 16.1135 -2.7776
# 2 37.0783 162.1018 51.4502 -26.2163 2.5594 -13.7011
# 3 36.8751 51.4502 102.0413 -52.7199 5.3951 -3.9872
# 4 -6.9569 -26.2163 -52.7199 51.2053 -4.8224 -1.0614
# 5 16.1135 2.5594 5.3951 -4.8224 52.3385 -6.5841
# 6 -2.7776 -13.7011 -3.9872 -1.0614 -6.5841 48.5603
#
#
#
# Elastic Compliance Matrix: (Units=1/GPa)
#
#
# Indices 1 2 3 4 5 6 
#
# 1 0.016787 -0.002378 -0.009324 -0.009045 -0.005096 -0.001365
# 2 -0.002378 0.007840 -0.002327 0.001430 0.000978 0.002049
# 3 -0.009324 -0.002327 0.028126 0.026808 0.002818 0.002088
# 4 -0.009045 0.001430 0.026808 0.047161 0.004770 0.003765
# 5 -0.005096 0.000978 0.002818 0.004770 0.021178 0.003192
# 6 -0.001365 0.002049 0.002088 0.003765 0.003192 0.021779
#
#
# Mechanical properties :
#
#
# Convention : Reuss Voigt Hill
#
# Bulk Modulus (GPa) = 40.49402 66.79714 53.64558
# Shear Modulus (GPa) = 27.90788 45.41836 36.66312
#
# Velocity S-wave (km/s) = 3.24967 4.14564 3.72469
# Velocity P-wave (km/s) = 5.42249 6.94199 6.22875
#
# Compressibility (1/GPa) = 0.02469500
#
# Stress axis : x y z
#
# Youngs Moduli (GPa) = 59.57151 127.54502 35.55448
#
# Poissons Ratio (x) = 0.30329 0.33152
# Poissons Ratio (y) = 0.14166 0.08272
# Poissons Ratio (z) = 0.55547 0.29674
#
# Static dielectric constant tensor:
#      x y z
#    x 2.244780 0.024830 0.002090 
#    y 0.024830 2.208700 0.024570 
#    z 0.002090 0.024570 2.301050 
# 
# From -- ./inp_files/5329.got.cif
#   From: 2010.05.17/outbox.cif.g08.bks.cpg/sg2_3_cif.got.tgz:5329.got - 2010.06.03 11:33:40.
