data_PCOD9102027
_publ_section_title
;
Structure prediction by ZEFSAII (Michael W. Deem and Ramdas Pophale) SiO2 
 PCOD9102027
Probable space group: P -1
;
_chemical_formula_sum "Si O2"
_cell_formula_units_Z 16
_cell_length_a 9.158331
_cell_length_b 11.912986
_cell_length_c 15.228717
_cell_angle_alpha 126.353827
_cell_angle_beta 140.149074
_cell_angle_gamma 79.670736
_cell_volume 724.771163
_symmetry_space_group_name_H-M "P -1"
_symmetry_group_IT_number 2
_symmetry_cell_setting 'triclinic'
loop_
_space_group_symop_operation_xyz
x,y,z
-x,-y,-z
loop_
_atom_site_type_symbol
_atom_site_label
_atom_site_fract_x
_atom_site_fract_y
_atom_site_fract_z
Si Si1 0.284148 0.825515 0.361820
Si Si2 0.027526 0.784568 0.925298
Si Si3 0.073165 0.864674 0.697575
Si Si4 0.277969 0.343398 0.918579
Si Si5 0.230031 0.649780 0.082233
Si Si6 0.201382 0.174747 0.628998
Si Si7 0.377312 0.785670 0.924456
Si Si8 0.722418 0.865828 0.699013
O O1 0.220106 0.687213 0.196023
O O2 0.421980 0.802365 0.499643
O O3 0.005242 0.810387 0.246682
O O4 0.500000 0.000000 0.500000
O O5 0.000954 0.649689 0.919062
O O6 0.230987 0.801363 0.950037
O O7 0.148592 0.953286 0.114940
O O8 0.768178 0.760024 0.743067
O O9 0.913694 0.804154 0.505055
O O10 0.890243 0.876846 0.694303
O O11 0.344176 0.041082 0.884916
O O12 0.180266 0.755161 0.738374
O O13 0.260282 0.311621 0.792057
O O14 0.528025 0.340094 0.071384
O O15 0.262416 0.498327 0.009036
O O16 0.514671 0.805846 0.251434
O O17 0.000000 0.000000 0.500000
#
# Coordination Sequence:
#
# PCOD9102027 Si02
#       8
#     2   2   2   2   2   2   2   2
#     4  12  23  41  66  92 120 162 216 255 294 366
#     4  10  21  37  62  89 123 159 202 254 313 359
#     4  10  20  38  61  92 119 158 207 262 295 357
#     4  12  26  40  61  94 130 164 199 254 322 367
#     4  12  24  42  61  92 131 163 199 254 320 368
#     4  12  22  39  65  94 120 160 218 254 292 363
#     4  10  21  37  60  90 127 156 202 252 315 359
#     4  10  21  38  61  92 117 159 210 259 297 354
#
# _framework density 22.075932999999999
#
# number of rings (size 3 to 8) (size 9 to 14) (size 15 to 20)
#    0.000    1.000    5.000    2.250    1.750    0.000 
#    0.000    2.500    0.000    0.000    0.000    0.000 
#    0.000    0.000    0.000    0.000    0.000    0.000 
#
# Total GULP energy -89455.863334 kJ/mol
# GULP energy per Si atom -5590.991458 kJ/mol
# Density = 2.202569 g / cm^3
# Si number density = 22.075933 Si / 1000 Ang^3
#
#
#
# Elastic Constant Matrix: (Units=GPa)
#
#
# Indices 1 2 3 4 5 6 
#
# 1 78.4174 22.9250 25.6341 -7.5643 -16.3882 -12.4502
# 2 22.9250 157.8712 59.7189 -43.7151 -27.8992 -17.6708
# 3 25.6341 59.7189 76.2396 -35.5258 -28.0507 -0.1685
# 4 -7.5643 -43.7151 -35.5258 50.4953 6.8492 -0.3645
# 5 -16.3882 -27.8992 -28.0507 6.8492 45.3107 -0.7587
# 6 -12.4502 -17.6708 -0.1685 -0.3645 -0.7587 30.6111
#
#
#
# Elastic Compliance Matrix: (Units=1/GPa)
#
#
# Indices 1 2 3 4 5 6 
#
# 1 0.015918 0.000712 -0.005175 -0.001032 0.003264 0.006925
# 2 0.000712 0.011048 -0.005022 0.005754 0.003195 0.006787
# 3 -0.005175 -0.005022 0.029364 0.014009 0.011024 -0.004402
# 4 -0.001032 0.005754 0.014009 0.033587 0.006825 0.003548
# 5 0.003264 0.003195 0.011024 0.006825 0.031079 0.004084
# 6 0.006925 0.006787 -0.004402 0.003548 0.004084 0.039522
#
#
# Mechanical properties :
#
#
# Convention : Reuss Voigt Hill
#
# Bulk Modulus (GPa) = 26.76524 58.78713 42.77618
# Shear Modulus (GPa) = 26.04980 38.90007 32.47493
#
# Velocity S-wave (km/s) = 3.43885 4.20230 3.83960
# Velocity P-wave (km/s) = 5.28376 7.08753 6.25105
#
# Compressibility (1/GPa) = 0.03736189
#
# Stress axis : x y z
#
# Youngs Moduli (GPa) = 62.82301 90.51286 34.05519
#
# Poissons Ratio (x) = -0.06445 0.17622
# Poissons Ratio (y) = -0.04474 0.17101
# Poissons Ratio (z) = 0.32508 0.45452
#
# Static dielectric constant tensor:
#      x y z
#    x 1.829320 0.045390 0.031890 
#    y 0.045390 1.867030 0.013650 
#    z 0.031890 0.013650 1.827370 
# 
# From -- ./inp_files/226636.got.cif
#   From: 2010.05.17/outbox.cif.g08.bks.cpg/sg2_114_cif.got.tgz:226636.got - 2010.06.03 11:33:40.
