data_PCOD9102409
_publ_section_title
;
Structure prediction by ZEFSAII (Michael W. Deem and Ramdas Pophale) SiO2 
 PCOD9102409
Probable space group: P -1
;
_chemical_formula_sum "Si O2"
_cell_formula_units_Z 14
_cell_length_a 8.973991
_cell_length_b 11.820095
_cell_length_c 13.112697
_cell_angle_alpha 31.048685
_cell_angle_beta 132.143068
_cell_angle_gamma 126.734737
_cell_volume 530.935004
_symmetry_space_group_name_H-M "P -1"
_symmetry_group_IT_number 2
_symmetry_cell_setting 'triclinic'
loop_
_space_group_symop_operation_xyz
x,y,z
-x,-y,-z
loop_
_atom_site_type_symbol
_atom_site_label
_atom_site_fract_x
_atom_site_fract_y
_atom_site_fract_z
Si Si1 0.709251 0.707107 0.865920
Si Si2 0.674902 0.387053 0.457279
Si Si3 0.432907 0.939170 0.703346
Si Si4 0.049253 0.032292 0.724038
Si Si5 0.610232 0.870150 0.063332
Si Si6 0.979005 0.508767 0.317027
Si Si7 0.824543 0.324546 0.091842
O O1 0.677893 0.504646 0.930871
O O2 0.870457 0.627547 0.084596
O O3 0.516382 0.780315 0.779554
O O4 0.822729 0.926959 0.703016
O O5 0.574320 0.610824 0.267922
O O6 0.838491 0.354567 0.647762
O O7 0.811599 0.439055 0.379879
O O8 0.512521 0.185559 0.524016
O O9 0.205079 0.857585 0.689892
O O10 0.543009 0.908475 0.887788
O O11 0.169332 0.847671 0.864710
O O12 0.153000 0.070307 0.853101
O O13 0.064976 0.278757 0.497330
O O14 0.500000 0.000000 0.000000
O O15 0.000000 0.500000 0.000000
#
# Coordination Sequence:
#
# PCOD9102409 Si02
#       7
#     2   2   2   2   2   2   2
#     4  11  22  39  67  89 119 175 211 246 305 370
#     4  10  22  37  63  98 130 153 203 261 310 372
#     4  12  22  41  66  94 123 162 213 260 307 367
#     4  10  21  41  62  93 130 157 203 259 308 368
#     4  11  22  39  65  95 127 162 197 254 323 374
#     4  10  20  38  62  96 127 159 200 253 315 371
#     4  10  24  44  62  87 126 171 211 259 307 362
#
# _framework density 26.368576000000001
#
# number of rings (size 3 to 8) (size 9 to 14) (size 15 to 20)
#    0.000    1.429    4.286    1.286    0.000    2.286 
#    2.571    3.571    0.000    0.000    0.000    0.000 
#    0.000    0.000    0.000    0.000    0.000    0.000 
#
# Total GULP energy -78215.484270 kJ/mol
# GULP energy per Si atom -5586.820305 kJ/mol
# Density = 2.630856 g / cm^3
# Si number density = 26.368576 Si / 1000 Ang^3
#
#
#
# Elastic Constant Matrix: (Units=GPa)
#
#
# Indices 1 2 3 4 5 6 
#
# 1 118.1815 48.5035 38.9452 -36.5871 -1.4548 -3.8543
# 2 48.5035 145.9256 34.0711 -21.3685 8.9004 -2.0850
# 3 38.9452 34.0711 123.3559 -24.4019 6.8357 -6.2336
# 4 -36.5871 -21.3685 -24.4019 62.6566 -2.8222 -3.5139
# 5 -1.4548 8.9004 6.8357 -2.8222 45.2192 -22.5052
# 6 -3.8543 -2.0850 -6.2336 -3.5139 -22.5052 43.1044
#
#
#
# Elastic Compliance Matrix: (Units=1/GPa)
#
#
# Indices 1 2 3 4 5 6 
#
# 1 0.012163 -0.002903 -0.001952 0.005633 0.002930 0.002654
# 2 -0.002903 0.008284 -0.001212 0.000507 -0.002034 -0.001055
# 3 -0.001952 -0.001212 0.009580 0.002205 -0.000638 0.000999
# 4 0.005633 0.000507 0.002205 0.020653 0.003103 0.004151
# 5 0.002930 -0.002034 -0.000638 0.003103 0.031157 0.016591
# 6 0.002654 -0.001055 0.000999 0.004151 0.016591 0.032531
#
#
# Mechanical properties :
#
#
# Convention : Reuss Voigt Hill
#
# Bulk Modulus (GPa) = 55.88911 70.05586 62.97248
# Shear Modulus (GPa) = 37.74579 47.92560 42.83570
#
# Velocity S-wave (km/s) = 3.78758 4.26787 4.03488
# Velocity P-wave (km/s) = 6.35366 7.13526 6.75577
#
# Compressibility (1/GPa) = 0.01789257
#
# Stress axis : x y z
#
# Youngs Moduli (GPa) = 82.21883 120.71623 104.38813
#
# Poissons Ratio (x) = 0.35042 0.20378
# Poissons Ratio (y) = 0.23867 0.12649
# Poissons Ratio (z) = 0.16051 0.14628
#
# Static dielectric constant tensor:
#      x y z
#    x 2.088750 0.079790 0.000830 
#    y 0.079790 2.113910 0.072700 
#    z 0.000830 0.072700 2.105170 
# 
# From -- ./inp_files/77070.got.cif
#   From: 2010.05.17/outbox.cif.g08.bks.cpg/sg2_39_cif.got.tgz:77070.got - 2010.06.03 11:33:40.
