data_PCOD9102927
_publ_section_title
;
Structure prediction by ZEFSAII (Michael W. Deem and Ramdas Pophale) SiO2 
 PCOD9102927
Probable space group: P -1
;
_chemical_formula_sum "Si O2"
_cell_formula_units_Z 14
_cell_length_a 9.159563
_cell_length_b 11.351530
_cell_length_c 6.632919
_cell_angle_alpha 100.930384
_cell_angle_beta 92.402647
_cell_angle_gamma 97.807784
_cell_volume 669.243198
_symmetry_space_group_name_H-M "P -1"
_symmetry_group_IT_number 2
_symmetry_cell_setting 'triclinic'
loop_
_space_group_symop_operation_xyz
x,y,z
-x,-y,-z
loop_
_atom_site_type_symbol
_atom_site_label
_atom_site_fract_x
_atom_site_fract_y
_atom_site_fract_z
Si Si1 0.901714 0.443276 0.284914
Si Si2 0.186790 0.425533 0.064742
Si Si3 0.966281 0.166045 0.612010
Si Si4 0.171777 0.086592 0.306955
Si Si5 0.753390 0.826666 0.078172
Si Si6 0.457503 0.132886 0.580386
Si Si7 0.264507 0.663249 0.404879
O O1 0.768429 0.362678 0.368287
O O2 0.000000 0.500000 0.500000
O O3 0.022595 0.388060 0.139003
O O4 0.835793 0.532165 0.152987
O O5 0.262362 0.540077 0.237406
O O6 0.273360 0.311573 0.045686
O O7 0.875754 0.275902 0.657991
O O8 0.034351 0.152557 0.389503
O O9 0.108515 0.173246 0.763749
O O10 0.861338 0.043826 0.630070
O O11 0.325460 0.151797 0.426809
O O12 0.192136 0.083475 0.070183
O O13 0.615275 0.861731 0.201888
O O14 0.592967 0.238836 0.592523
O O15 0.500000 0.000000 0.500000
#
# Coordination Sequence:
#
# PCOD9102927 Si02
#       7
#     2   2   2   2   2   2   2
#     4   9  18  35  62  93 125 158 197 250 309 359
#     4  10  21  38  59  97 124 154 206 254 302 370
#     4  10  20  38  64  93 122 155 208 258 302 363
#     4  10  22  41  63  89 123 164 204 256 308 359
#     4  11  23  40  63  90 126 159 204 255 311 367
#     4  11  25  45  59  87 128 166 210 254 300 370
#     4  11  22  39  66  90 126 166 199 253 309 362
#
# _framework density 20.919153999999999
#
# number of rings (size 3 to 8) (size 9 to 14) (size 15 to 20)
#    0.000    1.714    1.429    3.857    0.000    5.714 
#    5.143    1.429    0.000    0.000    0.000    0.000 
#    0.000    0.000    0.000    0.000    0.000    0.000 
#
# Total GULP energy -78171.395507 kJ/mol
# GULP energy per Si atom -5583.671108 kJ/mol
# Density = 2.087154 g / cm^3
# Si number density = 20.919154 Si / 1000 Ang^3
#
#
#
# Elastic Constant Matrix: (Units=GPa)
#
#
# Indices 1 2 3 4 5 6 
#
# 1 82.3193 50.6549 40.9502 -5.1347 -26.8933 19.0807
# 2 50.6549 84.5995 40.1948 10.4564 -16.5298 15.9587
# 3 40.9502 40.1948 111.5574 -22.7184 -30.9841 9.7546
# 4 -5.1347 10.4564 -22.7184 40.6376 -0.3895 -9.1631
# 5 -26.8933 -16.5298 -30.9841 -0.3895 29.1204 -0.5389
# 6 19.0807 15.9587 9.7546 -9.1631 -0.5389 36.8742
#
#
#
# Elastic Compliance Matrix: (Units=1/GPa)
#
#
# Indices 1 2 3 4 5 6 
#
# 1 0.028145 -0.013302 0.002269 0.006774 0.020810 -0.007420
# 2 -0.013302 0.025282 -0.008788 -0.014394 -0.007577 -0.005421
# 3 0.002269 -0.008788 0.018709 0.013460 0.017217 0.001276
# 4 0.006774 -0.014394 0.013460 0.038849 0.013093 0.009009
# 5 0.020810 -0.007577 0.017217 0.013093 0.067607 -0.007802
# 6 -0.007420 -0.005421 0.001276 0.009009 -0.007802 0.035092
#
#
# Mechanical properties :
#
#
# Convention : Reuss Voigt Hill
#
# Bulk Modulus (GPa) = 30.77471 60.23068 45.50269
# Shear Modulus (GPa) = 18.92820 31.10488 25.01654
#
# Velocity S-wave (km/s) = 3.01130 3.86023 3.46188
# Velocity P-wave (km/s) = 5.18013 6.98019 6.14642
#
# Compressibility (1/GPa) = 0.03249422
#
# Stress axis : x y z
#
# Youngs Moduli (GPa) = 35.53029 39.55428 53.45097
#
# Poissons Ratio (x) = 0.52615 -0.12130
# Poissons Ratio (y) = 0.47262 0.46973
# Poissons Ratio (z) = -0.08063 0.34761
#
# Static dielectric constant tensor:
#      x y z
#    x 1.742930 0.021650 -0.001460 
#    y 0.021650 1.796140 0.028800 
#    z -0.001460 0.028800 1.792220 
# 
# From -- ./inp_files/27304.got.cif
#   From: 2010.05.17/outbox.cif.g08.bks.cpg/sg2_14_cif.got.tgz:27304.got - 2010.06.03 11:33:40.
