data_PCOD9102796
_publ_section_title
;
Structure prediction by ZEFSAII (Michael W. Deem and Ramdas Pophale) SiO2 
 PCOD9102796
Probable space group: P -1
;
_chemical_formula_sum "Si O2"
_cell_formula_units_Z 16
_cell_length_a 9.579519
_cell_length_b 10.833475
_cell_length_c 9.024359
_cell_angle_alpha 52.189176
_cell_angle_beta 123.478480
_cell_angle_gamma 108.297091
_cell_volume 616.732981
_symmetry_space_group_name_H-M "P -1"
_symmetry_group_IT_number 2
_symmetry_cell_setting 'triclinic'
loop_
_space_group_symop_operation_xyz
x,y,z
-x,-y,-z
loop_
_atom_site_type_symbol
_atom_site_label
_atom_site_fract_x
_atom_site_fract_y
_atom_site_fract_z
Si Si1 0.838823 0.528563 0.033889
Si Si2 0.689504 0.920320 0.151359
Si Si3 0.138135 0.690609 0.238503
Si Si4 0.426464 0.675004 0.901051
Si Si5 0.174124 0.800035 0.860771
Si Si6 0.715280 0.028667 0.764071
Si Si7 0.620966 0.802406 0.643104
Si Si8 0.611959 0.579023 0.381553
O O1 0.701732 0.458279 0.116186
O O2 0.909387 0.365289 0.118870
O O3 0.963742 0.629794 0.125189
O O4 0.738121 0.653022 0.776255
O O5 0.680258 0.747557 0.338114
O O6 0.841853 0.015336 0.245188
O O7 0.500000 0.000000 0.000000
O O8 0.722646 0.919755 0.993924
O O9 0.146626 0.841015 0.235664
O O10 0.239388 0.545243 0.471206
O O11 0.228716 0.744044 0.099236
O O12 0.307954 0.811645 0.799856
O O13 0.524006 0.738551 0.776414
O O14 0.514067 0.611169 0.148142
O O15 0.532289 0.121462 0.595425
O O16 0.727534 0.936068 0.685118
O O17 0.500000 0.500000 0.500000
#
# Coordination Sequence:
#
# PCOD9102796 Si02
#       8
#     2   2   2   2   2   2   2   2
#     4  10  22  38  62  90 132 169 195 257 309 379
#     4  11  18  36  61  95 123 148 205 270 309 346
#     4  11  22  39  61  96 126 162 209 249 321 369
#     4  10  20  38  64  88 121 160 207 255 299 361
#     4   9  20  36  63  87 120 160 203 257 314 350
#     4  10  23  38  67  91 119 163 213 262 297 367
#     4  11  21  42  64  93 121 167 215 248 307 364
#     4  12  20  35  64  98 121 160 206 261 307 368
#
# _framework density 25.943155000000001
#
# number of rings (size 3 to 8) (size 9 to 14) (size 15 to 20)
#    0.750    0.750    3.750    2.250    0.000    1.500 
#    0.000    3.125   11.000    0.000    0.000    0.875 
#    0.000    0.000    0.000    0.000    0.000    0.000 
#
# Total GULP energy -89209.748076 kJ/mol
# GULP energy per Si atom -5575.609255 kJ/mol
# Density = 2.588411 g / cm^3
# Si number density = 25.943155 Si / 1000 Ang^3
#
#
#
# Elastic Constant Matrix: (Units=GPa)
#
#
# Indices 1 2 3 4 5 6 
#
# 1 40.5680 23.9724 35.2355 -2.2055 -4.9838 7.7957
# 2 23.9724 199.4954 35.1388 -0.5066 -1.6871 42.5560
# 3 35.2355 35.1388 78.4696 -6.6196 -22.5108 23.8872
# 4 -2.2055 -0.5066 -6.6196 41.4681 6.0160 0.5367
# 5 -4.9838 -1.6871 -22.5108 6.0160 19.7446 4.9849
# 6 7.7957 42.5560 23.8872 0.5367 4.9849 30.8394
#
#
#
# Elastic Compliance Matrix: (Units=1/GPa)
#
#
# Indices 1 2 3 4 5 6 
#
# 1 0.063849 -0.009172 -0.060312 0.002815 -0.067963 0.054170
# 2 -0.009172 0.008853 0.011845 -0.000775 0.017716 -0.021922
# 3 -0.060312 0.011845 0.101404 -0.004144 0.127974 -0.100257
# 4 0.002815 -0.000775 -0.004144 0.025434 -0.013156 0.005253
# 5 -0.067963 0.017716 0.127974 -0.013156 0.220727 -0.141841
# 6 0.054170 -0.021922 -0.100257 0.005253 -0.141841 0.149476
#
#
# Mechanical properties :
#
#
# Convention : Reuss Voigt Hill
#
# Bulk Modulus (GPa) = 16.99919 56.35848 36.67883
# Shear Modulus (GPa) = 7.09590 33.35618 20.22604
#
# Velocity S-wave (km/s) = 1.65563 3.58961 2.79521
# Velocity P-wave (km/s) = 3.19711 6.24111 4.95847
#
# Compressibility (1/GPa) = 0.05882634
#
# Stress axis : x y z
#
# Youngs Moduli (GPa) = 15.66198 112.95866 9.86152
#
# Poissons Ratio (x) = 1.03606 0.59477
# Poissons Ratio (y) = 0.14365 -0.11681
# Poissons Ratio (z) = 0.94461 -1.33796
#
# Static dielectric constant tensor:
#      x y z
#    x 2.139310 -0.023050 0.092130 
#    y -0.023050 2.168140 0.003060 
#    z 0.092130 0.003060 2.024800 
# 
# From -- ./inp_files/262168.got.cif
#   From: 2010.05.17/outbox.cif.g08.bks.cpg/sg2_132_cif.got.tgz:262168.got - 2010.06.03 11:33:40.
