data_PCOD9102111
_publ_section_title
;
Structure prediction by ZEFSAII (Michael W. Deem and Ramdas Pophale) SiO2 
 PCOD9102111
Probable space group: P -1
;
_chemical_formula_sum "Si O2"
_cell_formula_units_Z 14
_cell_length_a 12.852313
_cell_length_b 6.440960
_cell_length_c 9.404676
_cell_angle_alpha 97.953685
_cell_angle_beta 66.890992
_cell_angle_gamma 72.079280
_cell_volume 650.764915
_symmetry_space_group_name_H-M "P -1"
_symmetry_group_IT_number 2
_symmetry_cell_setting 'triclinic'
loop_
_space_group_symop_operation_xyz
x,y,z
-x,-y,-z
loop_
_atom_site_type_symbol
_atom_site_label
_atom_site_fract_x
_atom_site_fract_y
_atom_site_fract_z
Si Si1 0.077990 0.965726 0.096882
Si Si2 0.684580 0.949026 0.010779
Si Si3 0.657659 0.351449 0.521826
Si Si4 0.934054 0.217894 0.451912
Si Si5 0.607181 0.291044 0.847338
Si Si6 0.518736 0.152593 0.379278
Si Si7 0.833359 0.437582 0.792304
O O1 0.020842 0.170219 0.263100
O O2 0.081432 0.739151 0.154065
O O3 0.215158 0.947481 0.990636
O O4 0.000000 0.000000 0.000000
O O5 0.581582 0.011172 0.192560
O O6 0.760019 0.682987 0.920384
O O7 0.626848 0.065768 0.903389
O O8 0.803541 0.238716 0.458047
O O9 0.591677 0.290836 0.687255
O O10 0.612372 0.260353 0.400160
O O11 0.605696 0.626892 0.568644
O O12 0.899867 0.424547 0.603626
O O13 0.000000 0.000000 0.500000
O O14 0.731426 0.335632 0.801496
O O15 0.500000 0.500000 0.000000
O O16 0.500000 0.000000 0.500000
#
# Coordination Sequence:
#
# PCOD9102111 Si02
#       7
#     2   2   2   2   2   2   2
#     4  10  21  39  63  86 119 165 203 249 298 360
#     4  11  23  39  61  94 121 157 206 253 305 360
#     4  10  22  42  62  89 122 164 201 250 308 366
#     4   9  19  41  64  86 119 159 204 250 307 356
#     4  10  20  38  62  84 117 159 195 245 300 355
#     4  11  25  39  60  90 129 163 199 248 309 375
#     4   9  22  37  58  90 122 153 200 249 301 362
#
# _framework density 21.513144
#
# number of rings (size 3 to 8) (size 9 to 14) (size 15 to 20)
#    0.000    2.000    1.429    1.714    2.000    6.286 
#    0.000    2.857    0.000    0.000    0.000    0.000 
#    0.000    0.000    0.000    0.000    0.000    0.000 
#
# Total GULP energy -78165.335264 kJ/mol
# GULP energy per Si atom -5583.238233 kJ/mol
# Density = 2.146418 g / cm^3
# Si number density = 21.513144 Si / 1000 Ang^3
#
#
#
# Elastic Constant Matrix: (Units=GPa)
#
#
# Indices 1 2 3 4 5 6 
#
# 1 65.8474 16.0229 14.3541 -5.7686 -2.4701 -21.3247
# 2 16.0229 102.4643 49.9628 4.4894 3.8951 -15.3293
# 3 14.3541 49.9628 138.7229 -1.7795 -5.5744 -4.2725
# 4 -5.7686 4.4894 -1.7795 35.9394 -1.2036 -0.6420
# 5 -2.4701 3.8951 -5.5744 -1.2036 38.5404 -2.8648
# 6 -21.3247 -15.3293 -4.2725 -0.6420 -2.8648 30.9548
#
#
#
# Elastic Compliance Matrix: (Units=1/GPa)
#
#
# Indices 1 2 3 4 5 6 
#
# 1 0.020564 -0.000759 -0.001285 0.003659 0.002357 0.013908
# 2 -0.000759 0.013004 -0.004541 -0.001937 -0.001702 0.005093
# 3 -0.001285 -0.004541 0.008998 0.000828 0.001575 -0.001729
# 4 0.003659 -0.001937 0.000828 0.028793 0.001629 0.002424
# 5 0.002357 -0.001702 0.001575 0.001629 0.026810 0.003513
# 6 0.013908 0.005093 -0.001729 0.002424 0.003513 0.044545
#
#
# Mechanical properties :
#
#
# Convention : Reuss Voigt Hill
#
# Bulk Modulus (GPa) = 34.01725 51.96824 42.99275
# Shear Modulus (GPa) = 30.17829 36.19991 33.18910
#
# Velocity S-wave (km/s) = 3.74944 4.10651 3.93203
# Velocity P-wave (km/s) = 5.88141 6.83326 6.37513
#
# Compressibility (1/GPa) = 0.02939685
#
# Stress axis : x y z
#
# Youngs Moduli (GPa) = 48.62804 76.89905 111.13716
#
# Poissons Ratio (x) = 0.05833 0.14277
# Poissons Ratio (y) = 0.03689 0.50473
# Poissons Ratio (z) = 0.06247 0.34923
#
# Static dielectric constant tensor:
#      x y z
#    x 1.803440 0.019940 0.000870 
#    y 0.019940 1.796130 -0.006030 
#    z 0.000870 -0.006030 1.803360 
# 
# From -- ./inp_files/36901.got.cif
#   From: 2010.05.17/outbox.cif.g08.bks.cpg/sg2_19_cif.got.tgz:36901.got - 2010.06.03 11:33:40.
