data_PCOD9102489
_publ_section_title
;
Structure prediction by ZEFSAII (Michael W. Deem and Ramdas Pophale) SiO2 
 PCOD9102489
Probable space group: P -1
;
_chemical_formula_sum "Si O2"
_cell_formula_units_Z 16
_cell_length_a 18.347876
_cell_length_b 8.921097
_cell_length_c 9.229770
_cell_angle_alpha 47.065816
_cell_angle_beta 126.342501
_cell_angle_gamma 128.620156
_cell_volume 826.319629
_symmetry_space_group_name_H-M "P -1"
_symmetry_group_IT_number 2
_symmetry_cell_setting 'triclinic'
loop_
_space_group_symop_operation_xyz
x,y,z
-x,-y,-z
loop_
_atom_site_type_symbol
_atom_site_label
_atom_site_fract_x
_atom_site_fract_y
_atom_site_fract_z
Si Si1 0.150476 0.584413 0.179059
Si Si2 0.757861 0.484766 0.361867
Si Si3 0.950866 0.680849 0.286485
Si Si4 0.408767 0.384191 0.858527
Si Si5 0.003281 0.191350 0.079280
Si Si6 0.345413 0.904820 0.108631
Si Si7 0.514396 0.336870 0.512508
Si Si8 0.609539 0.025800 0.561211
O O1 0.192422 0.522190 0.418826
O O2 0.237943 0.723732 0.081071
O O3 0.082879 0.355919 0.173997
O O4 0.090840 0.742334 0.043070
O O5 0.840227 0.558782 0.289746
O O6 0.694864 0.637168 0.184848
O O7 0.673171 0.242757 0.407482
O O8 0.000000 0.500000 0.500000
O O9 0.987042 0.929241 0.240241
O O10 0.964639 0.732686 0.097938
O O11 0.425582 0.540637 0.637174
O O12 0.500000 0.500000 0.000000
O O13 0.392664 0.143645 0.936825
O O14 0.424555 0.794435 0.260117
O O15 0.341046 0.970218 0.230191
O O16 0.500000 0.500000 0.500000
O O17 0.410726 0.179287 0.431095
O O18 0.500000 0.000000 0.500000
#
# Coordination Sequence:
#
# PCOD9102489 Si02
#       8
#     2   2   2   2   2   2   2   2
#     4  10  20  43  66  92 123 169 211 261 316 370
#     4  11  21  39  69  94 119 170 214 253 312 377
#     4  11  23  44  64  99 131 163 211 261 319 383
#     4  12  21  39  67  89 118 172 215 249 308 383
#     4  10  23  43  67  88 133 166 203 270 318 369
#     4  10  20  38  63  87 119 159 216 246 301 393
#     4  11  22  40  57  88 128 158 197 268 316 351
#     4   9  16  38  62  81 117 161 202 246 294 370
#
# _framework density 19.362967000000001
#
# number of rings (size 3 to 8) (size 9 to 14) (size 15 to 20)
#    0.000    1.500    6.250    1.500    0.000    1.000 
#    9.000    0.000    0.000    0.000    0.000    0.000 
#    0.000    0.000    0.000    0.000    0.000    0.000 
#
# Total GULP energy -89072.559992 kJ/mol
# GULP energy per Si atom -5567.035000 kJ/mol
# Density = 1.931890 g / cm^3
# Si number density = 19.362967 Si / 1000 Ang^3
#
#
#
# Elastic Constant Matrix: (Units=GPa)
#
#
# Indices 1 2 3 4 5 6 
#
# 1 89.7922 43.5762 21.2995 -9.9733 17.1800 -1.0288
# 2 43.5762 108.9549 19.6223 -17.5099 9.8123 -8.3238
# 3 21.2995 19.6223 52.2317 -24.5926 20.3437 0.7451
# 4 -9.9733 -17.5099 -24.5926 36.6377 -0.1041 0.3704
# 5 17.1800 9.8123 20.3437 -0.1041 29.5015 -6.0882
# 6 -1.0288 -8.3238 0.7451 0.3704 -6.0882 36.3883
#
#
#
# Elastic Compliance Matrix: (Units=1/GPa)
#
#
# Indices 1 2 3 4 5 6 
#
# 1 0.015372 -0.005336 -0.001255 0.000792 -0.006699 -0.001889
# 2 -0.005336 0.012260 -0.000586 0.003987 -0.000011 0.002623
# 3 -0.001255 -0.000586 0.047757 0.031411 -0.033350 -0.007047
# 4 0.000792 0.003987 0.031411 0.050474 -0.024149 -0.004263
# 5 -0.006699 -0.000011 -0.033350 -0.024149 0.063042 0.011284
# 6 -0.001889 0.002623 -0.007047 -0.004263 0.011284 0.030104
#
#
# Mechanical properties :
#
#
# Convention : Reuss Voigt Hill
#
# Bulk Modulus (GPa) = 16.38396 46.66384 31.52390
# Shear Modulus (GPa) = 19.70782 31.60422 25.65602
#
# Velocity S-wave (km/s) = 3.19377 4.04443 3.64401
# Velocity P-wave (km/s) = 4.69895 6.77951 5.83275
#
# Compressibility (1/GPa) = 0.06103529
#
# Stress axis : x y z
#
# Youngs Moduli (GPa) = 65.05359 81.56780 20.93948
#
# Poissons Ratio (x) = 0.43522 0.02628
# Poissons Ratio (y) = 0.34711 0.01227
# Poissons Ratio (z) = 0.08165 0.04778
#
# Static dielectric constant tensor:
#      x y z
#    x 1.699900 0.004370 0.007840 
#    y 0.004370 1.787140 -0.044340 
#    z 0.007840 -0.044340 1.714250 
# 
# From -- ./inp_files/327174.got.cif
#   From: 2010.05.17/outbox.cif.g08.bks.cpg/sg2_164_cif.got.tgz:327174.got - 2010.06.03 11:33:40.
