data_PCOD9102315
_publ_section_title
;
Structure prediction by ZEFSAII (Michael W. Deem and Ramdas Pophale) SiO2 
 PCOD9102315
Probable space group: P -1
;
_chemical_formula_sum "Si O2"
_cell_formula_units_Z 16
_cell_length_a 11.486165
_cell_length_b 9.080133
_cell_length_c 19.953729
_cell_angle_alpha 88.342916
_cell_angle_beta 28.510547
_cell_angle_gamma 109.055375
_cell_volume 670.538197
_symmetry_space_group_name_H-M "P -1"
_symmetry_group_IT_number 2
_symmetry_cell_setting 'triclinic'
loop_
_space_group_symop_operation_xyz
x,y,z
-x,-y,-z
loop_
_atom_site_type_symbol
_atom_site_label
_atom_site_fract_x
_atom_site_fract_y
_atom_site_fract_z
Si Si1 0.356971 0.098349 0.092972
Si Si2 0.330853 0.204539 0.974238
Si Si3 0.456827 0.391619 0.368477
Si Si4 0.465898 0.082198 0.313542
Si Si5 0.652827 0.045886 0.774774
Si Si6 0.494941 0.077573 0.574315
Si Si7 0.816250 0.758033 0.081827
Si Si8 0.494348 0.328379 0.488300
O O1 0.442378 0.138409 0.128368
O O2 0.922790 0.907989 0.305989
O O3 0.488649 0.275576 0.969047
O O4 0.500000 0.000000 0.000000
O O5 0.380327 0.055866 0.929796
O O6 0.457197 0.345156 0.841490
O O7 0.914871 0.069801 0.193292
O O8 0.411484 0.231652 0.345048
O O9 0.643822 0.612720 0.236953
O O10 0.655110 0.402801 0.331320
O O11 0.055483 0.265480 0.592420
O O12 0.316942 0.961248 0.319472
O O13 0.339934 0.941295 0.447170
O O14 0.885593 0.228251 0.090442
O O15 0.659234 0.306747 0.465064
O O16 0.500000 0.000000 0.500000
O O17 0.000000 0.000000 0.000000
O O18 0.500000 0.500000 0.500000
#
# Coordination Sequence:
#
# PCOD9102315 Si02
#       8
#     2   2   2   2   2   2   2   2
#     4   8  17  34  56  83 113 154 190 239 291 355
#     4   9  19  36  61  86 117 160 202 247 303 355
#     4  11  24  38  59  92 127 158 205 253 307 367
#     4  11  22  40  63  89 126 165 199 252 308 369
#     4  10  20  38  62  93 121 161 204 248 306 370
#     4  10  20  38  62  91 125 159 199 251 307 357
#     4  11  23  39  61  88 119 161 207 258 306 353
#     4  10  21  34  58  91 116 150 204 251 290 352
#
# _framework density 23.861429000000001
#
# number of rings (size 3 to 8) (size 9 to 14) (size 15 to 20)
#    0.000    2.000    2.500    0.750    5.250    0.500 
#    0.000    1.250    0.000    0.750    0.000    0.000 
#    0.000    0.000    0.000    0.000    0.000    0.000 
#
# Total GULP energy -89097.872196 kJ/mol
# GULP energy per Si atom -5568.617012 kJ/mol
# Density = 2.380712 g / cm^3
# Si number density = 23.861429 Si / 1000 Ang^3
#
#
#
# Elastic Constant Matrix: (Units=GPa)
#
#
# Indices 1 2 3 4 5 6 
#
# 1 142.3588 13.5702 35.9282 -8.0552 37.5037 -13.8300
# 2 13.5702 70.1883 20.3042 14.0099 5.2275 -8.1321
# 3 35.9282 20.3042 75.5097 4.3884 9.6695 -5.9730
# 4 -8.0552 14.0099 4.3884 29.3386 -8.8664 9.3894
# 5 37.5037 5.2275 9.6695 -8.8664 41.5576 6.0230
# 6 -13.8300 -8.1321 -5.9730 9.3894 6.0230 29.2405
#
#
#
# Elastic Compliance Matrix: (Units=1/GPa)
#
#
# Indices 1 2 3 4 5 6 
#
# 1 0.011485 0.001259 -0.003461 -0.003157 -0.011620 0.008482
# 2 0.001259 0.019803 -0.003140 -0.014762 -0.007756 0.011799
# 3 -0.003461 -0.003140 0.016199 -0.002841 -0.001140 0.001946
# 4 -0.003157 -0.014762 -0.002841 0.056405 0.021565 -0.028733
# 5 -0.011620 -0.007756 -0.001140 0.021565 0.043847 -0.023843
# 6 0.008482 0.011799 0.001946 -0.028733 -0.023843 0.056028
#
#
# Mechanical properties :
#
#
# Convention : Reuss Voigt Hill
#
# Bulk Modulus (GPa) = 27.17025 47.51799 37.34412
# Shear Modulus (GPa) = 22.05390 34.57763 28.31576
#
# Velocity S-wave (km/s) = 3.04344 3.81084 3.44855
# Velocity P-wave (km/s) = 4.87457 6.27062 5.61614
#
# Compressibility (1/GPa) = 0.03680497
#
# Stress axis : x y z
#
# Youngs Moduli (GPa) = 87.07297 50.49634 61.73190
#
# Poissons Ratio (x) = -0.06357 0.21362
# Poissons Ratio (y) = -0.10963 0.19381
# Poissons Ratio (z) = 0.30132 0.15854
#
# Static dielectric constant tensor:
#      x y z
#    x 1.886000 -0.104310 0.077250 
#    y -0.104310 1.936740 -0.015020 
#    z 0.077250 -0.015020 1.960730 
# 
# From -- ./inp_files/262365.got.cif
#   From: 2010.05.17/outbox.cif.g08.bks.cpg/sg2_132_cif.got.tgz:262365.got - 2010.06.03 11:33:40.
