data_PCOD9102153
_publ_section_title
;
Structure prediction by ZEFSAII (Michael W. Deem and Ramdas Pophale) SiO2 
 PCOD9102153
Probable space group: P -1
;
_chemical_formula_sum "Si O2"
_cell_formula_units_Z 14
_cell_length_a 22.054876
_cell_length_b 9.387375
_cell_length_c 18.585633
_cell_angle_alpha 30.854466
_cell_angle_beta 17.001613
_cell_angle_gamma 35.273118
_cell_volume 576.766409
_symmetry_space_group_name_H-M "P -1"
_symmetry_group_IT_number 2
_symmetry_cell_setting 'triclinic'
loop_
_space_group_symop_operation_xyz
x,y,z
-x,-y,-z
loop_
_atom_site_type_symbol
_atom_site_label
_atom_site_fract_x
_atom_site_fract_y
_atom_site_fract_z
Si Si1 0.105904 0.562379 0.450878
Si Si2 0.133298 0.948523 0.677947
Si Si3 0.152696 0.117337 0.838095
Si Si4 0.436998 0.625640 0.787968
Si Si5 0.414602 0.851508 0.875878
Si Si6 0.964627 0.853846 0.774269
Si Si7 0.914075 0.692786 0.745552
O O1 0.049030 0.257431 0.619705
O O2 0.074680 0.523391 0.588282
O O3 0.976881 0.832618 0.458438
O O4 0.324119 0.662217 0.126489
O O5 0.360468 0.018108 0.419901
O O6 0.127693 0.784694 0.680551
O O7 0.988627 0.821982 0.958948
O O8 0.302162 0.868702 0.800039
O O9 0.323921 0.346399 0.518623
O O10 0.000000 0.000000 0.000000
O O11 0.419068 0.680737 0.870206
O O12 0.312125 0.363339 0.008577
O O13 0.250365 0.100214 0.958047
O O14 0.921066 0.665172 0.835614
O O15 0.000000 0.000000 0.500000
#
# Coordination Sequence:
#
# PCOD9102153 Si02
#       7
#     2   2   2   2   2   2   2
#     4   9  19  35  57  88 117 154 196 245 294 350
#     4  12  19  37  60  87 119 153 200 253 291 342
#     4  11  22  38  64  90 115 152 208 255 288 337
#     4  11  22  39  64  90 116 157 202 248 295 345
#     4  10  21  34  60  92 116 150 200 248 299 350
#     4   9  21  35  56  85 124 153 191 238 301 359
#     4  10  20  38  62  86 126 163 188 235 306 368
#
# _framework density 24.273260000000001
#
# number of rings (size 3 to 8) (size 9 to 14) (size 15 to 20)
#    0.857    0.857    4.286    0.857    4.000    0.000 
#    0.000    4.286    0.000    1.714    0.000    0.000 
#    0.000    0.000    0.000    0.000    0.000    0.000 
#
# Total GULP energy -78062.895534 kJ/mol
# GULP energy per Si atom -5575.921110 kJ/mol
# Density = 2.421801 g / cm^3
# Si number density = 24.273260 Si / 1000 Ang^3
#
#
#
# Elastic Constant Matrix: (Units=GPa)
#
#
# Indices 1 2 3 4 5 6 
#
# 1 176.9139 40.4675 79.8363 6.8206 -24.0203 54.2269
# 2 40.4675 39.9087 31.1025 -5.2208 -6.3985 29.0759
# 3 79.8363 31.1025 207.2346 10.4975 -14.2703 24.0510
# 4 6.8206 -5.2208 10.4975 30.8677 4.4271 -0.3175
# 5 -24.0203 -6.3985 -14.2703 4.4271 40.2913 -5.3081
# 6 54.2269 29.0759 24.0510 -0.3175 -5.3081 48.4905
#
#
#
# Elastic Compliance Matrix: (Units=1/GPa)
#
#
# Indices 1 2 3 4 5 6 
#
# 1 0.010617 -0.002014 -0.002308 -0.002609 0.004284 -0.009068
# 2 -0.002014 0.050775 -0.004293 0.010109 0.000818 -0.025908
# 3 -0.002308 -0.004293 0.006288 -0.002435 0.000713 0.002099
# 4 -0.002609 0.010109 -0.002435 0.036218 -0.005089 -0.002256
# 5 0.004284 0.000818 0.000713 -0.005089 0.027972 -0.002606
# 6 -0.009068 -0.025908 0.002099 -0.002256 -0.002606 0.044957
#
#
# Mechanical properties :
#
#
# Convention : Reuss Voigt Hill
#
# Bulk Modulus (GPa) = 19.82259 80.76332 50.29296
# Shear Modulus (GPa) = 23.71097 42.10663 32.90880
#
# Velocity S-wave (km/s) = 3.12883 4.16948 3.68606
# Velocity P-wave (km/s) = 4.60835 7.51826 6.23543
#
# Compressibility (1/GPa) = 0.05044749
#
# Stress axis : x y z
#
# Youngs Moduli (GPa) = 94.19296 19.69480 159.03594
#
# Poissons Ratio (x) = 0.03967 0.36707
# Poissons Ratio (y) = 0.18974 0.68281
# Poissons Ratio (z) = 0.21741 0.08456
#
# Static dielectric constant tensor:
#      x y z
#    x 2.098830 0.016100 -0.019640 
#    y 0.016100 2.078430 -0.042360 
#    z -0.019640 -0.042360 1.936060 
# 
# From -- ./inp_files/577194.got.cif
#   From: 2010.05.17/outbox.cif.g08.bks.cpg/sg2_289_cif.got.tgz:577194.got - 2010.06.03 11:33:40.
