data_PCOD9102814
_publ_section_title
;
Structure prediction by ZEFSAII (Michael W. Deem and Ramdas Pophale) SiO2 
 PCOD9102814
Probable space group: P -1
;
_chemical_formula_sum "Si O2"
_cell_formula_units_Z 12
_cell_length_a 7.699428
_cell_length_b 8.506488
_cell_length_c 8.604785
_cell_angle_alpha 92.557951
_cell_angle_beta 54.818551
_cell_angle_gamma 78.633233
_cell_volume 442.702650
_symmetry_space_group_name_H-M "P -1"
_symmetry_group_IT_number 2
_symmetry_cell_setting 'triclinic'
loop_
_space_group_symop_operation_xyz
x,y,z
-x,-y,-z
loop_
_atom_site_type_symbol
_atom_site_label
_atom_site_fract_x
_atom_site_fract_y
_atom_site_fract_z
Si Si1 0.366105 0.475158 0.414282
Si Si2 0.194301 0.124735 0.730535
Si Si3 0.780865 0.943026 0.636422
Si Si4 0.061357 0.360550 0.230432
Si Si5 0.534562 0.724647 0.173545
Si Si6 0.780331 0.211029 0.119255
O O1 0.500000 0.500000 0.500000
O O2 0.362757 0.630491 0.315632
O O3 0.531455 0.321256 0.240501
O O4 0.117179 0.487720 0.593653
O O5 0.278312 0.088616 0.511823
O O6 0.324993 0.239443 0.749672
O O7 0.227679 0.960896 0.810526
O O8 0.928665 0.194990 0.887733
O O9 0.846195 0.785957 0.703843
O O10 0.593557 0.095068 0.810280
O O11 0.000000 0.000000 0.500000
O O12 0.919878 0.290550 0.172568
O O13 0.277194 0.385587 0.037955
#
# Coordination Sequence:
#
# PCOD9102814 Si02
#       6
#     2   2   2   2   2   2
#     4  10  20  38  64  89 120 161 200 242 299 359
#     4  10  21  37  63  94 117 154 204 252 293 350
#     4  12  20  37  62  90 123 159 197 248 304 354
#     4  10  21  37  60  90 119 158 203 240 297 357
#     4  11  23  39  65  91 119 157 206 247 293 354
#     4   9  19  38  62  90 122 157 200 245 299 358
#
# _framework density 27.10623
#
# number of rings (size 3 to 8) (size 9 to 14) (size 15 to 20)
#    0.000    1.667    3.333    2.000    0.000    6.000 
#    0.000    0.833    0.000   12.000    0.000    0.000 
#    0.000    0.000    0.000    0.000    0.000    0.000 
#
# Total GULP energy -67303.660109 kJ/mol
# GULP energy per Si atom -5608.638342 kJ/mol
# Density = 2.704453 g / cm^3
# Si number density = 27.106230 Si / 1000 Ang^3
#
#
#
# Elastic Constant Matrix: (Units=GPa)
#
#
# Indices 1 2 3 4 5 6 
#
# 1 93.7806 -3.8829 27.9683 9.3588 -3.1181 -1.0140
# 2 -3.8829 94.8921 39.0116 23.9429 -11.9907 -30.7185
# 3 27.9683 39.0116 144.1447 30.0078 -45.7056 -16.5880
# 4 9.3588 23.9429 30.0078 48.8997 -19.1240 -14.8292
# 5 -3.1181 -11.9907 -45.7056 -19.1240 38.7219 6.9468
# 6 -1.0140 -30.7185 -16.5880 -14.8292 6.9468 39.0203
#
#
#
# Elastic Compliance Matrix: (Units=1/GPa)
#
#
# Indices 1 2 3 4 5 6 
#
# 1 0.011960 0.002204 -0.003590 -0.002637 -0.003934 0.000218
# 2 0.002204 0.016097 -0.003746 -0.004162 -0.003130 0.010112
# 3 -0.003590 -0.003746 0.013091 -0.000039 0.013981 0.000019
# 4 -0.002637 -0.004162 -0.000039 0.029420 0.011963 0.005690
# 5 -0.003934 -0.003130 0.013981 0.011963 0.047030 -0.000449
# 6 0.000218 0.010112 0.000019 0.005690 -0.000449 0.035845
#
#
# Mechanical properties :
#
#
# Convention : Reuss Voigt Hill
#
# Bulk Modulus (GPa) = 32.38013 51.00128 41.69070
# Shear Modulus (GPa) = 28.73523 43.30975 36.02249
#
# Velocity S-wave (km/s) = 3.25945 4.00156 3.64941
# Velocity P-wave (km/s) = 5.11242 6.34083 5.75947
#
# Compressibility (1/GPa) = 0.03088314
#
# Stress axis : x y z
#
# Youngs Moduli (GPa) = 83.61202 62.12379 76.38656
#
# Poissons Ratio (x) = -0.13695 0.27426
# Poissons Ratio (y) = -0.18431 0.28618
# Poissons Ratio (z) = 0.30021 0.23274
#
# Static dielectric constant tensor:
#      x y z
#    x 2.203230 -0.002810 0.034180 
#    y -0.002810 2.093670 0.051810 
#    z 0.034180 0.051810 2.078310 
# 
# From -- ./inp_files/157813.got.cif
#   From: 2010.05.17/outbox.cif.g08.bks.cpg/sg2_79_cif.got.tgz:157813.got - 2010.06.03 11:33:40.
