data_PCOD9102372
_publ_section_title
;
Structure prediction by ZEFSAII (Michael W. Deem and Ramdas Pophale) SiO2 
 PCOD9102372
Probable space group: P -1
;
_chemical_formula_sum "Si O2"
_cell_formula_units_Z 13
_cell_length_a 11.861133
_cell_length_b 9.048760
_cell_length_c 11.651002
_cell_angle_alpha 96.867979
_cell_angle_beta 140.650508
_cell_angle_gamma 54.943557
_cell_volume 506.455740
_symmetry_space_group_name_H-M "P -1"
_symmetry_group_IT_number 2
_symmetry_cell_setting 'triclinic'
loop_
_space_group_symop_operation_xyz
x,y,z
-x,-y,-z
loop_
_atom_site_type_symbol
_atom_site_label
_atom_site_fract_x
_atom_site_fract_y
_atom_site_fract_z
Si Si1 0.750309 0.223889 0.663255
Si Si2 0.423296 0.098163 0.217452
Si Si3 0.911242 0.857167 0.875273
Si Si4 0.000000 0.000000 0.500000
Si Si5 0.046220 0.437736 0.398941
Si Si6 0.409220 0.403155 0.098611
Si Si7 0.078668 0.176931 0.746467
O O1 0.500000 0.500000 0.500000
O O2 0.901105 0.151085 0.653842
O O3 0.700334 0.090059 0.655447
O O4 0.985182 0.126391 0.927702
O O5 0.223045 0.202004 0.179035
O O6 0.441638 0.257872 0.211044
O O7 0.709991 0.835680 0.450171
O O8 0.303108 0.086488 0.008533
O O9 0.186846 0.659265 0.999946
O O10 0.295525 0.721706 0.714860
O O11 0.834581 0.952507 0.317091
O O12 0.000000 0.500000 0.500000
O O13 0.100509 0.560158 0.389740
O O14 0.760771 0.559974 0.135004
#
# Coordination Sequence:
#
# PCOD9102372 Si02
#       7
#     2   2   2   1   2   2   2
#     4  10  20  38  62  93 133 168 204 260 328 386
#     4  10  22  44  67  93 131 170 212 269 327 385
#     4  10  22  39  65  98 128 166 216 265 323 388
#     4  12  24  42  64  90 132 172 214 270 318 374
#     4  11  23  42  66  92 127 174 220 262 321 389
#     4  11  25  42  65  98 130 169 220 270 322 382
#     4  10  23  40  63  92 126 169 213 263 321 380
#
# _framework density 25.668579999999999
#
# number of rings (size 3 to 8) (size 9 to 14) (size 15 to 20)
#    0.000    1.538    0.000    4.154    0.000    9.231 
#    0.000    6.154    0.000    0.000    0.000    0.000 
#    0.000    0.000    0.000    0.000    0.000    0.000 
#
# Total GULP energy -72478.062651 kJ/mol
# GULP energy per Si atom -5575.235589 kJ/mol
# Density = 2.561016 g / cm^3
# Si number density = 25.668580 Si / 1000 Ang^3
#
#
#
# Elastic Constant Matrix: (Units=GPa)
#
#
# Indices 1 2 3 4 5 6 
#
# 1 63.4299 -3.6207 26.0694 -16.8757 -1.1976 11.9203
# 2 -3.6207 72.0170 34.4002 -11.0673 -1.4765 10.8704
# 3 26.0694 34.4002 134.7705 -18.4692 -3.2417 20.1696
# 4 -16.8757 -11.0673 -18.4692 59.9482 1.0143 2.7930
# 5 -1.1976 -1.4765 -3.2417 1.0143 35.4440 -12.0643
# 6 11.9203 10.8704 20.1696 2.7930 -12.0643 29.4824
#
#
#
# Elastic Compliance Matrix: (Units=1/GPa)
#
#
# Indices 1 2 3 4 5 6 
#
# 1 0.020774 0.004885 -0.002974 0.006348 -0.002942 -0.009971
# 2 0.004885 0.017592 -0.003930 0.003767 -0.001924 -0.006917
# 3 -0.002974 -0.003930 0.009916 0.001729 -0.001010 -0.004709
# 4 0.006348 0.003767 0.001729 0.020126 -0.002840 -0.008207
# 5 -0.002942 -0.001924 -0.001010 -0.002840 0.033688 0.016644
# 6 -0.009971 -0.006917 -0.004709 -0.008207 0.016644 0.051310
#
#
# Mechanical properties :
#
#
# Convention : Reuss Voigt Hill
#
# Bulk Modulus (GPa) = 22.60202 42.65723 32.62962
# Shear Modulus (GPa) = 29.03732 39.19948 34.11840
#
# Velocity S-wave (km/s) = 3.36704 3.91210 3.64976
# Velocity P-wave (km/s) = 4.89289 6.08774 5.52272
#
# Compressibility (1/GPa) = 0.04424384
#
# Stress axis : x y z
#
# Youngs Moduli (GPa) = 48.13762 56.84392 100.84883
#
# Poissons Ratio (x) = -0.27770 0.29991
# Poissons Ratio (y) = -0.23516 0.39636
# Poissons Ratio (z) = 0.14316 0.22341
#
# Static dielectric constant tensor:
#      x y z
#    x 1.445790 0.128070 -0.040430 
#    y 0.128070 2.062240 0.055490 
#    z -0.040430 0.055490 2.080550 
# 
# From -- ./inp_files/23734.got.cif
#   From: 2010.05.17/outbox.cif.g08.bks.cpg/sg2_12_cif.got.tgz:23734.got - 2010.06.03 11:33:40.
