data_PCOD9102979
_publ_section_title
;
Structure prediction by ZEFSAII (Michael W. Deem and Ramdas Pophale) SiO2 
 PCOD9102979
Probable space group: P -1
;
_chemical_formula_sum "Si O2"
_cell_formula_units_Z 16
_cell_length_a 8.388018
_cell_length_b 10.768180
_cell_length_c 9.684201
_cell_angle_alpha 54.425092
_cell_angle_beta 111.779936
_cell_angle_gamma 106.521894
_cell_volume 657.941688
_symmetry_space_group_name_H-M "P -1"
_symmetry_group_IT_number 2
_symmetry_cell_setting 'triclinic'
loop_
_space_group_symop_operation_xyz
x,y,z
-x,-y,-z
loop_
_atom_site_type_symbol
_atom_site_label
_atom_site_fract_x
_atom_site_fract_y
_atom_site_fract_z
Si Si1 0.919482 0.746370 0.882542
Si Si2 0.323895 0.069002 0.433791
Si Si3 0.350100 0.417605 0.227604
Si Si4 0.797064 0.119396 0.908337
Si Si5 0.068393 0.780011 0.600492
Si Si6 0.336875 0.596303 0.363990
Si Si7 0.103043 0.181961 0.764879
Si Si8 0.251176 0.511403 0.690799
O O1 0.782682 0.597253 0.933620
O O2 0.923149 0.218047 0.991355
O O3 0.787726 0.878644 0.765818
O O4 0.989158 0.755889 0.741716
O O5 0.367491 0.241026 0.398301
O O6 0.082107 0.872867 0.192451
O O7 0.500000 0.000000 0.500000
O O8 0.200050 0.934607 0.551118
O O9 0.265554 0.514414 0.255302
O O10 0.544059 0.484224 0.215655
O O11 0.638736 0.221424 0.768924
O O12 0.170515 0.337471 0.764413
O O13 0.773966 0.950431 0.072362
O O14 0.165208 0.635348 0.674619
O O15 0.928963 0.800456 0.420181
O O16 0.500000 0.500000 0.500000
O O17 0.231438 0.569363 0.487722
#
# Coordination Sequence:
#
# PCOD9102979 Si02
#       8
#     2   2   2   2   2   2   2   2
#     4  10  23  38  67 101 134 173 231 279 333 396
#     4  10  20  38  64  94 137 179 222 276 331 411
#     4   9  21  39  60  95 129 174 220 272 332 398
#     4  11  24  43  64 103 137 173 222 294 341 386
#     4  12  20  39  68 104 131 181 235 273 324 416
#     4  10  22  42  69  94 133 181 227 267 342 414
#     4  11  24  39  67  99 137 173 230 277 339 398
#     4  11  22  40  68  98 131 182 229 270 328 418
#
# _framework density 24.318265
#
# number of rings (size 3 to 8) (size 9 to 14) (size 15 to 20)
#    0.750    0.750    3.750    1.500    1.750    0.500 
#    0.000    3.125    8.250    0.000    0.000    0.000 
#    0.000    0.000    0.000    0.000    0.000    0.000 
#
# Total GULP energy -89300.013479 kJ/mol
# GULP energy per Si atom -5581.250842 kJ/mol
# Density = 2.426292 g / cm^3
# Si number density = 24.318265 Si / 1000 Ang^3
#
#
#
# Elastic Constant Matrix: (Units=GPa)
#
#
# Indices 1 2 3 4 5 6 
#
# 1 61.3552 14.6700 21.1132 -12.8459 1.5516 -0.9653
# 2 14.6700 110.9216 31.5107 -17.1375 -6.1243 -1.3652
# 3 21.1132 31.5107 89.7984 -27.0018 13.2696 -17.4485
# 4 -12.8459 -17.1375 -27.0018 49.2896 -8.9101 4.6038
# 5 1.5516 -6.1243 13.2696 -8.9101 32.0258 -10.2596
# 6 -0.9653 -1.3652 -17.4485 4.6038 -10.2596 43.1772
#
#
#
# Elastic Compliance Matrix: (Units=1/GPa)
#
#
# Indices 1 2 3 4 5 6 
#
# 1 0.018263 -0.000978 -0.003449 0.002774 0.000767 -0.001130
# 2 -0.000978 0.010721 -0.003510 0.002322 0.004076 -0.000380
# 3 -0.003449 -0.003510 0.016450 0.005682 -0.004182 0.004860
# 4 0.002774 0.002322 0.005682 0.025826 0.005452 0.000974
# 5 0.000767 0.004076 -0.004182 0.005452 0.037382 0.006757
# 6 -0.001130 -0.000380 0.004860 0.000974 0.006757 0.026589
#
#
# Mechanical properties :
#
#
# Convention : Reuss Voigt Hill
#
# Bulk Modulus (GPa) = 33.83177 44.07367 38.95272
# Shear Modulus (GPa) = 31.06386 37.88395 34.47390
#
# Velocity S-wave (km/s) = 3.57793 3.95123 3.76921
# Velocity P-wave (km/s) = 5.56876 6.24334 5.91567
#
# Compressibility (1/GPa) = 0.02955801
#
# Stress axis : x y z
#
# Youngs Moduli (GPa) = 54.75523 93.27445 60.79165
#
# Poissons Ratio (x) = 0.09126 0.20970
# Poissons Ratio (y) = 0.05358 0.21338
# Poissons Ratio (z) = 0.18887 0.32739
#
# Static dielectric constant tensor:
#      x y z
#    x 1.965700 0.030990 0.031330 
#    y 0.030990 2.018070 0.025530 
#    z 0.031330 0.025530 2.008360 
# 
# From -- ./inp_files/389103.got.cif
#   From: 2010.05.17/outbox.cif.g08.bks.cpg/sg2_195_cif.got.tgz:389103.got - 2010.06.03 11:33:40.
