data_PCOD9102356
_publ_section_title
;
Structure prediction by ZEFSAII (Michael W. Deem and Ramdas Pophale) SiO2 
 PCOD9102356
Probable space group: P -1
;
_chemical_formula_sum "Si O2"
_cell_formula_units_Z 16
_cell_length_a 9.628593
_cell_length_b 17.590089
_cell_length_c 5.150691
_cell_angle_alpha 90.584954
_cell_angle_beta 113.428939
_cell_angle_gamma 84.228981
_cell_volume 795.957999
_symmetry_space_group_name_H-M "P -1"
_symmetry_group_IT_number 2
_symmetry_cell_setting 'triclinic'
loop_
_space_group_symop_operation_xyz
x,y,z
-x,-y,-z
loop_
_atom_site_type_symbol
_atom_site_label
_atom_site_fract_x
_atom_site_fract_y
_atom_site_fract_z
Si Si1 0.917223 0.777567 0.352592
Si Si2 0.655003 0.945906 0.665957
Si Si3 0.366490 0.532476 0.717358
Si Si4 0.930085 0.581171 0.059334
Si Si5 0.133548 0.050018 0.682411
Si Si6 0.921148 0.364284 0.326133
Si Si7 0.292349 0.229538 0.297918
Si Si8 0.613703 0.607726 0.619450
O O1 0.945628 0.864179 0.324182
O O2 0.810010 0.775484 0.523817
O O3 0.063684 0.720348 0.540027
O O4 0.816607 0.754427 0.033887
O O5 0.756054 0.948354 0.482703
O O6 0.625783 0.856576 0.685679
O O7 0.500000 0.000000 0.500000
O O8 0.758225 0.969902 0.986495
O O9 0.241511 0.587012 0.779808
O O10 0.449303 0.584072 0.574076
O O11 0.320979 0.456001 0.544004
O O12 0.500000 0.500000 0.000000
O O13 0.001924 0.634638 0.898469
O O14 0.748265 0.591522 0.928491
O O15 0.984877 0.593365 0.389185
O O16 0.000000 0.500000 0.000000
O O17 0.000000 0.000000 0.500000
O O18 0.388112 0.301545 0.423188
#
# Coordination Sequence:
#
# PCOD9102356 Si02
#       8
#     2   2   2   2   2   2   2   2
#     4  10  20  38  62  93 116 153 204 255 292 348
#     4  10  21  40  65  96 127 162 206 250 299 372
#     4  11  27  40  56  82 128 161 191 256 318 359
#     4  12  23  37  65  87 105 152 209 251 283 354
#     4  10  21  39  65  93 131 162 198 249 314 365
#     4  12  23  40  61  87 115 150 206 253 292 348
#     4  10  21  38  65  88 118 157 204 252 294 353
#     4  11  23  41  58  83 119 158 202 243 314 350
#
# _framework density 20.101562000000001
#
# number of rings (size 3 to 8) (size 9 to 14) (size 15 to 20)
#    0.000    1.250    3.750    1.875    5.250    0.000 
#    2.250    1.250    0.000    0.000    0.000    0.000 
#    0.000    0.000    0.000    0.000    0.000    0.000 
#
# Total GULP energy -89211.770993 kJ/mol
# GULP energy per Si atom -5575.735687 kJ/mol
# Density = 2.005581 g / cm^3
# Si number density = 20.101562 Si / 1000 Ang^3
#
#
#
# Elastic Constant Matrix: (Units=GPa)
#
#
# Indices 1 2 3 4 5 6 
#
# 1 72.1537 33.2505 31.4512 -4.9723 0.4030 -13.4723
# 2 33.2505 146.8418 39.3256 0.1141 25.8657 -13.0879
# 3 31.4512 39.3256 108.2856 -8.8079 2.2247 -9.0761
# 4 -4.9723 0.1141 -8.8079 35.5865 -3.4053 7.5318
# 5 0.4030 25.8657 2.2247 -3.4053 29.4478 -2.4745
# 6 -13.4723 -13.0879 -9.0761 7.5318 -2.4745 22.5049
#
#
#
# Elastic Compliance Matrix: (Units=1/GPa)
#
#
# Indices 1 2 3 4 5 6 
#
# 1 0.018341 -0.003087 -0.003579 0.000320 0.003441 0.008012
# 2 -0.003087 0.009939 -0.002504 -0.002498 -0.008551 0.002818
# 3 -0.003579 -0.002504 0.011376 0.002408 0.001699 0.000370
# 4 0.000320 -0.002498 0.002408 0.031379 0.004773 -0.010267
# 5 0.003441 -0.008551 0.001699 0.004773 0.041911 0.000783
# 6 0.008012 0.002818 0.000370 -0.010267 0.000783 0.054541
#
#
# Mechanical properties :
#
#
# Convention : Reuss Voigt Hill
#
# Bulk Modulus (GPa) = 46.91481 59.48175 53.19828
# Shear Modulus (GPa) = 25.91590 32.39144 29.15367
#
# Velocity S-wave (km/s) = 3.59451 4.01857 3.81244
# Velocity P-wave (km/s) = 6.37313 7.15449 6.77508
#
# Compressibility (1/GPa) = 0.02131523
#
# Stress axis : x y z
#
# Youngs Moduli (GPa) = 54.52358 100.61454 87.90613
#
# Poissons Ratio (x) = 0.31057 0.31462
# Poissons Ratio (y) = 0.16830 0.22014
# Poissons Ratio (z) = 0.19514 0.25196
#
# Static dielectric constant tensor:
#      x y z
#    x 1.713710 0.017740 -0.014120 
#    y 0.017740 1.815940 -0.003440 
#    z -0.014120 -0.003440 1.777680 
# 
# From -- ./inp_files/44763.got.cif
#   From: 2010.05.17/outbox.cif.g08.bks.cpg/sg2_23_cif.got.tgz:44763.got - 2010.06.03 11:33:40.
