data_PCOD9102748
_publ_section_title
;
Structure prediction by ZEFSAII (Michael W. Deem and Ramdas Pophale) SiO2 
 PCOD9102748
Probable space group: P -1
;
_chemical_formula_sum "Si O2"
_cell_formula_units_Z 12
_cell_length_a 8.414703
_cell_length_b 13.901789
_cell_length_c 10.318770
_cell_angle_alpha 26.506566
_cell_angle_beta 117.883747
_cell_angle_gamma 125.131264
_cell_volume 436.873703
_symmetry_space_group_name_H-M "P -1"
_symmetry_group_IT_number 2
_symmetry_cell_setting 'triclinic'
loop_
_space_group_symop_operation_xyz
x,y,z
-x,-y,-z
loop_
_atom_site_type_symbol
_atom_site_label
_atom_site_fract_x
_atom_site_fract_y
_atom_site_fract_z
Si Si1 0.393139 0.967927 0.806052
Si Si2 0.323464 0.757398 0.639887
Si Si3 0.975454 0.341592 0.553931
Si Si4 0.680883 0.796196 0.149627
Si Si5 0.941967 0.205239 0.287412
Si Si6 0.379148 0.467836 0.217254
O O1 0.525397 0.049775 0.627184
O O2 0.374992 0.208635 0.543759
O O3 0.189972 0.777655 0.905222
O O4 0.506589 0.854837 0.076260
O O5 0.156719 0.590340 0.680497
O O6 0.203572 0.859268 0.566584
O O7 0.436782 0.626712 0.918247
O O8 0.179469 0.331430 0.595265
O O9 0.000000 0.500000 0.500000
O O10 0.839117 0.065269 0.863665
O O11 0.544157 0.621430 0.197248
O O12 0.143254 0.401275 0.183931
O O13 0.000000 0.000000 0.500000
#
# Coordination Sequence:
#
# PCOD9102748 Si02
#       6
#     2   2   2   2   2   2
#     4  10  21  36  63  96 124 158 210 252 313 366
#     4  11  21  39  66  96 124 159 214 263 303 370
#     4  10  23  41  60  93 128 165 208 257 311 369
#     4  10  20  38  64  83 130 161 202 256 313 356
#     4  10  22  39  60  95 133 163 199 260 320 369
#     4  11  22  38  66  95 128 159 207 262 321 361
#
# _framework density 27.467893
#
# number of rings (size 3 to 8) (size 9 to 14) (size 15 to 20)
#    0.000    1.667    1.667    3.500    2.333    0.000 
#   12.000    0.833    0.000    3.000    0.000    0.000 
#    0.000    0.000    0.000    0.000    0.000    0.000 
#
# Total GULP energy -66839.357857 kJ/mol
# GULP energy per Si atom -5569.946488 kJ/mol
# Density = 2.740537 g / cm^3
# Si number density = 27.467893 Si / 1000 Ang^3
#
#
#
# Elastic Constant Matrix: (Units=GPa)
#
#
# Indices 1 2 3 4 5 6 
#
# 1 75.0929 46.8372 15.6445 -8.9650 18.2879 10.8594
# 2 46.8372 222.4357 78.0941 -25.6283 35.8294 12.6070
# 3 15.6445 78.0941 124.7116 -8.4630 10.8982 15.2784
# 4 -8.9650 -25.6283 -8.4630 60.9771 20.7381 2.6457
# 5 18.2879 35.8294 10.8982 20.7381 49.8275 1.2878
# 6 10.8594 12.6070 15.2784 2.6457 1.2878 49.2711
#
#
#
# Elastic Compliance Matrix: (Units=1/GPa)
#
#
# Indices 1 2 3 4 5 6 
#
# 1 0.017058 -0.002017 0.000386 0.004072 -0.006501 -0.003412
# 2 -0.002017 0.007689 -0.003698 0.004416 -0.005806 -0.000461
# 3 0.000386 -0.003698 0.010556 -0.000023 0.000281 -0.002418
# 4 0.004072 0.004416 -0.000023 0.023926 -0.014548 -0.002925
# 5 -0.006501 -0.005806 0.000281 -0.014548 0.032552 0.002762
# 6 -0.003412 -0.000461 -0.002418 -0.002925 0.002762 0.022001
#
#
# Mechanical properties :
#
#
# Convention : Reuss Voigt Hill
#
# Bulk Modulus (GPa) = 40.57910 78.15464 59.36687
# Shear Modulus (GPa) = 37.69184 50.79278 44.24231
#
# Velocity S-wave (km/s) = 3.70836 4.30486 4.01770
# Velocity P-wave (km/s) = 5.75685 7.29548 6.57135
#
# Compressibility (1/GPa) = 0.02464323
#
# Stress axis : x y z
#
# Youngs Moduli (GPa) = 58.62494 130.05520 94.73266
#
# Poissons Ratio (x) = 0.26239 -0.03657
# Poissons Ratio (y) = 0.11828 0.35034
# Poissons Ratio (z) = -0.02263 0.48097
#
# Static dielectric constant tensor:
#      x y z
#    x 2.263790 -0.049520 -0.026440 
#    y -0.049520 2.223490 0.003280 
#    z -0.026440 0.003280 2.258870 
# 
# From -- ./inp_files/398293.got.cif
#   From: 2010.05.17/outbox.cif.g08.bks.cpg/sg2_200_cif.got.tgz:398293.got - 2010.06.03 11:33:40.
