data_PCOD9102826
_publ_section_title
;
Structure prediction by ZEFSAII (Michael W. Deem and Ramdas Pophale) SiO2 
 PCOD9102826
Probable space group: P -1
;
_chemical_formula_sum "Si O2"
_cell_formula_units_Z 16
_cell_length_a 14.729911
_cell_length_b 12.363897
_cell_length_c 9.230946
_cell_angle_alpha 30.581050
_cell_angle_beta 95.185705
_cell_angle_gamma 82.640725
_cell_volume 778.279920
_symmetry_space_group_name_H-M "P -1"
_symmetry_group_IT_number 2
_symmetry_cell_setting 'triclinic'
loop_
_space_group_symop_operation_xyz
x,y,z
-x,-y,-z
loop_
_atom_site_type_symbol
_atom_site_label
_atom_site_fract_x
_atom_site_fract_y
_atom_site_fract_z
Si Si1 0.156816 0.102945 0.252864
Si Si2 0.835226 0.217741 0.123139
Si Si3 0.093202 0.548341 0.894571
Si Si4 0.994599 0.976173 0.854096
Si Si5 0.460965 0.816100 0.266363
Si Si6 0.501129 0.771288 0.837787
Si Si7 0.376912 0.706486 0.123172
Si Si8 0.368881 0.722410 0.633014
O O1 0.075731 0.151660 0.059511
O O2 0.124294 0.999603 0.509583
O O3 0.256645 0.898054 0.444189
O O4 0.162259 0.333391 0.051799
O O5 0.847115 0.413081 0.002742
O O6 0.901172 0.165147 0.049138
O O7 0.725583 0.251361 0.018562
O O8 0.052157 0.773743 0.523706
O O9 0.000000 0.500000 0.000000
O O10 0.000000 0.000000 0.000000
O O11 0.370886 0.800472 0.176268
O O12 0.553734 0.566870 0.554700
O O13 0.420503 0.840097 0.395451
O O14 0.500000 0.000000 0.000000
O O15 0.425492 0.694062 0.825191
O O16 0.500000 0.000000 0.500000
O O17 0.445748 0.820990 0.925042
O O18 0.604408 0.540161 0.117768
#
# Coordination Sequence:
#
# PCOD9102826 Si02
#       8
#     2   2   2   2   2   2   2   2
#     4  11  22  43  65  94 128 169 216 266 325 392
#     4  11  22  42  67  94 128 168 218 269 326 384
#     4  11  21  44  69  89 127 180 221 264 324 394
#     4  11  25  42  65  96 134 163 208 281 332 379
#     4  10  22  42  60  86 134 172 205 259 330 387
#     4  10  20  38  64  89 125 161 209 262 316 378
#     4  10  22  40  62  93 125 167 213 265 318 389
#     4  10  22  38  59  94 126 158 211 265 310 379
#
# _framework density 20.558157000000001
#
# number of rings (size 3 to 8) (size 9 to 14) (size 15 to 20)
#    0.000    1.500    3.750    1.500    1.750    3.500 
#    2.250    0.000    0.000    0.000    0.000    0.000 
#    0.000    0.000    0.000    0.000    0.000    0.000 
#
# Total GULP energy -89213.129379 kJ/mol
# GULP energy per Si atom -5575.820586 kJ/mol
# Density = 2.051137 g / cm^3
# Si number density = 20.558157 Si / 1000 Ang^3
#
#
#
# Elastic Constant Matrix: (Units=GPa)
#
#
# Indices 1 2 3 4 5 6 
#
# 1 84.8262 58.2217 34.4884 -9.6919 10.0304 -5.4339
# 2 58.2217 144.0272 32.2881 15.6162 12.3005 1.9282
# 3 34.4884 32.2881 76.4538 -1.8625 -9.7520 -4.1342
# 4 -9.6919 15.6162 -1.8625 34.4196 0.0044 4.0692
# 5 10.0304 12.3005 -9.7520 0.0044 25.7354 4.0780
# 6 -5.4339 1.9282 -4.1342 4.0692 4.0780 38.1114
#
#
#
# Elastic Compliance Matrix: (Units=1/GPa)
#
#
# Indices 1 2 3 4 5 6 
#
# 1 0.022252 -0.007611 -0.007520 0.008997 -0.008309 0.002670
# 2 -0.007611 0.011580 -0.002092 -0.007420 -0.003240 -0.000759
# 3 -0.007520 -0.002092 0.018757 -0.000143 0.011054 -0.000099
# 4 0.008997 -0.007420 -0.000143 0.035200 0.000320 -0.002150
# 5 -0.008309 -0.003240 0.011054 0.000320 0.048634 -0.005060
# 6 0.002670 -0.000759 -0.000099 -0.002150 -0.005060 0.027418
#
#
# Mechanical properties :
#
#
# Convention : Reuss Voigt Hill
#
# Bulk Modulus (GPa) = 55.11890 61.70040 58.40965
# Shear Modulus (GPa) = 24.46971 31.67387 28.07179
#
# Velocity S-wave (km/s) = 3.45377 3.92943 3.69925
# Velocity P-wave (km/s) = 6.54019 7.11793 6.83517
#
# Compressibility (1/GPa) = 0.01814260
#
# Stress axis : x y z
#
# Youngs Moduli (GPa) = 44.94063 86.35428 53.31401
#
# Poissons Ratio (x) = 0.65723 0.40091
# Poissons Ratio (y) = 0.34204 0.11155
# Poissons Ratio (z) = 0.33794 0.18068
#
# Static dielectric constant tensor:
#      x y z
#    x 1.806910 0.050080 0.032460 
#    y 0.050080 1.816220 0.002910 
#    z 0.032460 0.002910 1.769810 
# 
# From -- ./inp_files/306093.got.cif
#   From: 2010.05.17/outbox.cif.g08.bks.cpg/sg2_154_cif.got.tgz:306093.got - 2010.06.03 11:33:40.
