data_PCOD9102776
_publ_section_title
;
Structure prediction by ZEFSAII (Michael W. Deem and Ramdas Pophale) SiO2 
 PCOD9102776
Probable space group: P -1
;
_chemical_formula_sum "Si O2"
_cell_formula_units_Z 16
_cell_length_a 9.475226
_cell_length_b 18.530574
_cell_length_c 13.139924
_cell_angle_alpha 38.729124
_cell_angle_beta 132.172837
_cell_angle_gamma 102.961470
_cell_volume 816.755487
_symmetry_space_group_name_H-M "P -1"
_symmetry_group_IT_number 2
_symmetry_cell_setting 'triclinic'
loop_
_space_group_symop_operation_xyz
x,y,z
-x,-y,-z
loop_
_atom_site_type_symbol
_atom_site_label
_atom_site_fract_x
_atom_site_fract_y
_atom_site_fract_z
Si Si1 0.349908 0.629653 0.202283
Si Si2 0.305953 0.371205 0.792172
Si Si3 0.141654 0.097766 0.238931
Si Si4 0.235055 0.484792 0.152738
Si Si5 0.402573 0.071795 0.205690
Si Si6 0.371410 0.613879 0.905144
Si Si7 0.095319 0.890461 0.335280
Si Si8 0.340675 0.862950 0.276507
O O1 0.500000 0.500000 0.500000
O O2 0.548162 0.618279 0.239128
O O3 0.206173 0.587057 0.116360
O O4 0.134422 0.790421 0.972502
O O5 0.000000 0.500000 0.500000
O O6 0.382430 0.206749 0.000772
O O7 0.437177 0.375744 0.952433
O O8 0.183866 0.156688 0.092839
O O9 0.341364 0.047524 0.477496
O O10 0.218476 0.944016 0.400937
O O11 0.447685 0.306720 0.469908
O O12 0.292787 0.545593 0.019631
O O13 0.000000 0.500000 0.000000
O O14 0.386809 0.970305 0.232471
O O15 0.139421 0.767439 0.567246
O O16 0.500000 0.500000 0.000000
O O17 0.215538 0.839789 0.335864
O O18 0.824859 0.041549 0.006603
#
# Coordination Sequence:
#
# PCOD9102776 Si02
#       8
#     2   2   2   2   2   2   2   2
#     4  11  24  42  64  91 127 171 205 261 321 375
#     4  11  25  41  63  97 128 162 216 265 315 380
#     4  10  20  38  64  86 125 165 206 253 316 379
#     4  11  24  43  63  94 128 168 212 257 320 382
#     4  10  21  38  62  95 121 161 212 256 309 374
#     4  11  23  41  67  93 126 166 215 263 316 372
#     4  10  20  39  63  93 121 162 213 259 312 375
#     4  10  21  37  64  90 126 164 205 261 313 370
#
# _framework density 19.589706
#
# number of rings (size 3 to 8) (size 9 to 14) (size 15 to 20)
#    0.000    1.500    2.500    2.250    1.750    4.500 
#    2.250    0.625    0.000    0.000    0.000    0.000 
#    0.000    0.000    0.000    0.000    0.000    0.000 
#
# Total GULP energy -89106.084447 kJ/mol
# GULP energy per Si atom -5569.130278 kJ/mol
# Density = 1.954512 g / cm^3
# Si number density = 19.589706 Si / 1000 Ang^3
#
#
#
# Elastic Constant Matrix: (Units=GPa)
#
#
# Indices 1 2 3 4 5 6 
#
# 1 55.7472 18.9783 27.3732 2.2269 -2.4449 8.4078
# 2 18.9783 49.3150 5.7092 7.3508 -14.6850 6.1216
# 3 27.3732 5.7092 92.8109 -1.9214 -11.4064 4.3509
# 4 2.2269 7.3508 -1.9214 30.4095 -1.9903 -1.5427
# 5 -2.4449 -14.6850 -11.4064 -1.9903 33.2934 -5.9193
# 6 8.4078 6.1216 4.3509 -1.5427 -5.9193 31.0328
#
#
#
# Elastic Compliance Matrix: (Units=1/GPa)
#
#
# Indices 1 2 3 4 5 6 
#
# 1 0.025529 -0.010049 -0.007427 -0.000562 -0.006038 -0.005073
# 2 -0.010049 0.028387 0.002661 -0.005222 0.012171 -0.001188
# 3 -0.007427 0.002661 0.013460 0.001142 0.005431 0.000693
# 4 -0.000562 -0.005222 0.001142 0.034445 0.000613 0.002851
# 5 -0.006038 0.012171 0.005431 0.000613 0.037877 0.005729
# 6 -0.005073 -0.001188 0.000693 0.002851 0.005729 0.034970
#
#
# Mechanical properties :
#
#
# Convention : Reuss Voigt Hill
#
# Bulk Modulus (GPa) = 26.49297 33.55494 30.02395
# Shear Modulus (GPa) = 23.05427 28.66799 25.86113
#
# Velocity S-wave (km/s) = 3.43426 3.82962 3.63731
# Velocity P-wave (km/s) = 5.41099 6.05976 5.74454
#
# Compressibility (1/GPa) = 0.03774586
#
# Stress axis : x y z
#
# Youngs Moduli (GPa) = 39.17156 35.22720 74.29401
#
# Poissons Ratio (x) = 0.35400 0.55178
# Poissons Ratio (y) = 0.39364 -0.19770
# Poissons Ratio (z) = 0.29093 -0.09374
#
# Static dielectric constant tensor:
#      x y z
#    x 1.707620 0.027900 0.030750 
#    y 0.027900 1.690240 -0.007190 
#    z 0.030750 -0.007190 1.615490 
# 
# From -- ./inp_files/278184.got.cif
#   From: 2010.05.17/outbox.cif.g08.bks.cpg/sg2_140_cif.got.tgz:278184.got - 2010.06.03 11:33:40.
