data_PCOD9102418
_publ_section_title
;
Structure prediction by ZEFSAII (Michael W. Deem and Ramdas Pophale) SiO2 
 PCOD9102418
Probable space group: P -1
;
_chemical_formula_sum "Si O2"
_cell_formula_units_Z 15
_cell_length_a 12.469267
_cell_length_b 11.545294
_cell_length_c 9.804889
_cell_angle_alpha 32.716401
_cell_angle_beta 83.747270
_cell_angle_gamma 103.899916
_cell_volume 596.395858
_symmetry_space_group_name_H-M "P -1"
_symmetry_group_IT_number 2
_symmetry_cell_setting 'triclinic'
loop_
_space_group_symop_operation_xyz
x,y,z
-x,-y,-z
loop_
_atom_site_type_symbol
_atom_site_label
_atom_site_fract_x
_atom_site_fract_y
_atom_site_fract_z
Si Si1 0.573443 0.332484 0.390126
Si Si2 0.590749 0.205247 0.908895
Si Si3 0.781572 0.266590 0.320748
Si Si4 0.076258 0.770977 0.406846
Si Si5 0.500000 0.500000 0.500000
Si Si6 0.333568 0.205963 0.405225
Si Si7 0.900995 0.757166 0.649274
Si Si8 0.169302 0.806322 0.079071
O O1 0.713786 0.399459 0.258413
O O2 0.579010 0.463241 0.402580
O O3 0.493344 0.385248 0.243966
O O4 0.479495 0.001487 0.749534
O O5 0.570439 0.429769 0.675854
O O6 0.742346 0.296494 0.790996
O O7 0.500000 0.000000 0.000000
O O8 0.830864 0.192415 0.517380
O O9 0.692136 0.997114 0.509599
O O10 0.885503 0.498133 0.966977
O O11 0.158011 0.922555 0.107058
O O12 0.979099 0.835981 0.416065
O O13 0.977533 0.450967 0.697758
O O14 0.246431 0.312140 0.279578
O O15 0.252964 0.022248 0.734501
O O16 0.000000 0.000000 0.500000
#
# Coordination Sequence:
#
# PCOD9102418 Si02
#       8
#     2   2   2   2   1   2   2   2
#     4  10  24  40  66  98 129 177 218 268 337 393
#     4   9  19  39  61  91 134 171 210 262 334 386
#     4  12  24  46  67  92 137 176 220 275 326 398
#     4  11  22  41  69  93 129 175 220 267 330 388
#     4  10  20  38  62  96 140 164 210 274 322 390
#     4  11  24  44  68  96 132 173 222 271 331 397
#     4  12  25  43  68  98 130 177 223 272 332 394
#     4  10  22  41  67  96 128 173 215 274 330 387
#
# _framework density 25.15108
#
# number of rings (size 3 to 8) (size 9 to 14) (size 15 to 20)
#    0.000    1.333    2.667    3.200    1.867    2.133 
#    7.200    0.000    0.000    0.000    0.000    0.000 
#    0.000    0.000    0.000    0.000    0.000    0.000 
#
# Total GULP energy -83628.536172 kJ/mol
# GULP energy per Si atom -5575.235745 kJ/mol
# Density = 2.509383 g / cm^3
# Si number density = 25.151080 Si / 1000 Ang^3
#
#
#
# Elastic Constant Matrix: (Units=GPa)
#
#
# Indices 1 2 3 4 5 6 
#
# 1 117.3830 15.1894 4.4795 21.1754 6.6353 -11.5767
# 2 15.1894 119.2125 13.1748 23.6402 -1.6552 -6.4502
# 3 4.4795 13.1748 45.1924 13.2778 2.2868 -1.3141
# 4 21.1754 23.6402 13.2778 37.5131 -3.4359 -12.3284
# 5 6.6353 -1.6552 2.2868 -3.4359 25.4382 13.0596
# 6 -11.5767 -6.4502 -1.3141 -12.3284 13.0596 48.1902
#
#
#
# Elastic Compliance Matrix: (Units=1/GPa)
#
#
# Indices 1 2 3 4 5 6 
#
# 1 0.009989 -0.000228 0.001001 -0.005539 -0.004602 0.002227
# 2 -0.000228 0.009646 -0.001156 -0.005617 0.000176 -0.000280
# 3 0.001001 -0.001156 0.025262 -0.009316 -0.003531 -0.000652
# 4 -0.005539 -0.005617 -0.009316 0.039155 0.003790 0.006653
# 5 -0.004602 0.000176 -0.003531 0.003790 0.048160 -0.013260
# 6 0.002227 -0.000280 -0.000652 0.006653 -0.013260 0.026526
#
#
# Mechanical properties :
#
#
# Convention : Reuss Voigt Hill
#
# Bulk Modulus (GPa) = 22.65971 38.60836 30.63403
# Shear Modulus (GPa) = 28.70007 38.82459 33.76233
#
# Velocity S-wave (km/s) = 3.38169 3.93320 3.66783
# Velocity P-wave (km/s) = 4.92715 6.00089 5.49033
#
# Compressibility (1/GPa) = 0.04413120
#
# Stress axis : x y z
#
# Youngs Moduli (GPa) = 100.10602 103.66588 39.58477
#
# Poissons Ratio (x) = 0.02369 -0.03964
# Poissons Ratio (y) = 0.02287 0.04578
# Poissons Ratio (z) = -0.10025 0.11988
#
# Static dielectric constant tensor:
#      x y z
#    x 1.962350 0.012770 0.002430 
#    y 0.012770 1.978820 0.011540 
#    z 0.002430 0.011540 2.090670 
# 
# From -- ./inp_files/255866.got.cif
#   From: 2010.05.17/outbox.cif.g08.bks.cpg/sg2_128_cif.got.tgz:255866.got - 2010.06.03 11:33:40.
