data_PCOD9102524
_publ_section_title
;
Structure prediction by ZEFSAII (Michael W. Deem and Ramdas Pophale) SiO2 
 PCOD9102524
Probable space group: P -1
;
_chemical_formula_sum "Si O2"
_cell_formula_units_Z 16
_cell_length_a 15.264248
_cell_length_b 14.159990
_cell_length_c 12.025918
_cell_angle_alpha 127.816743
_cell_angle_beta 144.474399
_cell_angle_gamma 27.486790
_cell_volume 637.104079
_symmetry_space_group_name_H-M "P -1"
_symmetry_group_IT_number 2
_symmetry_cell_setting 'triclinic'
loop_
_space_group_symop_operation_xyz
x,y,z
-x,-y,-z
loop_
_atom_site_type_symbol
_atom_site_label
_atom_site_fract_x
_atom_site_fract_y
_atom_site_fract_z
Si Si1 0.722785 0.111591 0.869097
Si Si2 0.612304 0.798341 0.742224
Si Si3 0.750285 0.640370 0.003291
Si Si4 0.386531 0.568908 0.764618
Si Si5 0.322595 0.368752 0.837272
Si Si6 0.360625 0.673986 0.574550
Si Si7 0.116369 0.962913 0.341808
Si Si8 0.263368 0.123309 0.431916
O O1 0.559266 0.337474 0.814919
O O2 0.506875 0.203839 0.804343
O O3 0.806873 0.962602 0.752219
O O4 0.994446 0.963156 0.118020
O O5 0.646304 0.794444 0.906291
O O6 0.409106 0.021119 0.627436
O O7 0.437871 0.791206 0.541153
O O8 0.915681 0.595023 0.848193
O O9 0.584615 0.627188 0.801845
O O10 0.683697 0.705637 0.110577
O O11 0.312160 0.627087 0.599517
O O12 0.093011 0.783054 0.682259
O O13 0.547692 0.585144 0.969799
O O14 0.002281 0.613739 0.655236
O O15 0.500000 0.500000 0.500000
O O16 0.099472 0.907802 0.405496
O O17 0.500000 0.000000 0.500000
#
# Coordination Sequence:
#
# PCOD9102524 Si02
#       8
#     2   2   2   2   2   2   2   2
#     4  11  25  40  65  98 131 166 215 270 319 390
#     4  10  20  38  63  89 121 167 214 252 324 377
#     4   9  20  38  63  86 127 166 206 272 311 370
#     4  10  21  40  62  92 131 166 208 271 323 370
#     4  10  21  43  63  93 131 165 209 268 324 372
#     4  10  22  35  62  96 127 167 216 261 313 386
#     4  10  21  39  64  94 127 168 211 264 321 383
#     4  12  25  40  65  93 126 174 213 260 327 387
#
# _framework density 25.113638000000002
#
# number of rings (size 3 to 8) (size 9 to 14) (size 15 to 20)
#    0.000    1.750    1.250    3.375    7.000    2.500 
#    0.000    0.000    0.000    1.500    0.000    0.000 
#    0.000    0.000    0.000    0.000    0.000    0.000 
#
# Total GULP energy -89494.157116 kJ/mol
# GULP energy per Si atom -5593.384820 kJ/mol
# Density = 2.505648 g / cm^3
# Si number density = 25.113638 Si / 1000 Ang^3
#
#
#
# Elastic Constant Matrix: (Units=GPa)
#
#
# Indices 1 2 3 4 5 6 
#
# 1 168.5546 39.6829 55.8310 -5.4183 -27.7268 -15.0656
# 2 39.6829 97.8144 52.9996 13.4038 -16.3280 -17.7452
# 3 55.8310 52.9996 125.0912 -22.2295 -24.2351 1.5628
# 4 -5.4183 13.4038 -22.2295 31.7942 -8.9284 2.0648
# 5 -27.7268 -16.3280 -24.2351 -8.9284 49.3191 -1.4925
# 6 -15.0656 -17.7452 1.5628 2.0648 -1.4925 38.8924
#
#
#
# Elastic Compliance Matrix: (Units=1/GPa)
#
#
# Indices 1 2 3 4 5 6 
#
# 1 0.007708 -0.000966 -0.002325 0.000788 0.003096 0.002715
# 2 -0.000966 0.022157 -0.013332 -0.020432 -0.003117 0.011236
# 3 -0.002325 -0.013332 0.020290 0.022222 0.008010 -0.008671
# 4 0.000788 -0.020432 0.022222 0.060830 0.015231 -0.012555
# 5 0.003096 -0.003117 0.008010 0.015231 0.027669 -0.000292
# 6 0.002715 0.011236 -0.008671 -0.012555 -0.000292 0.032894
#
#
# Mechanical properties :
#
#
# Convention : Reuss Voigt Hill
#
# Bulk Modulus (GPa) = 59.13996 76.49856 67.81926
# Shear Modulus (GPa) = 23.76114 40.19759 31.97937
#
# Velocity S-wave (km/s) = 3.07928 4.00513 3.57233
# Velocity P-wave (km/s) = 6.02019 7.20522 6.63920
#
# Compressibility (1/GPa) = 0.01690904
#
# Stress axis : x y z
#
# Youngs Moduli (GPa) = 129.74271 45.13321 49.28657
#
# Poissons Ratio (x) = 0.04359 0.11459
# Poissons Ratio (y) = 0.12530 0.65707
# Poissons Ratio (z) = 0.30165 0.60170
#
# Static dielectric constant tensor:
#      x y z
#    x 2.082520 0.051420 0.022050 
#    y 0.051420 2.007650 0.034220 
#    z 0.022050 0.034220 2.061140 
# 
# From -- ./inp_files/455824.got.cif
#   From: 2010.05.17/outbox.cif.g08.bks.cpg/sg2_228_cif.got.tgz:455824.got - 2010.06.03 11:33:40.
