data_PCOD9102752
_publ_section_title
;
Structure prediction by ZEFSAII (Michael W. Deem and Ramdas Pophale) SiO2 
 PCOD9102752
Probable space group: P -1
;
_chemical_formula_sum "Si O2"
_cell_formula_units_Z 16
_cell_length_a 10.581761
_cell_length_b 16.343527
_cell_length_c 13.969931
_cell_angle_alpha 21.882112
_cell_angle_beta 50.631358
_cell_angle_gamma 50.267467
_cell_volume 685.296015
_symmetry_space_group_name_H-M "P -1"
_symmetry_group_IT_number 2
_symmetry_cell_setting 'triclinic'
loop_
_space_group_symop_operation_xyz
x,y,z
-x,-y,-z
loop_
_atom_site_type_symbol
_atom_site_label
_atom_site_fract_x
_atom_site_fract_y
_atom_site_fract_z
Si Si1 0.478061 0.930579 0.897133
Si Si2 0.797534 0.556564 0.140962
Si Si3 0.476668 0.712104 0.654315
Si Si4 0.840963 0.463340 0.997393
Si Si5 0.274244 0.711258 0.068620
Si Si6 0.761130 0.845462 0.474835
Si Si7 0.962052 0.260092 0.696001
Si Si8 0.331165 0.689455 0.372253
O O1 0.510204 0.163053 0.588546
O O2 0.649989 0.761914 0.001865
O O3 0.367841 0.829151 0.979694
O O4 0.388067 0.913137 0.061090
O O5 0.753254 0.344434 0.449686
O O6 0.967817 0.624892 0.020795
O O7 0.817849 0.499369 0.082347
O O8 0.588718 0.471174 0.847594
O O9 0.570552 0.839529 0.547364
O O10 0.294263 0.686679 0.800461
O O11 0.802709 0.700864 0.705362
O O12 0.124265 0.626242 0.288912
O O13 0.207198 0.903697 0.816403
O O14 0.874240 0.729918 0.456909
O O15 0.814054 0.334128 0.608853
O O16 0.000000 0.000000 0.000000
O O17 0.500000 0.500000 0.500000
#
# Coordination Sequence:
#
# PCOD9102752 Si02
#       8
#     2   2   2   2   2   2   2   2
#     4   9  19  38  63  88 117 153 193 250 302 348
#     4  10  20  38  64  84 115 165 201 242 292 354
#     4  11  22  38  60  90 122 155 196 244 303 355
#     4  11  22  37  59  87 121 159 205 239 287 362
#     4   9  19  37  62  88 118 151 196 247 298 354
#     4  10  21  38  59  89 117 159 196 243 302 351
#     4   9  17  34  62  88 119 151 193 252 303 352
#     4   9  17  34  65  89 111 157 202 243 307 352
#
# _framework density 23.347574000000002
#
# number of rings (size 3 to 8) (size 9 to 14) (size 15 to 20)
#    0.000    2.250    2.500    1.125    0.000    1.500 
#    2.250    0.625    0.000    0.000    0.000    0.000 
#    0.000    0.000    0.000    0.000    0.000    0.000 
#
# Total GULP energy -89228.241616 kJ/mol
# GULP energy per Si atom -5576.765101 kJ/mol
# Density = 2.329443 g / cm^3
# Si number density = 23.347574 Si / 1000 Ang^3
#
#
#
# Elastic Constant Matrix: (Units=GPa)
#
#
# Indices 1 2 3 4 5 6 
#
# 1 67.7467 19.5164 28.5151 18.1577 3.5542 -26.8294
# 2 19.5164 69.5869 35.9785 27.0287 -0.6737 -5.6132
# 3 28.5151 35.9785 109.5462 38.8098 33.9744 1.8568
# 4 18.1577 27.0287 38.8098 38.4957 1.4248 -0.6492
# 5 3.5542 -0.6737 33.9744 1.4248 35.9452 12.5273
# 6 -26.8294 -5.6132 1.8568 -0.6492 12.5273 39.3925
#
#
#
# Elastic Compliance Matrix: (Units=1/GPa)
#
#
# Indices 1 2 3 4 5 6 
#
# 1 0.026975 -0.001783 -0.000014 -0.010750 -0.009576 0.020987
# 2 -0.001783 0.021039 -0.004915 -0.009179 0.005545 0.000101
# 3 -0.000014 -0.004915 0.027011 -0.022675 -0.026880 0.006192
# 4 -0.010750 -0.009179 -0.022675 0.059180 0.025048 -0.014551
# 5 -0.009576 0.005545 -0.026880 0.025048 0.061514 -0.023614
# 6 0.020987 0.000101 0.006192 -0.014551 -0.023614 0.046672
#
#
# Mechanical properties :
#
#
# Convention : Reuss Voigt Hill
#
# Bulk Modulus (GPa) = 16.23326 46.09998 31.16662
# Shear Modulus (GPa) = 18.09312 33.62466 25.85889
#
# Velocity S-wave (km/s) = 2.78681 3.79908 3.33162
# Velocity P-wave (km/s) = 4.16209 6.24756 5.30825
#
# Compressibility (1/GPa) = 0.06160191
#
# Stress axis : x y z
#
# Youngs Moduli (GPa) = 37.07116 47.53065 37.02176
#
# Poissons Ratio (x) = 0.08474 0.00050
# Poissons Ratio (y) = 0.06609 0.18197
# Poissons Ratio (z) = 0.00050 0.23363
#
# Static dielectric constant tensor:
#      x y z
#    x 1.931340 0.020990 -0.039310 
#    y 0.020990 1.884040 0.020580 
#    z -0.039310 0.020580 1.928070 
# 
# From -- ./inp_files/523147.got.cif
#   From: 2010.05.17/outbox.cif.g08.bks.cpg/sg2_262_cif.got.tgz:523147.got - 2010.06.03 11:33:40.
