data_PCOD9102821
_publ_section_title
;
Structure prediction by ZEFSAII (Michael W. Deem and Ramdas Pophale) SiO2 
 PCOD9102821
Probable space group: P -1
;
_chemical_formula_sum "Si O2"
_cell_formula_units_Z 16
_cell_length_a 19.221215
_cell_length_b 22.412972
_cell_length_c 12.958276
_cell_angle_alpha 161.689891
_cell_angle_beta 151.227077
_cell_angle_gamma 28.121046
_cell_volume 797.081793
_symmetry_space_group_name_H-M "P -1"
_symmetry_group_IT_number 2
_symmetry_cell_setting 'triclinic'
loop_
_space_group_symop_operation_xyz
x,y,z
-x,-y,-z
loop_
_atom_site_type_symbol
_atom_site_label
_atom_site_fract_x
_atom_site_fract_y
_atom_site_fract_z
Si Si1 0.448660 0.395544 0.417479
Si Si2 0.500144 0.255055 0.819493
Si Si3 0.972985 0.443850 0.489732
Si Si4 0.335764 0.167594 0.054370
Si Si5 0.709061 0.244944 0.351453
Si Si6 0.730543 0.916334 0.667805
Si Si7 0.972601 0.830021 0.258162
Si Si8 0.363241 0.414438 0.695340
O O1 0.343656 0.279346 0.140772
O O2 0.604108 0.258387 0.338549
O O3 0.362485 0.554636 0.479910
O O4 0.485846 0.531703 0.779723
O O5 0.386965 0.207831 0.677985
O O6 0.417601 0.268844 0.625416
O O7 0.662667 0.076617 0.750571
O O8 0.803800 0.426608 0.240444
O O9 0.000000 0.500000 0.500000
O O10 0.101085 0.245783 0.375203
O O11 0.974986 0.636037 0.875314
O O12 0.339845 0.308401 0.387154
O O13 0.186895 0.102883 0.775479
O O14 0.500000 0.000000 0.000000
O O15 0.880112 0.229662 0.575921
O O16 0.711861 0.057956 0.976503
O O17 0.000000 0.000000 0.500000
O O18 0.500000 0.500000 0.000000
#
# Coordination Sequence:
#
# PCOD9102821 Si02
#       8
#     2   2   2   2   2   2   2   2
#     4  10  21  41  63  89 122 163 204 247 308 360
#     4  10  20  38  64  89 123 158 202 252 301 361
#     4  11  22  38  63  91 120 157 204 256 298 360
#     4  11  25  40  60  89 123 158 202 256 302 362
#     4  10  22  38  65  91 121 161 204 249 300 371
#     4  10  21  37  63  96 121 153 207 255 303 353
#     4  11  24  40  61  89 123 161 206 248 302 367
#     4  11  23  40  63  88 121 161 201 246 311 364
#
# _framework density 20.073222999999999
#
# number of rings (size 3 to 8) (size 9 to 14) (size 15 to 20)
#    0.000    1.500    2.500    2.250    3.500    3.500 
#    0.000    0.625    0.000    0.000    0.000    0.000 
#    0.000    0.000    0.000    0.000    0.000    0.000 
#
# Total GULP energy -89276.696343 kJ/mol
# GULP energy per Si atom -5579.793521 kJ/mol
# Density = 2.002754 g / cm^3
# Si number density = 20.073223 Si / 1000 Ang^3
#
#
#
# Elastic Constant Matrix: (Units=GPa)
#
#
# Indices 1 2 3 4 5 6 
#
# 1 98.7266 53.3835 23.1278 -1.1869 20.3264 -15.9981
# 2 53.3835 143.0557 32.6060 -7.3950 8.7557 -27.6018
# 3 23.1278 32.6060 55.2497 -7.2479 22.2997 -13.6495
# 4 -1.1869 -7.3950 -7.2479 35.6518 -3.9891 3.1868
# 5 20.3264 8.7557 22.2997 -3.9891 26.4556 -10.3900
# 6 -15.9981 -27.6018 -13.6495 3.1868 -10.3900 36.4827
#
#
#
# Elastic Compliance Matrix: (Units=1/GPa)
#
#
# Indices 1 2 3 4 5 6 
#
# 1 0.014925 -0.005208 0.000985 -0.001595 -0.010800 0.000036
# 2 -0.005208 0.011001 -0.005820 0.001264 0.007803 0.005973
# 3 0.000985 -0.005820 0.031631 0.002419 -0.024908 0.000558
# 4 -0.001595 0.001264 0.002419 0.029128 0.002947 -0.000543
# 5 -0.010800 0.007803 -0.024908 0.002947 0.069416 0.011360
# 6 0.000036 0.005973 0.000558 -0.000543 0.011360 0.035437
#
#
# Mechanical properties :
#
#
# Convention : Reuss Voigt Hill
#
# Bulk Modulus (GPa) = 26.68835 57.25185 41.97010
# Shear Modulus (GPa) = 22.31017 32.24565 27.27791
#
# Velocity S-wave (km/s) = 3.33744 4.01234 3.69035
# Velocity P-wave (km/s) = 5.30808 7.07450 6.25397
#
# Compressibility (1/GPa) = 0.03746953
#
# Stress axis : x y z
#
# Youngs Moduli (GPa) = 67.00304 90.90438 31.61497
#
# Poissons Ratio (x) = 0.47346 -0.03113
# Poissons Ratio (y) = 0.34897 0.18399
# Poissons Ratio (z) = -0.06598 0.52903
#
# Static dielectric constant tensor:
#      x y z
#    x 1.745420 0.017830 0.015910 
#    y 0.017830 1.761770 0.066860 
#    z 0.015910 0.066860 2.022750 
# 
# From -- ./inp_files/261482.got.cif
#   From: 2010.05.17/outbox.cif.g08.bks.cpg/sg2_131_cif.got.tgz:261482.got - 2010.06.03 11:33:40.
