data_PCOD9102434
_publ_section_title
;
Structure prediction by ZEFSAII (Michael W. Deem and Ramdas Pophale) SiO2 
 PCOD9102434
Probable space group: P -1
;
_chemical_formula_sum "Si O2"
_cell_formula_units_Z 16
_cell_length_a 11.175799
_cell_length_b 8.032971
_cell_length_c 9.926000
_cell_angle_alpha 78.772452
_cell_angle_beta 83.419984
_cell_angle_gamma 56.645896
_cell_volume 730.053941
_symmetry_space_group_name_H-M "P -1"
_symmetry_group_IT_number 2
_symmetry_cell_setting 'triclinic'
loop_
_space_group_symop_operation_xyz
x,y,z
-x,-y,-z
loop_
_atom_site_type_symbol
_atom_site_label
_atom_site_fract_x
_atom_site_fract_y
_atom_site_fract_z
Si Si1 0.284990 0.035251 0.729836
Si Si2 0.019206 0.861315 0.209254
Si Si3 0.176346 0.486974 0.757815
Si Si4 0.950799 0.775080 0.946852
Si Si5 0.475737 0.391350 0.736619
Si Si6 0.421609 0.761154 0.529625
Si Si7 0.134662 0.778296 0.484160
Si Si8 0.377499 0.950367 0.017446
O O1 0.228898 0.263058 0.740641
O O2 0.143489 0.029117 0.733599
O O3 0.375116 0.954016 0.595379
O O4 0.368019 0.901888 0.870720
O O5 0.121283 0.731102 0.338482
O O6 0.048612 0.033626 0.142644
O O7 0.018086 0.751212 0.090690
O O8 0.315402 0.481152 0.796568
O O9 0.128798 0.626273 0.610462
O O10 0.050289 0.587173 0.867676
O O11 0.782291 0.857721 0.959891
O O12 0.492026 0.571121 0.653607
O O13 0.489039 0.277848 0.610839
O O14 0.582746 0.230373 0.856472
O O15 0.278802 0.774400 0.492183
O O16 0.000000 0.000000 0.500000
O O17 0.500000 0.000000 0.000000
#
# Coordination Sequence:
#
# PCOD9102434 Si02
#       8
#     2   2   2   2   2   2   2   2
#     4  11  23  41  65  97 137 166 219 266 335 383
#     4  10  20  38  62  99 120 167 215 270 313 382
#     4  11  23  40  63  98 133 175 206 277 326 389
#     4  10  22  40  70  91 131 169 217 268 325 382
#     4  10  22  43  68  92 131 170 226 260 337 381
#     4  10  22  41  69  95 126 176 214 281 318 390
#     4  11  19  38  66  93 129 167 220 267 322 383
#     4  11  23  43  66  96 131 176 214 267 323 398
#
# _framework density 21.916191000000001
#
# number of rings (size 3 to 8) (size 9 to 14) (size 15 to 20)
#    0.000    1.500    3.750    1.500    0.000    3.500 
#    0.000    5.000    0.000    0.000    0.000    0.000 
#    0.000    0.000    0.000    0.000    0.000    0.000 
#
# Total GULP energy -89411.011925 kJ/mol
# GULP energy per Si atom -5588.188245 kJ/mol
# Density = 2.186631 g / cm^3
# Si number density = 21.916191 Si / 1000 Ang^3
#
#
#
# Elastic Constant Matrix: (Units=GPa)
#
#
# Indices 1 2 3 4 5 6 
#
# 1 81.2731 23.6132 22.3436 4.2035 -4.7423 -11.2061
# 2 23.6132 105.8541 56.4962 0.0273 7.9797 -6.4147
# 3 22.3436 56.4962 138.9177 -9.1857 15.4368 -8.3804
# 4 4.2035 0.0273 -9.1857 48.6697 -9.1815 -2.6130
# 5 -4.7423 7.9797 15.4368 -9.1815 30.3511 1.9022
# 6 -11.2061 -6.4147 -8.3804 -2.6130 1.9022 25.6800
#
#
#
# Elastic Compliance Matrix: (Units=1/GPa)
#
#
# Indices 1 2 3 4 5 6 
#
# 1 0.014267 -0.002357 -0.001427 -0.000659 0.003069 0.004877
# 2 -0.002357 0.012580 -0.004574 -0.000948 -0.001677 0.000649
# 3 -0.001427 -0.004574 0.009912 0.001389 -0.003760 0.001889
# 4 -0.000659 -0.000948 0.001389 0.022094 0.006015 0.001731
# 5 0.003069 -0.001677 -0.003760 0.006015 0.037756 -0.002491
# 6 0.004877 0.000649 0.001889 0.001731 -0.002491 0.042208
#
#
# Mechanical properties :
#
#
# Convention : Reuss Voigt Hill
#
# Bulk Modulus (GPa) = 49.89223 58.99455 54.44339
# Shear Modulus (GPa) = 30.82351 35.84628 33.33489
#
# Velocity S-wave (km/s) = 3.75430 4.04865 3.90425
# Velocity P-wave (km/s) = 6.45039 6.98800 6.72457
#
# Compressibility (1/GPa) = 0.02004320
#
# Stress axis : x y z
#
# Youngs Moduli (GPa) = 70.09284 79.49080 100.88874
#
# Poissons Ratio (x) = 0.18734 0.14393
# Poissons Ratio (y) = 0.16519 0.46150
# Poissons Ratio (z) = 0.10000 0.36362
#
# Static dielectric constant tensor:
#      x y z
#    x 1.831530 0.008930 -0.022720 
#    y 0.008930 1.818810 0.007730 
#    z -0.022720 0.007730 1.830230 
# 
# From -- ./inp_files/244033.got.cif
#   From: 2010.05.17/outbox.cif.g08.bks.cpg/sg2_123_cif.got.tgz:244033.got - 2010.06.03 11:33:40.
