data_PCOD9102562
_publ_section_title
;
Structure prediction by ZEFSAII (Michael W. Deem and Ramdas Pophale) SiO2 
 PCOD9102562
Probable space group: P -1
;
_chemical_formula_sum "Si O2"
_cell_formula_units_Z 14
_cell_length_a 17.467965
_cell_length_b 7.076501
_cell_length_c 10.313556
_cell_angle_alpha 51.208234
_cell_angle_beta 38.910144
_cell_angle_gamma 64.428997
_cell_volume 620.052679
_symmetry_space_group_name_H-M "P -1"
_symmetry_group_IT_number 2
_symmetry_cell_setting 'triclinic'
loop_
_space_group_symop_operation_xyz
x,y,z
-x,-y,-z
loop_
_atom_site_type_symbol
_atom_site_label
_atom_site_fract_x
_atom_site_fract_y
_atom_site_fract_z
Si Si1 0.986017 0.281015 0.359147
Si Si2 0.971116 0.120203 0.166638
Si Si3 0.582523 0.573013 0.733912
Si Si4 0.791136 0.993900 0.250263
Si Si5 0.827336 0.703448 0.692684
Si Si6 0.285339 0.852671 0.214371
Si Si7 0.352591 0.762292 0.888981
O O1 0.090153 0.412393 0.256264
O O2 0.995827 0.288915 0.188034
O O3 0.846746 0.307039 0.564610
O O4 0.000000 0.000000 0.500000
O O5 0.859321 0.162402 0.200399
O O6 0.921669 0.850673 0.405332
O O7 0.095730 0.111573 0.927258
O O8 0.633619 0.319982 0.737580
O O9 0.489146 0.695182 0.711016
O O10 0.696424 0.775009 0.524691
O O11 0.500000 0.500000 0.000000
O O12 0.712230 0.121223 0.194464
O O13 0.749909 0.909228 0.768349
O O14 0.729922 0.491394 0.863388
O O15 0.345171 0.911597 0.969135
#
# Coordination Sequence:
#
# PCOD9102562 Si02
#       7
#     2   2   2   2   2   2   2
#     4   8  16  33  57  86 116 146 187 237 286 342
#     4   9  19  35  59  89 119 150 187 237 297 351
#     4  10  22  39  60  81 112 162 203 235 280 339
#     4  11  21  36  58  90 122 149 190 243 296 343
#     4  10  20  38  63  91 116 151 195 232 291 353
#     4   9  19  38  61  84 115 153 196 241 281 339
#     4  11  22  37  61  87 119 157 193 237 284 342
#
# _framework density 22.578724999999999
#
# number of rings (size 3 to 8) (size 9 to 14) (size 15 to 20)
#    0.000    2.571    0.000    4.714    0.000    5.143 
#    0.000   10.714    0.000   10.286    0.000    0.000 
#    0.000    0.000    0.000    0.000    0.000    0.000 
#
# Total GULP energy -78129.896486 kJ/mol
# GULP energy per Si atom -5580.706892 kJ/mol
# Density = 2.252734 g / cm^3
# Si number density = 22.578725 Si / 1000 Ang^3
#
#
#
# Elastic Constant Matrix: (Units=GPa)
#
#
# Indices 1 2 3 4 5 6 
#
# 1 114.3367 17.9472 36.8076 8.8121 5.8036 -25.2472
# 2 17.9472 72.5266 30.5414 14.4193 2.5605 -11.1981
# 3 36.8076 30.5414 108.3873 -4.5377 -6.8627 -7.0809
# 4 8.8121 14.4193 -4.5377 33.1110 -4.3566 -1.9966
# 5 5.8036 2.5605 -6.8627 -4.3566 29.6585 -5.5186
# 6 -25.2472 -11.1981 -7.0809 -1.9966 -5.5186 33.5141
#
#
#
# Elastic Compliance Matrix: (Units=1/GPa)
#
#
# Indices 1 2 3 4 5 6 
#
# 1 0.012139 0.000869 -0.004182 -0.004041 -0.002543 0.007892
# 2 0.000869 0.018766 -0.005918 -0.009431 -0.003707 0.004502
# 3 -0.004182 -0.005918 0.012797 0.006019 0.004942 -0.001252
# 4 -0.004041 -0.009431 0.006019 0.037208 0.008211 -0.001355
# 5 -0.002543 -0.003707 0.004942 0.008211 0.037739 0.004593
# 6 0.007892 0.004502 -0.001252 -0.001355 0.004593 0.037699
#
#
# Mechanical properties :
#
#
# Convention : Reuss Voigt Hill
#
# Bulk Modulus (GPa) = 39.62021 51.76033 45.69027
# Shear Modulus (GPa) = 27.28894 33.25368 30.27131
#
# Velocity S-wave (km/s) = 3.48028 3.84186 3.66553
# Velocity P-wave (km/s) = 5.80823 6.53100 6.18019
#
# Compressibility (1/GPa) = 0.02523965
#
# Stress axis : x y z
#
# Youngs Moduli (GPa) = 82.37816 53.28657 78.14282
#
# Poissons Ratio (x) = -0.04629 0.32678
# Poissons Ratio (y) = -0.07157 0.46249
# Poissons Ratio (z) = 0.34449 0.31538
#
# Static dielectric constant tensor:
#      x y z
#    x 1.936720 -0.019800 0.018500 
#    y -0.019800 1.865540 -0.036980 
#    z 0.018500 -0.036980 1.841470 
# 
# From -- ./inp_files/469209.got.cif
#   From: 2010.05.17/outbox.cif.g08.bks.cpg/sg2_235_cif.got.tgz:469209.got - 2010.06.03 11:33:40.
