data_PCOD9102077
_publ_section_title
;
Structure prediction by ZEFSAII (Michael W. Deem and Ramdas Pophale) SiO2 
 PCOD9102077
Probable space group: P -1
;
_chemical_formula_sum "Si O2"
_cell_formula_units_Z 14
_cell_length_a 8.186588
_cell_length_b 8.031760
_cell_length_c 9.451156
_cell_angle_alpha 114.819444
_cell_angle_beta 84.545793
_cell_angle_gamma 103.580135
_cell_volume 548.266438
_symmetry_space_group_name_H-M "P -1"
_symmetry_group_IT_number 2
_symmetry_cell_setting 'triclinic'
loop_
_space_group_symop_operation_xyz
x,y,z
-x,-y,-z
loop_
_atom_site_type_symbol
_atom_site_label
_atom_site_fract_x
_atom_site_fract_y
_atom_site_fract_z
Si Si1 0.540040 0.276669 0.061804
Si Si2 0.769395 0.743192 0.580261
Si Si3 0.652712 0.455978 0.700913
Si Si4 0.009535 0.961524 0.150298
Si Si5 0.446828 0.911480 0.737656
Si Si6 0.703913 0.834319 0.321002
Si Si7 0.162429 0.629035 0.096718
O O1 0.382207 0.355065 0.154166
O O2 0.630286 0.233486 0.184363
O O3 0.488824 0.101146 0.897743
O O4 0.676478 0.417998 0.011925
O O5 0.703354 0.529274 0.564528
O O6 0.809115 0.786002 0.428638
O O7 0.611636 0.844196 0.650571
O O8 0.924153 0.846256 0.700461
O O9 0.476030 0.310252 0.691961
O O10 0.799962 0.389942 0.748705
O O11 0.832532 0.847175 0.184346
O O12 0.144209 0.835896 0.128643
O O13 0.000000 0.000000 0.000000
O O14 0.347830 0.964060 0.629192
O O15 0.000000 0.500000 0.000000
#
# Coordination Sequence:
#
# PCOD9102077 Si02
#       7
#     2   2   2   2   2   2   2
#     4  10  20  38  61  96 127 160 218 273 316 368
#     4  11  24  45  64  96 133 171 217 264 325 388
#     4  11  24  40  66  94 132 172 216 267 322 385
#     4  12  26  43  67  97 131 171 218 269 322 384
#     4  10  21  37  68  90 123 166 220 267 313 379
#     4  12  24  42  67  96 131 175 212 268 325 389
#     4  12  23  37  60  97 132 163 209 272 328 371
#
# _framework density 25.535031
#
# number of rings (size 3 to 8) (size 9 to 14) (size 15 to 20)
#    0.000    0.857    2.857    4.286    6.000    0.000 
#    0.000    0.714    0.000    0.000    0.000    0.000 
#    0.000    0.000    0.000    0.000    0.000    0.000 
#
# Total GULP energy -78244.878752 kJ/mol
# GULP energy per Si atom -5588.919911 kJ/mol
# Density = 2.547691 g / cm^3
# Si number density = 25.535031 Si / 1000 Ang^3
#
#
#
# Elastic Constant Matrix: (Units=GPa)
#
#
# Indices 1 2 3 4 5 6 
#
# 1 74.7233 24.0936 32.3732 -17.3427 18.8795 -3.1940
# 2 24.0936 108.1729 56.8811 -53.8989 19.1441 -4.0526
# 3 32.3732 56.8811 125.8516 -51.5944 23.4559 7.6500
# 4 -17.3427 -53.8989 -51.5944 55.3860 -8.3261 8.2433
# 5 18.8795 19.1441 23.4559 -8.3261 44.3451 -3.8399
# 6 -3.1940 -4.0526 7.6500 8.2433 -3.8399 44.0392
#
#
#
# Elastic Compliance Matrix: (Units=1/GPa)
#
#
# Indices 1 2 3 4 5 6 
#
# 1 0.016280 -0.000893 -0.002497 0.001023 -0.004954 0.000909
# 2 -0.000893 0.019141 -0.000118 0.017841 -0.004647 -0.002027
# 3 -0.002497 -0.000118 0.015570 0.013727 -0.005056 -0.005907
# 4 0.001023 0.017841 0.013727 0.049014 -0.007101 -0.010462
# 5 -0.004954 -0.004647 -0.005056 -0.007101 0.028344 0.003892
# 6 0.000909 -0.002027 -0.005907 -0.010462 0.003892 0.025910
#
#
# Mechanical properties :
#
#
# Convention : Reuss Voigt Hill
#
# Bulk Modulus (GPa) = 22.73927 59.49376 41.11651
# Shear Modulus (GPa) = 28.41976 41.78073 35.10024
#
# Velocity S-wave (km/s) = 3.33974 4.04940 3.71157
# Velocity P-wave (km/s) = 4.87814 6.72406 5.87406
#
# Compressibility (1/GPa) = 0.04397678
#
# Stress axis : x y z
#
# Youngs Moduli (GPa) = 61.42387 52.24260 64.22470
#
# Poissons Ratio (x) = 0.04663 0.16035
# Poissons Ratio (y) = 0.05482 0.00760
# Poissons Ratio (z) = 0.15336 0.00618
#
# Static dielectric constant tensor:
#      x y z
#    x 2.006790 -0.035160 0.027290 
#    y -0.035160 2.150830 0.068400 
#    z 0.027290 0.068400 2.146020 
# 
# From -- ./inp_files/155483.got.cif
#   From: 2010.05.17/outbox.cif.g08.bks.cpg/sg2_78_cif.got.tgz:155483.got - 2010.06.03 11:33:40.
