data_PCOD9102977
_publ_section_title
;
Structure prediction by ZEFSAII (Michael W. Deem and Ramdas Pophale) SiO2 
 PCOD9102977
Probable space group: P -1
;
_chemical_formula_sum "Si O2"
_cell_formula_units_Z 16
_cell_length_a 7.657319
_cell_length_b 7.919000
_cell_length_c 14.337847
_cell_angle_alpha 99.550884
_cell_angle_beta 70.791519
_cell_angle_gamma 131.136690
_cell_volume 616.783152
_symmetry_space_group_name_H-M "P -1"
_symmetry_group_IT_number 2
_symmetry_cell_setting 'triclinic'
loop_
_space_group_symop_operation_xyz
x,y,z
-x,-y,-z
loop_
_atom_site_type_symbol
_atom_site_label
_atom_site_fract_x
_atom_site_fract_y
_atom_site_fract_z
Si Si1 0.376426 0.658224 0.143291
Si Si2 0.218530 0.198117 0.801801
Si Si3 0.936847 0.588790 0.653876
Si Si4 0.434340 0.797611 0.658446
Si Si5 0.319114 0.352680 0.603936
Si Si6 0.745295 0.447499 0.042218
Si Si7 0.092238 0.816824 0.461088
Si Si8 0.692294 0.995552 0.828296
O O1 0.652951 0.848560 0.149160
O O2 0.249711 0.493506 0.238576
O O3 0.258012 0.772173 0.155285
O O4 0.315976 0.522021 0.047654
O O5 0.348172 0.257351 0.682417
O O6 0.254939 0.401294 0.868076
O O7 0.932331 0.030202 0.812613
O O8 0.896834 0.370742 0.600609
O O9 0.202295 0.768828 0.669628
O O10 0.941876 0.708556 0.572762
O O11 0.317865 0.541736 0.664381
O O12 0.583087 0.913100 0.736453
O O13 0.637059 0.948138 0.556411
O O14 0.500000 0.500000 0.500000
O O15 0.063217 0.166668 0.582621
O O16 0.524565 0.189098 0.082898
O O17 0.000000 0.500000 0.000000
#
# Coordination Sequence:
#
# PCOD9102977 Si02
#       8
#     2   2   2   2   2   2   2   2
#     4  12  25  46  72 106 140 183 238 289 351 414
#     4  12  26  48  71 105 147 183 234 296 345 417
#     4  10  21  39  63  98 138 174 232 289 338 414
#     4  11  20  40  69  94 138 187 236 283 351 414
#     4  11  23  42  66  95 144 189 230 286 349 412
#     4  12  26  49  78 100 141 191 231 290 360 413
#     4  10  20  38  64  94 133 186 231 280 348 409
#     4  12  24  49  72 104 142 187 232 293 351 420
#
# _framework density 25.941047999999999
#
# number of rings (size 3 to 8) (size 9 to 14) (size 15 to 20)
#    0.000    0.750    5.000    3.375    0.000    1.000 
#    6.750    0.000    0.000    0.000    0.000    0.000 
#    0.000    0.000    0.000    0.000    0.000    0.000 
#
# Total GULP energy -89508.800076 kJ/mol
# GULP energy per Si atom -5594.300005 kJ/mol
# Density = 2.588201 g / cm^3
# Si number density = 25.941048 Si / 1000 Ang^3
#
#
#
# Elastic Constant Matrix: (Units=GPa)
#
#
# Indices 1 2 3 4 5 6 
#
# 1 118.0683 21.0314 38.8910 -0.1230 14.5087 34.0730
# 2 21.0314 84.0066 18.8556 -1.0172 4.0056 13.4847
# 3 38.8910 18.8556 163.2159 0.9092 15.8662 19.2682
# 4 -0.1230 -1.0172 0.9092 37.8850 12.8172 -3.9775
# 5 14.5087 4.0056 15.8662 12.8172 39.2321 5.2581
# 6 34.0730 13.4847 19.2682 -3.9775 5.2581 45.9382
#
#
#
# Elastic Compliance Matrix: (Units=1/GPa)
#
#
# Indices 1 2 3 4 5 6 
#
# 1 0.011623 -0.001273 -0.001505 0.000165 -0.002635 -0.007300
# 2 -0.001273 0.012818 -0.000872 0.000183 -0.000222 -0.002412
# 3 -0.001505 -0.000872 0.006939 0.000389 -0.002119 -0.001262
# 4 0.000165 0.000183 0.000389 0.030354 -0.010624 0.003505
# 5 -0.002635 -0.000222 -0.002119 -0.010624 0.031023 -0.001563
# 6 -0.007300 -0.002412 -0.001262 0.003505 -0.001563 0.028902
#
#
# Mechanical properties :
#
#
# Convention : Reuss Voigt Hill
#
# Bulk Modulus (GPa) = 41.52920 58.09410 49.81165
# Shear Modulus (GPa) = 36.49985 43.71191 40.10588
#
# Velocity S-wave (km/s) = 3.75511 4.10939 3.93624
# Velocity P-wave (km/s) = 5.90296 6.70517 6.31682
#
# Compressibility (1/GPa) = 0.02407944
#
# Stress axis : x y z
#
# Youngs Moduli (GPa) = 86.03701 78.01455 144.11146
#
# Poissons Ratio (x) = 0.09927 0.21696
# Poissons Ratio (y) = 0.10948 0.12572
# Poissons Ratio (z) = 0.12953 0.06806
#
# Static dielectric constant tensor:
#      x y z
#    x 2.040970 -0.001710 -0.069250 
#    y -0.001710 2.048960 0.005140 
#    z -0.069250 0.005140 2.114750 
# 
# From -- ./inp_files/495060.got.cif
#   From: 2010.05.17/outbox.cif.g08.bks.cpg/sg2_248_cif.got.tgz:495060.got - 2010.06.03 11:33:40.
