data_PCOD9102900
_publ_section_title
;
Structure prediction by ZEFSAII (Michael W. Deem and Ramdas Pophale) SiO2 
 PCOD9102900
Probable space group: P -1
;
_chemical_formula_sum "Si O2"
_cell_formula_units_Z 16
_cell_length_a 22.318401
_cell_length_b 10.202171
_cell_length_c 9.224754
_cell_angle_alpha 38.295194
_cell_angle_beta 34.191627
_cell_angle_gamma 40.042726
_cell_volume 689.433313
_symmetry_space_group_name_H-M "P -1"
_symmetry_group_IT_number 2
_symmetry_cell_setting 'triclinic'
loop_
_space_group_symop_operation_xyz
x,y,z
-x,-y,-z
loop_
_atom_site_type_symbol
_atom_site_label
_atom_site_fract_x
_atom_site_fract_y
_atom_site_fract_z
Si Si1 0.344264 0.532888 0.169620
Si Si2 0.856605 0.797868 0.738223
Si Si3 0.469365 0.239440 0.427403
Si Si4 0.610952 0.848944 0.822704
Si Si5 0.268403 0.857427 0.565830
Si Si6 0.689225 0.588468 0.172156
Si Si7 0.125416 0.959082 0.224773
Si Si8 0.934813 0.126344 0.878703
O O1 0.377936 0.433358 0.348793
O O2 0.383602 0.305414 0.192361
O O3 0.215187 0.704398 0.268240
O O4 0.421838 0.682885 0.844148
O O5 0.986366 0.750817 0.464752
O O6 0.787626 0.982865 0.595565
O O7 0.834218 0.897482 0.859666
O O8 0.806701 0.596419 0.997872
O O9 0.408771 0.219078 0.714590
O O10 0.500000 0.000000 0.500000
O O11 0.681402 0.018504 0.525239
O O12 0.677870 0.666237 0.964051
O O13 0.500000 0.000000 0.000000
O O14 0.350659 0.626873 0.538433
O O15 0.183714 0.755594 0.908195
O O16 0.097534 0.017834 0.059605
O O17 0.000000 0.000000 0.500000
O O18 0.000000 0.000000 0.000000
#
# Coordination Sequence:
#
# PCOD9102900 Si02
#       8
#     2   2   2   2   2   2   2   2
#     4  11  24  42  65  96 132 172 217 266 326 386
#     4   9  20  38  58  86 122 156 204 261 312 375
#     4  11  24  41  65  95 131 171 214 267 325 388
#     4  11  24  39  58  90 127 161 209 265 314 379
#     4  10  21  38  59  85 119 159 207 259 313 376
#     4  11  22  37  61  87 117 163 205 255 324 378
#     4  10  20  38  64  92 126 167 213 266 318 382
#     4   9  19  37  61  87 120 164 207 259 321 372
#
# _framework density 23.207467000000001
#
# number of rings (size 3 to 8) (size 9 to 14) (size 15 to 20)
#    0.000    1.750    0.000    3.750    0.000   10.500 
#    0.000    6.250    0.000   15.750    0.000    0.000 
#    0.000    0.000    0.000    0.000    0.000    0.000 
#
# Total GULP energy -89105.393622 kJ/mol
# GULP energy per Si atom -5569.087101 kJ/mol
# Density = 2.315465 g / cm^3
# Si number density = 23.207467 Si / 1000 Ang^3
#
#
#
# Elastic Constant Matrix: (Units=GPa)
#
#
# Indices 1 2 3 4 5 6 
#
# 1 106.1941 46.1237 28.4304 -4.9458 11.1344 19.1996
# 2 46.1237 87.4822 26.2543 -15.2462 -19.2542 12.0183
# 3 28.4304 26.2543 71.2984 -3.9289 -9.7679 4.4295
# 4 -4.9458 -15.2462 -3.9289 27.5700 12.8907 -8.6547
# 5 11.1344 -19.2542 -9.7679 12.8907 34.4258 7.6628
# 6 19.1996 12.0183 4.4295 -8.6547 7.6628 52.0872
#
#
#
# Elastic Compliance Matrix: (Units=1/GPa)
#
#
# Indices 1 2 3 4 5 6 
#
# 1 0.016385 -0.009417 -0.004570 0.002575 -0.012560 -0.001202
# 2 -0.009417 0.020746 -0.001666 0.002069 0.014046 -0.002896
# 3 -0.004570 -0.001666 0.017272 -0.002624 0.006609 -0.000808
# 4 0.002575 0.002069 -0.002624 0.051016 -0.021858 0.010489
# 5 -0.012560 0.014046 0.006609 -0.021858 0.053399 -0.010661
# 6 -0.001202 -0.002896 -0.000808 0.010489 -0.010661 0.023690
#
#
# Mechanical properties :
#
#
# Convention : Reuss Voigt Hill
#
# Bulk Modulus (GPa) = 43.29553 51.84351 47.56952
# Shear Modulus (GPa) = 22.57205 33.76102 28.16653
#
# Velocity S-wave (km/s) = 3.12207 3.81825 3.48758
# Velocity P-wave (km/s) = 5.62963 6.46733 6.06297
#
# Compressibility (1/GPa) = 0.02309707
#
# Stress axis : x y z
#
# Youngs Moduli (GPa) = 61.03280 48.20193 57.89629
#
# Poissons Ratio (x) = 0.45394 0.26457
# Poissons Ratio (y) = 0.57478 0.09644
# Poissons Ratio (z) = 0.27890 0.08029
#
# Static dielectric constant tensor:
#      x y z
#    x 1.997040 0.077990 -0.065210 
#    y 0.077990 2.457310 -0.051180 
#    z -0.065210 -0.051180 1.905570 
# 
# From -- ./inp_files/351991.got.cif
#   From: 2010.05.17/outbox.cif.g08.bks.cpg/sg2_176_cif.got.tgz:351991.got - 2010.06.03 11:33:40.
