data_PCOD9102374
_publ_section_title
;
Structure prediction by ZEFSAII (Michael W. Deem and Ramdas Pophale) SiO2 
 PCOD9102374
Probable space group: P -1
;
_chemical_formula_sum "Si O2"
_cell_formula_units_Z 13
_cell_length_a 12.115667
_cell_length_b 9.436724
_cell_length_c 12.742448
_cell_angle_alpha 111.932907
_cell_angle_beta 22.912732
_cell_angle_gamma 112.148796
_cell_volume 523.952782
_symmetry_space_group_name_H-M "P -1"
_symmetry_group_IT_number 2
_symmetry_cell_setting 'triclinic'
loop_
_space_group_symop_operation_xyz
x,y,z
-x,-y,-z
loop_
_atom_site_type_symbol
_atom_site_label
_atom_site_fract_x
_atom_site_fract_y
_atom_site_fract_z
Si Si1 0.221612 0.387142 0.226419
Si Si2 0.494937 0.262161 0.144837
Si Si3 0.392657 0.018166 0.460388
Si Si4 0.838354 0.597387 0.953046
Si Si5 0.521721 0.356719 0.517330
Si Si6 0.000000 0.000000 0.000000
Si Si7 0.973170 0.918715 0.388515
O O1 0.155308 0.336434 0.151977
O O2 0.000000 0.500000 0.500000
O O3 0.500000 0.500000 0.000000
O O4 0.322381 0.263877 0.186258
O O5 0.679968 0.425198 0.038278
O O6 0.719603 0.135298 0.924563
O O7 0.244545 0.232914 0.440245
O O8 0.453015 0.202717 0.469460
O O9 0.192248 0.987248 0.525770
O O10 0.710102 0.967788 0.169244
O O11 0.210473 0.965909 0.707938
O O12 0.162003 0.615045 0.709120
O O13 0.682422 0.663875 0.208240
O O14 0.500000 0.500000 0.500000
O O15 0.000000 0.000000 0.500000
#
# Coordination Sequence:
#
# PCOD9102374 Si02
#       7
#     2   2   2   2   2   1   2
#     4  10  20  38  62  93 135 173 219 265 332 419
#     4  11  22  42  67  96 138 181 215 287 345 397
#     4  11  24  48  72  98 143 176 240 288 349 404
#     4  11  22  39  65 101 138 173 219 263 357 424
#     4  12  24  40  66 107 134 176 221 284 356 424
#     4  10  24  48  72  94 132 198 226 292 340 396
#     4  12  26  46  68  99 129 181 244 287 339 396
#
# _framework density 24.811398000000001
#
# number of rings (size 3 to 8) (size 9 to 14) (size 15 to 20)
#    0.000    0.923    0.000    9.231    0.000    0.000 
#   16.615    0.000    0.000    0.000    0.000    0.000 
#    0.000    0.000    0.000    0.000    0.000    0.000 
#
# Total GULP energy -72474.271453 kJ/mol
# GULP energy per Si atom -5574.943958 kJ/mol
# Density = 2.475493 g / cm^3
# Si number density = 24.811398 Si / 1000 Ang^3
#
#
#
# Elastic Constant Matrix: (Units=GPa)
#
#
# Indices 1 2 3 4 5 6 
#
# 1 217.2881 22.9614 51.0465 7.4396 -25.1271 -13.4209
# 2 22.9614 82.5748 12.8360 -1.0749 1.3395 7.1710
# 3 51.0465 12.8360 215.9186 1.8267 -30.6307 -6.0577
# 4 7.4396 -1.0749 1.8267 25.5359 -6.7066 0.4368
# 5 -25.1271 1.3395 -30.6307 -6.7066 44.5556 0.4224
# 6 -13.4209 7.1710 -6.0577 0.4368 0.4224 52.0843
#
#
#
# Elastic Compliance Matrix: (Units=1/GPa)
#
#
# Indices 1 2 3 4 5 6 
#
# 1 0.005349 -0.001545 -0.000788 -0.000972 0.002361 0.001488
# 2 -0.001545 0.012878 -0.000698 0.000655 -0.001619 -0.002245
# 3 -0.000788 -0.000698 0.005342 0.000689 0.003348 0.000482
# 4 -0.000972 0.000655 0.000689 0.041032 0.006088 -0.000654
# 5 0.002361 -0.001619 0.003348 0.006088 0.027033 0.000950
# 6 0.001488 -0.002245 0.000482 -0.000654 0.000950 0.019946
#
#
# Mechanical properties :
#
#
# Convention : Reuss Voigt Hill
#
# Bulk Modulus (GPa) = 57.12294 76.60770 66.86532
# Shear Modulus (GPa) = 40.49296 53.03098 46.76197
#
# Velocity S-wave (km/s) = 4.04422 4.62818 4.34602
# Velocity P-wave (km/s) = 6.69929 7.71382 7.22439
#
# Compressibility (1/GPa) = 0.01750610
#
# Stress axis : x y z
#
# Youngs Moduli (GPa) = 186.95948 77.65070 187.20246
#
# Poissons Ratio (x) = 0.11998 0.14747
# Poissons Ratio (y) = 0.28887 0.13076
# Poissons Ratio (z) = 0.14728 0.05424
#
# Static dielectric constant tensor:
#      x y z
#    x 2.115210 -0.060910 0.012320 
#    y -0.060910 2.082540 -0.002350 
#    z 0.012320 -0.002350 1.858010 
# 
# From -- ./inp_files/426111.got.cif
#   From: 2010.05.17/outbox.cif.g08.bks.cpg/sg2_214_cif.got.tgz:426111.got - 2010.06.03 11:33:40.
