data_PCOD9102650
_publ_section_title
;
Structure prediction by ZEFSAII (Michael W. Deem and Ramdas Pophale) SiO2 
 PCOD9102650
Probable space group: P -1
;
_chemical_formula_sum "Si O2"
_cell_formula_units_Z 14
_cell_length_a 14.403672
_cell_length_b 8.420356
_cell_length_c 14.062195
_cell_angle_alpha 37.794041
_cell_angle_beta 45.104758
_cell_angle_gamma 43.730308
_cell_volume 684.945378
_symmetry_space_group_name_H-M "P -1"
_symmetry_group_IT_number 2
_symmetry_cell_setting 'triclinic'
loop_
_space_group_symop_operation_xyz
x,y,z
-x,-y,-z
loop_
_atom_site_type_symbol
_atom_site_label
_atom_site_fract_x
_atom_site_fract_y
_atom_site_fract_z
Si Si1 0.851183 0.002488 0.707783
Si Si2 0.645357 0.726934 0.009838
Si Si3 0.444995 0.267509 0.606862
Si Si4 0.819076 0.256325 0.413148
Si Si5 0.605080 0.666974 0.850973
Si Si6 0.684622 0.159253 0.360051
Si Si7 0.836387 0.555497 0.565897
O O1 0.794913 0.086046 0.601260
O O2 0.835584 0.288882 0.635111
O O3 0.015947 0.810486 0.675742
O O4 0.765839 0.840749 0.896643
O O5 0.663859 0.442956 0.185910
O O6 0.663607 0.638194 0.928426
O O7 0.500000 0.000000 0.000000
O O8 0.500000 0.500000 0.500000
O O9 0.278084 0.420624 0.653143
O O10 0.525762 0.187108 0.487065
O O11 0.503842 0.990954 0.756621
O O12 0.768527 0.165292 0.394747
O O13 0.729826 0.593081 0.716010
O O14 0.500000 0.500000 0.000000
O O15 0.772123 0.842023 0.414679
O O16 0.000000 0.500000 0.500000
#
# Coordination Sequence:
#
# PCOD9102650 Si02
#       7
#     2   2   2   2   2   2   2
#     4  11  23  38  68  92 127 171 219 265 323 387
#     4  12  24  42  65 100 131 167 219 274 326 382
#     4   9  18  37  65  89 121 166 214 262 308 382
#     4  10  20  38  63  94 121 167 224 258 318 376
#     4  11  25  44  68  95 132 171 216 273 331 383
#     4  10  21  40  65  94 132 168 215 267 325 386
#     4  11  23  44  65  93 134 176 213 263 328 392
#
# _framework density 20.439585999999998
#
# number of rings (size 3 to 8) (size 9 to 14) (size 15 to 20)
#    0.000    1.429    1.429    6.000    2.000    1.714 
#    2.571    4.286    0.000    0.000    0.000    0.000 
#    0.000    0.000    0.000    0.000    0.000    0.000 
#
# Total GULP energy -78142.687306 kJ/mol
# GULP energy per Si atom -5581.620522 kJ/mol
# Density = 2.039307 g / cm^3
# Si number density = 20.439586 Si / 1000 Ang^3
#
#
#
# Elastic Constant Matrix: (Units=GPa)
#
#
# Indices 1 2 3 4 5 6 
#
# 1 74.1577 41.2773 39.7931 -9.2030 5.4472 3.5582
# 2 41.2773 133.5354 48.5796 -18.0454 3.4233 -26.6786
# 3 39.7931 48.5796 113.2867 -26.7944 4.0174 -0.2471
# 4 -9.2030 -18.0454 -26.7944 35.9418 0.6180 1.2947
# 5 5.4472 3.4233 4.0174 0.6180 31.9618 -3.8009
# 6 3.5582 -26.6786 -0.2471 1.2947 -3.8009 25.9502
#
#
#
# Elastic Compliance Matrix: (Units=1/GPa)
#
#
# Indices 1 2 3 4 5 6 
#
# 1 0.020176 -0.006745 -0.004342 -0.001033 -0.003361 -0.010183
# 2 -0.006745 0.014098 -0.003134 0.002423 0.001834 0.015537
# 3 -0.004342 -0.003134 0.013507 0.007513 -0.001129 -0.003039
# 4 -0.001033 0.002423 0.007513 0.034376 -0.001603 0.000755
# 5 -0.003361 0.001834 -0.001129 -0.001603 0.032693 0.007204
# 6 -0.010183 0.015537 -0.003039 0.000755 0.007204 0.056893
#
#
# Mechanical properties :
#
#
# Convention : Reuss Voigt Hill
#
# Bulk Modulus (GPa) = 51.70964 64.47554 58.09259
# Shear Modulus (GPa) = 24.19748 31.52607 27.86177
#
# Velocity S-wave (km/s) = 3.44445 3.93160 3.69606
# Velocity P-wave (km/s) = 6.41659 7.22654 6.83358
#
# Compressibility (1/GPa) = 0.01933875
#
# Stress axis : x y z
#
# Youngs Moduli (GPa) = 49.56289 70.93011 74.03733
#
# Poissons Ratio (x) = 0.47842 0.32147
# Poissons Ratio (y) = 0.33430 0.23206
# Poissons Ratio (z) = 0.21520 0.22232
#
# Static dielectric constant tensor:
#      x y z
#    x 1.741150 -0.014080 0.024050 
#    y -0.014080 1.718980 0.042650 
#    z 0.024050 0.042650 1.730730 
# 
# From -- ./inp_files/208217.got.cif
#   From: 2010.05.17/outbox.cif.g08.bks.cpg/sg2_105_cif.got.tgz:208217.got - 2010.06.03 11:33:40.
