data_PCOD9102995
_publ_section_title
;
Structure prediction by ZEFSAII (Michael W. Deem and Ramdas Pophale) SiO2 
 PCOD9102995
Probable space group: P -1
;
_chemical_formula_sum "Si O2"
_cell_formula_units_Z 16
_cell_length_a 9.020863
_cell_length_b 14.434297
_cell_length_c 21.804113
_cell_angle_alpha 20.959391
_cell_angle_beta 47.591320
_cell_angle_gamma 47.842648
_cell_volume 740.587616
_symmetry_space_group_name_H-M "P -1"
_symmetry_group_IT_number 2
_symmetry_cell_setting 'triclinic'
loop_
_space_group_symop_operation_xyz
x,y,z
-x,-y,-z
loop_
_atom_site_type_symbol
_atom_site_label
_atom_site_fract_x
_atom_site_fract_y
_atom_site_fract_z
Si Si1 0.556901 0.925926 0.705418
Si Si2 0.260564 0.633706 0.035442
Si Si3 0.971840 0.438178 0.436784
Si Si4 0.884808 0.027651 0.921186
Si Si5 0.361783 0.593559 0.540349
Si Si6 0.667817 0.171875 0.767147
Si Si7 0.538600 0.257507 0.962172
Si Si8 0.444961 0.219355 0.431105
O O1 0.714876 0.661326 0.813572
O O2 0.612048 0.117643 0.624422
O O3 0.534199 0.099066 0.543791
O O4 0.348455 0.816999 0.847430
O O5 0.409260 0.647608 0.043820
O O6 0.034828 0.757219 0.041234
O O7 0.862473 0.416321 0.415506
O O8 0.844006 0.312074 0.601663
O O9 0.976445 0.741808 0.261944
O O10 0.202258 0.296597 0.458212
O O11 0.735218 0.072847 0.876732
O O12 0.747098 0.088805 0.981908
O O13 0.500000 0.500000 0.500000
O O14 0.462576 0.386197 0.691094
O O15 0.625900 0.933337 0.883065
O O16 0.484766 0.512878 0.776827
O O17 0.500000 0.000000 0.500000
#
# Coordination Sequence:
#
# PCOD9102995 Si02
#       8
#     2   2   2   2   2   2   2   2
#     4  11  23  41  66  94 133 177 218 271 322 392
#     4  11  22  40  64  96 130 174 225 263 323 391
#     4  10  21  38  68  93 128 174 225 265 324 391
#     4  11  22  38  64  97 132 172 218 270 328 388
#     4  10  20  38  64  95 129 161 215 272 321 371
#     4  11  21  39  65 100 127 167 225 275 320 380
#     4  11  23  41  67  94 134 171 213 278 329 379
#     4  11  23  46  65  94 134 177 214 264 336 391
#
# _framework density 21.604465999999999
#
# number of rings (size 3 to 8) (size 9 to 14) (size 15 to 20)
#    0.000    1.250    1.250    7.125    0.000    1.000 
#    2.250    1.250    0.000    0.000    0.000    0.000 
#    0.000    0.000    0.000    0.000    0.000    0.000 
#
# Total GULP energy -89511.624820 kJ/mol
# GULP energy per Si atom -5594.476551 kJ/mol
# Density = 2.155529 g / cm^3
# Si number density = 21.604466 Si / 1000 Ang^3
#
#
#
# Elastic Constant Matrix: (Units=GPa)
#
#
# Indices 1 2 3 4 5 6 
#
# 1 74.7066 9.0189 20.5057 -20.1188 -3.5470 24.7859
# 2 9.0189 98.4762 25.5428 -32.9963 -7.0766 18.6121
# 3 20.5057 25.5428 93.3640 -17.5734 -9.3216 9.9974
# 4 -20.1188 -32.9963 -17.5734 43.8291 7.9744 -2.4728
# 5 -3.5470 -7.0766 -9.3216 7.9744 32.3622 -0.5444
# 6 24.7859 18.6121 9.9974 -2.4728 -0.5444 33.0200
#
#
#
# Elastic Compliance Matrix: (Units=1/GPa)
#
#
# Indices 1 2 3 4 5 6 
#
# 1 0.023484 0.006827 -0.002325 0.013941 -0.000370 -0.019733
# 2 0.006827 0.017516 -0.002090 0.014711 0.000129 -0.013261
# 3 -0.002325 -0.002090 0.012458 0.001880 0.002402 -0.000668
# 4 0.013941 0.014711 0.001880 0.041051 -0.005104 -0.016335
# 5 -0.000370 0.000129 0.002402 -0.005104 0.032831 -0.000363
# 6 -0.019733 -0.013261 -0.000668 -0.016335 -0.000363 0.051545
#
#
# Mechanical properties :
#
#
# Convention : Reuss Voigt Hill
#
# Bulk Modulus (GPa) = 17.15810 41.85350 29.50580
# Shear Modulus (GPa) = 25.84116 35.94088 30.89102
#
# Velocity S-wave (km/s) = 3.46222 4.08313 3.78543
# Velocity P-wave (km/s) = 4.89304 6.45321 5.72651
#
# Compressibility (1/GPa) = 0.05828151
#
# Stress axis : x y z
#
# Youngs Moduli (GPa) = 42.58291 57.08933 80.26699
#
# Poissons Ratio (x) = -0.38972 0.18664
# Poissons Ratio (y) = -0.29069 0.16773
# Poissons Ratio (z) = 0.09902 0.11930
#
# Static dielectric constant tensor:
#      x y z
#    x 1.799890 0.001520 0.015770 
#    y 0.001520 1.779750 0.025900 
#    z 0.015770 0.025900 1.824400 
# 
# From -- ./inp_files/590384.got.cif
#   From: 2010.05.17/outbox.cif.g08.bks.cpg/sg2_296_cif.got.tgz:590384.got - 2010.06.03 11:33:40.
