data_PCOD9102523
_publ_section_title
;
Structure prediction by ZEFSAII (Michael W. Deem and Ramdas Pophale) SiO2 
 PCOD9102523
Probable space group: P -1
;
_chemical_formula_sum "Si O2"
_cell_formula_units_Z 16
_cell_length_a 13.531132
_cell_length_b 13.120024
_cell_length_c 10.918329
_cell_angle_alpha 136.859632
_cell_angle_beta 30.605001
_cell_angle_gamma 138.112237
_cell_volume 635.931873
_symmetry_space_group_name_H-M "P -1"
_symmetry_group_IT_number 2
_symmetry_cell_setting 'triclinic'
loop_
_space_group_symop_operation_xyz
x,y,z
-x,-y,-z
loop_
_atom_site_type_symbol
_atom_site_label
_atom_site_fract_x
_atom_site_fract_y
_atom_site_fract_z
Si Si1 0.804963 0.222999 0.314677
Si Si2 0.617663 0.853443 0.886650
Si Si3 0.833410 0.451800 0.774451
Si Si4 0.988197 0.108201 0.794079
Si Si5 0.262287 0.648655 0.949961
Si Si6 0.199145 0.364426 0.618322
Si Si7 0.534965 0.741306 0.138240
Si Si8 0.015778 0.839030 0.704275
O O1 0.577084 0.216524 0.587534
O O2 0.969414 0.395277 0.322589
O O3 0.864460 0.111172 0.251631
O O4 0.863073 0.186617 0.086164
O O5 0.436266 0.811206 0.944325
O O6 0.698484 0.702569 0.657399
O O7 0.817151 0.005659 0.790808
O O8 0.543865 0.852508 0.105209
O O9 0.635201 0.420867 0.871393
O O10 0.904445 0.297459 0.554439
O O11 0.760212 0.455484 0.994384
O O12 0.174321 0.239960 0.646376
O O13 0.051450 0.982238 0.697327
O O14 0.307545 0.545012 0.701440
O O15 0.037009 0.655964 0.175015
O O16 0.771509 0.763037 0.923375
#
# Coordination Sequence:
#
# PCOD9102523 Si02
#       8
#     2   2   2   2   2   2   2   2
#     4  11  22  39  61  89 125 160 203 246 299 361
#     4  10  22  39  62  90 123 157 201 250 303 360
#     4  10  20  38  63  89 121 159 204 248 297 364
#     4  11  23  41  62  93 126 160 199 253 305 361
#     4  10  21  40  65  89 118 163 200 251 303 355
#     4  11  22  41  65  88 121 159 205 250 301 359
#     4   9  20  37  61  89 120 158 202 248 295 357
#     4  10  21  38  61  87 123 164 198 245 306 355
#
# _framework density 25.159927
#
# number of rings (size 3 to 8) (size 9 to 14) (size 15 to 20)
#    0.000    1.750    1.250    4.125    0.000    4.500 
#    0.000    8.750    0.000    0.000    0.000    0.000 
#    0.000    0.000    0.000    0.000    0.000    0.000 
#
# Total GULP energy -89456.435843 kJ/mol
# GULP energy per Si atom -5591.027240 kJ/mol
# Density = 2.510266 g / cm^3
# Si number density = 25.159927 Si / 1000 Ang^3
#
#
#
# Elastic Constant Matrix: (Units=GPa)
#
#
# Indices 1 2 3 4 5 6 
#
# 1 42.5910 -0.1879 8.7575 -3.8168 -10.4088 6.8803
# 2 -0.1879 85.1936 2.9322 -13.7165 1.4078 3.6158
# 3 8.7575 2.9322 99.9087 -8.2931 -0.8627 13.7375
# 4 -3.8168 -13.7165 -8.2931 30.8687 10.3175 0.2336
# 5 -10.4088 1.4078 -0.8627 10.3175 41.3594 -4.7268
# 6 6.8803 3.6158 13.7375 0.2336 -4.7268 31.8767
#
#
#
# Elastic Compliance Matrix: (Units=1/GPa)
#
#
# Indices 1 2 3 4 5 6 
#
# 1 0.025973 0.000361 -0.001584 0.001053 0.005758 -0.004118
# 2 0.000361 0.012924 0.000412 0.006664 -0.002243 -0.002103
# 3 -0.001584 0.000412 0.011067 0.003533 -0.001604 -0.004738
# 4 0.001053 0.006664 0.003533 0.039925 -0.010343 -0.004332
# 5 0.005758 -0.002243 -0.001604 -0.010343 0.028712 0.004036
# 6 -0.004118 -0.002103 -0.004738 -0.004332 0.004036 0.035170
#
#
# Mechanical properties :
#
#
# Convention : Reuss Voigt Hill
#
# Bulk Modulus (GPa) = 20.68600 27.85521 24.27060
# Shear Modulus (GPa) = 29.15333 35.23373 32.19353
#
# Velocity S-wave (km/s) = 3.40769 3.74624 3.58097
# Velocity P-wave (km/s) = 4.87061 5.45964 5.17351
#
# Compressibility (1/GPa) = 0.04834188
#
# Stress axis : x y z
#
# Youngs Moduli (GPa) = 38.50119 77.37677 90.36099
#
# Poissons Ratio (x) = -0.02793 0.14312
# Poissons Ratio (y) = -0.01390 -0.03722
# Poissons Ratio (z) = 0.06098 -0.03188
#
# Static dielectric constant tensor:
#      x y z
#    x 2.036310 0.015770 0.017340 
#    y 0.015770 2.014370 0.030530 
#    z 0.017340 0.030530 1.987780 
# 
# From -- ./inp_files/455036.got.cif
#   From: 2010.05.17/outbox.cif.g08.bks.cpg/sg2_228_cif.got.tgz:455036.got - 2010.06.03 11:33:40.
