data_PCOD9102347
_publ_section_title
;
Structure prediction by ZEFSAII (Michael W. Deem and Ramdas Pophale) SiO2 
 PCOD9102347
Probable space group: P -1
;
_chemical_formula_sum "Si O2"
_cell_formula_units_Z 16
_cell_length_a 12.825519
_cell_length_b 14.280586
_cell_length_c 14.344106
_cell_angle_alpha 151.059688
_cell_angle_beta 70.112469
_cell_angle_gamma 130.413431
_cell_volume 762.064744
_symmetry_space_group_name_H-M "P -1"
_symmetry_group_IT_number 2
_symmetry_cell_setting 'triclinic'
loop_
_space_group_symop_operation_xyz
x,y,z
-x,-y,-z
loop_
_atom_site_type_symbol
_atom_site_label
_atom_site_fract_x
_atom_site_fract_y
_atom_site_fract_z
Si Si1 0.420268 0.604282 0.725124
Si Si2 0.583710 0.007329 0.207116
Si Si3 0.022191 0.518954 0.900545
Si Si4 0.871071 0.376003 0.574939
Si Si5 0.491964 0.262261 0.814852
Si Si6 0.963388 0.738759 0.482108
Si Si7 0.579603 0.843558 0.679570
Si Si8 0.843193 0.630123 0.945665
O O1 0.227999 0.434503 0.626971
O O2 0.505436 0.743886 0.719720
O O3 0.413796 0.367003 0.540855
O O4 0.530507 0.853110 0.989455
O O5 0.783734 0.249761 0.390009
O O6 0.533663 0.165637 0.357585
O O7 0.473361 0.751377 0.099458
O O8 0.924305 0.571644 0.933987
O O9 0.226228 0.815654 0.077474
O O10 0.969026 0.251313 0.629604
O O11 0.000000 0.500000 0.000000
O O12 0.023366 0.433151 0.604798
O O13 0.896510 0.627381 0.823972
O O14 0.706217 0.077339 0.427800
O O15 0.636949 0.365843 0.794650
O O16 0.500000 0.500000 0.000000
O O17 0.076584 0.058664 0.774631
#
# Coordination Sequence:
#
# PCOD9102347 Si02
#       8
#     2   2   2   2   2   2   2   2
#     4  11  24  42  70  95 129 176 226 269 321 391
#     4  10  22  40  65  95 125 170 221 271 316 392
#     4  11  24  38  61  99 130 164 210 271 334 387
#     4   9  23  39  62  89 130 175 217 259 329 386
#     4  10  20  38  62  92 127 180 213 258 328 394
#     4  11  22  40  64  97 127 172 212 272 330 379
#     4  11  23  43  66  96 133 175 217 272 329 385
#     4  11  20  38  59  88 132 168 209 263 325 391
#
# _framework density 20.995591999999998
#
# number of rings (size 3 to 8) (size 9 to 14) (size 15 to 20)
#    0.750    0.750    3.750    1.500    0.000    3.500 
#    0.000    0.625    0.000    2.250    0.000    0.000 
#    0.000    0.000    0.000    0.000    0.000    0.000 
#
# Total GULP energy -89257.937420 kJ/mol
# GULP energy per Si atom -5578.621089 kJ/mol
# Density = 2.094780 g / cm^3
# Si number density = 20.995592 Si / 1000 Ang^3
#
#
#
# Elastic Constant Matrix: (Units=GPa)
#
#
# Indices 1 2 3 4 5 6 
#
# 1 134.2475 25.9400 31.5009 -20.4085 -1.4005 2.4795
# 2 25.9400 38.5124 17.7824 -7.7626 -6.7411 4.9837
# 3 31.5009 17.7824 100.1085 -24.0593 -9.0869 4.3670
# 4 -20.4085 -7.7626 -24.0593 20.0787 -0.3412 -5.7559
# 5 -1.4005 -6.7411 -9.0869 -0.3412 40.2342 -5.9156
# 6 2.4795 4.9837 4.3670 -5.7559 -5.9156 20.9028
#
#
#
# Elastic Compliance Matrix: (Units=1/GPa)
#
#
# Indices 1 2 3 4 5 6 
#
# 1 0.009702 -0.005075 -0.000295 0.008213 -0.000166 0.002335
# 2 -0.005075 0.032588 -0.003020 0.002533 0.003928 -0.004728
# 3 -0.000295 -0.003020 0.015011 0.017571 0.003531 0.003457
# 4 0.008213 0.002533 0.017571 0.086328 0.008487 0.020925
# 5 -0.000166 0.003928 0.003531 0.008487 0.027626 0.008501
# 6 0.002335 -0.004728 0.003457 0.020925 0.008501 0.056136
#
#
# Mechanical properties :
#
#
# Convention : Reuss Voigt Hill
#
# Bulk Modulus (GPa) = 24.67784 47.03501 35.85643
# Shear Modulus (GPa) = 19.40401 29.41947 24.41174
#
# Velocity S-wave (km/s) = 3.04335 3.74735 3.41355
# Velocity P-wave (km/s) = 4.91210 6.41673 5.71416
#
# Compressibility (1/GPa) = 0.04052219
#
# Stress axis : x y z
#
# Youngs Moduli (GPa) = 103.06762 30.68600 66.61830
#
# Poissons Ratio (x) = 0.15572 0.01962
# Poissons Ratio (y) = 0.52304 0.20121
# Poissons Ratio (z) = 0.03036 0.09268
#
# Static dielectric constant tensor:
#      x y z
#    x 1.759490 0.014130 -0.010890 
#    y 0.014130 1.765060 -0.023100 
#    z -0.010890 -0.023100 1.790390 
# 
# From -- ./inp_files/522637.got.cif
#   From: 2010.05.17/outbox.cif.g08.bks.cpg/sg2_262_cif.got.tgz:522637.got - 2010.06.03 11:33:40.
