data_PCOD9102944
_publ_section_title
;
Structure prediction by ZEFSAII (Michael W. Deem and Ramdas Pophale) SiO2 
 PCOD9102944
Probable space group: P -1
;
_chemical_formula_sum "Si O2"
_cell_formula_units_Z 16
_cell_length_a 13.933056
_cell_length_b 9.167927
_cell_length_c 8.221773
_cell_angle_alpha 73.084488
_cell_angle_beta 130.262911
_cell_angle_gamma 84.259772
_cell_volume 704.531512
_symmetry_space_group_name_H-M "P -1"
_symmetry_group_IT_number 2
_symmetry_cell_setting 'triclinic'
loop_
_space_group_symop_operation_xyz
x,y,z
-x,-y,-z
loop_
_atom_site_type_symbol
_atom_site_label
_atom_site_fract_x
_atom_site_fract_y
_atom_site_fract_z
Si Si1 0.147148 0.976289 0.727406
Si Si2 0.216626 0.300262 0.375965
Si Si3 0.408781 0.163515 0.149900
Si Si4 0.499018 0.215176 0.589529
Si Si5 0.299083 0.905074 0.602384
Si Si6 0.891350 0.685656 0.306420
Si Si7 0.767663 0.214446 0.781098
Si Si8 0.971124 0.374695 0.837061
O O1 0.247760 0.867381 0.731292
O O2 0.139078 0.162464 0.656115
O O3 0.172059 0.903940 0.959376
O O4 0.000000 0.000000 0.500000
O O5 0.363964 0.312140 0.514675
O O6 0.255065 0.104062 0.486141
O O7 0.127921 0.433178 0.369511
O O8 0.106109 0.363347 0.087261
O O9 0.436328 0.182677 0.362734
O O10 0.420115 0.974431 0.193772
O O11 0.536486 0.176890 0.194313
O O12 0.260747 0.298946 0.905224
O O13 0.607652 0.294352 0.638317
O O14 0.242615 0.859097 0.386428
O O15 0.000000 0.500000 0.500000
O O16 0.962283 0.734506 0.211079
O O17 0.131465 0.690423 0.161342
#
# Coordination Sequence:
#
# PCOD9102944 Si02
#       8
#     2   2   2   2   2   2   2   2
#     4  12  25  42  64 100 134 169 221 273 329 394
#     4  10  20  38  64  93 129 168 220 273 318 388
#     4   9  18  38  66  95 124 168 227 274 323 386
#     4   9  17  38  67  93 125 168 223 276 320 384
#     4  10  22  42  71  96 125 172 223 278 324 385
#     4  12  24  41  64  94 135 176 217 273 333 394
#     4  11  23  42  69  98 130 175 216 273 334 391
#     4  11  23  38  61  97 133 174 215 263 337 393
#
# _framework density 22.710124
#
# number of rings (size 3 to 8) (size 9 to 14) (size 15 to 20)
#    0.000    1.500    2.500    3.750    0.000    3.500 
#    2.250    0.000    0.000    2.250    0.000    0.000 
#    0.000    0.000    0.000    0.000    0.000    0.000 
#
# Total GULP energy -89155.791859 kJ/mol
# GULP energy per Si atom -5572.236991 kJ/mol
# Density = 2.265844 g / cm^3
# Si number density = 22.710124 Si / 1000 Ang^3
#
#
#
# Elastic Constant Matrix: (Units=GPa)
#
#
# Indices 1 2 3 4 5 6 
#
# 1 74.0799 25.3379 44.8420 1.4946 11.3004 -12.9477
# 2 25.3379 47.3863 42.9661 -0.5932 4.9215 -16.1521
# 3 44.8420 42.9661 128.8597 -17.5044 28.0489 0.7442
# 4 1.4946 -0.5932 -17.5044 29.7909 -4.9865 8.4234
# 5 11.3004 4.9215 28.0489 -4.9865 35.1143 -6.8264
# 6 -12.9477 -16.1521 0.7442 8.4234 -6.8264 41.0204
#
#
#
# Elastic Compliance Matrix: (Units=1/GPa)
#
#
# Indices 1 2 3 4 5 6 
#
# 1 0.020022 -0.001297 -0.007670 -0.007632 0.000250 0.007557
# 2 -0.001297 0.046258 -0.019815 -0.015216 0.012133 0.023308
# 3 -0.007670 -0.019815 0.022109 0.015264 -0.013354 -0.015981
# 4 -0.007632 -0.015216 0.015264 0.047258 -0.004616 -0.019150
# 5 0.000250 0.012133 -0.013354 -0.004616 0.039151 0.012562
# 6 0.007557 0.023308 -0.015981 -0.019150 0.012562 0.042254
#
#
# Mechanical properties :
#
#
# Convention : Reuss Voigt Hill
#
# Bulk Modulus (GPa) = 32.44159 52.95756 42.69958
# Shear Modulus (GPa) = 17.55064 30.33044 23.94054
#
# Velocity S-wave (km/s) = 2.78296 3.65848 3.25033
# Velocity P-wave (km/s) = 4.96413 6.41993 5.73838
#
# Compressibility (1/GPa) = 0.03082463
#
# Stress axis : x y z
#
# Youngs Moduli (GPa) = 49.94546 21.61806 45.23072
#
# Poissons Ratio (x) = 0.02805 0.34690
# Poissons Ratio (y) = 0.06480 0.89624
# Poissons Ratio (z) = 0.38306 0.42836
#
# Static dielectric constant tensor:
#      x y z
#    x 1.944760 -0.032310 -0.088640 
#    y -0.032310 1.824250 -0.004630 
#    z -0.088640 -0.004630 1.845540 
# 
# From -- ./inp_files/305195.got.cif
#   From: 2010.05.17/outbox.cif.g08.bks.cpg/sg2_153_cif.got.tgz:305195.got - 2010.06.03 11:33:40.
