data_PCOD9102389
_publ_section_title
;
Structure prediction by ZEFSAII (Michael W. Deem and Ramdas Pophale) SiO2 
 PCOD9102389
Probable space group: P -1
;
_chemical_formula_sum "Si O2"
_cell_formula_units_Z 13
_cell_length_a 9.002048
_cell_length_b 24.419319
_cell_length_c 15.128324
_cell_angle_alpha 160.797453
_cell_angle_beta 148.758010
_cell_angle_gamma 28.398072
_cell_volume 513.913355
_symmetry_space_group_name_H-M "P -1"
_symmetry_group_IT_number 2
_symmetry_cell_setting 'triclinic'
loop_
_space_group_symop_operation_xyz
x,y,z
-x,-y,-z
loop_
_atom_site_type_symbol
_atom_site_label
_atom_site_fract_x
_atom_site_fract_y
_atom_site_fract_z
Si Si1 0.192987 0.259875 0.937905
Si Si2 0.445079 0.971043 0.075659
Si Si3 0.161535 0.730120 0.505580
Si Si4 0.556312 0.790087 0.205992
Si Si5 0.500000 0.500000 0.500000
Si Si6 0.934607 0.345701 0.177436
Si Si7 0.556121 0.316791 0.621863
O O1 0.441224 0.083447 0.848849
O O2 0.331989 0.264121 0.918865
O O3 0.857881 0.257731 0.748872
O O4 0.210248 0.435065 0.258948
O O5 0.403350 0.173029 0.338440
O O6 0.149945 0.926460 0.831501
O O7 0.747797 0.821381 0.948538
O O8 0.370177 0.600573 0.491104
O O9 0.309785 0.699710 0.435982
O O10 0.842481 0.703493 0.289602
O O11 0.500000 0.000000 0.500000
O O12 0.266635 0.743380 0.009454
O O13 0.691364 0.473200 0.174101
O O14 0.000000 0.500000 0.500000
#
# Coordination Sequence:
#
# PCOD9102389 Si02
#       7
#     2   2   2   2   1   2   2
#     4  10  23  42  68  98 138 193 225 293 354 422
#     4  11  24  44  69 103 144 180 234 296 352 419
#     4  10  21  41  66  96 133 192 222 289 349 421
#     4  11  25  45  73 101 143 184 245 287 351 429
#     4  10  20  38  62  94 132 164 246 274 340 414
#     4  12  25  40  70 108 133 182 240 291 345 419
#     4  11  22  41  70  97 142 183 238 280 365 414
#
# _framework density 25.296092999999999
#
# number of rings (size 3 to 8) (size 9 to 14) (size 15 to 20)
#    0.000    1.231    1.538    4.615    4.308    3.077 
#    0.000    6.154    0.000    0.000    0.000    0.000 
#    0.000    0.000    0.000    0.000    0.000    0.000 
#
# Total GULP energy -72498.095733 kJ/mol
# GULP energy per Si atom -5576.776595 kJ/mol
# Density = 2.523852 g / cm^3
# Si number density = 25.296093 Si / 1000 Ang^3
#
#
#
# Elastic Constant Matrix: (Units=GPa)
#
#
# Indices 1 2 3 4 5 6 
#
# 1 76.3607 37.5463 45.7339 -19.2391 16.9475 19.1298
# 2 37.5463 92.5561 30.3513 -15.7628 -6.9938 28.5012
# 3 45.7339 30.3513 132.1286 -1.2456 40.5727 3.3166
# 4 -19.2391 -15.7628 -1.2456 48.9149 -1.2564 0.4661
# 5 16.9475 -6.9938 40.5727 -1.2564 31.3643 -3.7365
# 6 19.1298 28.5012 3.3166 0.4661 -3.7365 41.8273
#
#
#
# Elastic Compliance Matrix: (Units=1/GPa)
#
#
# Indices 1 2 3 4 5 6 
#
# 1 0.024211 -0.005716 -0.003638 0.007399 -0.010294 -0.007892
# 2 -0.005716 0.020496 -0.007496 0.004677 0.016431 -0.009342
# 3 -0.003638 -0.007496 0.017008 -0.003998 -0.021443 0.003552
# 4 0.007399 0.004677 -0.003998 0.024882 0.002462 -0.006311
# 5 -0.010294 0.016431 -0.021443 0.002462 0.069109 0.001359
# 6 -0.007892 -0.009342 0.003552 -0.006311 0.001359 0.033793
#
#
# Mechanical properties :
#
#
# Convention : Reuss Voigt Hill
#
# Bulk Modulus (GPa) = 35.69780 58.70093 47.19937
# Shear Modulus (GPa) = 21.50182 36.91555 29.20868
#
# Velocity S-wave (km/s) = 2.91865 3.82427 3.40173
# Velocity P-wave (km/s) = 5.04981 6.53881 5.84194
#
# Compressibility (1/GPa) = 0.02801293
#
# Stress axis : x y z
#
# Youngs Moduli (GPa) = 41.30301 48.79012 58.79756
#
# Poissons Ratio (x) = 0.27889 0.21392
# Poissons Ratio (y) = 0.23609 0.44077
# Poissons Ratio (z) = 0.15027 0.36575
#
# Static dielectric constant tensor:
#      x y z
#    x 2.009140 -0.000550 0.001580 
#    y -0.000550 2.128280 0.067210 
#    z 0.001580 0.067210 2.097000 
# 
# From -- ./inp_files/156591.got.cif
#   From: 2010.05.17/outbox.cif.g08.bks.cpg/sg2_79_cif.got.tgz:156591.got - 2010.06.03 11:33:40.
