data_PCOD9102665
_publ_section_title
;
Structure prediction by ZEFSAII (Michael W. Deem and Ramdas Pophale) SiO2 
 PCOD9102665
Probable space group: P -1
;
_chemical_formula_sum "Si O2"
_cell_formula_units_Z 14
_cell_length_a 8.148746
_cell_length_b 15.962741
_cell_length_c 16.303885
_cell_angle_alpha 27.154702
_cell_angle_beta 59.256872
_cell_angle_gamma 42.360778
_cell_volume 573.656046
_symmetry_space_group_name_H-M "P -1"
_symmetry_group_IT_number 2
_symmetry_cell_setting 'triclinic'
loop_
_space_group_symop_operation_xyz
x,y,z
-x,-y,-z
loop_
_atom_site_type_symbol
_atom_site_label
_atom_site_fract_x
_atom_site_fract_y
_atom_site_fract_z
Si Si1 0.128426 0.356171 0.453473
Si Si2 0.866580 0.047956 0.176381
Si Si3 0.746807 0.430123 0.172172
Si Si4 0.109995 0.106190 0.926007
Si Si5 0.365697 0.671100 0.470153
Si Si6 0.708484 0.643410 0.158123
Si Si7 0.313342 0.920567 0.413576
O O1 0.456242 0.127086 0.554126
O O2 0.065346 0.590312 0.310307
O O3 0.940027 0.503685 0.290621
O O4 0.081108 0.199068 0.651534
O O5 0.546003 0.319260 0.013982
O O6 0.029688 0.918743 0.332395
O O7 0.040899 0.084471 0.054494
O O8 0.803558 0.545667 0.126466
O O9 0.713782 0.255035 0.378390
O O10 0.014962 0.222190 0.228765
O O11 0.426373 0.953261 0.967868
O O12 0.000000 0.000000 0.000000
O O13 0.500000 0.500000 0.500000
O O14 0.430795 0.455983 0.698482
O O15 0.421926 0.810525 0.388655
#
# Coordination Sequence:
#
# PCOD9102665 Si02
#       7
#     2   2   2   2   2   2   2
#     4  11  25  40  63  99 127 169 219 266 326 382
#     4  11  23  40  66  94 129 168 211 272 323 379
#     4  10  21  43  68  89 125 178 215 264 326 377
#     4  12  21  42  65  92 135 167 211 270 326 383
#     4  10  20  38  63  94 132 168 207 264 322 379
#     4  10  21  40  63  95 130 165 215 266 321 391
#     4  10  22  42  66  92 129 173 219 262 320 386
#
# _framework density 24.404866999999999
#
# number of rings (size 3 to 8) (size 9 to 14) (size 15 to 20)
#    0.000    1.429    4.286    1.286    0.000    2.286 
#    5.143    0.000    0.000    0.000    0.000    0.000 
#    0.000    0.000    0.000    0.000    0.000    0.000 
#
# Total GULP energy -77960.429669 kJ/mol
# GULP energy per Si atom -5568.602119 kJ/mol
# Density = 2.434932 g / cm^3
# Si number density = 24.404867 Si / 1000 Ang^3
#
#
#
# Elastic Constant Matrix: (Units=GPa)
#
#
# Indices 1 2 3 4 5 6 
#
# 1 106.7022 46.3410 40.6358 -24.6518 24.3419 -9.5721
# 2 46.3410 89.8681 42.2820 -22.7770 7.0808 -1.3021
# 3 40.6358 42.2820 138.9646 -29.1770 7.5058 -13.4961
# 4 -24.6518 -22.7770 -29.1770 36.6455 -24.8416 -2.9008
# 5 24.3419 7.0808 7.5058 -24.8416 57.6058 1.9966
# 6 -9.5721 -1.3021 -13.4961 -2.9008 1.9966 22.0806
#
#
#
# Elastic Compliance Matrix: (Units=1/GPa)
#
#
# Indices 1 2 3 4 5 6 
#
# 1 0.014472 -0.005817 -0.001032 0.002920 -0.004217 0.006065
# 2 -0.005817 0.016660 -0.002345 0.006962 0.003801 -0.002402
# 3 -0.001032 -0.002345 0.010544 0.008730 0.002882 0.006745
# 4 0.002920 0.006962 0.008730 0.055161 0.020129 0.012439
# 5 -0.004217 0.003801 0.002882 0.020129 0.026966 0.000363
# 6 0.006065 -0.002402 0.006745 0.012439 0.000363 0.053500
#
#
# Mechanical properties :
#
#
# Convention : Reuss Voigt Hill
#
# Bulk Modulus (GPa) = 42.94080 66.00584 54.47332
# Shear Modulus (GPa) = 24.57560 37.01812 30.79686
#
# Velocity S-wave (km/s) = 3.17676 3.89888 3.55620
# Velocity P-wave (km/s) = 5.57576 6.88282 6.26348
#
# Compressibility (1/GPa) = 0.02328787
#
# Stress axis : x y z
#
# Youngs Moduli (GPa) = 69.10016 60.02284 94.84103
#
# Poissons Ratio (x) = 0.34913 0.09790
# Poissons Ratio (y) = 0.40193 0.22241
# Poissons Ratio (z) = 0.07133 0.14076
#
# Static dielectric constant tensor:
#      x y z
#    x 2.031950 0.063890 -0.041980 
#    y 0.063890 2.052630 -0.008180 
#    z -0.041980 -0.008180 1.978700 
# 
# From -- ./inp_files/561709.got.cif
#   From: 2010.05.17/outbox.cif.g08.bks.cpg/sg2_281_cif.got.tgz:561709.got - 2010.06.03 11:33:40.
