data_PCOD9102441
_publ_section_title
;
Structure prediction by ZEFSAII (Michael W. Deem and Ramdas Pophale) SiO2 
 PCOD9102441
Probable space group: P -1
;
_chemical_formula_sum "Si O2"
_cell_formula_units_Z 14
_cell_length_a 11.805278
_cell_length_b 8.456041
_cell_length_c 10.708599
_cell_angle_alpha 116.394538
_cell_angle_beta 139.458659
_cell_angle_gamma 64.209458
_cell_volume 613.664955
_symmetry_space_group_name_H-M "P -1"
_symmetry_group_IT_number 2
_symmetry_cell_setting 'triclinic'
loop_
_space_group_symop_operation_xyz
x,y,z
-x,-y,-z
loop_
_atom_site_type_symbol
_atom_site_label
_atom_site_fract_x
_atom_site_fract_y
_atom_site_fract_z
Si Si1 0.893556 0.835538 0.847670
Si Si2 0.216745 0.250415 0.551783
Si Si3 0.208011 0.518037 0.321953
Si Si4 0.398417 0.590357 0.826242
Si Si5 0.593228 0.418598 0.727260
Si Si6 0.433460 0.935290 0.288659
Si Si7 0.081833 0.798139 0.531274
O O1 0.855109 0.819237 0.661407
O O2 0.924371 0.625977 0.836561
O O3 0.726985 0.913150 0.824812
O O4 0.000000 0.000000 0.000000
O O5 0.273446 0.441432 0.640669
O O6 0.401320 0.115044 0.682161
O O7 0.074920 0.269314 0.547613
O O8 0.404103 0.419593 0.499535
O O9 0.257967 0.581818 0.250283
O O10 0.139587 0.683503 0.414366
O O11 0.544728 0.585727 0.838721
O O12 0.255869 0.770214 0.758091
O O13 0.500000 0.500000 0.000000
O O14 0.632788 0.248303 0.792231
O O15 0.500000 0.000000 0.500000
O O16 0.000000 0.000000 0.500000
#
# Coordination Sequence:
#
# PCOD9102441 Si02
#       7
#     2   2   2   2   2   2   2
#     4  11  22  38  64  99 133 177 232 290 344 416
#     4  10  21  41  62  94 136 179 235 278 343 423
#     4  10  20  38  63 100 133 171 226 287 352 404
#     4  10  21  42  70 101 134 187 231 284 347 418
#     4   9  18  36  65  95 128 170 224 293 340 403
#     4   9  17  34  59  88 121 167 223 270 336 405
#     4  11  24  40  68 101 139 185 224 287 361 413
#
# _framework density 22.813751
#
# number of rings (size 3 to 8) (size 9 to 14) (size 15 to 20)
#    0.000    2.000    5.714    0.429    4.000    3.429 
#    0.000    2.857    0.000    0.000    0.000    0.000 
#    0.000    0.000    0.000    0.000    0.000    0.000 
#
# Total GULP energy -77959.105000 kJ/mol
# GULP energy per Si atom -5568.507500 kJ/mol
# Density = 2.276183 g / cm^3
# Si number density = 22.813751 Si / 1000 Ang^3
#
#
#
# Elastic Constant Matrix: (Units=GPa)
#
#
# Indices 1 2 3 4 5 6 
#
# 1 172.4373 34.1835 24.5474 -2.3798 2.3065 -17.2880
# 2 34.1835 118.1990 38.4835 -3.9287 1.2783 -19.5817
# 3 24.5474 38.4835 78.9477 1.1394 -1.5663 3.3300
# 4 -2.3798 -3.9287 1.1394 32.5720 4.7173 8.2893
# 5 2.3065 1.2783 -1.5663 4.7173 11.2155 -2.9085
# 6 -17.2880 -19.5817 3.3300 8.2893 -2.9085 33.3295
#
#
#
# Elastic Compliance Matrix: (Units=1/GPa)
#
#
# Indices 1 2 3 4 5 6 
#
# 1 0.006526 -0.000795 -0.001781 -0.000264 -0.000582 0.003111
# 2 -0.000795 0.011742 -0.005774 -0.000248 -0.000030 0.007123
# 3 -0.001781 -0.005774 0.016318 -0.000217 0.001909 -0.005726
# 4 -0.000264 -0.000248 -0.000217 0.035990 -0.017879 -0.010772
# 5 -0.000582 -0.000030 0.001909 -0.017879 0.100364 0.012694
# 6 0.003111 0.007123 -0.005726 -0.010772 0.012694 0.040161
#
#
# Mechanical properties :
#
#
# Convention : Reuss Voigt Hill
#
# Bulk Modulus (GPa) = 55.90762 62.66809 59.28786
# Shear Modulus (GPa) = 21.38922 33.58137 27.48529
#
# Velocity S-wave (km/s) = 3.06528 3.84080 3.47474
# Velocity P-wave (km/s) = 6.08993 6.87009 6.49174
#
# Compressibility (1/GPa) = 0.01788665
#
# Stress axis : x y z
#
# Youngs Moduli (GPa) = 153.22587 85.16340 61.28389
#
# Poissons Ratio (x) = 0.06768 0.10914
# Poissons Ratio (y) = 0.12177 0.35386
# Poissons Ratio (z) = 0.27287 0.49174
#
# Static dielectric constant tensor:
#      x y z
#    x 1.871910 -0.030270 -0.002880 
#    y -0.030270 1.949810 -0.030420 
#    z -0.002880 -0.030420 1.987850 
# 
# From -- ./inp_files/418313.got.cif
#   From: 2010.05.17/outbox.cif.g08.bks.cpg/sg2_210_cif.got.tgz:418313.got - 2010.06.03 11:33:40.
