data_PCOD9102564
_publ_section_title
;
Structure prediction by ZEFSAII (Michael W. Deem and Ramdas Pophale) SiO2 
 PCOD9102564
Probable space group: P -1
;
_chemical_formula_sum "Si O2"
_cell_formula_units_Z 16
_cell_length_a 8.684828
_cell_length_b 8.064448
_cell_length_c 11.696719
_cell_angle_alpha 125.257915
_cell_angle_beta 86.834180
_cell_angle_gamma 88.973960
_cell_volume 666.675494
_symmetry_space_group_name_H-M "P -1"
_symmetry_group_IT_number 2
_symmetry_cell_setting 'triclinic'
loop_
_space_group_symop_operation_xyz
x,y,z
-x,-y,-z
loop_
_atom_site_type_symbol
_atom_site_label
_atom_site_fract_x
_atom_site_fract_y
_atom_site_fract_z
Si Si1 0.379084 0.787795 0.768197
Si Si2 0.980989 0.866823 0.269389
Si Si3 0.729344 0.222429 0.475118
Si Si4 0.299663 0.402310 0.237256
Si Si5 0.495949 0.660783 0.165592
Si Si6 0.687083 0.995906 0.615277
Si Si7 0.763359 0.621942 0.317305
Si Si8 0.878219 0.873596 0.023056
O O1 0.380813 0.761072 0.621823
O O2 0.552705 0.745558 0.790686
O O3 0.270283 0.609047 0.745853
O O4 0.281682 0.993931 0.889099
O O5 0.924754 0.701006 0.296588
O O6 0.151101 0.928131 0.315717
O O7 0.875543 0.075131 0.376042
O O8 0.952867 0.803772 0.113931
O O9 0.764056 0.449573 0.600892
O O10 0.655478 0.101516 0.534282
O O11 0.375840 0.557395 0.210968
O O12 0.171564 0.295082 0.129967
O O13 0.432295 0.893882 0.246480
O O14 0.655286 0.669475 0.229724
O O15 0.500000 0.500000 0.000000
O O16 0.709241 0.761114 0.483794
O O17 0.000000 0.000000 0.000000
#
# Coordination Sequence:
#
# PCOD9102564 Si02
#       8
#     2   2   2   2   2   2   2   2
#     4  10  22  39  63  91 118 153 200 247 297 351
#     4  10  22  41  62  87 122 160 195 243 296 351
#     4   9  19  38  62  88 117 152 198 245 294 346
#     4  10  21  40  62  86 118 157 197 247 298 350
#     4  10  21  37  59  90 121 154 197 246 296 350
#     4  10  21  39  61  87 121 161 198 240 294 350
#     4  10  20  38  63  91 117 152 199 249 296 349
#     4  11  25  42  59  86 122 161 200 241 294 357
#
# _framework density 23.999683000000001
#
# number of rings (size 3 to 8) (size 9 to 14) (size 15 to 20)
#    0.000    2.000    0.000    3.375    0.000    7.000 
#    0.000   13.125    0.000    0.000    0.000    0.000 
#    0.000    0.000    0.000    0.000    0.000    0.000 
#
# Total GULP energy -89440.537556 kJ/mol
# GULP energy per Si atom -5590.033597 kJ/mol
# Density = 2.394506 g / cm^3
# Si number density = 23.999683 Si / 1000 Ang^3
#
#
#
# Elastic Constant Matrix: (Units=GPa)
#
#
# Indices 1 2 3 4 5 6 
#
# 1 71.0162 9.6411 39.2103 -4.7942 17.5797 -4.7498
# 2 9.6411 54.4856 15.4306 -9.7984 6.8647 -6.3223
# 3 39.2103 15.4306 153.0027 3.1397 23.8273 -13.4789
# 4 -4.7942 -9.7984 3.1397 21.4048 4.3184 -3.3275
# 5 17.5797 6.8647 23.8273 4.3184 33.1890 3.4751
# 6 -4.7498 -6.3223 -13.4789 -3.3275 3.4751 12.9471
#
#
#
# Elastic Compliance Matrix: (Units=1/GPa)
#
#
# Indices 1 2 3 4 5 6 
#
# 1 0.019393 0.001596 -0.002695 0.009303 -0.010969 0.010423
# 2 0.001596 0.024651 0.000106 0.016779 -0.010277 0.019804
# 3 -0.002695 0.000106 0.009115 0.001030 -0.006374 0.010528
# 4 0.009303 0.016779 0.001030 0.066171 -0.021459 0.035445
# 5 -0.010969 -0.010277 -0.006374 -0.021459 0.049032 -0.034354
# 6 0.010423 0.019804 0.010528 0.035445 -0.034354 0.120023
#
#
# Mechanical properties :
#
#
# Convention : Reuss Voigt Hill
#
# Bulk Modulus (GPa) = 19.54175 45.22985 32.38580
# Shear Modulus (GPa) = 16.26384 27.78967 22.02676
#
# Velocity S-wave (km/s) = 2.60603 3.40651 3.03280
# Velocity P-wave (km/s) = 4.14914 5.86169 5.07813
#
# Compressibility (1/GPa) = 0.05117250
#
# Stress axis : x y z
#
# Youngs Moduli (GPa) = 51.56406 40.56589 109.71023
#
# Poissons Ratio (x) = -0.06475 0.29571
# Poissons Ratio (y) = -0.08231 -0.01158
# Poissons Ratio (z) = 0.13898 -0.00428
#
# Static dielectric constant tensor:
#      x y z
#    x 0.468460 -1.112520 -2.764630 
#    y -1.112520 1.132960 -1.987800 
#    z -2.764630 -1.987800 -2.875550 
# 
# From -- ./inp_files/223692.got.cif
#   From: 2010.05.17/outbox.cif.g08.bks.cpg/sg2_112_cif.got.tgz:223692.got - 2010.06.03 11:33:40.
