data_PCOD9102280
_publ_section_title
;
Structure prediction by ZEFSAII (Michael W. Deem and Ramdas Pophale) SiO2 
 PCOD9102280
Probable space group: P -1
;
_chemical_formula_sum "Si O2"
_cell_formula_units_Z 14
_cell_length_a 8.053402
_cell_length_b 5.414995
_cell_length_c 18.685417
_cell_angle_alpha 63.288488
_cell_angle_beta 70.160682
_cell_angle_gamma 59.731354
_cell_volume 621.904549
_symmetry_space_group_name_H-M "P -1"
_symmetry_group_IT_number 2
_symmetry_cell_setting 'triclinic'
loop_
_space_group_symop_operation_xyz
x,y,z
-x,-y,-z
loop_
_atom_site_type_symbol
_atom_site_label
_atom_site_fract_x
_atom_site_fract_y
_atom_site_fract_z
Si Si1 0.654416 0.667272 0.539849
Si Si2 0.456990 0.343414 0.876924
Si Si3 0.969488 0.333589 0.436040
Si Si4 0.159993 0.239415 0.729362
Si Si5 0.690040 0.113976 0.999066
Si Si6 0.931256 0.149880 0.095299
Si Si7 0.589030 0.428323 0.289551
O O1 0.747168 0.514313 0.471634
O O2 0.543246 0.540247 0.626378
O O3 0.849957 0.635129 0.556019
O O4 0.500000 0.000000 0.500000
O O5 0.565536 0.378416 0.927503
O O6 0.535438 0.422404 0.782783
O O7 0.226270 0.559775 0.879470
O O8 0.453597 0.017559 0.929140
O O9 0.965114 0.473811 0.340040
O O10 0.000000 0.000000 0.500000
O O11 0.049763 0.130616 0.819819
O O12 0.296434 0.365377 0.735409
O O13 0.278240 0.930593 0.703769
O O14 0.858411 0.875986 0.953160
O O15 0.815318 0.161585 0.037606
#
# Coordination Sequence:
#
# PCOD9102280 Si02
#       7
#     2   2   2   2   2   2   2
#     4  11  24  45  69  98 133 177 223 275 339 403
#     4  10  21  38  61  92 129 164 222 268 321 391
#     4  11  26  43  71 101 134 177 226 278 334 410
#     4  11  24  44  68  99 137 172 223 277 329 399
#     4  10  20  38  62  90 122 175 214 265 330 389
#     4  10  21  38  62  89 129 168 217 267 329 381
#     4  11  24  43  70  97 136 178 218 276 336 388
#
# _framework density 22.511492000000001
#
# number of rings (size 3 to 8) (size 9 to 14) (size 15 to 20)
#    0.000    1.429    2.857    1.714    6.000    1.143 
#    0.000    0.000    3.143    0.000    0.000    0.000 
#    0.000    0.000    0.000    0.000    0.000    0.000 
#
# Total GULP energy -77975.621558 kJ/mol
# GULP energy per Si atom -5569.687254 kJ/mol
# Density = 2.246026 g / cm^3
# Si number density = 22.511492 Si / 1000 Ang^3
#
#
#
# Elastic Constant Matrix: (Units=GPa)
#
#
# Indices 1 2 3 4 5 6 
#
# 1 49.8520 10.0008 31.3839 -1.1184 -0.5379 -2.8713
# 2 10.0008 65.1643 1.1575 -6.8039 1.1175 -10.8934
# 3 31.3839 1.1575 157.2499 -29.3765 4.5455 -11.5938
# 4 -1.1184 -6.8039 -29.3765 32.2670 -8.5528 -1.3482
# 5 -0.5379 1.1175 4.5455 -8.5528 34.8331 -4.8023
# 6 -2.8713 -10.8934 -11.5938 -1.3482 -4.8023 34.3739
#
#
#
# Elastic Compliance Matrix: (Units=1/GPa)
#
#
# Indices 1 2 3 4 5 6 
#
# 1 0.024558 -0.004546 -0.006066 -0.005792 -0.000341 -0.001710
# 2 -0.004546 0.017741 0.002422 0.006467 0.001532 0.006527
# 3 -0.006066 0.002422 0.009606 0.009614 0.001499 0.004087
# 4 -0.005792 0.006467 0.009614 0.043984 0.010348 0.007979
# 5 -0.000341 0.001532 0.001499 0.010348 0.031800 0.005811
# 6 -0.001710 0.006527 0.004087 0.007979 0.005811 0.033521
#
#
# Mechanical properties :
#
#
# Convention : Reuss Voigt Hill
#
# Bulk Modulus (GPa) = 28.14980 39.70564 33.92772
# Shear Modulus (GPa) = 26.39476 35.60975 31.00226
#
# Velocity S-wave (km/s) = 3.42790 3.98156 3.71506
# Velocity P-wave (km/s) = 5.31028 6.23003 5.78845
#
# Compressibility (1/GPa) = 0.03552423
#
# Stress axis : x y z
#
# Youngs Moduli (GPa) = 40.71983 56.36812 104.09905
#
# Poissons Ratio (x) = 0.25625 0.63147
# Poissons Ratio (y) = 0.18511 -0.25210
# Poissons Ratio (z) = 0.24701 -0.13651
#
# Static dielectric constant tensor:
#      x y z
#    x 1.950340 -0.060060 0.150420 
#    y -0.060060 2.051050 -0.035170 
#    z 0.150420 -0.035170 1.996260 
# 
# From -- ./inp_files/7640.got.cif
#   From: 2010.05.17/outbox.cif.g08.bks.cpg/sg2_4_cif.got.tgz:7640.got - 2010.06.03 11:33:40.
