data_PCOD9102189
_publ_section_title
;
Structure prediction by ZEFSAII (Michael W. Deem and Ramdas Pophale) SiO2 
 PCOD9102189
Probable space group: P -1
;
_chemical_formula_sum "Si O2"
_cell_formula_units_Z 16
_cell_length_a 8.750522
_cell_length_b 25.401972
_cell_length_c 21.189108
_cell_angle_alpha 164.248841
_cell_angle_beta 28.466180
_cell_angle_gamma 145.902515
_cell_volume 603.482878
_symmetry_space_group_name_H-M "P -1"
_symmetry_group_IT_number 2
_symmetry_cell_setting 'triclinic'
loop_
_space_group_symop_operation_xyz
x,y,z
-x,-y,-z
loop_
_atom_site_type_symbol
_atom_site_label
_atom_site_fract_x
_atom_site_fract_y
_atom_site_fract_z
Si Si1 0.886724 0.156364 0.797459
Si Si2 0.464936 0.671708 0.760345
Si Si3 0.409333 0.338397 0.074835
Si Si4 0.103156 0.894703 0.957865
Si Si5 0.401926 0.392683 0.848523
Si Si6 0.846338 0.231911 0.683816
Si Si7 0.807297 0.927625 0.739764
Si Si8 0.813778 0.261948 0.429351
O O1 0.744460 0.315158 0.085252
O O2 0.668707 0.216132 0.885275
O O3 0.907649 0.931901 0.556298
O O4 0.243174 0.202988 0.705834
O O5 0.500000 0.500000 0.500000
O O6 0.827264 0.704890 0.681608
O O7 0.293288 0.853775 0.994118
O O8 0.397493 0.574274 0.348783
O O9 0.513949 0.253698 0.869370
O O10 0.070325 0.279911 0.154203
O O11 0.132105 0.050566 0.183674
O O12 0.868478 0.024514 0.142608
O O13 0.482278 0.830650 0.730419
O O14 0.134716 0.539853 0.074972
O O15 0.500000 0.500000 0.000000
O O16 0.687813 0.340862 0.634924
O O17 0.887718 0.150558 0.503971
#
# Coordination Sequence:
#
# PCOD9102189 Si02
#       8
#     2   2   2   2   2   2   2   2
#     4  11  25  42  62  89 121 161 202 241 299 365
#     4  10  20  39  64  90 120 153 200 256 301 351
#     4  11  24  40  60  88 124 164 199 241 299 359
#     4  10  20  38  62  87 124 159 199 252 297 347
#     4  11  23  39  63  90 118 154 199 251 303 350
#     4  10  23  41  62  90 124 160 200 250 296 353
#     4   9  20  38  63  92 119 158 205 249 300 351
#     4  10  22  37  58  90 119 156 202 245 291 355
#
# _framework density 26.512765999999999
#
# number of rings (size 3 to 8) (size 9 to 14) (size 15 to 20)
#    0.000    1.750    0.000    3.375    0.000   10.500 
#    0.000    6.875    0.000    0.000    0.000    0.000 
#    0.000    0.000    0.000    0.000    0.000    0.000 
#
# Total GULP energy -89317.078585 kJ/mol
# GULP energy per Si atom -5582.317412 kJ/mol
# Density = 2.645242 g / cm^3
# Si number density = 26.512766 Si / 1000 Ang^3
#
#
#
# Elastic Constant Matrix: (Units=GPa)
#
#
# Indices 1 2 3 4 5 6 
#
# 1 78.2420 43.3276 57.2207 -14.4271 3.3577 -13.8528
# 2 43.3276 109.3401 32.2397 24.0369 -0.6123 -19.7728
# 3 57.2207 32.2397 118.9397 17.4551 -17.3381 -22.2338
# 4 -14.4271 24.0369 17.4551 -21.6956 -3.4417 -3.0043
# 5 3.3577 -0.6123 -17.3381 -3.4417 49.9112 -5.8534
# 6 -13.8528 -19.7728 -22.2338 -3.0043 -5.8534 27.2514
#
#
#
# Elastic Compliance Matrix: (Units=1/GPa)
#
#
# Indices 1 2 3 4 5 6 
#
# 1 0.014661 -0.001108 -0.005171 -0.014536 -0.003797 0.000011
# 2 -0.001108 0.009348 -0.002103 0.008517 0.000702 0.005594
# 3 -0.005171 -0.002103 0.012650 0.009098 0.006344 0.008532
# 4 -0.014536 0.008517 0.009098 -0.020843 0.003349 0.004635
# 5 -0.003797 0.000702 0.006344 0.003349 0.023818 0.009241
# 6 0.000011 0.005594 0.008532 0.004635 0.009241 0.050217
#
#
# Mechanical properties :
#
#
# Convention : Reuss Voigt Hill
#
# Bulk Modulus (GPa) = 50.26336 63.56644 56.91490
# Shear Modulus (GPa) = 44.15184 22.67564 33.41374
#
# Velocity S-wave (km/s) = 4.08524 2.92768 3.55391
# Velocity P-wave (km/s) = 6.42274 5.95451 6.19305
#
# Compressibility (1/GPa) = 0.01989521
#
# Stress axis : x y z
#
# Youngs Moduli (GPa) = 68.20925 106.97280 79.05333
#
# Poissons Ratio (x) = 0.11857 0.40876
# Poissons Ratio (y) = 0.07561 0.16621
# Poissons Ratio (z) = 0.35269 0.22491
#
# Static dielectric constant tensor:
#      x y z
#    x 2.211960 -0.100540 -0.099750 
#    y -0.100540 2.156470 0.100820 
#    z -0.099750 0.100820 2.231300 
# 
# From -- ./inp_files/591974.got.cif
#   From: 2010.05.17/outbox.cif.g08.bks.cpg/sg2_296_cif.got.tgz:591974.got - 2010.06.03 11:33:40.
