data_PCOD9102789
_publ_section_title
;
Structure prediction by ZEFSAII (Michael W. Deem and Ramdas Pophale) SiO2 
 PCOD9102789
Probable space group: P -1
;
_chemical_formula_sum "Si O2"
_cell_formula_units_Z 10
_cell_length_a 8.376356
_cell_length_b 14.135641
_cell_length_c 5.112975
_cell_angle_alpha 98.467079
_cell_angle_beta 86.550455
_cell_angle_gamma 141.418180
_cell_volume 371.949442
_symmetry_space_group_name_H-M "P -1"
_symmetry_group_IT_number 2
_symmetry_cell_setting 'triclinic'
loop_
_space_group_symop_operation_xyz
x,y,z
-x,-y,-z
loop_
_atom_site_type_symbol
_atom_site_label
_atom_site_fract_x
_atom_site_fract_y
_atom_site_fract_z
Si Si1 0.197981 0.880443 0.483297
Si Si2 0.947058 0.367058 0.368998
Si Si3 0.506269 0.622991 0.348856
Si Si4 0.802399 0.762143 0.881301
Si Si5 0.386931 0.140132 0.274791
O O1 0.076751 0.717749 0.420403
O O2 0.070292 0.859061 0.757244
O O3 0.500000 0.000000 0.500000
O O4 0.196070 0.968088 0.318447
O O5 0.668965 0.233753 0.201005
O O6 0.000000 0.500000 0.500000
O O7 0.212372 0.465720 0.239417
O O8 0.593200 0.629600 0.629722
O O9 0.547586 0.757798 0.446169
O O10 0.704630 0.682195 0.136649
O O11 0.745094 0.849116 0.906417
#
# Coordination Sequence:
#
# PCOD9102789 Si02
#       5
#     2   2   2   2   2
#     4  10  20  38  64  87 127 158 208 247 307 355
#     4   9  18  39  61  92 123 163 200 251 300 360
#     4   9  21  38  65  90 125 157 199 247 305 355
#     4  10  21  39  66  90 123 157 204 248 301 359
#     4   8  19  38  62  91 122 161 198 249 299 364
#
# _framework density 26.885376000000001
#
# number of rings (size 3 to 8) (size 9 to 14) (size 15 to 20)
#    1.200    1.600    0.000    0.600    0.000    3.200 
#    0.000    1.000   13.200    0.000    0.000    0.000 
#    0.000    0.000    0.000    0.000    0.000    0.000 
#
# Total GULP energy -55781.925326 kJ/mol
# GULP energy per Si atom -5578.192533 kJ/mol
# Density = 2.682418 g / cm^3
# Si number density = 26.885376 Si / 1000 Ang^3
#
#
#
# Elastic Constant Matrix: (Units=GPa)
#
#
# Indices 1 2 3 4 5 6 
#
# 1 123.9550 42.4979 -3.2015 -11.2972 -16.7281 17.2163
# 2 42.4979 175.6607 18.5898 -23.9631 -6.9754 11.6788
# 3 -3.2015 18.5898 61.1371 -3.8400 -10.7221 24.4168
# 4 -11.2972 -23.9631 -3.8400 22.9610 4.9862 -6.9238
# 5 -16.7281 -6.9754 -10.7221 4.9862 29.5454 -27.2352
# 6 17.2163 11.6788 24.4168 -6.9238 -27.2352 78.1653
#
#
#
# Elastic Compliance Matrix: (Units=1/GPa)
#
#
# Indices 1 2 3 4 5 6 
#
# 1 0.009792 -0.002152 0.002430 0.001683 0.004979 -0.000710
# 2 -0.002152 0.007270 -0.002220 0.006487 -0.001175 0.000246
# 3 0.002430 -0.002220 0.019826 -0.000094 0.003179 -0.005297
# 4 0.001683 0.006487 -0.000094 0.052700 -0.004933 0.001639
# 5 0.004979 -0.001175 0.003179 -0.004933 0.053338 0.016234
# 6 -0.000710 0.000246 -0.005297 0.001639 0.016234 0.020369
#
#
# Mechanical properties :
#
#
# Convention : Reuss Voigt Hill
#
# Bulk Modulus (GPa) = 30.29964 52.94726 41.62345
# Shear Modulus (GPa) = 28.06125 46.32544 37.19335
#
# Velocity S-wave (km/s) = 3.23420 4.15549 3.72345
# Velocity P-wave (km/s) = 5.02405 6.53916 5.83103
#
# Compressibility (1/GPa) = 0.03300370
#
# Stress axis : x y z
#
# Youngs Moduli (GPa) = 102.12612 137.54821 50.43810
#
# Poissons Ratio (x) = 0.29594 -0.12254
# Poissons Ratio (y) = 0.21972 0.11199
# Poissons Ratio (z) = -0.24812 0.30540
#
# Static dielectric constant tensor:
#      x y z
#    x 2.206340 -0.040580 0.058650 
#    y -0.040580 2.136820 0.044730 
#    z 0.058650 0.044730 2.050940 
# 
# From -- ./inp_files/32480.got.cif
#   From: 2010.05.17/outbox.cif.g08.bks.cpg/sg2_17_cif.got.tgz:32480.got - 2010.06.03 11:33:40.
