data_PCOD9102304
_publ_section_title
;
Structure prediction by ZEFSAII (Michael W. Deem and Ramdas Pophale) SiO2 
 PCOD9102304
Probable space group: P -1
;
_chemical_formula_sum "Si O2"
_cell_formula_units_Z 16
_cell_length_a 8.011655
_cell_length_b 31.100124
_cell_length_c 15.927802
_cell_angle_alpha 18.129896
_cell_angle_beta 44.414803
_cell_angle_gamma 37.434516
_cell_volume 733.389361
_symmetry_space_group_name_H-M "P -1"
_symmetry_group_IT_number 2
_symmetry_cell_setting 'triclinic'
loop_
_space_group_symop_operation_xyz
x,y,z
-x,-y,-z
loop_
_atom_site_type_symbol
_atom_site_label
_atom_site_fract_x
_atom_site_fract_y
_atom_site_fract_z
Si Si1 0.394353 0.508482 0.783854
Si Si2 0.949170 0.655924 0.145596
Si Si3 0.187239 0.055933 0.438096
Si Si4 0.443159 0.834489 0.602032
Si Si5 0.488716 0.586625 0.428720
Si Si6 0.191325 0.854954 0.265497
Si Si7 0.074566 0.940495 0.857101
Si Si8 0.688691 0.883014 0.978103
O O1 0.378588 0.526087 0.656049
O O2 0.201245 0.687949 0.557104
O O3 0.720714 0.449224 0.793419
O O4 0.369223 0.359915 0.101217
O O5 0.793585 0.558141 0.391373
O O6 0.809465 0.783354 0.882171
O O7 0.873006 0.771912 0.039603
O O8 0.869239 0.112131 0.417978
O O9 0.394866 0.910013 0.572263
O O10 0.212495 0.998346 0.630849
O O11 0.515460 0.937752 0.322357
O O12 0.500000 0.500000 0.500000
O O13 0.289178 0.779988 0.129579
O O14 0.502132 0.819337 0.201311
O O15 0.098685 0.920010 0.271838
O O16 0.000000 0.000000 0.000000
O O17 0.879419 0.896193 0.955437
#
# Coordination Sequence:
#
# PCOD9102304 Si02
#       8
#     2   2   2   2   2   2   2   2
#     4  11  21  38  61  85 119 154 195 241 291 344
#     4  10  20  38  62  91 113 153 193 244 303 335
#     4   8  16  34  60  84 118 146 190 242 291 348
#     4   8  16  34  61  90 109 146 194 244 297 331
#     4  12  23  34  58  90 123 143 193 252 289 343
#     4  12  24  41  57  82 121 166 197 230 286 353
#     4  11  22  38  58  87 118 158 195 232 289 350
#     4  10  20  40  66  85 115 155 197 241 289 352
#
# _framework density 21.816516
#
# number of rings (size 3 to 8) (size 9 to 14) (size 15 to 20)
#    0.000    1.750    2.500    4.500    1.750    0.500 
#    0.000    7.500    0.000    0.000    0.000    0.000 
#    0.000    0.000    0.000    0.000    0.000    0.000 
#
# Total GULP energy -89459.267714 kJ/mol
# GULP energy per Si atom -5591.204232 kJ/mol
# Density = 2.176686 g / cm^3
# Si number density = 21.816516 Si / 1000 Ang^3
#
#
#
# Elastic Constant Matrix: (Units=GPa)
#
#
# Indices 1 2 3 4 5 6 
#
# 1 62.6822 18.1396 8.4423 -6.4493 4.7597 12.8159
# 2 18.1396 48.2628 17.9645 -8.6703 3.2158 8.1914
# 3 8.4423 17.9645 146.5299 -7.0502 5.4890 2.7622
# 4 -6.4493 -8.6703 -7.0502 38.8033 2.7029 -0.0575
# 5 4.7597 3.2158 5.4890 2.7029 33.5753 -0.2248
# 6 12.8159 8.1914 2.7622 -0.0575 -0.2248 23.7917
#
#
#
# Elastic Compliance Matrix: (Units=1/GPa)
#
#
# Indices 1 2 3 4 5 6 
#
# 1 0.019725 -0.005307 -0.000118 0.002233 -0.002507 -0.008803
# 2 -0.005307 0.025496 -0.002435 0.004482 -0.001690 -0.005642
# 3 -0.000118 -0.002435 0.007205 0.000815 -0.000993 0.000058
# 4 0.002233 0.004482 0.000815 0.027504 -0.003112 -0.002803
# 5 -0.002507 -0.001690 -0.000993 -0.003112 0.030730 0.002331
# 6 -0.008803 -0.005642 0.000058 -0.002803 0.002331 0.048724
#
#
# Mechanical properties :
#
#
# Convention : Reuss Voigt Hill
#
# Bulk Modulus (GPa) = 27.24409 38.50755 32.87582
# Shear Modulus (GPa) = 26.68931 33.42929 30.05930
#
# Velocity S-wave (km/s) = 3.50144 3.91870 3.71593
# Velocity P-wave (km/s) = 5.37231 6.17769 5.78902
#
# Compressibility (1/GPa) = 0.03670520
#
# Stress axis : x y z
#
# Youngs Moduli (GPa) = 50.69654 39.22146 138.78911
#
# Poissons Ratio (x) = 0.20817 0.01645
# Poissons Ratio (y) = 0.26907 0.33792
# Poissons Ratio (z) = 0.00601 0.09549
#
# Static dielectric constant tensor:
#      x y z
#    x 1.823430 -0.045390 0.006540 
#    y -0.045390 1.761830 0.007910 
#    z 0.006540 0.007910 1.846840 
# 
# From -- ./inp_files/345144.got.cif
#   From: 2010.05.17/outbox.cif.g08.bks.cpg/sg2_173_cif.got.tgz:345144.got - 2010.06.03 11:33:40.
