data_PCOD9102532
_publ_section_title
;
Structure prediction by ZEFSAII (Michael W. Deem and Ramdas Pophale) SiO2 
 PCOD9102532
Probable space group: P -1
;
_chemical_formula_sum "Si O2"
_cell_formula_units_Z 16
_cell_length_a 14.679470
_cell_length_b 11.690343
_cell_length_c 8.932049
_cell_angle_alpha 58.896091
_cell_angle_beta 70.940835
_cell_angle_gamma 118.866946
_cell_volume 735.986374
_symmetry_space_group_name_H-M "P -1"
_symmetry_group_IT_number 2
_symmetry_cell_setting 'triclinic'
loop_
_space_group_symop_operation_xyz
x,y,z
-x,-y,-z
loop_
_atom_site_type_symbol
_atom_site_label
_atom_site_fract_x
_atom_site_fract_y
_atom_site_fract_z
Si Si1 0.435182 0.099154 0.348403
Si Si2 0.454732 0.840950 0.437424
Si Si3 0.087501 0.792451 0.808544
Si Si4 0.144694 0.086421 0.779011
Si Si5 0.577600 0.731373 0.307215
Si Si6 0.962629 0.406728 0.336100
Si Si7 0.753586 0.289797 0.787390
Si Si8 0.594754 0.393993 0.788016
O O1 0.549400 0.182925 0.365885
O O2 0.371201 0.893632 0.435940
O O3 0.281186 0.992029 0.579093
O O4 0.531235 0.302331 0.050961
O O5 0.442390 0.676946 0.495022
O O6 0.621744 0.063357 0.109722
O O7 0.051038 0.717343 0.705623
O O8 0.060483 0.908186 0.811679
O O9 0.006589 0.591954 0.096072
O O10 0.248755 0.098224 0.820722
O O11 0.276338 0.343086 0.479216
O O12 0.000000 0.000000 0.000000
O O13 0.500000 0.500000 0.500000
O O14 0.565366 0.763912 0.120341
O O15 0.821643 0.284663 0.613474
O O16 0.105995 0.525366 0.292604
O O17 0.676591 0.342919 0.737269
#
# Coordination Sequence:
#
# PCOD9102532 Si02
#       8
#     2   2   2   2   2   2   2   2
#     4  10  21  38  62  93 128 160 203 271 311 374
#     4  10  20  38  63  89 125 169 201 259 326 364
#     4  11  22  41  62  93 128 172 214 259 325 374
#     4  11  23  46  68  88 128 174 212 264 320 382
#     4  10  22  42  62  94 122 164 217 254 314 384
#     4  10  22  37  63  94 131 166 212 265 315 379
#     4  10  20  40  62  95 129 167 212 266 309 380
#     4  10  24  39  65  96 124 165 218 255 321 378
#
# _framework density 21.739533000000002
#
# number of rings (size 3 to 8) (size 9 to 14) (size 15 to 20)
#    0.000    1.750    2.500    0.750    3.500    2.500 
#    2.250    0.625    0.000    0.000    0.000    0.000 
#    0.000    0.000    0.000    0.000    0.000    0.000 
#
# Total GULP energy -89143.679606 kJ/mol
# GULP energy per Si atom -5571.479975 kJ/mol
# Density = 2.169005 g / cm^3
# Si number density = 21.739533 Si / 1000 Ang^3
#
#
#
# Elastic Constant Matrix: (Units=GPa)
#
#
# Indices 1 2 3 4 5 6 
#
# 1 79.2429 46.9394 36.6977 10.1612 15.9066 1.4736
# 2 46.9394 131.7941 38.5812 15.6859 9.3438 -8.9873
# 3 36.6977 38.5812 112.9927 21.3058 11.2243 -2.2201
# 4 10.1612 15.6859 21.3058 32.6094 -3.9692 3.3614
# 5 15.9066 9.3438 11.2243 -3.9692 29.2898 9.1940
# 6 1.4736 -8.9873 -2.2201 3.3614 9.1940 50.9407
#
#
#
# Elastic Compliance Matrix: (Units=1/GPa)
#
#
# Indices 1 2 3 4 5 6 
#
# 1 0.018916 -0.004961 -0.003238 -0.002336 -0.007763 -0.000008
# 2 -0.004961 0.010310 -0.001157 -0.003058 -0.001303 0.002349
# 3 -0.003238 -0.001157 0.012023 -0.006929 -0.003914 0.001577
# 4 -0.002336 -0.003058 -0.006929 0.039421 0.011980 -0.005537
# 5 -0.007763 -0.001303 -0.003914 0.011980 0.044735 -0.009040
# 6 -0.000008 0.002349 0.001577 -0.005537 -0.009040 0.022111
#
#
# Mechanical properties :
#
#
# Convention : Reuss Voigt Hill
#
# Bulk Modulus (GPa) = 44.37162 63.16293 53.76728
# Shear Modulus (GPa) = 28.77873 36.02207 32.40040
#
# Velocity S-wave (km/s) = 3.64235 4.07502 3.86475
# Velocity P-wave (km/s) = 6.17607 7.15951 6.68590
#
# Compressibility (1/GPa) = 0.02253693
#
# Stress axis : x y z
#
# Youngs Moduli (GPa) = 52.86595 96.99559 83.17388
#
# Poissons Ratio (x) = 0.48122 0.26931
# Poissons Ratio (y) = 0.26228 0.09620
# Poissons Ratio (z) = 0.17117 0.11219
#
# Static dielectric constant tensor:
#      x y z
#    x 1.888740 0.010560 -0.007850 
#    y 0.010560 1.891570 -0.019560 
#    z -0.007850 -0.019560 1.753970 
# 
# From -- ./inp_files/306730.got.cif
#   From: 2010.05.17/outbox.cif.g08.bks.cpg/sg2_154_cif.got.tgz:306730.got - 2010.06.03 11:33:40.
