data_PCOD9102842
_publ_section_title
;
Structure prediction by ZEFSAII (Michael W. Deem and Ramdas Pophale) SiO2 
 PCOD9102842
Probable space group: P -1
;
_chemical_formula_sum "Si O2"
_cell_formula_units_Z 14
_cell_length_a 16.579031
_cell_length_b 8.966971
_cell_length_c 7.870063
_cell_angle_alpha 71.112413
_cell_angle_beta 41.488774
_cell_angle_gamma 57.699875
_cell_volume 648.999025
_symmetry_space_group_name_H-M "P -1"
_symmetry_group_IT_number 2
_symmetry_cell_setting 'triclinic'
loop_
_space_group_symop_operation_xyz
x,y,z
-x,-y,-z
loop_
_atom_site_type_symbol
_atom_site_label
_atom_site_fract_x
_atom_site_fract_y
_atom_site_fract_z
Si Si1 0.925624 0.597067 0.250874
Si Si2 0.850692 0.730226 0.795112
Si Si3 0.661199 0.550267 0.104510
Si Si4 0.973990 0.904781 0.739227
Si Si5 0.741174 0.449098 0.633012
Si Si6 0.104622 0.070141 0.673941
Si Si7 0.652426 0.321862 0.508908
O O1 0.773634 0.614291 0.491430
O O2 0.928326 0.782468 0.186104
O O3 0.017092 0.460667 0.304356
O O4 0.000000 0.500000 0.000000
O O5 0.866561 0.828457 0.567651
O O6 0.851848 0.858412 0.899869
O O7 0.727790 0.680792 0.986089
O O8 0.698357 0.413113 0.252969
O O9 0.496373 0.655308 0.313882
O O10 0.711431 0.451984 0.878818
O O11 0.114438 0.718938 0.585136
O O12 0.980428 0.028276 0.834054
O O13 0.000000 0.000000 0.500000
O O14 0.640171 0.429731 0.664277
O O15 0.238181 0.883346 0.562855
#
# Coordination Sequence:
#
# PCOD9102842 Si02
#       7
#     2   2   2   2   2   2   2
#     4  11  22  38  65  95 130 164 203 259 322 388
#     4  10  20  38  64  90 122 167 204 246 324 382
#     4  11  22  40  70  85 128 175 209 263 316 374
#     4   8  18  33  59  90 125 150 201 253 308 374
#     4  10  20  40  61  90 123 172 207 254 319 384
#     4  10  20  41  62  91 130 160 208 264 311 372
#     4  10  24  43  61  94 124 166 223 262 311 368
#
# _framework density 21.571681999999999
#
# number of rings (size 3 to 8) (size 9 to 14) (size 15 to 20)
#    0.000    2.000    1.429    1.714    4.000    0.571 
#   10.286    4.286    0.000    2.571    0.000    0.000 
#    0.000    0.000    0.000    0.000    0.000    0.000 
#
# Total GULP energy -78150.571015 kJ/mol
# GULP energy per Si atom -5582.183644 kJ/mol
# Density = 2.152258 g / cm^3
# Si number density = 21.571682 Si / 1000 Ang^3
#
#
#
# Elastic Constant Matrix: (Units=GPa)
#
#
# Indices 1 2 3 4 5 6 
#
# 1 148.1282 75.2945 45.8027 -12.2355 0.2222 36.7076
# 2 75.2945 141.0990 49.9410 -26.9830 -3.5339 22.9800
# 3 45.8027 49.9410 75.8216 -15.5509 8.4329 13.2220
# 4 -12.2355 -26.9830 -15.5509 34.8930 10.4170 3.6733
# 5 0.2222 -3.5339 8.4329 10.4170 47.8231 -4.5898
# 6 36.7076 22.9800 13.2220 3.6733 -4.5898 52.5730
#
#
#
# Elastic Compliance Matrix: (Units=1/GPa)
#
#
# Indices 1 2 3 4 5 6 
#
# 1 0.011002 -0.003911 -0.003105 0.000094 -0.000315 -0.005226
# 2 -0.003911 0.012142 -0.003955 0.006467 0.000009 -0.002033
# 3 -0.003105 -0.003955 0.019989 0.006603 -0.005439 -0.002067
# 4 0.000094 0.006467 0.006603 0.040590 -0.010324 -0.008290
# 5 -0.000315 0.000009 -0.005439 -0.010324 0.024547 0.004448
# 6 -0.005226 -0.002033 -0.002067 -0.008290 0.004448 0.025046
#
#
# Mechanical properties :
#
#
# Convention : Reuss Voigt Hill
#
# Bulk Modulus (GPa) = 47.18844 78.56944 62.87894
# Shear Modulus (GPa) = 30.80289 39.99186 35.39738
#
# Velocity S-wave (km/s) = 3.78290 4.31037 4.05522
# Velocity P-wave (km/s) = 6.40337 7.82777 7.15112
#
# Compressibility (1/GPa) = 0.02119163
#
# Stress axis : x y z
#
# Youngs Moduli (GPa) = 90.89211 82.35759 50.02739
#
# Poissons Ratio (x) = 0.32210 0.15532
# Poissons Ratio (y) = 0.35548 0.19787
# Poissons Ratio (z) = 0.28218 0.32574
#
# Static dielectric constant tensor:
#      x y z
#    x 1.903150 0.061440 0.048990 
#    y 0.061440 3.608370 -1.362890 
#    z 0.048990 -1.362890 2.797300 
# 
# From -- ./inp_files/325859.got.cif
#   From: 2010.05.17/outbox.cif.g08.bks.cpg/sg2_163_cif.got.tgz:325859.got - 2010.06.03 11:33:40.
