data_PCOD9102384
_publ_section_title
;
Structure prediction by ZEFSAII (Michael W. Deem and Ramdas Pophale) SiO2 
 PCOD9102384
Probable space group: P -1
;
_chemical_formula_sum "Si O2"
_cell_formula_units_Z 14
_cell_length_a 12.052453
_cell_length_b 13.491169
_cell_length_c 13.469732
_cell_angle_alpha 159.236123
_cell_angle_beta 79.876321
_cell_angle_gamma 109.477187
_cell_volume 668.687203
_symmetry_space_group_name_H-M "P -1"
_symmetry_group_IT_number 2
_symmetry_cell_setting 'triclinic'
loop_
_space_group_symop_operation_xyz
x,y,z
-x,-y,-z
loop_
_atom_site_type_symbol
_atom_site_label
_atom_site_fract_x
_atom_site_fract_y
_atom_site_fract_z
Si Si1 0.582473 0.304043 0.901855
Si Si2 0.775549 0.665870 0.524358
Si Si3 0.208162 0.525687 0.360046
Si Si4 0.577756 0.254055 0.313121
Si Si5 0.603386 0.432076 0.800029
Si Si6 0.041431 0.794788 0.692919
Si Si7 0.320014 0.921504 0.151478
O O1 0.639414 0.502112 0.976790
O O2 0.677483 0.273643 0.936073
O O3 0.489150 0.942917 0.547093
O O4 0.487386 0.415847 0.070989
O O5 0.664571 0.585521 0.550732
O O6 0.916249 0.787848 0.659340
O O7 0.762527 0.897763 0.664715
O O8 0.735928 0.330289 0.164715
O O9 0.309161 0.742747 0.633387
O O10 0.281693 0.496406 0.225183
O O11 0.123460 0.698838 0.514490
O O12 0.126040 0.153476 0.057250
O O13 0.466994 0.184305 0.345742
O O14 0.500000 0.000000 0.000000
O O15 0.000000 0.500000 0.500000
#
# Coordination Sequence:
#
# PCOD9102384 Si02
#       7
#     2   2   2   2   2   2   2
#     4  10  20  38  62  94 128 155 198 251 328 378
#     4  11  24  39  57  85 125 165 212 244 298 366
#     4  12  24  40  68  89 130 164 212 260 309 361
#     4  10  23  38  60  94 129 161 200 250 320 379
#     4  10  21  37  63  95 124 158 199 259 312 382
#     4  12  26  43  62  87 122 178 221 257 289 357
#     4  11  22  38  61  88 125 160 193 257 316 375
#
# _framework density 20.936544000000001
#
# number of rings (size 3 to 8) (size 9 to 14) (size 15 to 20)
#    0.000    1.143    2.857    3.429    2.000    1.143 
#    0.000    0.000    0.000    5.143    0.000    0.000 
#    0.000    0.000    0.000    0.000    0.000    0.000 
#
# Total GULP energy -78063.511608 kJ/mol
# GULP energy per Si atom -5575.965115 kJ/mol
# Density = 2.088889 g / cm^3
# Si number density = 20.936544 Si / 1000 Ang^3
#
#
#
# Elastic Constant Matrix: (Units=GPa)
#
#
# Indices 1 2 3 4 5 6 
#
# 1 134.8679 44.8835 51.1429 1.4488 -4.6451 -20.6076
# 2 44.8835 81.5989 9.0937 -6.2224 7.7762 -3.1017
# 3 51.1429 9.0937 90.7549 0.1338 -4.4708 3.1913
# 4 1.4488 -6.2224 0.1338 23.6185 -5.2909 -5.9381
# 5 -4.6451 7.7762 -4.4708 -5.2909 40.4685 -2.8418
# 6 -20.6076 -3.1017 3.1913 -5.9381 -2.8418 30.1668
#
#
#
# Elastic Compliance Matrix: (Units=1/GPa)
#
#
# Indices 1 2 3 4 5 6 
#
# 1 0.014181 -0.006806 -0.007525 0.000585 0.002895 0.010172
# 2 -0.006806 0.016221 0.002138 0.003175 -0.003451 -0.002908
# 3 -0.007525 0.002138 0.015274 -0.000784 -0.000160 -0.006706
# 4 0.000585 0.003175 -0.000784 0.047246 0.006299 0.010703
# 5 0.002895 -0.003451 -0.000160 0.006299 0.026892 0.005413
# 6 0.010172 -0.002908 -0.006706 0.010703 0.005413 0.043125
#
#
# Mechanical properties :
#
#
# Convention : Reuss Voigt Hill
#
# Bulk Modulus (GPa) = 46.97345 57.49577 52.23461
# Shear Modulus (GPa) = 25.71709 32.32422 29.02066
#
# Velocity S-wave (km/s) = 3.50856 3.93353 3.72711
# Velocity P-wave (km/s) = 6.23684 6.93915 6.59734
#
# Compressibility (1/GPa) = 0.02128862
#
# Stress axis : x y z
#
# Youngs Moduli (GPa) = 70.51674 61.64836 65.46949
#
# Poissons Ratio (x) = 0.41959 0.49268
# Poissons Ratio (y) = 0.47995 -0.13995
# Poissons Ratio (z) = 0.53066 -0.13179
#
# Static dielectric constant tensor:
#      x y z
#    x 1.756940 0.011540 0.018740 
#    y 0.011540 1.861900 -0.007080 
#    z 0.018740 -0.007080 1.726920 
# 
# From -- ./inp_files/521163.got.cif
#   From: 2010.05.17/outbox.cif.g08.bks.cpg/sg2_261_cif.got.tgz:521163.got - 2010.06.03 11:33:40.
