data_PCOD9102928
_publ_section_title
;
Structure prediction by ZEFSAII (Michael W. Deem and Ramdas Pophale) SiO2 
 PCOD9102928
Probable space group: P -1
;
_chemical_formula_sum "Si O2"
_cell_formula_units_Z 14
_cell_length_a 9.599152
_cell_length_b 13.566695
_cell_length_c 10.259449
_cell_angle_alpha 31.249007
_cell_angle_beta 109.740506
_cell_angle_gamma 117.726296
_cell_volume 608.260704
_symmetry_space_group_name_H-M "P -1"
_symmetry_group_IT_number 2
_symmetry_cell_setting 'triclinic'
loop_
_space_group_symop_operation_xyz
x,y,z
-x,-y,-z
loop_
_atom_site_type_symbol
_atom_site_label
_atom_site_fract_x
_atom_site_fract_y
_atom_site_fract_z
Si Si1 0.883542 0.981359 0.864186
Si Si2 0.713485 0.459125 0.008781
Si Si3 0.145713 0.149406 0.544504
Si Si4 0.539526 0.717762 0.330828
Si Si5 0.396429 0.908898 0.267981
Si Si6 0.352011 0.349575 0.978904
Si Si7 0.304819 0.977165 0.580405
O O1 0.761600 0.749286 0.065578
O O2 0.775854 0.114484 0.709941
O O3 0.988152 0.053515 0.686148
O O4 0.000000 0.000000 0.000000
O O5 0.839440 0.648614 0.759758
O O6 0.702389 0.508950 0.101253
O O7 0.541114 0.444502 0.911766
O O8 0.735624 0.248744 0.228600
O O9 0.291484 0.209491 0.624996
O O10 0.179181 0.997938 0.622399
O O11 0.500000 0.500000 0.500000
O O12 0.412879 0.731367 0.383320
O O13 0.548435 0.886962 0.034306
O O14 0.525707 0.954899 0.370069
O O15 0.329090 0.147545 0.286672
#
# Coordination Sequence:
#
# PCOD9102928 Si02
#       7
#     2   2   2   2   2   2   2
#     4  12  24  44  62  93 140 176 198 261 329 388
#     4  10  20  40  69  98 116 162 222 270 302 370
#     4  10  23  39  63  94 131 166 207 260 328 371
#     4  10  20  38  64  93 122 166 222 266 296 375
#     4  10  21  38  65  92 123 171 212 256 322 374
#     4  10  23  40  69  95 125 164 216 267 317 367
#     4  10  20  41  70  93 120 163 220 270 309 374
#
# _framework density 23.016448
#
# number of rings (size 3 to 8) (size 9 to 14) (size 15 to 20)
#    0.000    1.714    2.857    1.286    0.000    2.286 
#    0.000    5.000    0.000    0.000    0.000    0.000 
#    0.000    0.000    0.000    0.000    0.000    0.000 
#
# Total GULP energy -78455.098542 kJ/mol
# GULP energy per Si atom -5603.935610 kJ/mol
# Density = 2.296406 g / cm^3
# Si number density = 23.016448 Si / 1000 Ang^3
#
#
#
# Elastic Constant Matrix: (Units=GPa)
#
#
# Indices 1 2 3 4 5 6 
#
# 1 160.4680 44.8561 36.8174 -13.7021 -6.1599 -26.5756
# 2 44.8561 133.3875 34.2228 -24.0410 17.5882 -10.0987
# 3 36.8174 34.2228 85.1810 -19.2453 12.7659 -16.3047
# 4 -13.7021 -24.0410 -19.2453 41.3448 -11.0539 19.0197
# 5 -6.1599 17.5882 12.7659 -11.0539 41.9578 -5.5363
# 6 -26.5756 -10.0987 -16.3047 19.0197 -5.5363 47.2393
#
#
#
# Elastic Compliance Matrix: (Units=1/GPa)
#
#
# Indices 1 2 3 4 5 6 
#
# 1 0.008180 -0.002384 -0.002490 -0.000764 0.003274 0.003924
# 2 -0.002384 0.009775 -0.001882 0.004076 -0.003052 -0.001900
# 3 -0.002490 -0.001882 0.015145 0.003570 -0.003029 0.001632
# 4 -0.000764 0.004076 0.003570 0.034599 0.004663 -0.011711
# 5 0.003274 -0.003052 -0.003029 0.004663 0.027947 0.001542
# 6 0.003924 -0.001900 0.001632 -0.011711 0.001542 0.028429
#
#
# Mechanical properties :
#
#
# Convention : Reuss Voigt Hill
#
# Bulk Modulus (GPa) = 51.05457 67.86991 59.46224
# Shear Modulus (GPa) = 34.69422 43.65105 39.17263
#
# Velocity S-wave (km/s) = 3.88669 4.35962 4.12993
# Velocity P-wave (km/s) = 6.50936 7.40900 6.97371
#
# Compressibility (1/GPa) = 0.01958689
#
# Stress axis : x y z
#
# Youngs Moduli (GPa) = 122.25123 102.30404 66.02915
#
# Poissons Ratio (x) = 0.24393 0.16440
# Poissons Ratio (y) = 0.29149 0.12427
# Poissons Ratio (z) = 0.30439 0.19254
#
# Static dielectric constant tensor:
#      x y z
#    x 1.861560 -0.014400 -0.013620 
#    y -0.014400 1.884240 0.033280 
#    z -0.013620 0.033280 1.869340 
# 
# From -- ./inp_files/398215.got.cif
#   From: 2010.05.17/outbox.cif.g08.bks.cpg/sg2_200_cif.got.tgz:398215.got - 2010.06.03 11:33:40.
