data_PCOD9102406
_publ_section_title
;
Structure prediction by ZEFSAII (Michael W. Deem and Ramdas Pophale) SiO2 
 PCOD9102406
Probable space group: P -1
;
_chemical_formula_sum "Si O2"
_cell_formula_units_Z 16
_cell_length_a 8.801768
_cell_length_b 11.506082
_cell_length_c 18.690143
_cell_angle_alpha 31.482315
_cell_angle_beta 58.913790
_cell_angle_gamma 49.083247
_cell_volume 742.682998
_symmetry_space_group_name_H-M "P -1"
_symmetry_group_IT_number 2
_symmetry_cell_setting 'triclinic'
loop_
_space_group_symop_operation_xyz
x,y,z
-x,-y,-z
loop_
_atom_site_type_symbol
_atom_site_label
_atom_site_fract_x
_atom_site_fract_y
_atom_site_fract_z
Si Si1 0.872905 0.033999 0.082570
Si Si2 0.581029 0.832416 0.426135
Si Si3 0.136344 0.703368 0.305555
Si Si4 0.486097 0.986291 0.212130
Si Si5 0.710936 0.480316 0.987674
Si Si6 0.802020 0.184268 0.404925
Si Si7 0.490279 0.228490 0.833531
Si Si8 0.817399 0.102830 0.276779
O O1 0.651805 0.070063 0.102911
O O2 0.865411 0.264603 0.010151
O O3 0.974541 0.787564 0.237669
O O4 0.000000 0.000000 0.000000
O O5 0.769889 0.579317 0.541657
O O6 0.561034 0.818930 0.352858
O O7 0.381040 0.855751 0.498729
O O8 0.635906 0.049873 0.321541
O O9 0.321727 0.729484 0.212722
O O10 0.020208 0.893761 0.298716
O O11 0.458821 0.858294 0.216076
O O12 0.301692 0.247597 0.149289
O O13 0.500000 0.500000 0.000000
O O14 0.762001 0.368737 0.113472
O O15 0.711935 0.493983 0.264064
O O16 0.835602 0.103214 0.356464
O O17 0.000000 0.000000 0.500000
O O18 0.500000 0.000000 0.000000
#
# Coordination Sequence:
#
# PCOD9102406 Si02
#       8
#     2   2   2   2   2   2   2   2
#     4  10  20  38  62  96 126 160 211 273 311 367
#     4  11  23  42  67  93 125 172 213 263 332 380
#     4  10  23  40  65  94 128 169 212 259 325 384
#     4  11  22  40  65  92 127 172 213 257 321 395
#     4   9  18  38  62  92 127 162 214 261 318 373
#     4  11  28  45  63  98 132 173 216 271 324 392
#     4  11  25  46  65  93 133 177 216 263 326 386
#     4  11  21  43  66  95 129 163 219 271 319 383
#
# _framework density 21.543512
#
# number of rings (size 3 to 8) (size 9 to 14) (size 15 to 20)
#    0.000    1.500    3.750    2.250    3.500    4.000 
#    9.000    3.125    0.000    0.000    0.000    0.000 
#    0.000    0.000    0.000    0.000    0.000    0.000 
#
# Total GULP energy -89294.216337 kJ/mol
# GULP energy per Si atom -5580.888521 kJ/mol
# Density = 2.149448 g / cm^3
# Si number density = 21.543512 Si / 1000 Ang^3
#
#
#
# Elastic Constant Matrix: (Units=GPa)
#
#
# Indices 1 2 3 4 5 6 
#
# 1 47.1829 18.1907 11.8438 0.1046 20.4913 -2.0679
# 2 18.1907 83.3845 42.9945 18.3752 24.4198 -6.3050
# 3 11.8438 42.9945 100.1216 0.7509 19.1784 -2.9435
# 4 0.1046 18.3752 0.7509 42.3756 3.3621 10.8133
# 5 20.4913 24.4198 19.1784 3.3621 33.4153 7.4824
# 6 -2.0679 -6.3050 -2.9435 10.8133 7.4824 30.4634
#
#
#
# Elastic Compliance Matrix: (Units=1/GPa)
#
#
# Indices 1 2 3 4 5 6 
#
# 1 0.030274 -0.000540 0.000713 -0.000034 -0.020137 0.006970
# 2 -0.000540 0.023287 -0.006767 -0.011868 -0.014261 0.011845
# 3 0.000713 -0.006767 0.013438 0.003041 -0.003447 -0.000287
# 4 -0.000034 -0.011868 0.003041 0.032025 0.007150 -0.015288
# 5 -0.020137 -0.014261 -0.003447 0.007150 0.058800 -0.021632
# 6 0.006970 0.011845 -0.000287 -0.015288 -0.021632 0.046463
#
#
# Mechanical properties :
#
#
# Convention : Reuss Voigt Hill
#
# Bulk Modulus (GPa) = 18.58347 41.86076 30.22212
# Shear Modulus (GPa) = 21.23923 31.76151 26.50037
#
# Velocity S-wave (km/s) = 3.14327 3.84382 3.51106
# Velocity P-wave (km/s) = 4.67101 6.25883 5.52228
#
# Compressibility (1/GPa) = 0.05381126
#
# Stress axis : x y z
#
# Youngs Moduli (GPa) = 33.03117 42.94227 74.41354
#
# Poissons Ratio (x) = 0.02321 -0.05307
# Poissons Ratio (y) = 0.01785 0.50357
# Poissons Ratio (z) = -0.02356 0.29060
#
# Static dielectric constant tensor:
#      x y z
#    x 1.814440 -0.021240 -0.010590 
#    y -0.021240 1.805350 -0.038620 
#    z -0.010590 -0.038620 1.816600 
# 
# From -- ./inp_files/216462.got.cif
#   From: 2010.05.17/outbox.cif.g08.bks.cpg/sg2_109_cif.got.tgz:216462.got - 2010.06.03 11:33:40.
