data_PCOD9102960
_publ_section_title
;
Structure prediction by ZEFSAII (Michael W. Deem and Ramdas Pophale) SiO2 
 PCOD9102960
Probable space group: P -1
;
_chemical_formula_sum "Si O2"
_cell_formula_units_Z 14
_cell_length_a 18.945263
_cell_length_b 9.270580
_cell_length_c 9.049815
_cell_angle_alpha 59.243254
_cell_angle_beta 152.227408
_cell_angle_gamma 123.287750
_cell_volume 617.750820
_symmetry_space_group_name_H-M "P -1"
_symmetry_group_IT_number 2
_symmetry_cell_setting 'triclinic'
loop_
_space_group_symop_operation_xyz
x,y,z
-x,-y,-z
loop_
_atom_site_type_symbol
_atom_site_label
_atom_site_fract_x
_atom_site_fract_y
_atom_site_fract_z
Si Si1 0.619606 0.913692 0.356161
Si Si2 0.769930 0.639045 0.626414
Si Si3 0.568941 0.023134 0.777722
Si Si4 0.872769 0.229654 0.773842
Si Si5 0.909639 0.152795 0.232848
Si Si6 0.496495 0.640003 0.794179
Si Si7 0.799569 0.583618 0.371976
O O1 0.523983 0.868791 0.354321
O O2 0.777872 0.058059 0.607896
O O3 0.667631 0.757391 0.446526
O O4 0.500000 0.000000 0.000000
O O5 0.665650 0.440491 0.548754
O O6 0.799444 0.669462 0.489679
O O7 0.947366 0.696400 0.981395
O O8 0.520694 0.819335 0.831946
O O9 0.500000 0.000000 0.500000
O O10 0.752160 0.099644 0.064034
O O11 0.792254 0.384774 0.498727
O O12 0.869960 0.186414 0.968609
O O13 0.032827 0.323111 0.430087
O O14 0.000000 0.000000 0.500000
O O15 0.500000 0.500000 0.000000
O O16 0.651983 0.630999 0.995062
#
# Coordination Sequence:
#
# PCOD9102960 Si02
#       7
#     2   2   2   2   2   2   2
#     4  12  24  41  64  95 132 171 212 266 324 385
#     4  10  21  36  62  91 124 158 216 264 308 363
#     4  12  25  42  67  96 132 170 216 266 322 384
#     4  11  23  41  68  96 124 172 221 263 310 391
#     4  11  22  39  65  97 129 162 217 267 317 368
#     4  10  20  38  64  94 122 167 219 258 308 386
#     4  10  20  39  67  94 123 167 223 263 305 386
#
# _framework density 22.662859000000001
#
# number of rings (size 3 to 8) (size 9 to 14) (size 15 to 20)
#    0.000    1.143    2.857    6.429    4.000    0.000 
#    0.000    0.714    0.000    1.714    0.000    0.000 
#    0.000    0.000    0.000    0.000    0.000    0.000 
#
# Total GULP energy -78089.160865 kJ/mol
# GULP energy per Si atom -5577.797205 kJ/mol
# Density = 2.261128 g / cm^3
# Si number density = 22.662859 Si / 1000 Ang^3
#
#
#
# Elastic Constant Matrix: (Units=GPa)
#
#
# Indices 1 2 3 4 5 6 
#
# 1 76.8061 33.4267 24.6454 3.1545 34.1682 -9.0654
# 2 33.4267 109.0589 21.4892 11.4274 24.9560 6.3815
# 3 24.6454 21.4892 90.8755 22.4698 31.7888 3.9429
# 4 3.1545 11.4274 22.4698 56.1862 14.0972 15.6596
# 5 34.1682 24.9560 31.7888 14.0972 44.6605 0.1321
# 6 -9.0654 6.3815 3.9429 15.6596 0.1321 35.2904
#
#
#
# Elastic Compliance Matrix: (Units=1/GPa)
#
#
# Indices 1 2 3 4 5 6 
#
# 1 0.022114 -0.003755 -0.000574 0.001964 -0.015048 0.005609
# 2 -0.003755 0.011293 -0.000369 -0.000402 -0.003040 -0.002776
# 3 -0.000574 -0.000369 0.015359 -0.003717 -0.009113 -0.000113
# 4 0.001964 -0.000402 -0.003717 0.023363 -0.005979 -0.009352
# 5 -0.015048 -0.003040 -0.009113 -0.005979 0.043976 0.000191
# 6 0.005609 -0.002776 -0.000113 -0.009352 0.000191 0.034441
#
#
# Mechanical properties :
#
#
# Convention : Reuss Voigt Hill
#
# Bulk Modulus (GPa) = 25.40079 48.42922 36.91501
# Shear Modulus (GPa) = 28.89078 40.37270 34.63174
#
# Velocity S-wave (km/s) = 3.57432 4.22530 3.91337
# Velocity P-wave (km/s) = 5.31665 6.72458 6.06163
#
# Compressibility (1/GPa) = 0.03936885
#
# Stress axis : x y z
#
# Youngs Moduli (GPa) = 45.22000 88.54866 65.10913
#
# Poissons Ratio (x) = 0.33253 0.03740
# Poissons Ratio (y) = 0.16982 0.02401
# Poissons Ratio (z) = 0.02598 0.03266
#
# Static dielectric constant tensor:
#      x y z
#    x 1.946490 0.156060 -0.007990 
#    y 0.156060 1.941990 0.026080 
#    z -0.007990 0.026080 1.971980 
# 
# From -- ./inp_files/328636.got.cif
#   From: 2010.05.17/outbox.cif.g08.bks.cpg/sg2_165_cif.got.tgz:328636.got - 2010.06.03 11:33:40.
