data_PCOD9102247
_publ_section_title
;
Structure prediction by ZEFSAII (Michael W. Deem and Ramdas Pophale) SiO2 
 PCOD9102247
Probable space group: P -1
;
_chemical_formula_sum "Si O2"
_cell_formula_units_Z 14
_cell_length_a 7.120766
_cell_length_b 14.074758
_cell_length_c 10.437803
_cell_angle_alpha 46.163646
_cell_angle_beta 54.638311
_cell_angle_gamma 49.111832
_cell_volume 555.173102
_symmetry_space_group_name_H-M "P -1"
_symmetry_group_IT_number 2
_symmetry_cell_setting 'triclinic'
loop_
_space_group_symop_operation_xyz
x,y,z
-x,-y,-z
loop_
_atom_site_type_symbol
_atom_site_label
_atom_site_fract_x
_atom_site_fract_y
_atom_site_fract_z
Si Si1 0.377731 0.175866 0.301106
Si Si2 0.747774 0.978576 0.844293
Si Si3 0.171932 0.759378 0.444156
Si Si4 0.112830 0.332868 0.011862
Si Si5 0.620823 0.489991 0.224804
Si Si6 0.565791 0.872909 0.403836
Si Si7 0.924385 0.367510 0.651588
O O1 0.310748 0.273115 0.110264
O O2 0.453155 0.209805 0.381303
O O3 0.097735 0.184228 0.430316
O O4 0.577542 0.016676 0.325859
O O5 0.829933 0.097834 0.756862
O O6 0.676442 0.052250 0.661857
O O7 0.889965 0.805197 0.931723
O O8 0.500000 0.000000 0.000000
O O9 0.374423 0.650523 0.567795
O O10 0.174273 0.655590 0.425322
O O11 0.829891 0.425841 0.089537
O O12 0.242149 0.432128 0.809890
O O13 0.330594 0.589295 0.204301
O O14 0.809432 0.778072 0.309280
O O15 0.000000 0.500000 0.500000
#
# Coordination Sequence:
#
# PCOD9102247 Si02
#       7
#     2   2   2   2   2   2   2
#     4   8  17  37  60  84 115 154 200 243 295 348
#     4  11  22  38  61  90 118 153 205 255 300 349
#     4  10  21  37  61  85 116 163 205 246 293 355
#     4   9  20  37  64  92 121 157 201 254 291 346
#     4  10  20  38  62  89 121 159 200 242 298 357
#     4   9  19  36  57  82 117 154 190 243 295 349
#     4  11  22  35  56  86 122 162 199 240 297 364
#
# _framework density 25.217359999999999
#
# number of rings (size 3 to 8) (size 9 to 14) (size 15 to 20)
#    0.000    2.286    0.000    2.143    0.000    7.429 
#    0.000   12.857    0.000   27.429    0.000    0.000 
#    0.000    0.000    0.000    0.000    0.000    0.000 
#
# Total GULP energy -77983.052157 kJ/mol
# GULP energy per Si atom -5570.218011 kJ/mol
# Density = 2.515996 g / cm^3
# Si number density = 25.217360 Si / 1000 Ang^3
#
#
#
# Elastic Constant Matrix: (Units=GPa)
#
#
# Indices 1 2 3 4 5 6 
#
# 1 42.2028 28.2319 7.1245 5.2734 -8.5239 -5.6506
# 2 28.2319 177.0707 29.5595 -21.2472 -24.4756 -10.1199
# 3 7.1245 29.5595 76.8054 -13.2362 -29.0994 13.7518
# 4 5.2734 -21.2472 -13.2362 28.2195 2.4512 -7.7892
# 5 -8.5239 -24.4756 -29.0994 2.4512 49.3078 -0.0271
# 6 -5.6506 -10.1199 13.7518 -7.7892 -0.0271 33.4897
#
#
#
# Elastic Compliance Matrix: (Units=1/GPa)
#
#
# Indices 1 2 3 4 5 6 
#
# 1 0.029383 -0.005175 -0.002148 -0.010008 0.001742 0.001950
# 2 -0.005175 0.008054 -0.001289 0.007300 0.001982 0.003790
# 3 -0.002148 -0.001289 0.020082 0.005827 0.010547 -0.007635
# 4 -0.010008 0.007300 0.005827 0.047833 0.002960 0.009253
# 5 0.001742 0.001982 0.010547 0.002960 0.027641 -0.002727
# 6 0.001950 0.003790 -0.007635 0.009253 -0.002727 0.036619
#
#
# Mechanical properties :
#
#
# Convention : Reuss Voigt Hill
#
# Bulk Modulus (GPa) = 24.81684 47.32341 36.07012
# Shear Modulus (GPa) = 24.96650 37.61426 31.29038
#
# Velocity S-wave (km/s) = 3.14992 3.86632 3.52636
# Velocity P-wave (km/s) = 4.80540 6.22400 5.56013
#
# Compressibility (1/GPa) = 0.04029522
#
# Stress axis : x y z
#
# Youngs Moduli (GPa) = 34.03348 124.15740 49.79520
#
# Poissons Ratio (x) = 0.64250 0.10695
# Poissons Ratio (y) = 0.17612 0.06421
# Poissons Ratio (z) = 0.07310 0.16009
#
# Static dielectric constant tensor:
#      x y z
#    x 2.166440 0.077540 0.009730 
#    y 0.077540 2.116890 -0.080470 
#    z 0.009730 -0.080470 2.123690 
# 
# From -- ./inp_files/398340.got.cif
#   From: 2010.05.17/outbox.cif.g08.bks.cpg/sg2_200_cif.got.tgz:398340.got - 2010.06.03 11:33:40.
