data_PCOD9102657
_publ_section_title
;
Structure prediction by ZEFSAII (Michael W. Deem and Ramdas Pophale) SiO2 
 PCOD9102657
Probable space group: P -1
;
_chemical_formula_sum "Si O2"
_cell_formula_units_Z 16
_cell_length_a 7.298411
_cell_length_b 14.373028
_cell_length_c 25.716620
_cell_angle_alpha 21.587679
_cell_angle_beta 48.355203
_cell_angle_gamma 58.332948
_cell_volume 698.067326
_symmetry_space_group_name_H-M "P -1"
_symmetry_group_IT_number 2
_symmetry_cell_setting 'triclinic'
loop_
_space_group_symop_operation_xyz
x,y,z
-x,-y,-z
loop_
_atom_site_type_symbol
_atom_site_label
_atom_site_fract_x
_atom_site_fract_y
_atom_site_fract_z
Si Si1 0.599181 0.244997 0.803141
Si Si2 0.168374 0.312324 0.311896
Si Si3 0.345678 0.468603 0.462781
Si Si4 0.369012 0.316240 0.910353
Si Si5 0.815561 0.117892 0.166269
Si Si6 0.909839 0.458370 0.376493
Si Si7 0.706548 0.070494 0.700418
Si Si8 0.563322 0.509819 0.044249
O O1 0.639098 0.443570 0.644938
O O2 0.383068 0.282787 0.863165
O O3 0.858175 0.328003 0.747128
O O4 0.549597 0.940150 0.952644
O O5 0.419621 0.406127 0.254561
O O6 0.982354 0.439158 0.312808
O O7 0.308911 0.430790 0.169563
O O8 0.000000 0.000000 0.500000
O O9 0.640162 0.512033 0.403337
O O10 0.238217 0.667118 0.411750
O O11 0.188507 0.159972 0.663511
O O12 0.090269 0.279960 0.005168
O O13 0.596421 0.027076 0.209312
O O14 0.712922 0.297007 0.132150
O O15 0.862204 0.173597 0.563644
O O16 0.738751 0.821243 0.854862
O O17 0.500000 0.500000 0.000000
#
# Coordination Sequence:
#
# PCOD9102657 Si02
#       8
#     2   2   2   2   2   2   2   2
#     4  10  22  40  62  98 133 163 208 261 324 378
#     4  11  22  40  61  83 120 171 212 253 318 377
#     4  11  21  37  68  98 125 166 213 261 317 378
#     4  10  22  40  61  90 132 165 204 270 318 374
#     4  10  21  39  60  90 128 165 211 263 315 379
#     4  10  22  41  65  93 131 167 207 264 316 379
#     4  10  20  38  63  94 126 166 212 259 318 378
#     4  10  22  39  61  88 122 163 210 259 310 375
#
# _framework density 22.920424000000001
#
# number of rings (size 3 to 8) (size 9 to 14) (size 15 to 20)
#    0.000    1.750    0.000    6.000    0.000    5.500 
#    0.000    9.375    0.000   10.500    0.000    1.750 
#    0.000    0.000    0.000    0.000    0.000    0.000 
#
# Total GULP energy -89397.220231 kJ/mol
# GULP energy per Si atom -5587.326264 kJ/mol
# Density = 2.286826 g / cm^3
# Si number density = 22.920424 Si / 1000 Ang^3
#
#
#
# Elastic Constant Matrix: (Units=GPa)
#
#
# Indices 1 2 3 4 5 6 
#
# 1 48.8103 13.3038 36.1371 -7.2971 -6.2965 8.6713
# 2 13.3038 128.9345 71.5129 8.7758 7.8054 8.8904
# 3 36.1371 71.5129 138.1282 -4.7340 -9.9796 -0.6394
# 4 -7.2971 8.7758 -4.7340 53.1243 3.2930 -0.9903
# 5 -6.2965 7.8054 -9.9796 3.2930 36.1043 6.8067
# 6 8.6713 8.8904 -0.6394 -0.9903 6.8067 25.1434
#
#
#
# Elastic Compliance Matrix: (Units=1/GPa)
#
#
# Indices 1 2 3 4 5 6 
#
# 1 0.029187 0.002009 -0.008330 0.002436 0.004410 -0.012086
# 2 0.002009 0.012170 -0.007157 -0.002254 -0.003225 -0.004394
# 3 -0.008330 -0.007157 0.013385 0.001155 0.002737 0.005048
# 4 0.002436 -0.002254 0.001155 0.019698 -0.000747 0.000964
# 5 0.004410 -0.003225 0.002737 -0.000747 0.031669 -0.008914
# 6 -0.012086 -0.004394 0.005048 0.000964 -0.008914 0.048073
#
#
# Mechanical properties :
#
#
# Convention : Reuss Voigt Hill
#
# Bulk Modulus (GPa) = 35.98862 61.97561 48.98212
# Shear Modulus (GPa) = 26.26059 35.86901 31.06480
#
# Velocity S-wave (km/s) = 3.38853 3.96022 3.68548
# Velocity P-wave (km/s) = 5.57182 6.92887 6.28707
#
# Compressibility (1/GPa) = 0.02778656
#
# Stress axis : x y z
#
# Youngs Moduli (GPa) = 34.26150 82.17162 74.71079
#
# Poissons Ratio (x) = -0.16510 0.62234
# Poissons Ratio (y) = -0.06884 0.53469
# Poissons Ratio (z) = 0.28540 0.58809
#
# Static dielectric constant tensor:
#      x y z
#    x 1.900120 0.018680 0.000010 
#    y 0.018680 1.890640 -0.013420 
#    z 0.000010 -0.013420 1.896710 
# 
# From -- ./inp_files/617282.got.cif
#   From: 2010.05.17/outbox.cif.g08.bks.cpg/sg2_309_cif.got.tgz:617282.got - 2010.06.03 11:33:40.
