data_PCOD9102542
_publ_section_title
;
Structure prediction by ZEFSAII (Michael W. Deem and Ramdas Pophale) SiO2 
 PCOD9102542
Probable space group: P -1
;
_chemical_formula_sum "Si O2"
_cell_formula_units_Z 16
_cell_length_a 6.820341
_cell_length_b 21.050025
_cell_length_c 5.747296
_cell_angle_alpha 104.536607
_cell_angle_beta 79.591555
_cell_angle_gamma 134.274212
_cell_volume 571.868115
_symmetry_space_group_name_H-M "P -1"
_symmetry_group_IT_number 2
_symmetry_cell_setting 'triclinic'
loop_
_space_group_symop_operation_xyz
x,y,z
-x,-y,-z
loop_
_atom_site_type_symbol
_atom_site_label
_atom_site_fract_x
_atom_site_fract_y
_atom_site_fract_z
Si Si1 0.303094 0.579634 0.106109
Si Si2 0.203289 0.758765 0.130514
Si Si3 0.675613 0.994792 0.624361
Si Si4 0.155592 0.822895 0.714050
Si Si5 0.831733 0.918454 0.154056
Si Si6 0.049935 0.589863 0.536229
Si Si7 0.417386 0.297562 0.255622
Si Si8 0.680573 0.593032 0.319165
O O1 0.260922 0.635029 0.316939
O O2 0.405719 0.536132 0.168558
O O3 0.532152 0.651760 0.944744
O O4 0.000000 0.500000 0.000000
O O5 0.191586 0.797014 0.423604
O O6 0.531626 0.819314 0.084482
O O7 0.940252 0.654388 0.149085
O O8 0.125735 0.772764 0.907893
O O9 0.447475 0.921606 0.789458
O O10 0.762809 0.955511 0.402909
O O11 0.500000 0.000000 0.500000
O O12 0.946764 0.080336 0.773681
O O13 0.876611 0.803619 0.745742
O O14 0.000000 0.000000 0.000000
O O15 0.277348 0.664286 0.739745
O O16 0.000000 0.500000 0.500000
O O17 0.783597 0.565679 0.471464
O O18 0.364687 0.347423 0.487249
#
# Coordination Sequence:
#
# PCOD9102542 Si02
#       8
#     2   2   2   2   2   2   2   2
#     4  11  22  41  61  93 120 156 209 269 321 381
#     4  10  20  40  66  94 125 173 219 262 324 381
#     4  10  22  38  61  96 129 171 216 260 322 382
#     4  10  20  40  66  91 132 171 212 273 317 377
#     4  10  20  38  63  89 133 167 211 270 315 373
#     4  11  24  43  59  93 126 158 209 269 323 385
#     4  10  22  42  64  86 125 162 214 258 323 380
#     4  10  24  41  66  87 123 169 212 258 329 388
#
# _framework density 27.978477999999999
#
# number of rings (size 3 to 8) (size 9 to 14) (size 15 to 20)
#    0.000    1.750    3.750    0.000    0.000    5.000 
#    0.000    1.250    0.000    0.000    0.000    0.000 
#    0.000    0.000    0.000    0.000    0.000    0.000 
#
# Total GULP energy -89115.302677 kJ/mol
# GULP energy per Si atom -5569.706417 kJ/mol
# Density = 2.791480 g / cm^3
# Si number density = 27.978478 Si / 1000 Ang^3
#
#
#
# Elastic Constant Matrix: (Units=GPa)
#
#
# Indices 1 2 3 4 5 6 
#
# 1 188.2946 52.9051 43.5153 4.1338 43.1661 65.8056
# 2 52.9051 139.5399 30.9397 7.6479 21.2782 52.7921
# 3 43.5153 30.9397 96.7112 -17.3866 25.1522 15.7757
# 4 4.1338 7.6479 -17.3866 54.3107 3.4939 -1.0798
# 5 43.1661 21.2782 25.1522 3.4939 66.1861 6.7611
# 6 65.8056 52.7921 15.7757 -1.0798 6.7611 62.2844
#
#
#
# Elastic Compliance Matrix: (Units=1/GPa)
#
#
# Indices 1 2 3 4 5 6 
#
# 1 0.010712 0.001807 -0.002406 -0.001727 -0.005368 -0.011687
# 2 0.001807 0.011764 -0.002552 -0.002654 -0.002728 -0.010984
# 3 -0.002406 -0.002552 0.013754 0.005190 -0.003281 0.001668
# 4 -0.001727 -0.002654 0.005190 0.020736 -0.001422 0.003274
# 5 -0.005368 -0.002728 -0.003281 -0.001422 0.020134 0.006605
# 6 -0.011687 -0.010984 0.001668 0.003274 0.006605 0.036630
#
#
# Mechanical properties :
#
#
# Convention : Reuss Voigt Hill
#
# Bulk Modulus (GPa) = 33.41512 75.47398 54.44455
# Shear Modulus (GPa) = 38.45894 56.36860 47.41377
#
# Velocity S-wave (km/s) = 3.71157 4.49342 4.12108
# Velocity P-wave (km/s) = 5.50788 7.34544 6.49200
#
# Compressibility (1/GPa) = 0.02992658
#
# Stress axis : x y z
#
# Youngs Moduli (GPa) = 93.35281 85.00290 72.70873
#
# Poissons Ratio (x) = -0.15359 0.17494
# Poissons Ratio (y) = -0.16867 0.18559
# Poissons Ratio (z) = 0.22460 0.21697
#
# Static dielectric constant tensor:
#      x y z
#    x 2.289220 -0.046990 0.065620 
#    y -0.046990 2.305770 0.193830 
#    z 0.065620 0.193830 2.540950 
# 
# From -- ./inp_files/14504.got.cif
#   From: 2010.05.17/outbox.cif.g08.bks.cpg/sg2_8_cif.got.tgz:14504.got - 2010.06.03 11:33:40.
