data_PCOD9102632
_publ_section_title
;
Structure prediction by ZEFSAII (Michael W. Deem and Ramdas Pophale) SiO2 
 PCOD9102632
Probable space group: P -1
;
_chemical_formula_sum "Si O2"
_cell_formula_units_Z 14
_cell_length_a 9.260273
_cell_length_b 17.554227
_cell_length_c 16.993521
_cell_angle_alpha 26.574817
_cell_angle_beta 37.108603
_cell_angle_gamma 29.534888
_cell_volume 606.845464
_symmetry_space_group_name_H-M "P -1"
_symmetry_group_IT_number 2
_symmetry_cell_setting 'triclinic'
loop_
_space_group_symop_operation_xyz
x,y,z
-x,-y,-z
loop_
_atom_site_type_symbol
_atom_site_label
_atom_site_fract_x
_atom_site_fract_y
_atom_site_fract_z
Si Si1 0.501268 0.380588 0.247033
Si Si2 0.057325 0.293873 0.889343
Si Si3 0.841369 0.795686 0.899739
Si Si4 0.665748 0.159594 0.532084
Si Si5 0.999613 0.936932 0.179528
Si Si6 0.467533 0.751168 0.006901
Si Si7 0.353752 0.478912 0.505855
O O1 0.481256 0.253342 0.444707
O O2 0.457138 0.573415 0.135598
O O3 0.835623 0.255782 0.187753
O O4 0.268558 0.486468 0.179588
O O5 0.226326 0.346980 0.706572
O O6 0.218616 0.236616 0.955881
O O7 0.035865 0.101436 0.057727
O O8 0.643782 0.012631 0.738161
O O9 0.777383 0.664042 0.992578
O O10 0.570481 0.355869 0.450326
O O11 0.000000 0.000000 0.500000
O O12 0.232811 0.856325 0.081819
O O13 0.097721 0.721099 0.375596
O O14 0.668836 0.071668 0.165058
O O15 0.500000 0.500000 0.500000
#
# Coordination Sequence:
#
# PCOD9102632 Si02
#       7
#     2   2   2   2   2   2   2
#     4  10  22  42  64  93 130 176 222 270 334 397
#     4  11  25  41  67  98 134 176 217 276 339 393
#     4  11  22  40  65  91 134 174 218 272 334 393
#     4  10  23  41  66  95 132 172 221 273 331 396
#     4  10  22  40  62  97 132 163 220 277 326 392
#     4  10  20  38  63  93 125 168 221 273 324 388
#     4  12  24  41  71  99 136 174 225 277 337 399
#
# _framework density 23.070125000000001
#
# number of rings (size 3 to 8) (size 9 to 14) (size 15 to 20)
#    0.000    1.429    1.429    3.429    2.000    2.286 
#    0.000    0.000    0.000    4.286    0.000    0.000 
#    0.000    0.000    0.000    0.000    0.000    0.000 
#
# Total GULP energy -77978.514769 kJ/mol
# GULP energy per Si atom -5569.893912 kJ/mol
# Density = 2.301762 g / cm^3
# Si number density = 23.070125 Si / 1000 Ang^3
#
#
#
# Elastic Constant Matrix: (Units=GPa)
#
#
# Indices 1 2 3 4 5 6 
#
# 1 109.9416 34.4181 32.1723 -11.0783 21.4066 -23.2577
# 2 34.4181 67.5115 24.4390 -3.2857 7.7686 -5.2235
# 3 32.1723 24.4390 143.2792 -16.4923 28.3628 3.8797
# 4 -11.0783 -3.2857 -16.4923 21.6443 -5.2919 -5.9823
# 5 21.4066 7.7686 28.3628 -5.2919 42.1170 -6.1682
# 6 -23.2577 -5.2235 3.8797 -5.9823 -6.1682 25.5425
#
#
#
# Elastic Compliance Matrix: (Units=1/GPa)
#
#
# Indices 1 2 3 4 5 6 
#
# 1 0.016042 -0.005706 -0.001374 0.009871 -0.002693 0.015310
# 2 -0.005706 0.018214 -0.002119 -0.002071 0.000485 -0.001517
# 3 -0.001374 -0.002119 0.009192 0.003776 -0.005130 -0.003435
# 4 0.009871 -0.002071 0.003776 0.061208 0.003921 0.023273
# 5 -0.002693 0.000485 -0.005130 0.003921 0.029933 0.006573
# 6 0.015310 -0.001517 -0.003435 0.023273 0.006573 0.060341
#
#
# Mechanical properties :
#
#
# Convention : Reuss Voigt Hill
#
# Bulk Modulus (GPa) = 39.91885 55.86569 47.89227
# Shear Modulus (GPa) = 22.55518 33.17428 27.86473
#
# Velocity S-wave (km/s) = 3.13018 3.79618 3.47915
# Velocity P-wave (km/s) = 5.51406 6.59415 6.07814
#
# Compressibility (1/GPa) = 0.02505082
#
# Stress axis : x y z
#
# Youngs Moduli (GPa) = 62.33624 54.90169 108.78484
#
# Poissons Ratio (x) = 0.31327 0.14948
# Poissons Ratio (y) = 0.35570 0.23050
# Poissons Ratio (z) = 0.08566 0.11633
#
# Static dielectric constant tensor:
#      x y z
#    x 1.873020 -0.035220 -0.008180 
#    y -0.035220 1.942840 -0.003220 
#    z -0.008180 -0.003220 1.931650 
# 
# From -- ./inp_files/562051.got.cif
#   From: 2010.05.17/outbox.cif.g08.bks.cpg/sg2_282_cif.got.tgz:562051.got - 2010.06.03 11:33:40.
