data_PCOD9102513
_publ_section_title
;
Structure prediction by ZEFSAII (Michael W. Deem and Ramdas Pophale) SiO2 
 PCOD9102513
Probable space group: P -1
;
_chemical_formula_sum "Si O2"
_cell_formula_units_Z 16
_cell_length_a 9.121823
_cell_length_b 7.896706
_cell_length_c 12.617673
_cell_angle_alpha 76.626113
_cell_angle_beta 119.162540
_cell_angle_gamma 129.006728
_cell_volume 612.920879
_symmetry_space_group_name_H-M "P -1"
_symmetry_group_IT_number 2
_symmetry_cell_setting 'triclinic'
loop_
_space_group_symop_operation_xyz
x,y,z
-x,-y,-z
loop_
_atom_site_type_symbol
_atom_site_label
_atom_site_fract_x
_atom_site_fract_y
_atom_site_fract_z
Si Si1 0.579954 0.887042 0.110174
Si Si2 0.188220 0.110592 0.404957
Si Si3 0.528799 0.693825 0.317398
Si Si4 0.476977 0.292379 0.272592
Si Si5 0.731231 0.209570 0.503861
Si Si6 0.289473 0.257450 0.992993
Si Si7 0.921536 0.578550 0.694695
Si Si8 0.130762 0.496670 0.952958
O O1 0.607398 0.903112 0.242863
O O2 0.752454 0.899039 0.096637
O O3 0.362934 0.640790 0.062444
O O4 0.500000 0.000000 0.000000
O O5 0.356615 0.248552 0.538231
O O6 0.301675 0.174168 0.321461
O O7 0.049769 0.197791 0.347374
O O8 0.123124 0.870399 0.440375
O O9 0.573097 0.545126 0.289252
O O10 0.283930 0.559496 0.280409
O O11 0.655583 0.262333 0.364684
O O12 0.364426 0.207107 0.132555
O O13 0.846125 0.420284 0.589935
O O14 0.500000 0.000000 0.500000
O O15 0.101123 0.275528 0.944578
O O16 0.500000 0.500000 0.000000
O O17 0.102362 0.595935 0.823512
O O18 0.000000 0.500000 0.000000
#
# Coordination Sequence:
#
# PCOD9102513 Si02
#       8
#     2   2   2   2   2   2   2   2
#     4  11  25  41  63  93 130 176 214 254 319 398
#     4  10  20  32  56  95 123 156 212 275 313 368
#     4  11  17  35  62  88 122 161 212 260 311 380
#     4  10  16  32  57  82 118 157 214 257 307 367
#     4  10  19  30  54  91 124 154 201 265 326 365
#     4  10  21  39  60  88 123 172 212 244 313 411
#     4  11  19  35  60  91 128 156 199 275 332 355
#     4  11  21  41  66  91 126 167 215 269 323 373
#
# _framework density 26.104510000000001
#
# number of rings (size 3 to 8) (size 9 to 14) (size 15 to 20)
#    0.000    1.500    7.500    1.500    1.750    0.000 
#    2.250    0.625    0.000    7.500    0.000    0.000 
#    0.000    0.000    0.000    0.000    0.000    0.000 
#
# Total GULP energy -89407.036741 kJ/mol
# GULP energy per Si atom -5587.939796 kJ/mol
# Density = 2.604510 g / cm^3
# Si number density = 26.104510 Si / 1000 Ang^3
#
#
#
# Elastic Constant Matrix: (Units=GPa)
#
#
# Indices 1 2 3 4 5 6 
#
# 1 98.9585 46.5228 33.8394 -4.3471 5.0705 -23.6428
# 2 46.5228 73.5562 31.6133 -8.6909 11.7866 -34.2126
# 3 33.8394 31.6133 154.6055 -22.4829 12.6570 -6.7904
# 4 -4.3471 -8.6909 -22.4829 41.9982 -8.7462 11.9119
# 5 5.0705 11.7866 12.6570 -8.7462 38.3578 -5.1111
# 6 -23.6428 -34.2126 -6.7904 11.9119 -5.1111 52.7595
#
#
#
# Elastic Compliance Matrix: (Units=1/GPa)
#
#
# Indices 1 2 3 4 5 6 
#
# 1 0.014834 -0.008269 -0.001770 -0.001316 0.001058 0.001457
# 2 -0.008269 0.026800 -0.002934 -0.001621 -0.004785 0.013198
# 3 -0.001770 -0.002934 0.008005 0.004058 -0.000937 -0.002673
# 4 -0.001316 -0.001621 0.004058 0.028541 0.004896 -0.007088
# 5 0.001058 -0.004785 -0.000937 0.004896 0.028683 -0.001076
# 6 0.001457 0.013198 -0.002673 -0.007088 -0.001076 0.029318
#
#
# Mechanical properties :
#
#
# Convention : Reuss Voigt Hill
#
# Bulk Modulus (GPa) = 42.20751 61.23012 51.71881
# Shear Modulus (GPa) = 29.40754 40.96610 35.18682
#
# Velocity S-wave (km/s) = 3.36002 3.96575 3.67539
# Velocity P-wave (km/s) = 5.59078 6.66905 6.15358
#
# Compressibility (1/GPa) = 0.02369247
#
# Stress axis : x y z
#
# Youngs Moduli (GPa) = 67.41276 37.31354 124.92324
#
# Poissons Ratio (x) = 0.30853 0.22112
# Poissons Ratio (y) = 0.55741 0.36658
# Poissons Ratio (z) = 0.11933 0.10950
#
# Static dielectric constant tensor:
#      x y z
#    x 2.151230 -0.037450 -0.100420 
#    y -0.037450 2.278490 -0.047330 
#    z -0.100420 -0.047330 2.119620 
# 
# From -- ./inp_files/382060.got.cif
#   From: 2010.05.17/outbox.cif.g08.bks.cpg/sg2_192_cif.got.tgz:382060.got - 2010.06.03 11:33:40.
