data_PCOD9102336
_publ_section_title
;
Structure prediction by ZEFSAII (Michael W. Deem and Ramdas Pophale) SiO2 
 PCOD9102336
Probable space group: P -1
;
_chemical_formula_sum "Si O2"
_cell_formula_units_Z 16
_cell_length_a 16.113378
_cell_length_b 10.063734
_cell_length_c 9.237009
_cell_angle_alpha 127.430069
_cell_angle_beta 139.161826
_cell_angle_gamma 34.606429
_cell_volume 555.845505
_symmetry_space_group_name_H-M "P -1"
_symmetry_group_IT_number 2
_symmetry_cell_setting 'triclinic'
loop_
_space_group_symop_operation_xyz
x,y,z
-x,-y,-z
loop_
_atom_site_type_symbol
_atom_site_label
_atom_site_fract_x
_atom_site_fract_y
_atom_site_fract_z
Si Si1 0.230390 0.436463 0.901805
Si Si2 0.877543 0.424672 0.573311
Si Si3 0.280211 0.595849 0.356545
Si Si4 0.755454 0.904489 0.035795
Si Si5 0.707508 0.103320 0.816938
Si Si6 0.633480 0.889570 0.362890
Si Si7 0.016012 0.873623 0.760187
Si Si8 0.527396 0.405968 0.167000
O O1 0.274425 0.462054 0.135349
O O2 0.371101 0.415118 0.976552
O O3 0.276074 0.213803 0.745388
O O4 0.039781 0.683414 0.762137
O O5 0.799702 0.418584 0.613402
O O6 0.742406 0.672404 0.476592
O O7 0.919039 0.242649 0.390243
O O8 0.070372 0.323761 0.804928
O O9 0.449374 0.536431 0.604841
O O10 0.159516 0.860794 0.320435
O O11 0.700403 0.138205 0.181149
O O12 0.794285 0.902844 0.917828
O O13 0.572721 0.969769 0.833368
O O14 0.545411 0.357109 0.848575
O O15 0.643049 0.058351 0.565998
O O16 0.851195 0.112950 0.985791
#
# Coordination Sequence:
#
# PCOD9102336 Si02
#       8
#     2   2   2   2   2   2   2   2
#     4   9  22  39  61  87 125 169 205 256 318 375
#     4  11  22  39  67  98 125 161 211 268 318 370
#     4  12  19  36  63  96 122 154 214 268 310 373
#     4  11  20  39  63  93 127 161 210 265 317 366
#     4  11  21  39  61  92 126 169 206 256 322 376
#     4  10  24  43  61  89 134 171 209 254 312 384
#     4  10  20  38  62  92 123 156 206 267 314 367
#     4  10  21  36  63  93 123 158 211 268 318 367
#
# _framework density 28.784977999999999
#
# number of rings (size 3 to 8) (size 9 to 14) (size 15 to 20)
#    0.000    1.500    2.500    4.125    0.000    0.500 
#    2.250    1.250    0.000    6.000    0.000    0.000 
#    0.000    0.000    0.000    0.000    0.000    0.000 
#
# Total GULP energy -89636.173461 kJ/mol
# GULP energy per Si atom -5602.260841 kJ/mol
# Density = 2.871946 g / cm^3
# Si number density = 28.784978 Si / 1000 Ang^3
#
#
#
# Elastic Constant Matrix: (Units=GPa)
#
#
# Indices 1 2 3 4 5 6 
#
# 1 77.4575 9.4226 32.9152 -0.1892 -9.2054 -0.1612
# 2 9.4226 167.0322 61.5164 -2.8268 5.1699 8.7175
# 3 32.9152 61.5164 217.9108 14.3114 5.4854 -2.4415
# 4 -0.1892 -2.8268 14.3114 66.5478 -8.2419 -5.5232
# 5 -9.2054 5.1699 5.4854 -8.2419 56.9964 -5.6272
# 6 -0.1612 8.7175 -2.4415 -5.5232 -5.6272 17.7969
#
#
#
# Elastic Compliance Matrix: (Units=1/GPa)
#
#
# Indices 1 2 3 4 5 6 
#
# 1 0.014205 -0.000101 -0.002237 0.000945 0.002758 0.001036
# 2 -0.000101 0.006956 -0.001992 0.000307 -0.000790 -0.003836
# 3 -0.002237 -0.001992 0.005607 -0.001308 -0.000804 0.001064
# 4 0.000945 0.000307 -0.001308 0.016188 0.003154 0.005700
# 5 0.002758 -0.000790 -0.000804 0.003154 0.019325 0.007391
# 6 0.001036 -0.003836 0.001064 0.005700 0.007391 0.062330
#
#
# Mechanical properties :
#
#
# Convention : Reuss Voigt Hill
#
# Bulk Modulus (GPa) = 55.22043 74.45655 64.83849
# Shear Modulus (GPa) = 35.89197 52.17130 44.03164
#
# Velocity S-wave (km/s) = 3.53498 4.26191 3.91535
# Velocity P-wave (km/s) = 5.99056 7.08104 6.55850
#
# Compressibility (1/GPa) = 0.01810924
#
# Stress axis : x y z
#
# Youngs Moduli (GPa) = 70.39570 143.76242 178.33943
#
# Poissons Ratio (x) = 0.01451 0.39896
# Poissons Ratio (y) = 0.00710 0.35520
# Poissons Ratio (z) = 0.15748 0.28633
#
# Static dielectric constant tensor:
#      x y z
#    x 2.395170 -0.019870 -0.001490 
#    y -0.019870 2.286110 0.016110 
#    z -0.001490 0.016110 2.159580 
# 
# From -- ./inp_files/346399.got.cif
#   From: 2010.05.17/outbox.cif.g08.bks.cpg/sg2_174_cif.got.tgz:346399.got - 2010.06.03 11:33:40.
