data_PCOD9102252
_publ_section_title
;
Structure prediction by ZEFSAII (Michael W. Deem and Ramdas Pophale) SiO2 
 PCOD9102252
Probable space group: P -1
;
_chemical_formula_sum "Si O2"
_cell_formula_units_Z 16
_cell_length_a 9.317429
_cell_length_b 16.812689
_cell_length_c 11.094891
_cell_angle_alpha 108.249330
_cell_angle_beta 104.076317
_cell_angle_gamma 24.466985
_cell_volume 679.756068
_symmetry_space_group_name_H-M "P -1"
_symmetry_group_IT_number 2
_symmetry_cell_setting 'triclinic'
loop_
_space_group_symop_operation_xyz
x,y,z
-x,-y,-z
loop_
_atom_site_type_symbol
_atom_site_label
_atom_site_fract_x
_atom_site_fract_y
_atom_site_fract_z
Si Si1 0.353000 0.699279 0.861382
Si Si2 0.939325 0.120078 0.477777
Si Si3 0.920534 0.925057 0.102770
Si Si4 0.680004 0.836835 0.045255
Si Si5 0.388004 0.911150 0.240318
Si Si6 0.196618 0.470089 0.818569
Si Si7 0.278861 0.665267 0.246916
Si Si8 0.557032 0.706003 0.711435
O O1 0.498475 0.532048 0.799048
O O2 0.607080 0.630630 0.810987
O O3 0.991188 0.893519 0.807309
O O4 0.246883 0.772434 0.010990
O O5 0.899289 0.215341 0.610395
O O6 0.567056 0.296205 0.415796
O O7 0.000000 0.000000 0.500000
O O8 0.257281 0.980700 0.386107
O O9 0.008606 0.798063 0.141426
O O10 0.600847 0.089956 0.024234
O O11 0.792949 0.058201 0.235256
O O12 0.026301 0.618331 0.955719
O O13 0.608204 0.868561 0.189784
O O14 0.500000 0.000000 0.000000
O O15 0.614416 0.710697 0.183290
O O16 0.470727 0.386465 0.763285
O O17 0.889622 0.596043 0.723173
#
# Coordination Sequence:
#
# PCOD9102252 Si02
#       8
#     2   2   2   2   2   2   2   2
#     4  10  22  39  61  91 125 161 215 263 312 367
#     4  11  21  43  66  87 124 169 221 254 296 382
#     4  10  20  38  62  89 122 166 212 253 310 383
#     4  10  22  40  62  95 133 160 201 272 327 369
#     4  10  21  39  61  87 120 167 208 248 305 375
#     4  11  22  37  62  96 126 165 206 261 323 371
#     4  12  23  39  66  94 123 173 210 259 314 370
#     4  10  22  38  61  92 121 164 208 265 310 372
#
# _framework density 23.537855
#
# number of rings (size 3 to 8) (size 9 to 14) (size 15 to 20)
#    0.000    1.500    2.500    3.375    0.000    7.500 
#    0.000    0.000    0.000    2.250    0.000    0.000 
#    0.000    0.000    0.000    0.000    0.000    0.000 
#
# Total GULP energy -89205.566430 kJ/mol
# GULP energy per Si atom -5575.347902 kJ/mol
# Density = 2.348428 g / cm^3
# Si number density = 23.537855 Si / 1000 Ang^3
#
#
#
# Elastic Constant Matrix: (Units=GPa)
#
#
# Indices 1 2 3 4 5 6 
#
# 1 -22.1958 22.3031 -22.6796 28.9824 -53.9807 59.0578
# 2 22.3031 151.1742 37.1320 18.4983 -3.4427 19.7930
# 3 -22.6796 37.1320 107.7700 14.6178 -26.8633 17.4146
# 4 28.9824 18.4983 14.6178 13.3443 8.0646 -18.1340
# 5 -53.9807 -3.4427 -26.8633 8.0646 35.3823 10.3513
# 6 59.0578 19.7930 17.4146 -18.1340 10.3513 13.0415
#
#
#
# Elastic Compliance Matrix: (Units=1/GPa)
#
#
# Indices 1 2 3 4 5 6 
#
# 1 0.003866 -0.003082 -0.002117 0.013400 -0.002068 0.010270
# 2 -0.003082 0.009209 -0.002763 -0.007558 -0.002840 -0.004584
# 3 -0.002117 -0.002763 0.009192 0.002743 0.001691 0.003978
# 4 0.013400 -0.007558 0.002743 0.043940 0.012205 -0.001464
# 5 -0.002068 -0.002840 0.001691 0.012205 0.019575 0.012848
# 6 0.010270 -0.004584 0.003978 -0.001464 0.012848 0.019581
#
#
# Mechanical properties :
#
#
# Convention : Reuss Voigt Hill
#
# Bulk Modulus (GPa) = 157.66919 34.47325 96.07122
# Shear Modulus (GPa) = 40.51753 25.68650 33.10201
#
# Velocity S-wave (km/s) = 4.15345 3.30704 3.75418
# Velocity P-wave (km/s) = 9.49380 5.40923 7.72632
#
# Compressibility (1/GPa) = 0.00634239
#
# Stress axis : x y z
#
# Youngs Moduli (GPa) = 258.64641 108.59329 108.78557
#
# Poissons Ratio (x) = 0.33467 0.23031
# Poissons Ratio (y) = 0.79712 0.30063
# Poissons Ratio (z) = 0.54758 0.30009
#
# Static dielectric constant tensor:
#      x y z
#    x 2.117580 -0.061260 0.030210 
#    y -0.061260 1.893110 -0.054390 
#    z 0.030210 -0.054390 1.984260 
# 
# From -- ./inp_files/399196.got.cif
#   From: 2010.05.17/outbox.cif.g08.bks.cpg/sg2_200_cif.got.tgz:399196.got - 2010.06.03 11:33:40.
