data_PCOD9102921
_publ_section_title
;
Structure prediction by ZEFSAII (Michael W. Deem and Ramdas Pophale) SiO2 
 PCOD9102921
Probable space group: P -1
;
_chemical_formula_sum "Si O2"
_cell_formula_units_Z 16
_cell_length_a 7.688110
_cell_length_b 11.956912
_cell_length_c 16.650422
_cell_angle_alpha 55.360349
_cell_angle_beta 123.726715
_cell_angle_gamma 77.209459
_cell_volume 649.148452
_symmetry_space_group_name_H-M "P -1"
_symmetry_group_IT_number 2
_symmetry_cell_setting 'triclinic'
loop_
_space_group_symop_operation_xyz
x,y,z
-x,-y,-z
loop_
_atom_site_type_symbol
_atom_site_label
_atom_site_fract_x
_atom_site_fract_y
_atom_site_fract_z
Si Si1 0.617160 0.987240 0.786900
Si Si2 0.296130 0.903337 0.670404
Si Si3 0.506962 0.517333 0.640827
Si Si4 0.799181 0.545535 0.508129
Si Si5 0.174195 0.482111 0.157451
Si Si6 0.403931 0.362282 0.815257
Si Si7 0.274022 0.050777 0.990798
Si Si8 0.465763 0.364632 0.016660
O O1 0.368817 0.025682 0.651508
O O2 0.529798 0.190920 0.669079
O O3 0.549000 0.001948 0.858299
O O4 0.978205 0.723325 0.982930
O O5 0.622219 0.675967 0.801485
O O6 0.270855 0.856399 0.772840
O O7 0.000000 0.000000 0.500000
O O8 0.285337 0.566735 0.491670
O O9 0.575616 0.625525 0.657762
O O10 0.374321 0.504966 0.690934
O O11 0.886155 0.286003 0.804909
O O12 0.000000 0.500000 0.500000
O O13 0.060703 0.448584 0.684908
O O14 0.888993 0.523568 0.096401
O O15 0.693803 0.125486 0.944261
O O16 0.493493 0.343790 0.936977
O O17 0.500000 0.000000 0.000000
O O18 0.500000 0.500000 0.000000
#
# Coordination Sequence:
#
# PCOD9102921 Si02
#       8
#     2   2   2   2   2   2   2   2
#     4  10  20  38  64  92 136 170 227 262 332 393
#     4  11  25  43  72 100 128 179 225 281 336 397
#     4  10  21  39  66  96 131 174 228 264 336 394
#     4  10  21  37  63 101 133 173 218 278 324 392
#     4  10  23  43  68  97 131 178 224 270 335 414
#     4  11  22  38  64  95 137 171 223 276 330 394
#     4  11  21  37  61  94 130 175 224 273 331 400
#     4  11  24  45  67  97 132 178 224 278 340 400
#
# _framework density 24.647675
#
# number of rings (size 3 to 8) (size 9 to 14) (size 15 to 20)
#    0.000    1.500    2.500    4.875    7.000    1.000 
#    0.000    5.625    0.000    0.000    0.000    0.000 
#    0.000    0.000    0.000    0.000    0.000    0.000 
#
# Total GULP energy -89327.715146 kJ/mol
# GULP energy per Si atom -5582.982197 kJ/mol
# Density = 2.459158 g / cm^3
# Si number density = 24.647675 Si / 1000 Ang^3
#
#
#
# Elastic Constant Matrix: (Units=GPa)
#
#
# Indices 1 2 3 4 5 6 
#
# 1 67.5339 22.8705 23.1556 18.0526 7.2157 -9.1626
# 2 22.8705 163.4604 40.3168 35.5591 4.1505 -8.2408
# 3 23.1556 40.3168 85.8032 22.3957 22.7712 -6.7315
# 4 18.0526 35.5591 22.3957 65.3689 3.5538 7.9771
# 5 7.2157 4.1505 22.7712 3.5538 26.3875 7.5045
# 6 -9.1626 -8.2408 -6.7315 7.9771 7.5045 45.2977
#
#
#
# Elastic Compliance Matrix: (Units=1/GPa)
#
#
# Indices 1 2 3 4 5 6 
#
# 1 0.017896 -0.000772 -0.002025 -0.004178 -0.003752 0.004536
# 2 -0.000772 0.007646 -0.002903 -0.003173 0.001630 0.001092
# 3 -0.002025 -0.002903 0.019622 -0.004342 -0.016915 0.005545
# 4 -0.004178 -0.003173 -0.004342 0.020199 0.004479 -0.006367
# 5 -0.003752 0.001630 -0.016915 0.004479 0.056388 -0.013107
# 6 0.004536 0.001092 0.005545 -0.006367 -0.013107 0.027309
#
#
# Mechanical properties :
#
#
# Convention : Reuss Voigt Hill
#
# Bulk Modulus (GPa) = 29.61580 54.38702 42.00141
# Shear Modulus (GPa) = 29.11818 42.77446 35.94632
#
# Velocity S-wave (km/s) = 3.44084 4.17038 3.82305
# Velocity P-wave (km/s) = 5.27519 6.73075 6.04693
#
# Compressibility (1/GPa) = 0.03376576
#
# Stress axis : x y z
#
# Youngs Moduli (GPa) = 55.87769 130.79352 50.96215
#
# Poissons Ratio (x) = 0.10092 0.10318
# Poissons Ratio (y) = 0.04312 0.14794
# Poissons Ratio (z) = 0.11313 0.37969
#
# Static dielectric constant tensor:
#      x y z
#    x 2.050640 0.079520 -0.026210 
#    y 0.079520 1.978890 0.005370 
#    z -0.026210 0.005370 2.077470 
# 
# From -- ./inp_files/559845.got.cif
#   From: 2010.05.17/outbox.cif.g08.bks.cpg/sg2_280_cif.got.tgz:559845.got - 2010.06.03 11:33:40.
