data_PCOD9102589
_publ_section_title
;
Structure prediction by ZEFSAII (Michael W. Deem and Ramdas Pophale) SiO2 
 PCOD9102589
Probable space group: P -1
;
_chemical_formula_sum "Si O2"
_cell_formula_units_Z 16
_cell_length_a 24.380284
_cell_length_b 13.268090
_cell_length_c 16.387745
_cell_angle_alpha 31.675114
_cell_angle_beta 22.183214
_cell_angle_gamma 20.924532
_cell_volume 711.030044
_symmetry_space_group_name_H-M "P -1"
_symmetry_group_IT_number 2
_symmetry_cell_setting 'triclinic'
loop_
_space_group_symop_operation_xyz
x,y,z
-x,-y,-z
loop_
_atom_site_type_symbol
_atom_site_label
_atom_site_fract_x
_atom_site_fract_y
_atom_site_fract_z
Si Si1 0.469122 0.247993 0.398315
Si Si2 0.923082 0.941821 0.043028
Si Si3 0.229291 0.279960 0.040312
Si Si4 0.877098 0.749563 0.380584
Si Si5 0.838716 0.436289 0.536614
Si Si6 0.191012 0.451233 0.801181
Si Si7 0.305646 0.122759 0.275816
Si Si8 0.930753 0.011122 0.338594
O O1 0.328951 0.470534 0.363952
O O2 0.341699 0.359175 0.581845
O O3 0.500000 0.000000 0.500000
O O4 0.699927 0.114997 0.184981
O O5 0.868657 0.962129 0.199448
O O6 0.100472 0.600998 0.019472
O O7 0.004012 0.043625 0.809040
O O8 0.059852 0.276333 0.294774
O O9 0.283552 0.248913 0.891400
O O10 0.449552 0.048897 0.945636
O O11 0.779891 0.692075 0.488062
O O12 0.755016 0.841118 0.569978
O O13 0.122451 0.439042 0.272758
O O14 0.888741 0.244649 0.673293
O O15 0.116438 0.729206 0.746740
O O16 0.000000 0.500000 0.000000
O O17 0.263405 0.952362 0.413942
#
# Coordination Sequence:
#
# PCOD9102589 Si02
#       8
#     2   2   2   2   2   2   2   2
#     4  12  20  38  65  89 121 164 204 257 304 375
#     4  10  21  37  58  88 122 161 208 248 308 362
#     4  10  20  38  63  92 117 166 204 248 310 371
#     4   9  19  38  61  90 118 163 204 252 305 373
#     4  10  21  39  63  91 127 163 207 255 305 366
#     4  11  22  41  65  90 122 164 208 254 310 372
#     4  10  21  39  64  91 127 161 206 258 306 365
#     4  10  24  42  58  92 128 160 210 260 303 367
#
# _framework density 22.502564
#
# number of rings (size 3 to 8) (size 9 to 14) (size 15 to 20)
#    0.000    1.750    3.750    1.500    0.000    8.000 
#    0.000    6.250    0.000    0.000    0.000    0.000 
#    0.000    0.000    0.000    0.000    0.000    0.000 
#
# Total GULP energy -89322.078427 kJ/mol
# GULP energy per Si atom -5582.629902 kJ/mol
# Density = 2.245135 g / cm^3
# Si number density = 22.502564 Si / 1000 Ang^3
#
#
#
# Elastic Constant Matrix: (Units=GPa)
#
#
# Indices 1 2 3 4 5 6 
#
# 1 123.6861 31.1808 22.9474 0.7410 17.5776 -34.9044
# 2 31.1808 53.6381 31.1585 1.7087 -4.0898 -26.1444
# 3 22.9474 31.1585 72.8922 0.4358 -4.3068 -18.0917
# 4 0.7410 1.7087 0.4358 38.6833 -14.3038 -0.2082
# 5 17.5776 -4.0898 -4.3068 -14.3038 49.9739 -1.7780
# 6 -34.9044 -26.1444 -18.0917 -0.2082 -1.7780 46.5168
#
#
#
# Elastic Compliance Matrix: (Units=1/GPa)
#
#
# Indices 1 2 3 4 5 6 
#
# 1 0.011552 -0.003501 -0.000876 -0.001766 -0.004711 0.006172
# 2 -0.003501 0.032311 -0.009534 0.000110 0.003511 0.011959
# 3 -0.000876 -0.009534 0.018448 0.000745 0.001374 0.001215
# 4 -0.001766 0.000110 0.000745 0.029211 0.009037 -0.000497
# 5 -0.004711 0.003511 0.001374 0.009037 0.024658 -0.000044
# 6 0.006172 0.011959 0.001215 -0.000497 -0.000044 0.033319
#
#
# Mechanical properties :
#
#
# Convention : Reuss Voigt Hill
#
# Bulk Modulus (GPa) = 28.99556 46.75442 37.87499
# Shear Modulus (GPa) = 26.48055 38.03012 32.25534
#
# Velocity S-wave (km/s) = 3.43414 4.11546 3.79014
# Velocity P-wave (km/s) = 5.35144 6.58826 6.00179
#
# Compressibility (1/GPa) = 0.03448803
#
# Stress axis : x y z
#
# Youngs Moduli (GPa) = 86.56620 30.94948 54.20500
#
# Poissons Ratio (x) = 0.10836 0.04749
# Poissons Ratio (y) = 0.30309 0.51680
# Poissons Ratio (z) = 0.07584 0.29508
#
# Static dielectric constant tensor:
#      x y z
#    x 1.868400 -0.020780 -0.002380 
#    y -0.020780 1.828850 -0.031490 
#    z -0.002380 -0.031490 1.824250 
# 
# From -- ./inp_files/579876.got.cif
#   From: 2010.05.17/outbox.cif.g08.bks.cpg/sg2_290_cif.got.tgz:579876.got - 2010.06.03 11:33:40.
