data_PCOD9102458
_publ_section_title
;
Structure prediction by ZEFSAII (Michael W. Deem and Ramdas Pophale) SiO2 
 PCOD9102458
Probable space group: P -1
;
_chemical_formula_sum "Si O2"
_cell_formula_units_Z 14
_cell_length_a 7.960131
_cell_length_b 11.123866
_cell_length_c 13.996047
_cell_angle_alpha 112.270719
_cell_angle_beta 131.299179
_cell_angle_gamma 103.971145
_cell_volume 609.304632
_symmetry_space_group_name_H-M "P -1"
_symmetry_group_IT_number 2
_symmetry_cell_setting 'triclinic'
loop_
_space_group_symop_operation_xyz
x,y,z
-x,-y,-z
loop_
_atom_site_type_symbol
_atom_site_label
_atom_site_fract_x
_atom_site_fract_y
_atom_site_fract_z
Si Si1 0.117541 0.825206 0.050300
Si Si2 0.124042 0.853553 0.287836
Si Si3 0.434962 0.780609 0.624969
Si Si4 0.360752 0.682404 0.166093
Si Si5 0.286265 0.188584 0.465673
Si Si6 0.397579 0.524978 0.657756
Si Si7 0.182950 0.364860 0.720707
O O1 0.079068 0.814180 0.147624
O O2 0.339257 0.790532 0.115095
O O3 0.295681 0.032534 0.158962
O O4 0.776932 0.666301 0.827969
O O5 0.911189 0.666904 0.213065
O O6 0.500000 0.000000 0.500000
O O7 0.031575 0.966870 0.307243
O O8 0.557994 0.771103 0.568016
O O9 0.300730 0.607823 0.584140
O O10 0.171759 0.780273 0.500380
O O11 0.499181 0.760899 0.347677
O O12 0.595005 0.668203 0.213328
O O13 0.000000 0.500000 0.000000
O O14 0.235251 0.322078 0.503265
O O15 0.345883 0.525772 0.752442
#
# Coordination Sequence:
#
# PCOD9102458 Si02
#       7
#     2   2   2   2   2   2   2
#     4  11  21  40  61  88 126 157 197 249 309 350
#     4  11  20  38  62  92 123 150 199 256 309 356
#     4  11  22  41  60  87 121 165 209 235 288 368
#     4  11  20  37  60  94 123 145 199 259 309 345
#     4  10  20  38  63  84 120 159 199 243 300 350
#     4  11  24  38  60  89 124 163 202 243 291 359
#     4  11  22  38  65  89 121 157 202 253 299 353
#
# _framework density 22.977011000000001
#
# number of rings (size 3 to 8) (size 9 to 14) (size 15 to 20)
#    0.000    1.143    7.143    1.286    0.000    5.714 
#    2.571    0.000    0.000    0.000    0.000   20.000 
#    0.000    0.000    0.000    0.000    0.000    0.000 
#
# Total GULP energy -77956.587786 kJ/mol
# GULP energy per Si atom -5568.327699 kJ/mol
# Density = 2.292471 g / cm^3
# Si number density = 22.977011 Si / 1000 Ang^3
#
#
#
# Elastic Constant Matrix: (Units=GPa)
#
#
# Indices 1 2 3 4 5 6 
#
# 1 70.8061 24.4988 14.8552 -2.4092 16.1466 3.3918
# 2 24.4988 99.5132 4.6108 5.3671 8.4378 -9.7131
# 3 14.8552 4.6108 36.4713 -2.8458 2.1466 -14.7233
# 4 -2.4092 5.3671 -2.8458 22.9344 -8.1076 2.0464
# 5 16.1466 8.4378 2.1466 -8.1076 21.6445 1.8235
# 6 3.3918 -9.7131 -14.7233 2.0464 1.8235 35.1657
#
#
#
# Elastic Compliance Matrix: (Units=1/GPa)
#
#
# Indices 1 2 3 4 5 6 
#
# 1 0.020902 -0.004071 -0.010021 -0.002212 -0.013291 -0.006518
# 2 -0.004071 0.012069 0.002045 -0.004915 -0.004140 0.005083
# 3 -0.010021 0.002045 0.038278 0.002512 0.002367 0.017289
# 4 -0.002212 -0.004915 0.002512 0.053637 0.023783 -0.004447
# 5 -0.013291 -0.004140 0.002367 0.023783 0.066717 -0.003714
# 6 -0.006518 0.005083 0.017289 -0.004447 -0.003714 0.038159
#
#
# Mechanical properties :
#
#
# Convention : Reuss Voigt Hill
#
# Bulk Modulus (GPa) = 21.20716 32.74669 26.97693
# Shear Modulus (GPa) = 18.54782 26.80398 22.67590
#
# Velocity S-wave (km/s) = 2.84427 3.41919 3.14490
# Velocity P-wave (km/s) = 4.47619 5.46541 4.99535
#
# Compressibility (1/GPa) = 0.04715389
#
# Stress axis : x y z
#
# Youngs Moduli (GPa) = 47.84238 82.85853 26.12481
#
# Poissons Ratio (x) = 0.33736 0.26178
# Poissons Ratio (y) = 0.19479 -0.05342
# Poissons Ratio (z) = 0.47941 -0.16942
#
# Static dielectric constant tensor:
#      x y z
#    x 1.973590 -0.052840 -0.009740 
#    y -0.052840 1.923710 0.054480 
#    z -0.009740 0.054480 1.906700 
# 
# From -- ./inp_files/179979.got.cif
#   From: 2010.05.17/outbox.cif.g08.bks.cpg/sg2_90_cif.got.tgz:179979.got - 2010.06.03 11:33:40.
