data_PCOD9102214
_publ_section_title
;
Structure prediction by ZEFSAII (Michael W. Deem and Ramdas Pophale) SiO2 
 PCOD9102214
Probable space group: P -1
;
_chemical_formula_sum "Si O2"
_cell_formula_units_Z 15
_cell_length_a 19.673643
_cell_length_b 9.109080
_cell_length_c 14.625087
_cell_angle_alpha 129.955361
_cell_angle_beta 162.216521
_cell_angle_gamma 53.437420
_cell_volume 612.212382
_symmetry_space_group_name_H-M "P -1"
_symmetry_group_IT_number 2
_symmetry_cell_setting 'triclinic'
loop_
_space_group_symop_operation_xyz
x,y,z
-x,-y,-z
loop_
_atom_site_type_symbol
_atom_site_label
_atom_site_fract_x
_atom_site_fract_y
_atom_site_fract_z
Si Si1 0.239038 0.817454 0.166794
Si Si2 0.000000 0.500000 0.000000
Si Si3 0.208555 0.884148 0.699087
Si Si4 0.477762 0.290869 0.844894
Si Si5 0.601767 0.646608 0.442625
Si Si6 0.495712 0.757536 0.772811
Si Si7 0.870938 0.595115 0.066593
Si Si8 0.147830 0.952736 0.306012
O O1 0.462468 0.776929 0.382911
O O2 0.247407 0.895702 0.312388
O O3 0.123819 0.602619 0.948460
O O4 0.093704 0.967748 0.986959
O O5 0.843170 0.565639 0.911877
O O6 0.146628 0.374034 0.211043
O O7 0.104765 0.717511 0.434264
O O8 0.295911 0.799938 0.871585
O O9 0.000000 0.000000 0.500000
O O10 0.393898 0.045050 0.967659
O O11 0.427175 0.293335 0.674371
O O12 0.288932 0.149402 0.593342
O O13 0.500000 0.500000 0.000000
O O14 0.500816 0.425840 0.232511
O O15 0.237042 0.786996 0.422002
O O16 0.657419 0.702874 0.874242
#
# Coordination Sequence:
#
# PCOD9102214 Si02
#       8
#     2   1   2   2   2   2   2   2
#     4  10  21  39  61  89 125 161 208 257 310 367
#     4  12  22  34  60  90 122 160 204 246 304 372
#     4   9  19  40  66  89 119 159 203 254 304 357
#     4  11  23  42  63  87 125 167 208 254 310 369
#     4  11  24  41  64  93 123 166 209 253 311 373
#     4   9  20  40  64  91 121 158 210 258 303 362
#     4  10  20  39  63  90 123 164 204 250 311 373
#     4  10  20  38  62  88 123 163 201 259 313 360
#
# _framework density 24.501301000000002
#
# number of rings (size 3 to 8) (size 9 to 14) (size 15 to 20)
#    0.000    1.867    0.000    4.000    0.000    3.733 
#    0.000   31.333    0.000    0.000    0.000    0.000 
#    0.000    0.000    0.000    0.000    0.000    0.000 
#
# Total GULP energy -83688.171521 kJ/mol
# GULP energy per Si atom -5579.211435 kJ/mol
# Density = 2.444554 g / cm^3
# Si number density = 24.501301 Si / 1000 Ang^3
#
#
#
# Elastic Constant Matrix: (Units=GPa)
#
#
# Indices 1 2 3 4 5 6 
#
# 1 111.9781 36.2421 21.8961 -29.0700 5.8686 -10.8318
# 2 36.2421 168.4656 44.2241 -22.4461 -6.6453 5.8982
# 3 21.8961 44.2241 101.9000 -26.4751 -5.8948 -2.9763
# 4 -29.0700 -22.4461 -26.4751 65.7716 0.2648 -3.6931
# 5 5.8686 -6.6453 -5.8948 0.2648 21.6880 -12.6277
# 6 -10.8318 5.8982 -2.9763 -3.6931 -12.6277 34.2442
#
#
#
# Elastic Compliance Matrix: (Units=1/GPa)
#
#
# Indices 1 2 3 4 5 6 
#
# 1 0.011204 -0.001912 -0.000437 0.004338 -0.001635 0.003700
# 2 -0.001912 0.007184 -0.002568 0.000478 0.001072 -0.001618
# 3 -0.000437 -0.002568 0.012477 0.004135 0.004763 0.003591
# 4 0.004338 0.000478 0.004135 0.019201 0.002582 0.004672
# 5 -0.001635 0.001072 0.004763 0.002582 0.061298 0.022594
# 6 0.003700 -0.001618 0.003591 0.004672 0.022594 0.039799
#
#
# Mechanical properties :
#
#
# Convention : Reuss Voigt Hill
#
# Bulk Modulus (GPa) = 47.54900 65.22980 56.38940
# Shear Modulus (GPa) = 29.76060 43.00618 36.38339
#
# Velocity S-wave (km/s) = 3.48897 4.19413 3.85770
# Velocity P-wave (km/s) = 5.97322 7.08061 6.55036
#
# Compressibility (1/GPa) = 0.02103094
#
# Stress axis : x y z
#
# Youngs Moduli (GPa) = 89.25116 139.19878 80.14874
#
# Poissons Ratio (x) = 0.26610 0.03505
# Poissons Ratio (y) = 0.17062 0.20583
# Poissons Ratio (z) = 0.03903 0.35748
#
# Static dielectric constant tensor:
#      x y z
#    x 1.862710 0.027980 0.048770 
#    y 0.027980 2.067610 0.180360 
#    z 0.048770 0.180360 2.111050 
# 
# From -- ./inp_files/540571.got.cif
#   From: 2010.05.17/outbox.cif.g08.bks.cpg/sg2_271_cif.got.tgz:540571.got - 2010.06.03 11:33:40.
