data_PCOD9102957
_publ_section_title
;
Structure prediction by ZEFSAII (Michael W. Deem and Ramdas Pophale) SiO2 
 PCOD9102957
Probable space group: P -1
;
_chemical_formula_sum "Si O2"
_cell_formula_units_Z 16
_cell_length_a 8.112060
_cell_length_b 25.867232
_cell_length_c 25.781210
_cell_angle_alpha 168.977640
_cell_angle_beta 138.831323
_cell_angle_gamma 40.812896
_cell_volume 673.901162
_symmetry_space_group_name_H-M "P -1"
_symmetry_group_IT_number 2
_symmetry_cell_setting 'triclinic'
loop_
_space_group_symop_operation_xyz
x,y,z
-x,-y,-z
loop_
_atom_site_type_symbol
_atom_site_label
_atom_site_fract_x
_atom_site_fract_y
_atom_site_fract_z
Si Si1 0.689455 0.039952 0.878615
Si Si2 0.343852 0.379664 0.732151
Si Si3 0.857930 0.047805 0.567904
Si Si4 0.760011 0.695166 0.820194
Si Si5 0.710727 0.103561 0.829623
Si Si6 0.030741 0.480009 0.413675
Si Si7 0.497243 0.208727 0.314629
Si Si8 0.196338 0.495010 0.919227
O O1 0.496571 0.939373 0.774329
O O2 0.931728 0.800512 0.702201
O O3 0.603364 0.070188 0.828611
O O4 0.790338 0.316188 0.192345
O O5 0.575905 0.181684 0.617388
O O6 0.151945 0.478708 0.831039
O O7 0.254456 0.185060 0.475368
O O8 0.437517 0.648553 0.994698
O O9 0.858300 0.771010 0.326210
O O10 0.944575 0.254942 0.834809
O O11 0.000000 0.000000 0.500000
O O12 0.020285 0.789162 0.993761
O O13 0.558116 0.962618 0.045602
O O14 0.806472 0.602954 0.681338
O O15 0.677551 0.437411 0.576412
O O16 0.217530 0.367278 0.392895
O O17 0.500000 0.500000 0.000000
#
# Coordination Sequence:
#
# PCOD9102957 Si02
#       8
#     2   2   2   2   2   2   2   2
#     4  11  23  39  60  86 122 158 200 251 302 372
#     4  11  21  40  67  86 117 168 206 234 284 368
#     4  11  22  39  65 101 131 148 187 256 306 334
#     4  11  23  38  59  86 119 153 202 261 299 354
#     4  11  23  41  60  84 117 169 210 234 290 368
#     4  11  21  39  61  87 116 158 201 247 318 381
#     4  12  22  38  61  90 117 151 199 267 320 348
#     4  10  20  38  64  94 122 157 198 236 285 349
#
# _framework density 23.742353999999999
#
# number of rings (size 3 to 8) (size 9 to 14) (size 15 to 20)
#    0.000    1.000    0.000   10.875    0.000    0.000 
#    0.000    5.000    0.000    3.000    0.000    0.000 
#    0.000    0.000    0.000    0.000    0.000    0.000 
#
# Total GULP energy -89562.733085 kJ/mol
# GULP energy per Si atom -5597.670818 kJ/mol
# Density = 2.368832 g / cm^3
# Si number density = 23.742354 Si / 1000 Ang^3
#
#
#
# Elastic Constant Matrix: (Units=GPa)
#
#
# Indices 1 2 3 4 5 6 
#
# 1 99.5392 34.0909 23.4701 16.1845 -13.2681 35.2141
# 2 34.0909 0.2541 47.5073 -46.3022 35.4318 41.2374
# 3 23.4701 47.5073 96.3309 44.3117 -30.4007 10.3025
# 4 16.1845 -46.3022 44.3117 -11.0245 44.6837 9.3786
# 5 -13.2681 35.4318 -30.4007 44.6837 14.2575 -6.5082
# 6 35.2141 41.2374 10.3025 9.3786 -6.5082 38.7316
#
#
#
# Elastic Compliance Matrix: (Units=1/GPa)
#
#
# Indices 1 2 3 4 5 6 
#
# 1 0.016030 0.003982 -0.001740 -0.003003 0.002901 -0.017136
# 2 0.003982 0.021085 0.004706 -0.020024 0.014988 -0.019954
# 3 -0.001740 0.004706 0.008318 0.000922 -0.001240 -0.006073
# 4 -0.003003 -0.020024 0.000922 0.017848 0.002046 0.019826
# 5 0.002901 0.014988 -0.001240 0.002046 0.019465 -0.015490
# 6 -0.017136 -0.019954 -0.006073 0.019826 -0.015490 0.056856
#
#
# Mechanical properties :
#
#
# Convention : Reuss Voigt Hill
#
# Bulk Modulus (GPa) = 16.85507 45.14009 30.99758
# Shear Modulus (GPa) = 34.36832 14.46329 24.41581
#
# Velocity S-wave (km/s) = 3.80880 2.47083 3.21029
# Velocity P-wave (km/s) = 5.14365 5.21476 5.17933
#
# Compressibility (1/GPa) = 0.05932931
#
# Stress axis : x y z
#
# Youngs Moduli (GPa) = 62.38295 47.42649 120.22138
#
# Poissons Ratio (x) = -0.18884 0.20916
# Poissons Ratio (y) = -0.24839 -0.56578
# Poissons Ratio (z) = 0.10853 -0.22320
#
# Static dielectric constant tensor:
#      x y z
#    x 1.952340 0.023120 -0.034330 
#    y 0.023120 1.981160 -0.010350 
#    z -0.034330 -0.010350 1.864140 
# 
# From -- ./inp_files/617714.got.cif
#   From: 2010.05.17/outbox.cif.g08.bks.cpg/sg2_309_cif.got.tgz:617714.got - 2010.06.03 11:33:40.
