data_PCOD9102491
_publ_section_title
;
Structure prediction by ZEFSAII (Michael W. Deem and Ramdas Pophale) SiO2 
 PCOD9102491
Probable space group: P -1
;
_chemical_formula_sum "Si O2"
_cell_formula_units_Z 12
_cell_length_a 7.588929
_cell_length_b 12.908873
_cell_length_c 8.819104
_cell_angle_alpha 112.869128
_cell_angle_beta 62.987021
_cell_angle_gamma 141.216351
_cell_volume 481.202192
_symmetry_space_group_name_H-M "P -1"
_symmetry_group_IT_number 2
_symmetry_cell_setting 'triclinic'
loop_
_space_group_symop_operation_xyz
x,y,z
-x,-y,-z
loop_
_atom_site_type_symbol
_atom_site_label
_atom_site_fract_x
_atom_site_fract_y
_atom_site_fract_z
Si Si1 0.056872 0.535234 0.176190
Si Si2 0.541151 0.691582 0.527573
Si Si3 0.170579 0.151432 0.198809
Si Si4 0.258516 0.426967 0.250929
Si Si5 0.401847 0.870021 0.589450
Si Si6 0.563619 0.908419 0.137392
O O1 0.209201 0.488761 0.163961
O O2 0.276724 0.731391 0.215314
O O3 0.756340 0.428511 0.324039
O O4 0.000000 0.500000 0.000000
O O5 0.794320 0.795135 0.611539
O O6 0.500999 0.576755 0.355485
O O7 0.558575 0.817018 0.505578
O O8 0.292482 0.308619 0.143552
O O9 0.358272 0.120493 0.066572
O O10 0.844014 0.995906 0.181961
O O11 0.941169 0.299456 0.383628
O O12 0.500000 0.000000 0.500000
O O13 0.448548 0.962297 0.777942
#
# Coordination Sequence:
#
# PCOD9102491 Si02
#       6
#     2   2   2   2   2   2
#     4  11  21  40  62  91 118 159 207 246 293 356
#     4  11  21  40  65  91 118 158 206 247 296 357
#     4  10  22  40  59  89 125 162 192 246 309 357
#     4  10  22  39  63  88 127 156 199 251 298 357
#     4  10  20  38  63  87 120 160 199 250 298 347
#     4  10  21  40  58  86 130 150 200 245 302 354
#
# _framework density 24.937541
#
# number of rings (size 3 to 8) (size 9 to 14) (size 15 to 20)
#    0.000    1.667    1.667    4.500    0.000    1.333 
#    6.000    9.167    0.000    0.000    0.000    0.000 
#    0.000    0.000    0.000    0.000    0.000    0.000 
#
# Total GULP energy -67145.123471 kJ/mol
# GULP energy per Si atom -5595.426956 kJ/mol
# Density = 2.488078 g / cm^3
# Si number density = 24.937541 Si / 1000 Ang^3
#
#
#
# Elastic Constant Matrix: (Units=GPa)
#
#
# Indices 1 2 3 4 5 6 
#
# 1 57.8633 28.7085 21.4282 2.0227 27.3961 -2.2310
# 2 28.7085 120.9594 36.3685 21.5728 19.5608 15.2056
# 3 21.4282 36.3685 93.9344 12.0217 20.6024 -1.4610
# 4 2.0227 21.5728 12.0217 49.7592 1.3680 -4.2609
# 5 27.3961 19.5608 20.6024 1.3680 39.0531 7.6150
# 6 -2.2310 15.2056 -1.4610 -4.2609 7.6150 32.9444
#
#
#
# Elastic Compliance Matrix: (Units=1/GPa)
#
#
# Indices 1 2 3 4 5 6 
#
# 1 0.029815 -0.005335 -0.000564 0.002587 -0.019866 0.009383
# 2 -0.005335 0.012072 -0.003130 -0.004876 0.000864 -0.006902
# 3 -0.000564 -0.003130 0.013471 -0.001450 -0.005704 0.003135
# 4 0.002587 -0.004876 -0.001450 0.022934 -0.000471 0.005436
# 5 -0.019866 0.000864 -0.005704 -0.000471 0.044545 -0.012354
# 6 0.009383 -0.006902 0.003135 0.005436 -0.012354 0.037873
#
#
# Mechanical properties :
#
#
# Convention : Reuss Voigt Hill
#
# Bulk Modulus (GPa) = 26.80856 49.52972 38.16914
# Shear Modulus (GPa) = 26.15043 36.76811 31.45927
#
# Velocity S-wave (km/s) = 3.24178 3.84397 3.55565
# Velocity P-wave (km/s) = 4.97853 6.29334 5.67415
#
# Compressibility (1/GPa) = 0.03730152
#
# Stress axis : x y z
#
# Youngs Moduli (GPa) = 33.54001 82.83646 74.23117
#
# Poissons Ratio (x) = 0.44194 0.04185
# Poissons Ratio (y) = 0.17894 0.23232
# Poissons Ratio (z) = 0.01891 0.25925
#
# Static dielectric constant tensor:
#      x y z
#    x 1.979860 0.005830 -0.032170 
#    y 0.005830 1.920670 0.004300 
#    z -0.032170 0.004300 2.120190 
# 
# From -- ./inp_files/150515.got.cif
#   From: 2010.05.17/outbox.cif.g08.bks.cpg/sg2_76_cif.got.tgz:150515.got - 2010.06.03 11:33:40.
