data_PCOD9102449
_publ_section_title
;
Structure prediction by ZEFSAII (Michael W. Deem and Ramdas Pophale) SiO2 
 PCOD9102449
Probable space group: P -1
;
_chemical_formula_sum "Si O2"
_cell_formula_units_Z 12
_cell_length_a 17.474532
_cell_length_b 5.240763
_cell_length_c 7.917638
_cell_angle_alpha 61.450690
_cell_angle_beta 133.559260
_cell_angle_gamma 117.357950
_cell_volume 451.797821
_symmetry_space_group_name_H-M "P -1"
_symmetry_group_IT_number 2
_symmetry_cell_setting 'triclinic'
loop_
_space_group_symop_operation_xyz
x,y,z
-x,-y,-z
loop_
_atom_site_type_symbol
_atom_site_label
_atom_site_fract_x
_atom_site_fract_y
_atom_site_fract_z
Si Si1 0.790065 0.652424 0.214844
Si Si2 0.259652 0.888214 0.248679
Si Si3 0.400111 0.242109 0.883951
Si Si4 0.466458 0.176532 0.633636
Si Si5 0.954712 0.298310 0.835146
Si Si6 0.872455 0.275383 0.220752
O O1 0.699954 0.654226 0.216917
O O2 0.615238 0.062761 0.528659
O O3 0.820263 0.353534 0.290451
O O4 0.751304 0.788925 0.939928
O O5 0.173604 0.782769 0.300227
O O6 0.209831 0.698724 0.069103
O O7 0.399252 0.198477 0.696505
O O8 0.429940 0.952519 0.109853
O O9 0.119352 0.068017 0.671660
O O10 0.500000 0.500000 0.000000
O O11 0.500000 0.500000 0.500000
O O12 0.000000 0.500000 0.000000
O O13 0.018011 0.490580 0.719523
O O14 0.000000 0.000000 0.000000
#
# Coordination Sequence:
#
# PCOD9102449 Si02
#       6
#     2   2   2   2   2   2
#     4  10  21  36  65  92 129 175 220 268 337 395
#     4   9  21  34  66  95 132 173 224 279 330 399
#     4  11  27  43  67  96 138 182 226 283 344 399
#     4  11  26  47  69  99 137 178 234 282 337 407
#     4  10  16  32  56  97 130 166 219 270 330 399
#     4   9  19  34  61  97 128 172 219 273 332 400
#
# _framework density 26.560552999999999
#
# number of rings (size 3 to 8) (size 9 to 14) (size 15 to 20)
#    1.000    1.000    1.667    1.000    7.000    4.000 
#    0.000    0.833    0.000    2.000    0.000    0.000 
#    0.000    0.000    0.000    0.000    0.000    0.000 
#
# Total GULP energy -67120.490041 kJ/mol
# GULP energy per Si atom -5593.374170 kJ/mol
# Density = 2.650010 g / cm^3
# Si number density = 26.560553 Si / 1000 Ang^3
#
#
#
# Elastic Constant Matrix: (Units=GPa)
#
#
# Indices 1 2 3 4 5 6 
#
# 1 164.0118 48.5197 64.2091 3.1671 -14.3119 -5.7827
# 2 48.5197 105.9643 47.7625 -10.1011 10.8385 -10.2704
# 3 64.2091 47.7625 117.6841 1.3302 -2.1730 1.4095
# 4 3.1671 -10.1011 1.3302 36.9630 2.6407 3.5381
# 5 -14.3119 10.8385 -2.1730 2.6407 37.1097 6.5292
# 6 -5.7827 -10.2704 1.4095 3.5381 6.5292 66.5075
#
#
#
# Elastic Compliance Matrix: (Units=1/GPa)
#
#
# Indices 1 2 3 4 5 6 
#
# 1 0.008744 -0.003044 -0.003439 -0.001760 0.004177 0.000047
# 2 -0.003044 0.014032 -0.004228 0.004468 -0.006255 0.002368
# 3 -0.003439 -0.004228 0.012136 -0.001246 0.000925 -0.001234
# 4 -0.001760 0.004468 -0.001246 0.028812 -0.004006 -0.000576
# 5 0.004177 -0.006255 0.000925 -0.004006 0.031337 -0.003486
# 6 0.000047 0.002368 -0.001234 -0.000576 -0.003486 0.015805
#
#
# Mechanical properties :
#
#
# Convention : Reuss Voigt Hill
#
# Bulk Modulus (GPa) = 74.13523 78.73810 76.43666
# Shear Modulus (GPa) = 36.55366 43.26064 39.90715
#
# Velocity S-wave (km/s) = 3.71379 4.04016 3.88041
# Velocity P-wave (km/s) = 6.80897 7.17447 6.99411
#
# Compressibility (1/GPa) = 0.01348886
#
# Stress axis : x y z
#
# Youngs Moduli (GPa) = 114.36229 71.26476 82.40225
#
# Poissons Ratio (x) = 0.21695 0.28337
# Poissons Ratio (y) = 0.34816 0.34843
# Poissons Ratio (z) = 0.39327 0.30133
#
# Static dielectric constant tensor:
#      x y z
#    x 2.096170 0.015610 0.021920 
#    y 0.015610 2.035940 -0.028180 
#    z 0.021920 -0.028180 2.188580 
# 
# From -- ./inp_files/321594.got.cif
#   From: 2010.05.17/outbox.cif.g08.bks.cpg/sg2_161_cif.got.tgz:321594.got - 2010.06.03 11:33:40.
