data_PCOD9102243
_publ_section_title
;
Structure prediction by ZEFSAII (Michael W. Deem and Ramdas Pophale) SiO2 
 PCOD9102243
Probable space group: P -1
;
_chemical_formula_sum "Si O2"
_cell_formula_units_Z 14
_cell_length_a 15.256111
_cell_length_b 8.233893
_cell_length_c 11.012711
_cell_angle_alpha 132.166493
_cell_angle_beta 48.542814
_cell_angle_gamma 147.804178
_cell_volume 530.627595
_symmetry_space_group_name_H-M "P -1"
_symmetry_group_IT_number 2
_symmetry_cell_setting 'triclinic'
loop_
_space_group_symop_operation_xyz
x,y,z
-x,-y,-z
loop_
_atom_site_type_symbol
_atom_site_label
_atom_site_fract_x
_atom_site_fract_y
_atom_site_fract_z
Si Si1 0.765720 0.187373 0.111502
Si Si2 0.492030 0.868657 0.568826
Si Si3 0.363614 0.012567 0.107193
Si Si4 0.920898 0.014421 0.203070
Si Si5 0.208932 0.688013 0.319126
Si Si6 0.672372 0.626287 0.045809
Si Si7 0.874040 0.759958 0.387885
O O1 0.582317 0.049820 0.230780
O O2 0.883722 0.509092 0.239649
O O3 0.753162 0.931080 0.047898
O O4 0.784026 0.247087 0.981872
O O5 0.330028 0.484922 0.524775
O O6 0.500000 0.000000 0.500000
O O7 0.680612 0.085401 0.553896
O O8 0.470209 0.344827 0.108022
O O9 0.275324 0.934014 0.275381
O O10 0.500000 0.000000 0.000000
O O11 0.010174 0.370253 0.322794
O O12 0.731065 0.743545 0.190145
O O13 0.923072 0.915362 0.286933
O O14 0.000000 0.000000 0.000000
O O15 0.266896 0.516401 0.143921
O O16 0.000000 0.000000 0.500000
#
# Coordination Sequence:
#
# PCOD9102243 Si02
#       7
#     2   2   2   2   2   2   2
#     4  10  20  32  58  84 108 138 185 227 288 313
#     4  10  20  34  58  78 107 142 193 224 263 330
#     4  10  16  32  56  83 106 141 179 219 274 332
#     4  10  20  34  57  83 111 148 187 220 270 332
#     4  10  19  33  57  83 108 143 186 218 271 333
#     4  10  18  33  55  85 113 140 171 238 281 321
#     4  10  20  37  58  80 108 151 190 221 271 339
#
# _framework density 26.383852000000001
#
# number of rings (size 3 to 8) (size 9 to 14) (size 15 to 20)
#    0.857    1.143    2.857    4.714    0.000    0.000 
#    0.000    7.143    3.143    1.714    0.000    0.000 
#    0.000    0.000    0.000    0.000    0.000    0.000 
#
# Total GULP energy -78017.491420 kJ/mol
# GULP energy per Si atom -5572.677959 kJ/mol
# Density = 2.632380 g / cm^3
# Si number density = 26.383852 Si / 1000 Ang^3
#
#
#
# Elastic Constant Matrix: (Units=GPa)
#
#
# Indices 1 2 3 4 5 6 
#
# 1 80.5118 52.9202 67.1357 15.5767 29.1011 -3.5462
# 2 52.9202 152.1982 64.9551 12.2321 25.5081 2.3804
# 3 67.1357 64.9551 140.7904 36.2429 48.0022 3.0308
# 4 15.5767 12.2321 36.2429 47.4960 6.6902 7.9059
# 5 29.1011 25.5081 48.0022 6.6902 58.6211 0.1639
# 6 -3.5462 2.3804 3.0308 7.9059 0.1639 60.4852
#
#
#
# Elastic Compliance Matrix: (Units=1/GPa)
#
#
# Indices 1 2 3 4 5 6 
#
# 1 0.023049 -0.004080 -0.008038 -0.000270 -0.003059 0.001958
# 2 -0.004080 0.008955 -0.002428 0.000984 0.000007 -0.000599
# 3 -0.008038 -0.002428 0.016929 -0.008538 -0.007841 -0.000087
# 4 -0.000270 0.000984 -0.008538 0.027437 0.003575 -0.003223
# 5 -0.003059 0.000007 -0.007841 0.003575 0.024588 -0.000321
# 6 0.001958 -0.000599 -0.000087 -0.003223 -0.000321 0.017098
#
#
# Mechanical properties :
#
#
# Convention : Reuss Voigt Hill
#
# Bulk Modulus (GPa) = 50.40429 82.61361 66.50895
# Shear Modulus (GPa) = 32.51756 45.88642 39.20199
#
# Velocity S-wave (km/s) = 3.51448 4.17488 3.85883
# Velocity P-wave (km/s) = 5.96778 7.39051 6.71692
#
# Compressibility (1/GPa) = 0.01983958
#
# Stress axis : x y z
#
# Youngs Moduli (GPa) = 43.38490 111.67472 59.06953
#
# Poissons Ratio (x) = 0.45564 0.47483
# Poissons Ratio (y) = 0.17701 0.14345
# Poissons Ratio (z) = 0.34875 0.27119
#
# Static dielectric constant tensor:
#      x y z
#    x 2.068730 0.172110 -0.202910 
#    y 0.172110 2.120570 0.049700 
#    z -0.202910 0.049700 1.983740 
# 
# From -- ./inp_files/461537.got.cif
#   From: 2010.05.17/outbox.cif.g08.bks.cpg/sg2_231_cif.got.tgz:461537.got - 2010.06.03 11:33:40.
