data_PCOD9102140
_publ_section_title
;
Structure prediction by ZEFSAII (Michael W. Deem and Ramdas Pophale) SiO2 
 PCOD9102140
Probable space group: P -1
;
_chemical_formula_sum "Si O2"
_cell_formula_units_Z 16
_cell_length_a 16.117711
_cell_length_b 14.358082
_cell_length_c 7.248526
_cell_angle_alpha 59.202253
_cell_angle_beta 82.330308
_cell_angle_gamma 37.434120
_cell_volume 746.485761
_symmetry_space_group_name_H-M "P -1"
_symmetry_group_IT_number 2
_symmetry_cell_setting 'triclinic'
loop_
_space_group_symop_operation_xyz
x,y,z
-x,-y,-z
loop_
_atom_site_type_symbol
_atom_site_label
_atom_site_fract_x
_atom_site_fract_y
_atom_site_fract_z
Si Si1 0.136071 0.290578 0.288762
Si Si2 0.536919 0.264169 0.977582
Si Si3 0.331806 0.107227 0.751506
Si Si4 0.701298 0.304642 0.327355
Si Si5 0.464815 0.381533 0.449075
Si Si6 0.579905 0.020201 0.731506
Si Si7 0.870496 0.215295 0.720965
Si Si8 0.131930 0.048674 0.617880
O O1 0.168500 0.279073 0.507740
O O2 0.301902 0.145581 0.295050
O O3 0.119421 0.178364 0.387985
O O4 0.000000 0.500000 0.000000
O O5 0.394358 0.479295 0.915880
O O6 0.507928 0.327907 0.708860
O O7 0.551585 0.118274 0.128118
O O8 0.711555 0.113072 0.136218
O O9 0.423503 0.118945 0.691657
O O10 0.323870 0.094132 0.986559
O O11 0.557086 0.380482 0.336566
O O12 0.795270 0.231018 0.559124
O O13 0.823338 0.105492 0.362324
O O14 0.273683 0.598403 0.287382
O O15 0.530075 0.198701 0.531534
O O16 0.967900 0.208301 0.613567
O O17 0.000000 0.000000 0.000000
#
# Coordination Sequence:
#
# PCOD9102140 Si02
#       8
#     2   2   2   2   2   2   2   2
#     4  11  24  41  62  92 133 167 207 264 326 372
#     4   9  19  35  61  86 115 161 200 253 305 373
#     4   9  21  39  65  92 122 164 216 267 308 372
#     4  11  20  37  62  87 120 157 205 250 310 377
#     4  10  20  38  62  86 115 164 205 248 306 373
#     4  10  20  42  65  90 121 163 225 260 303 381
#     4  11  23  39  58  91 128 160 200 257 318 371
#     4  11  22  39  58  90 127 157 204 259 315 373
#
# _framework density 21.433767
#
# number of rings (size 3 to 8) (size 9 to 14) (size 15 to 20)
#    0.000    1.750    1.250    4.125    0.000    4.500 
#    2.250    0.000    0.000    0.000    0.000    0.000 
#    0.000    0.000    0.000    0.000    0.000    0.000 
#
# Total GULP energy -89363.176570 kJ/mol
# GULP energy per Si atom -5585.198536 kJ/mol
# Density = 2.138498 g / cm^3
# Si number density = 21.433767 Si / 1000 Ang^3
#
#
#
# Elastic Constant Matrix: (Units=GPa)
#
#
# Indices 1 2 3 4 5 6 
#
# 1 56.0144 2.0369 16.3022 -1.4522 -1.9204 4.2300
# 2 2.0369 44.7447 12.3736 -6.1789 8.0310 -9.6070
# 3 16.3022 12.3736 117.4992 -6.7843 5.5149 5.7787
# 4 -1.4522 -6.1789 -6.7843 19.0934 -1.9236 5.2626
# 5 -1.9204 8.0310 5.5149 -1.9236 30.9373 4.3784
# 6 4.2300 -9.6070 5.7787 5.2626 4.3784 34.3445
#
#
#
# Elastic Compliance Matrix: (Units=1/GPa)
#
#
# Indices 1 2 3 4 5 6 
#
# 1 0.018909 -0.001017 -0.002423 0.001224 0.002326 -0.002690
# 2 -0.001017 0.026847 -0.002472 0.004697 -0.007472 0.008284
# 3 -0.002423 -0.002472 0.009424 0.002942 -0.000674 -0.002344
# 4 0.001224 0.004697 0.002942 0.057712 0.003134 -0.008575
# 5 0.002326 -0.007472 -0.000674 0.003134 0.035756 -0.007302
# 6 -0.002690 0.008284 -0.002344 -0.008575 -0.007302 0.034404
#
#
# Mechanical properties :
#
#
# Convention : Reuss Voigt Hill
#
# Bulk Modulus (GPa) = 23.06390 31.07597 27.06994
# Shear Modulus (GPa) = 23.88602 29.37807 26.63204
#
# Velocity S-wave (km/s) = 3.34190 3.70624 3.52877
# Velocity P-wave (km/s) = 5.06705 5.73106 5.40925
#
# Compressibility (1/GPa) = 0.04335781
#
# Stress axis : x y z
#
# Youngs Moduli (GPa) = 52.88419 37.24795 106.11318
#
# Poissons Ratio (x) = 0.03788 0.25708
# Poissons Ratio (y) = 0.05378 0.26227
# Poissons Ratio (z) = 0.12812 0.09206
#
# Static dielectric constant tensor:
#      x y z
#    x 1.764370 0.017740 -0.005060 
#    y 0.017740 1.823680 0.028710 
#    z -0.005060 0.028710 1.793540 
# 
# From -- ./inp_files/314649.got.cif
#   From: 2010.05.17/outbox.cif.g08.bks.cpg/sg2_158_cif.got.tgz:314649.got - 2010.06.03 11:33:40.
