data_PCOD9102728
_publ_section_title
;
Structure prediction by ZEFSAII (Michael W. Deem and Ramdas Pophale) SiO2 
 PCOD9102728
Probable space group: P -1
;
_chemical_formula_sum "Si O2"
_cell_formula_units_Z 14
_cell_length_a 9.134765
_cell_length_b 12.526782
_cell_length_c 9.241338
_cell_angle_alpha 52.918919
_cell_angle_beta 52.808710
_cell_angle_gamma 74.725457
_cell_volume 663.516169
_symmetry_space_group_name_H-M "P -1"
_symmetry_group_IT_number 2
_symmetry_cell_setting 'triclinic'
loop_
_space_group_symop_operation_xyz
x,y,z
-x,-y,-z
loop_
_atom_site_type_symbol
_atom_site_label
_atom_site_fract_x
_atom_site_fract_y
_atom_site_fract_z
Si Si1 0.281435 0.200704 0.299937
Si Si2 0.386704 0.617782 0.915037
Si Si3 0.977302 0.073523 0.801182
Si Si4 0.012847 0.641896 0.295705
Si Si5 0.353243 0.365159 0.665336
Si Si6 0.176997 0.436915 0.991442
Si Si7 0.361879 0.105391 0.006891
O O1 0.468504 0.252070 0.236296
O O2 0.178307 0.330388 0.209962
O O3 0.335522 0.143048 0.160336
O O4 0.151299 0.103078 0.564236
O O5 0.500000 0.500000 0.000000
O O6 0.184949 0.634267 0.088226
O O7 0.337689 0.564568 0.826512
O O8 0.934375 0.223051 0.749497
O O9 0.826800 0.972264 0.885585
O O10 0.000000 0.000000 0.000000
O O11 0.000000 0.500000 0.500000
O O12 0.800624 0.641145 0.363825
O O13 0.500000 0.500000 0.500000
O O14 0.221225 0.355618 0.892818
O O15 0.440375 0.230696 0.750921
O O16 0.000000 0.500000 0.000000
O O17 0.500000 0.000000 0.000000
#
# Coordination Sequence:
#
# PCOD9102728 Si02
#       7
#     2   2   2   2   2   2   2
#     4  10  24  43  70  98 138 190 238 289 353 427
#     4  10  21  40  65 100 138 178 231 286 351 423
#     4  12  26  47  72 101 144 184 242 296 357 425
#     4  12  25  42  72 103 141 187 232 295 360 415
#     4  11  26  41  67 108 140 179 238 290 350 424
#     4  10  20  38  64 101 139 176 229 291 352 412
#     4  11  25  49  71 100 145 189 233 293 357 428
#
# _framework density 21.099712
#
# number of rings (size 3 to 8) (size 9 to 14) (size 15 to 20)
#    0.000    1.143    2.857    3.000   10.000    0.000 
#    0.000    4.286    0.000    0.000    0.000    0.000 
#    0.000    0.000    0.000    0.000    0.000    0.000 
#
# Total GULP energy -77975.330587 kJ/mol
# GULP energy per Si atom -5569.666470 kJ/mol
# Density = 2.105169 g / cm^3
# Si number density = 21.099712 Si / 1000 Ang^3
#
#
#
# Elastic Constant Matrix: (Units=GPa)
#
#
# Indices 1 2 3 4 5 6 
#
# 1 120.5470 18.8076 34.6847 -18.3440 -3.8321 14.0220
# 2 18.8076 92.1851 17.0756 -17.8171 7.3426 8.4358
# 3 34.6847 17.0756 104.2988 -24.4769 2.4104 0.4768
# 4 -18.3440 -17.8171 -24.4769 34.9449 4.7209 -2.1661
# 5 -3.8321 7.3426 2.4104 4.7209 31.1866 -7.1249
# 6 14.0220 8.4358 0.4768 -2.1661 -7.1249 49.9099
#
#
#
# Elastic Compliance Matrix: (Units=1/GPa)
#
#
# Indices 1 2 3 4 5 6 
#
# 1 0.009866 -0.000848 -0.002498 0.002762 0.000640 -0.002393
# 2 -0.000848 0.012889 -0.000191 0.006475 -0.004634 -0.002319
# 3 -0.002498 -0.000191 0.012262 0.007517 -0.002204 0.000628
# 4 0.002762 0.006475 0.007517 0.039639 -0.008081 -0.001375
# 5 0.000640 -0.004634 -0.002204 -0.008081 0.035860 0.005393
# 6 -0.002393 -0.002319 0.000628 -0.001375 0.005393 0.021805
#
#
# Mechanical properties :
#
#
# Convention : Reuss Voigt Hill
#
# Bulk Modulus (GPa) = 35.78724 50.90739 43.34732
# Shear Modulus (GPa) = 33.62287 39.63914 36.63100
#
# Velocity S-wave (km/s) = 3.99623 4.33905 4.17116
# Velocity P-wave (km/s) = 6.18797 7.02016 6.61716
#
# Compressibility (1/GPa) = 0.02794292
#
# Stress axis : x y z
#
# Youngs Moduli (GPa) = 101.36309 77.58631 81.55398
#
# Poissons Ratio (x) = 0.06581 0.20369
# Poissons Ratio (y) = 0.08598 0.01556
# Poissons Ratio (z) = 0.25316 0.01480
#
# Static dielectric constant tensor:
#      x y z
#    x 1.843740 -0.060560 0.033140 
#    y -0.060560 1.853530 -0.033240 
#    z 0.033140 -0.033240 1.869640 
# 
# From -- ./inp_files/183971.got.cif
#   From: 2010.05.17/outbox.cif.g08.bks.cpg/sg2_92_cif.got.tgz:183971.got - 2010.06.03 11:33:40.
