data_PCOD9102672
_publ_section_title
;
Structure prediction by ZEFSAII (Michael W. Deem and Ramdas Pophale) SiO2 
 PCOD9102672
Probable space group: P -1
;
_chemical_formula_sum "Si O2"
_cell_formula_units_Z 14
_cell_length_a 11.459106
_cell_length_b 10.995516
_cell_length_c 11.931999
_cell_angle_alpha 143.948072
_cell_angle_beta 76.039515
_cell_angle_gamma 75.513564
_cell_volume 537.862488
_symmetry_space_group_name_H-M "P -1"
_symmetry_group_IT_number 2
_symmetry_cell_setting 'triclinic'
loop_
_space_group_symop_operation_xyz
x,y,z
-x,-y,-z
loop_
_atom_site_type_symbol
_atom_site_label
_atom_site_fract_x
_atom_site_fract_y
_atom_site_fract_z
Si Si1 0.879938 0.844048 0.859213
Si Si2 0.750091 0.179816 0.692310
Si Si3 0.378371 0.783483 0.470378
Si Si4 0.804109 0.831026 0.630012
Si Si5 0.730748 0.566641 0.293182
Si Si6 0.853574 0.177719 0.302091
Si Si7 0.826307 0.528597 0.992534
O O1 0.758672 0.943198 0.853151
O O2 0.971217 0.539181 0.685706
O O3 0.786072 0.138472 0.180273
O O4 0.078195 0.688624 0.651729
O O5 0.777965 0.057454 0.720830
O O6 0.948971 0.827086 0.327169
O O7 0.597513 0.287237 0.721318
O O8 0.742220 0.438197 0.884262
O O9 0.567190 0.615165 0.360691
O O10 0.294800 0.682230 0.463463
O O11 0.229785 0.172024 0.816965
O O12 0.698533 0.785957 0.556769
O O13 0.743539 0.642985 0.222747
O O14 0.939689 0.192032 0.986763
#
# Coordination Sequence:
#
# PCOD9102672 Si02
#       7
#     2   2   2   2   2   2   2
#     4   9  20  39  67  88 122 173 219 262 319 367
#     4  11  23  38  69  96 131 172 210 261 327 386
#     4  12  24  42  65 101 134 167 208 268 323 390
#     4  10  20  38  63  95 124 168 219 264 312 383
#     4  11  22  40  65  94 136 170 204 265 329 380
#     4  10  21  43  66  92 126 171 215 267 318 380
#     4  11  22  39  60  98 136 168 209 252 323 395
#
# _framework density 26.028959
#
# number of rings (size 3 to 8) (size 9 to 14) (size 15 to 20)
#    0.000    1.429    2.857    3.429    2.000    0.571 
#    2.571    7.143    0.000    0.000    0.000    0.000 
#    0.000    0.000    0.000    0.000    0.000    0.000 
#
# Total GULP energy -78304.711070 kJ/mol
# GULP energy per Si atom -5593.193648 kJ/mol
# Density = 2.596972 g / cm^3
# Si number density = 26.028959 Si / 1000 Ang^3
#
#
#
# Elastic Constant Matrix: (Units=GPa)
#
#
# Indices 1 2 3 4 5 6 
#
# 1 104.5098 35.2595 31.8629 -2.3623 16.6554 -36.8032
# 2 35.2595 111.7482 42.1884 -15.5204 9.0931 -17.6314
# 3 31.8629 42.1884 44.0196 1.8262 20.9127 -13.6982
# 4 -2.3623 -15.5204 1.8262 25.1760 0.3182 13.3852
# 5 16.6554 9.0931 20.9127 0.3182 46.2503 -12.3549
# 6 -36.8032 -17.6314 -13.6982 13.3852 -12.3549 49.9693
#
#
#
# Elastic Compliance Matrix: (Units=1/GPa)
#
#
# Indices 1 2 3 4 5 6 
#
# 1 0.015604 -0.001367 -0.006802 -0.004463 0.000555 0.010478
# 2 -0.001367 0.018108 -0.020257 0.013794 0.005315 -0.002551
# 3 -0.006802 -0.020257 0.058009 -0.019426 -0.018495 0.004375
# 4 -0.004463 0.013794 -0.019426 0.059345 0.002167 -0.019107
# 5 0.000555 0.005315 -0.018495 0.002167 0.029793 0.004000
# 6 0.010478 -0.002551 0.004375 -0.019107 0.004000 0.034136
#
#
# Mechanical properties :
#
#
# Convention : Reuss Voigt Hill
#
# Bulk Modulus (GPa) = 28.67874 53.21101 40.94488
# Shear Modulus (GPa) = 17.63851 34.34356 25.99104
#
# Velocity S-wave (km/s) = 2.60599 3.63635 3.16340
# Velocity P-wave (km/s) = 4.48295 6.17398 5.39513
#
# Compressibility (1/GPa) = 0.03486903
#
# Stress axis : x y z
#
# Youngs Moduli (GPa) = 64.08479 55.22332 17.23879
#
# Poissons Ratio (x) = 0.07551 0.11726
# Poissons Ratio (y) = 0.08762 0.34920
# Poissons Ratio (z) = 0.43593 1.11863
#
# Static dielectric constant tensor:
#      x y z
#    x 2.041430 0.019310 -0.000260 
#    y 0.019310 2.098820 0.002250 
#    z -0.000260 0.002250 2.071570 
# 
# From -- ./inp_files/426353.got.cif
#   From: 2010.05.17/outbox.cif.g08.bks.cpg/sg2_214_cif.got.tgz:426353.got - 2010.06.03 11:33:40.
