data_PCOD9102016
_publ_section_title
;
Structure prediction by ZEFSAII (Michael W. Deem and Ramdas Pophale) SiO2 
 PCOD9102016
Probable space group: P -1
;
_chemical_formula_sum "Si O2"
_cell_formula_units_Z 16
_cell_length_a 25.882374
_cell_length_b 9.090856
_cell_length_c 10.564156
_cell_angle_alpha 42.839168
_cell_angle_beta 149.371719
_cell_angle_gamma 144.780749
_cell_volume 726.431248
_symmetry_space_group_name_H-M "P -1"
_symmetry_group_IT_number 2
_symmetry_cell_setting 'triclinic'
loop_
_space_group_symop_operation_xyz
x,y,z
-x,-y,-z
loop_
_atom_site_type_symbol
_atom_site_label
_atom_site_fract_x
_atom_site_fract_y
_atom_site_fract_z
Si Si1 0.933078 0.132607 0.329345
Si Si2 0.232832 0.100389 0.104854
Si Si3 0.828846 0.727681 0.745493
Si Si4 0.888334 0.211226 0.460541
Si Si5 0.466965 0.132921 0.519813
Si Si6 0.437319 0.608424 0.710711
Si Si7 0.733496 0.432740 0.993285
Si Si8 0.026112 0.645170 0.097058
O O1 0.887050 0.076756 0.410517
O O2 0.022975 0.439628 0.314940
O O3 0.000000 0.000000 0.500000
O O4 0.822082 0.034382 0.060722
O O5 0.363616 0.148171 0.361120
O O6 0.234384 0.360522 0.960139
O O7 0.146977 0.911431 0.153278
O O8 0.698577 0.607807 0.480134
O O9 0.801906 0.591368 0.910280
O O10 0.893040 0.034636 0.688999
O O11 0.915160 0.669279 0.885597
O O12 0.000000 0.500000 0.500000
O O13 0.774591 0.235253 0.224999
O O14 0.488443 0.262209 0.344251
O O15 0.593133 0.286749 0.760436
O O16 0.432123 0.840772 0.616367
O O17 0.500000 0.500000 0.000000
O O18 0.000000 0.500000 0.000000
#
# Coordination Sequence:
#
# PCOD9102016 Si02
#       8
#     2   2   2   2   2   2   2   2
#     4  11  23  40  62  96 130 167 215 269 326 386
#     4  11  24  42  65  90 132 177 213 268 324 388
#     4  11  23  40  66  96 129 171 216 267 330 386
#     4  12  25  40  68  98 132 168 215 271 325 390
#     4  10  23  41  66  94 129 171 221 264 325 383
#     4  10  21  39  67  97 126 166 216 274 322 385
#     4  11  24  44  65  94 135 172 219 269 322 389
#     4  10  20  38  61  91 127 162 213 262 325 380
#
# _framework density 22.025483999999999
#
# number of rings (size 3 to 8) (size 9 to 14) (size 15 to 20)
#    0.000    1.250    1.250    5.625    7.000    1.000 
#    0.000    0.000    0.000    4.500    0.000    0.000 
#    0.000    0.000    0.000    0.000    0.000    0.000 
#
# Total GULP energy -89520.458516 kJ/mol
# GULP energy per Si atom -5595.028657 kJ/mol
# Density = 2.197535 g / cm^3
# Si number density = 22.025484 Si / 1000 Ang^3
#
#
#
# Elastic Constant Matrix: (Units=GPa)
#
#
# Indices 1 2 3 4 5 6 
#
# 1 90.5517 11.5427 31.5558 3.7089 19.0156 -9.2475
# 2 11.5427 88.3950 26.0220 -13.9922 12.9361 -5.2337
# 3 31.5558 26.0220 116.4116 -13.4192 24.6462 2.1872
# 4 3.7089 -13.9922 -13.4192 40.7866 -0.7724 4.2711
# 5 19.0156 12.9361 24.6462 -0.7724 45.4097 0.9269
# 6 -9.2475 -5.2337 2.1872 4.2711 0.9269 29.0229
#
#
#
# Elastic Compliance Matrix: (Units=1/GPa)
#
#
# Indices 1 2 3 4 5 6 
#
# 1 0.013714 -0.000437 -0.003216 -0.003067 -0.004029 0.005113
# 2 -0.000437 0.012969 -0.001875 0.003628 -0.002471 0.001886
# 3 -0.003216 -0.001875 0.011202 0.003529 -0.004086 -0.002596
# 4 -0.003067 0.003628 0.003529 0.027666 -0.001100 -0.004625
# 5 -0.004029 -0.002471 -0.004086 -0.001100 0.026655 -0.002111
# 6 0.005113 0.001886 -0.002596 -0.004625 -0.002111 0.037369
#
#
# Mechanical properties :
#
#
# Convention : Reuss Voigt Hill
#
# Bulk Modulus (GPa) = 37.27332 48.17770 42.72551
# Shear Modulus (GPa) = 33.42840 38.12637 35.77739
#
# Velocity S-wave (km/s) = 3.90001 4.16506 4.03471
# Velocity P-wave (km/s) = 6.10243 6.71203 6.41448
#
# Compressibility (1/GPa) = 0.02682884
#
# Stress axis : x y z
#
# Youngs Moduli (GPa) = 72.91894 77.10500 89.27161
#
# Poissons Ratio (x) = 0.03370 0.28713
# Poissons Ratio (y) = 0.03187 0.16736
# Poissons Ratio (z) = 0.23453 0.14455
#
# Static dielectric constant tensor:
#      x y z
#    x 1.810880 -0.010490 -0.043050 
#    y -0.010490 1.847050 0.005550 
#    z -0.043050 0.005550 1.811840 
# 
# From -- ./inp_files/345854.got.cif
#   From: 2010.05.17/outbox.cif.g08.bks.cpg/sg2_173_cif.got.tgz:345854.got - 2010.06.03 11:33:40.
