data_PCOD9102703
_publ_section_title
;
Structure prediction by ZEFSAII (Michael W. Deem and Ramdas Pophale) SiO2 
 PCOD9102703
Probable space group: P -1
;
_chemical_formula_sum "Si O2"
_cell_formula_units_Z 16
_cell_length_a 11.249534
_cell_length_b 9.671870
_cell_length_c 7.777831
_cell_angle_alpha 59.999218
_cell_angle_beta 104.884170
_cell_angle_gamma 120.720541
_cell_volume 630.030026
_symmetry_space_group_name_H-M "P -1"
_symmetry_group_IT_number 2
_symmetry_cell_setting 'triclinic'
loop_
_space_group_symop_operation_xyz
x,y,z
-x,-y,-z
loop_
_atom_site_type_symbol
_atom_site_label
_atom_site_fract_x
_atom_site_fract_y
_atom_site_fract_z
Si Si1 0.542231 0.206398 0.408627
Si Si2 0.163207 0.598569 0.680470
Si Si3 0.355258 0.110392 0.924884
Si Si4 0.976823 0.219539 0.713500
Si Si5 0.077821 0.940750 0.817682
Si Si6 0.646625 0.268755 0.780696
Si Si7 0.876037 0.571955 0.886854
Si Si8 0.355031 0.331702 0.099284
O O1 0.674703 0.307356 0.272208
O O2 0.609839 0.292264 0.560079
O O3 0.407213 0.229568 0.314073
O O4 0.500000 0.000000 0.500000
O O5 0.126177 0.730736 0.468480
O O6 0.109429 0.413319 0.669104
O O7 0.088327 0.528598 0.880179
O O8 0.512890 0.244002 0.855091
O O9 0.240505 0.051249 0.770282
O O10 0.306396 0.204589 0.993516
O O11 0.354902 0.924757 0.094545
O O12 0.932413 0.143162 0.939540
O O13 0.011047 0.074999 0.722047
O O14 0.995936 0.771264 0.771622
O O15 0.789360 0.427107 0.800917
O O16 0.761052 0.623887 0.897384
O O17 0.500000 0.500000 0.000000
#
# Coordination Sequence:
#
# PCOD9102703 Si02
#       8
#     2   2   2   2   2   2   2   2
#     4  12  25  40  69 100 127 173 223 276 323 401
#     4  10  20  38  63  97 129 172 219 271 321 389
#     4  11  22  42  67  96 135 178 216 267 329 394
#     4   9  19  36  65  95 129 171 226 267 313 394
#     4  10  21  38  66  97 131 175 218 275 326 385
#     4  11  25  43  66  98 134 173 221 273 332 392
#     4  11  24  43  68  99 134 174 220 273 330 391
#     4  12  22  42  69  99 130 176 218 270 333 383
#
# _framework density 25.395614999999999
#
# number of rings (size 3 to 8) (size 9 to 14) (size 15 to 20)
#    0.000    1.250    3.750    3.000    3.500    1.000 
#    0.000    0.000    0.000    2.250    0.000    0.000 
#    0.000    0.000    0.000    0.000    0.000    0.000 
#
# Total GULP energy -89583.883546 kJ/mol
# GULP energy per Si atom -5598.992722 kJ/mol
# Density = 2.533781 g / cm^3
# Si number density = 25.395615 Si / 1000 Ang^3
#
#
#
# Elastic Constant Matrix: (Units=GPa)
#
#
# Indices 1 2 3 4 5 6 
#
# 1 44.2294 21.2704 10.6097 -10.8799 20.0796 11.5981
# 2 21.2704 159.8976 30.3632 -1.8295 5.0637 19.8659
# 3 10.6097 30.3632 93.9855 -0.4801 18.6725 -5.0066
# 4 -10.8799 -1.8295 -0.4801 29.0183 -7.5810 13.1092
# 5 20.0796 5.0637 18.6725 -7.5810 36.7526 -2.7137
# 6 11.5981 19.8659 -5.0066 13.1092 -2.7137 51.4610
#
#
#
# Elastic Compliance Matrix: (Units=1/GPa)
#
#
# Indices 1 2 3 4 5 6 
#
# 1 0.039917 -0.002841 -0.000439 0.015682 -0.018914 -0.012935
# 2 -0.002841 0.007401 -0.002575 0.001034 0.001860 -0.002632
# 3 -0.000439 -0.002575 0.012925 -0.003043 -0.006394 0.002788
# 4 0.015682 0.001034 -0.003043 0.048182 0.001562 -0.016421
# 5 -0.018914 0.001860 -0.006394 0.001562 0.041204 0.004698
# 6 -0.012935 -0.002632 0.002788 -0.016421 0.004698 0.028066
#
#
# Mechanical properties :
#
#
# Convention : Reuss Voigt Hill
#
# Bulk Modulus (GPa) = 20.60475 46.95545 33.78010
# Shear Modulus (GPa) = 24.32120 39.17100 31.74610
#
# Velocity S-wave (km/s) = 3.09802 3.93164 3.53946
# Velocity P-wave (km/s) = 4.57472 6.25621 5.48034
#
# Compressibility (1/GPa) = 0.04853251
#
# Stress axis : x y z
#
# Youngs Moduli (GPa) = 25.05173 135.11976 77.37233
#
# Poissons Ratio (x) = 0.38390 0.03399
# Poissons Ratio (y) = 0.07118 0.19920
# Poissons Ratio (z) = 0.01101 0.34788
#
# Static dielectric constant tensor:
#      x y z
#    x 2.127240 0.034140 -0.047300 
#    y 0.034140 1.914500 0.014750 
#    z -0.047300 0.014750 2.048260 
# 
# From -- ./inp_files/242658.got.cif
#   From: 2010.05.17/outbox.cif.g08.bks.cpg/sg2_122_cif.got.tgz:242658.got - 2010.06.03 11:33:40.
