data_PCOD9102963
_publ_section_title
;
Structure prediction by ZEFSAII (Michael W. Deem and Ramdas Pophale) SiO2 
 PCOD9102963
Probable space group: P -1
;
_chemical_formula_sum "Si O2"
_cell_formula_units_Z 16
_cell_length_a 17.751567
_cell_length_b 29.101842
_cell_length_c 12.050576
_cell_angle_alpha 162.267558
_cell_angle_beta 27.365893
_cell_angle_gamma 159.302385
_cell_volume 669.893602
_symmetry_space_group_name_H-M "P -1"
_symmetry_group_IT_number 2
_symmetry_cell_setting 'triclinic'
loop_
_space_group_symop_operation_xyz
x,y,z
-x,-y,-z
loop_
_atom_site_type_symbol
_atom_site_label
_atom_site_fract_x
_atom_site_fract_y
_atom_site_fract_z
Si Si1 0.906054 0.290594 0.832613
Si Si2 0.952318 0.050415 0.860653
Si Si3 0.702589 0.810096 0.438335
Si Si4 0.355297 0.631180 0.075562
Si Si5 0.727554 0.191012 0.598671
Si Si6 0.240288 0.592860 0.523110
Si Si7 0.175462 0.074990 0.847098
Si Si8 0.783883 0.209481 0.189284
O O1 0.877773 0.294728 0.748301
O O2 0.767474 0.066131 0.534040
O O3 0.818254 0.384245 0.225535
O O4 0.145251 0.402207 0.822877
O O5 0.140596 0.188016 0.842575
O O6 0.060756 0.037839 0.795810
O O7 0.781637 0.852179 0.558532
O O8 0.836817 0.132407 0.241608
O O9 0.458174 0.632078 0.328825
O O10 0.732432 0.006208 0.815901
O O11 0.321801 0.693064 0.143662
O O12 0.594494 0.707491 0.946926
O O13 0.317328 0.732319 0.455688
O O14 0.500000 0.000000 0.500000
O O15 0.274425 0.760854 0.787165
O O16 0.038322 0.384384 0.263262
O O17 0.000000 0.000000 0.000000
#
# Coordination Sequence:
#
# PCOD9102963 Si02
#       8
#     2   2   2   2   2   2   2   2
#     4  11  23  39  67  93 123 162 212 252 302 375
#     4  11  24  39  63  92 124 166 206 248 316 364
#     4  11  21  40  63  85 127 163 200 252 310 366
#     4  11  23  40  68  91 121 164 211 254 309 359
#     4  12  21  43  67  90 126 164 208 259 302 365
#     4  10  21  37  64  97 118 160 206 249 314 356
#     4  12  23  42  60  89 131 162 203 256 307 367
#     4  10  20  38  64  94 125 152 207 261 295 373
#
# _framework density 23.88439
#
# number of rings (size 3 to 8) (size 9 to 14) (size 15 to 20)
#    0.000    1.000    3.750    3.750    0.000    0.500 
#    0.000    3.750    5.500    0.000    0.000    0.000 
#    0.000    0.000    0.000    0.000    0.000    0.000 
#
# Total GULP energy -89555.861909 kJ/mol
# GULP energy per Si atom -5597.241369 kJ/mol
# Density = 2.383003 g / cm^3
# Si number density = 23.884390 Si / 1000 Ang^3
#
#
#
# Elastic Constant Matrix: (Units=GPa)
#
#
# Indices 1 2 3 4 5 6 
#
# 1 135.1381 32.0882 20.0092 -11.1317 22.0801 7.6274
# 2 32.0882 147.7205 19.4377 -8.5840 24.7305 35.7878
# 3 20.0092 19.4377 54.7158 -14.2928 8.3115 0.1212
# 4 -11.1317 -8.5840 -14.2928 30.6375 -8.3483 -0.9409
# 5 22.0801 24.7305 8.3115 -8.3483 35.0830 -0.6957
# 6 7.6274 35.7878 0.1212 -0.9409 -0.6957 37.6930
#
#
#
# Elastic Compliance Matrix: (Units=1/GPa)
#
#
# Indices 1 2 3 4 5 6 
#
# 1 0.008701 -0.000490 -0.002124 0.000774 -0.004471 -0.001352
# 2 -0.000490 0.010907 -0.002769 -0.000665 -0.007088 -0.010395
# 3 -0.002124 -0.002769 0.022359 0.009038 0.000206 0.003217
# 4 0.000774 -0.000665 0.009038 0.038944 0.007138 0.001549
# 5 -0.004471 -0.007088 0.000206 0.007138 0.038133 0.008516
# 6 -0.001352 -0.010395 0.003217 0.001549 0.008516 0.036859
#
#
# Mechanical properties :
#
#
# Convention : Reuss Voigt Hill
#
# Bulk Modulus (GPa) = 32.04981 53.40494 42.72738
# Shear Modulus (GPa) = 28.23773 38.41865 33.32819
#
# Velocity S-wave (km/s) = 3.44214 4.01499 3.73955
# Velocity P-wave (km/s) = 5.40792 6.62585 6.04762
#
# Compressibility (1/GPa) = 0.03120143
#
# Stress axis : x y z
#
# Youngs Moduli (GPa) = 114.92861 91.68674 44.72421
#
# Poissons Ratio (x) = 0.04489 0.09498
# Poissons Ratio (y) = 0.05627 0.12386
# Poissons Ratio (z) = 0.24408 0.25392
#
# Static dielectric constant tensor:
#      x y z
#    x 1.894770 0.023850 -0.036820 
#    y 0.023850 1.969260 -0.013700 
#    z -0.036820 -0.013700 1.958140 
# 
# From -- ./inp_files/208990.got.cif
#   From: 2010.05.17/outbox.cif.g08.bks.cpg/sg2_105_cif.got.tgz:208990.got - 2010.06.03 11:33:40.
