data_PCOD9102642
_publ_section_title
;
Structure prediction by ZEFSAII (Michael W. Deem and Ramdas Pophale) SiO2 
 PCOD9102642
Probable space group: P -1
;
_chemical_formula_sum "Si O2"
_cell_formula_units_Z 15
_cell_length_a 9.188231
_cell_length_b 12.538458
_cell_length_c 11.171344
_cell_angle_alpha 90.331133
_cell_angle_beta 49.135583
_cell_angle_gamma 119.964263
_cell_volume 735.075558
_symmetry_space_group_name_H-M "P -1"
_symmetry_group_IT_number 2
_symmetry_cell_setting 'triclinic'
loop_
_space_group_symop_operation_xyz
x,y,z
-x,-y,-z
loop_
_atom_site_type_symbol
_atom_site_label
_atom_site_fract_x
_atom_site_fract_y
_atom_site_fract_z
Si Si1 0.615502 0.770269 0.550104
Si Si2 0.188980 0.326449 0.036821
Si Si3 0.915685 0.333013 0.744770
Si Si4 0.034981 0.799516 0.471159
Si Si5 0.239087 0.962529 0.603097
Si Si6 0.229619 0.489292 0.244036
Si Si7 0.863023 0.338475 0.044809
Si Si8 0.500000 0.500000 0.500000
O O1 0.389054 0.749910 0.740209
O O2 0.500845 0.626752 0.544327
O O3 0.823451 0.802050 0.531947
O O4 0.736991 0.901863 0.397921
O O5 0.211193 0.433514 0.119132
O O6 0.997045 0.172093 0.197185
O O7 0.065165 0.323508 0.980987
O O8 0.477693 0.392329 0.871210
O O9 0.806368 0.198229 0.720743
O O10 0.892781 0.439117 0.694399
O O11 0.208713 0.407858 0.606567
O O12 0.800863 0.302181 0.938961
O O13 0.188816 0.915149 0.491412
O O14 0.898842 0.648288 0.606990
O O15 0.500000 0.000000 0.500000
O O16 0.000000 0.500000 0.000000
#
# Coordination Sequence:
#
# PCOD9102642 Si02
#       8
#     2   2   2   2   2   2   2   1
#     4  11  22  41  67  95 130 171 215 268 324 390
#     4  10  21  36  62  98 123 169 221 269 314 387
#     4  11  23  38  62  98 132 167 209 279 318 375
#     4  10  24  41  62  98 126 174 216 269 323 381
#     4  11  23  43  67  91 132 176 219 257 331 399
#     4  10  20  38  63  93 132 163 217 272 322 372
#     4  12  20  36  64  97 128 167 216 266 321 380
#     4  10  22  38  66  98 126 160 214 270 320 370
#
# _framework density 20.406065999999999
#
# number of rings (size 3 to 8) (size 9 to 14) (size 15 to 20)
#    0.000    1.333    4.000    1.600    7.467    0.000 
#    0.000    0.667    2.933    4.000    0.000    0.000 
#    0.000    0.000    0.000    0.000    0.000    0.000 
#
# Total GULP energy -83548.055430 kJ/mol
# GULP energy per Si atom -5569.870362 kJ/mol
# Density = 2.035962 g / cm^3
# Si number density = 20.406066 Si / 1000 Ang^3
#
#
#
# Elastic Constant Matrix: (Units=GPa)
#
#
# Indices 1 2 3 4 5 6 
#
# 1 80.5058 17.2217 9.1816 -4.5843 1.9814 -12.2347
# 2 17.2217 60.7616 16.4768 -4.4167 8.0003 8.1385
# 3 9.1816 16.4768 40.1203 -9.4410 -4.2330 -5.7863
# 4 -4.5843 -4.4167 -9.4410 21.1939 0.3945 -1.0565
# 5 1.9814 8.0003 -4.2330 0.3945 30.7361 6.8994
# 6 -12.2347 8.1385 -5.7863 -1.0565 6.8994 31.0184
#
#
#
# Elastic Compliance Matrix: (Units=1/GPa)
#
#
# Indices 1 2 3 4 5 6 
#
# 1 0.014774 -0.004872 0.000189 0.002666 -0.001385 0.007540
# 2 -0.004872 0.022285 -0.010089 -0.001241 -0.004930 -0.008597
# 3 0.000189 -0.010089 0.033927 0.013370 0.005243 0.008340
# 4 0.002666 -0.001241 0.013370 0.053741 0.000024 0.005696
# 5 -0.001385 -0.004930 0.005243 0.000024 0.036041 -0.006290
# 6 0.007540 -0.008597 0.008340 0.005696 -0.006290 0.040617
#
#
# Mechanical properties :
#
#
# Convention : Reuss Voigt Hill
#
# Bulk Modulus (GPa) = 24.13086 29.68311 26.90699
# Shear Modulus (GPa) = 20.42943 25.82351 23.12647
#
# Velocity S-wave (km/s) = 3.16752 3.56122 3.37012
# Velocity P-wave (km/s) = 5.02281 5.61137 5.32523
#
# Compressibility (1/GPa) = 0.04144070
#
# Stress axis : x y z
#
# Youngs Moduli (GPa) = 67.68660 44.87318 29.47471
#
# Poissons Ratio (x) = 0.21864 -0.00556
# Poissons Ratio (y) = 0.32979 0.29737
# Poissons Ratio (z) = -0.01276 0.45273
#
# Static dielectric constant tensor:
#      x y z
#    x 1.710210 0.011070 0.035120 
#    y 0.011070 1.712770 0.013760 
#    z 0.035120 0.013760 1.753280 
# 
# From -- ./inp_files/168727.got.cif
#   From: 2010.05.17/outbox.cif.g08.bks.cpg/sg2_85_cif.got.tgz:168727.got - 2010.06.03 11:33:40.
