data_PCOD9102581
_publ_section_title
;
Structure prediction by ZEFSAII (Michael W. Deem and Ramdas Pophale) SiO2 
 PCOD9102581
Probable space group: P -1
;
_chemical_formula_sum "Si O2"
_cell_formula_units_Z 16
_cell_length_a 5.584772
_cell_length_b 25.567730
_cell_length_c 8.492080
_cell_angle_alpha 132.478311
_cell_angle_beta 130.038959
_cell_angle_gamma 66.805592
_cell_volume 682.927653
_symmetry_space_group_name_H-M "P -1"
_symmetry_group_IT_number 2
_symmetry_cell_setting 'triclinic'
loop_
_space_group_symop_operation_xyz
x,y,z
-x,-y,-z
loop_
_atom_site_type_symbol
_atom_site_label
_atom_site_fract_x
_atom_site_fract_y
_atom_site_fract_z
Si Si1 0.722437 0.544315 0.562067
Si Si2 0.618549 0.579969 0.259413
Si Si3 0.084595 0.668699 0.142151
Si Si4 0.525635 0.206218 0.557361
Si Si5 0.518979 0.182213 0.881099
Si Si6 0.038460 0.699827 0.553934
Si Si7 0.177031 0.952159 0.281553
Si Si8 0.880395 0.082801 0.444507
O O1 0.500000 0.500000 0.500000
O O2 0.549734 0.576409 0.407014
O O3 0.000000 0.500000 0.500000
O O4 0.836905 0.612940 0.849485
O O5 0.394919 0.627138 0.164643
O O6 0.948474 0.625950 0.461234
O O7 0.500000 0.500000 0.000000
O O8 0.162491 0.742824 0.242336
O O9 0.039584 0.681090 0.332218
O O10 0.507009 0.199563 0.724707
O O11 0.238396 0.244668 0.436837
O O12 0.594414 0.128394 0.363917
O O13 0.769386 0.124789 0.921963
O O14 0.191667 0.136542 0.676895
O O15 0.642129 0.255484 0.167110
O O16 0.145357 0.935309 0.418862
O O17 0.500000 0.000000 0.500000
O O18 0.927153 0.006796 0.229214
#
# Coordination Sequence:
#
# PCOD9102581 Si02
#       8
#     2   2   2   2   2   2   2   2
#     4  12  27  45  72 100 130 170 223 277 342 410
#     4  11  24  45  67  93 128 169 220 273 334 394
#     4  11  25  42  65  91 128 172 214 274 333 402
#     4  10  22  40  60  90 130 168 220 267 332 392
#     4  10  20  38  63  91 129 169 217 270 330 395
#     4  11  25  40  64  94 132 171 221 273 336 398
#     4   8  16  32  60  92 123 167 213 264 320 391
#     4   9  17  34  62  91 124 168 217 264 327 386
#
# _framework density 23.428543000000001
#
# number of rings (size 3 to 8) (size 9 to 14) (size 15 to 20)
#    0.000    1.750    1.250    2.250    3.500    7.000 
#    0.000    0.625    0.000   30.750    0.000    0.000 
#    0.000    0.000    0.000    0.000    0.000    0.000 
#
# Total GULP energy -89138.539818 kJ/mol
# GULP energy per Si atom -5571.158739 kJ/mol
# Density = 2.337522 g / cm^3
# Si number density = 23.428543 Si / 1000 Ang^3
#
#
#
# Elastic Constant Matrix: (Units=GPa)
#
#
# Indices 1 2 3 4 5 6 
#
# 1 91.4472 41.5678 23.8355 21.0406 9.4361 38.3645
# 2 41.5678 120.3569 17.5247 35.9425 12.0186 10.1065
# 3 23.8355 17.5247 111.1044 30.7009 9.3379 26.7992
# 4 21.0406 35.9425 30.7009 34.3082 3.0555 3.4140
# 5 9.4361 12.0186 9.3379 3.0555 21.3317 9.7887
# 6 38.3645 10.1065 26.7992 3.4140 9.7887 67.6187
#
#
#
# Elastic Compliance Matrix: (Units=1/GPa)
#
#
# Indices 1 2 3 4 5 6 
#
# 1 0.018015 -0.003151 0.001207 -0.007761 -0.001175 -0.009667
# 2 -0.003151 0.013983 0.003069 -0.014961 -0.005714 0.000064
# 3 0.001207 0.003069 0.014266 -0.015846 -0.003734 -0.005457
# 4 -0.007761 -0.014961 -0.015846 0.062358 0.005766 0.008937
# 5 -0.001175 -0.005714 -0.003734 0.005766 0.053754 -0.005072
# 6 -0.009667 0.000064 -0.005457 0.008937 -0.005072 0.022710
#
#
# Mechanical properties :
#
#
# Convention : Reuss Voigt Hill
#
# Bulk Modulus (GPa) = 20.61202 54.30718 37.45960
# Shear Modulus (GPa) = 25.12468 40.65042 32.88755
#
# Velocity S-wave (km/s) = 3.27830 4.16995 3.75071
# Velocity P-wave (km/s) = 4.81109 6.81285 5.89752
#
# Compressibility (1/GPa) = 0.04851539
#
# Stress axis : x y z
#
# Youngs Moduli (GPa) = 55.50820 71.51569 70.09493
#
# Poissons Ratio (x) = 0.22535 -0.08461
# Poissons Ratio (y) = 0.17491 -0.21514
# Poissons Ratio (z) = -0.06701 -0.21950
#
# Static dielectric constant tensor:
#      x y z
#    x 2.030000 -0.140240 0.077840 
#    y -0.140240 1.973190 0.024430 
#    z 0.077840 0.024430 1.903510 
# 
# From -- ./inp_files/55477.got.cif
#   From: 2010.05.17/outbox.cif.g08.bks.cpg/sg2_28_cif.got.tgz:55477.got - 2010.06.03 11:33:40.
