data_PCOD9102683
_publ_section_title
;
Structure prediction by ZEFSAII (Michael W. Deem and Ramdas Pophale) SiO2 
 PCOD9102683
Probable space group: P -1
;
_chemical_formula_sum "Si O2"
_cell_formula_units_Z 16
_cell_length_a 12.915378
_cell_length_b 9.316147
_cell_length_c 10.474082
_cell_angle_alpha 100.286179
_cell_angle_beta 146.669786
_cell_angle_gamma 66.922767
_cell_volume 608.774612
_symmetry_space_group_name_H-M "P -1"
_symmetry_group_IT_number 2
_symmetry_cell_setting 'triclinic'
loop_
_space_group_symop_operation_xyz
x,y,z
-x,-y,-z
loop_
_atom_site_type_symbol
_atom_site_label
_atom_site_fract_x
_atom_site_fract_y
_atom_site_fract_z
Si Si1 0.301407 0.065739 0.074886
Si Si2 0.574906 0.241682 0.999785
Si Si3 0.416318 0.360296 0.259087
Si Si4 0.095522 0.842726 0.485292
Si Si5 0.791261 0.429611 0.688964
Si Si6 0.885528 0.328074 0.165882
Si Si7 0.899692 0.873446 0.877658
Si Si8 0.869883 0.490169 0.493739
O O1 0.060417 0.107585 0.789725
O O2 0.362842 0.213684 0.144388
O O3 0.302931 0.036503 0.224348
O O4 0.441005 0.913607 0.103623
O O5 0.358648 0.402375 0.783610
O O6 0.657992 0.220433 0.228212
O O7 0.748808 0.260449 0.092592
O O8 0.655506 0.333967 0.494057
O O9 0.348817 0.414335 0.344821
O O10 0.281457 0.526353 0.069958
O O11 0.045412 0.700892 0.465431
O O12 0.000000 0.000000 0.500000
O O13 0.847950 0.492937 0.628471
O O14 0.976809 0.300335 0.947019
O O15 0.069035 0.189704 0.246662
O O16 0.984606 0.422772 0.365811
O O17 0.000000 0.000000 0.000000
#
# Coordination Sequence:
#
# PCOD9102683 Si02
#       8
#     2   2   2   2   2   2   2   2
#     4  11  21  42  64  91 132 173 212 264 321 382
#     4  11  25  42  64  97 133 163 223 271 311 375
#     4  10  20  38  63  95 130 172 211 256 322 390
#     4  10  23  43  67  90 126 175 214 267 326 372
#     4  10  21  36  64  96 132 168 212 260 323 389
#     4  11  22  39  66  97 128 170 214 261 322 383
#     4  11  21  37  62  93 131 170 207 259 322 380
#     4  12  22  42  68  95 125 173 214 266 326 381
#
# _framework density 26.282305000000001
#
# number of rings (size 3 to 8) (size 9 to 14) (size 15 to 20)
#    0.000    1.250    5.000    1.125    0.000    3.500 
#    0.000    1.875    0.000    6.000    0.000    0.000 
#    0.000    0.000    0.000    0.000    0.000    0.000 
#
# Total GULP energy -89417.933165 kJ/mol
# GULP energy per Si atom -5588.620823 kJ/mol
# Density = 2.622249 g / cm^3
# Si number density = 26.282305 Si / 1000 Ang^3
#
#
#
# Elastic Constant Matrix: (Units=GPa)
#
#
# Indices 1 2 3 4 5 6 
#
# 1 71.5808 27.4099 7.6873 4.8294 -2.6654 6.1122
# 2 27.4099 166.4932 23.1633 34.3836 -2.5000 -7.5219
# 3 7.6873 23.1633 110.8977 11.8742 -1.7297 -0.2906
# 4 4.8294 34.3836 11.8742 45.1878 0.8091 -9.6784
# 5 -2.6654 -2.5000 -1.7297 0.8091 20.9878 10.8390
# 6 6.1122 -7.5219 -0.2906 -9.6784 10.8390 36.3911
#
#
#
# Elastic Compliance Matrix: (Units=1/GPa)
#
#
# Indices 1 2 3 4 5 6 
#
# 1 0.015555 -0.002504 -0.000432 -0.000680 0.003994 -0.004504
# 2 -0.002504 0.007647 -0.000854 -0.005238 0.000489 0.000456
# 3 -0.000432 -0.000854 0.009456 -0.002005 0.001170 -0.000910
# 4 -0.000680 -0.005238 -0.002005 0.028658 -0.006391 0.008541
# 5 0.003994 0.000489 0.001170 -0.006391 0.058761 -0.019762
# 6 -0.004504 0.000456 -0.000910 0.008541 -0.019762 0.036480
#
#
# Mechanical properties :
#
#
# Convention : Reuss Voigt Hill
#
# Bulk Modulus (GPa) = 39.87549 51.72141 45.79845
# Shear Modulus (GPa) = 28.98615 39.89408 34.44012
#
# Velocity S-wave (km/s) = 3.32456 3.90026 3.62386
# Velocity P-wave (km/s) = 5.47192 6.32492 5.91382
#
# Compressibility (1/GPa) = 0.02507806
#
# Stress axis : x y z
#
# Youngs Moduli (GPa) = 64.28998 130.77267 105.75117
#
# Poissons Ratio (x) = 0.32742 0.04568
# Poissons Ratio (y) = 0.16097 0.09031
# Poissons Ratio (z) = 0.02777 0.11168
#
# Static dielectric constant tensor:
#      x y z
#    x 2.238760 -0.099230 -0.042050 
#    y -0.099230 2.000960 0.020420 
#    z -0.042050 0.020420 2.125730 
# 
# From -- ./inp_files/186421.got.cif
#   From: 2010.05.17/outbox.cif.g08.bks.cpg/sg2_94_cif.got.tgz:186421.got - 2010.06.03 11:33:40.
