data_PCOD9102371
_publ_section_title
;
Structure prediction by ZEFSAII (Michael W. Deem and Ramdas Pophale) SiO2 
 PCOD9102371
Probable space group: P -1
;
_chemical_formula_sum "Si O2"
_cell_formula_units_Z 16
_cell_length_a 5.592985
_cell_length_b 26.338696
_cell_length_c 9.427959
_cell_angle_alpha 40.263061
_cell_angle_beta 80.420814
_cell_angle_gamma 60.447411
_cell_volume 724.341947
_symmetry_space_group_name_H-M "P -1"
_symmetry_group_IT_number 2
_symmetry_cell_setting 'triclinic'
loop_
_space_group_symop_operation_xyz
x,y,z
-x,-y,-z
loop_
_atom_site_type_symbol
_atom_site_label
_atom_site_fract_x
_atom_site_fract_y
_atom_site_fract_z
Si Si1 0.101591 0.667403 0.164372
Si Si2 0.937558 0.479200 0.350098
Si Si3 0.549378 0.162642 0.026777
Si Si4 0.720727 0.116847 0.423467
Si Si5 0.378880 0.684936 0.355494
Si Si6 0.398346 0.016582 0.638529
Si Si7 0.165203 0.328952 0.084097
Si Si8 0.188774 0.583770 0.784735
O O1 0.177605 0.568216 0.435165
O O2 0.279768 0.695991 0.178466
O O3 0.765649 0.751240 0.063517
O O4 0.086304 0.666584 0.998704
O O5 0.876534 0.467947 0.218345
O O6 0.290594 0.410409 0.472051
O O7 0.812396 0.587899 0.161024
O O8 0.649191 0.218927 0.807218
O O9 0.745877 0.113803 0.254051
O O10 0.518893 0.087744 0.103427
O O11 0.575203 0.057741 0.599398
O O12 0.468483 0.225390 0.263427
O O13 0.037859 0.082585 0.530852
O O14 0.201842 0.661919 0.527204
O O15 0.500000 0.000000 0.500000
O O16 0.046277 0.362397 0.182250
O O17 0.500000 0.500000 0.000000
#
# Coordination Sequence:
#
# PCOD9102371 Si02
#       8
#     2   2   2   2   2   2   2   2
#     4   9  21  36  57  94 121 156 211 259 331 370
#     4  10  21  41  57  86 121 167 217 253 317 383
#     4   9  19  34  61  85 123 161 205 260 315 380
#     4  10  23  36  59 100 129 162 212 263 333 379
#     4  10  21  38  60  90 122 164 218 254 309 392
#     4  10  20  38  62  93 131 166 206 265 325 391
#     4  11  22  39  61  89 130 166 206 275 315 376
#     4  11  23  41  61  85 121 176 222 255 308 384
#
# _framework density 22.089016000000001
#
# number of rings (size 3 to 8) (size 9 to 14) (size 15 to 20)
#    0.000    2.000    1.250    2.250    7.000    1.500 
#    4.500    0.000    0.000    1.500    0.000    0.000 
#    0.000    0.000    0.000    0.000    0.000    0.000 
#
# Total GULP energy -89367.821083 kJ/mol
# GULP energy per Si atom -5585.488818 kJ/mol
# Density = 2.203874 g / cm^3
# Si number density = 22.089016 Si / 1000 Ang^3
#
#
#
# Elastic Constant Matrix: (Units=GPa)
#
#
# Indices 1 2 3 4 5 6 
#
# 1 101.6463 30.9565 35.4969 -10.7334 -0.6657 7.4475
# 2 30.9565 78.0547 40.2936 -11.6097 1.3517 -1.6814
# 3 35.4969 40.2936 75.8839 -21.7428 -24.1599 8.8780
# 4 -10.7334 -11.6097 -21.7428 38.5052 19.0744 -2.9741
# 5 -0.6657 1.3517 -24.1599 19.0744 39.4661 -3.3796
# 6 7.4475 -1.6814 8.8780 -2.9741 -3.3796 26.7375
#
#
#
# Elastic Compliance Matrix: (Units=1/GPa)
#
#
# Indices 1 2 3 4 5 6 
#
# 1 0.012636 -0.001924 -0.005439 0.001718 -0.004066 -0.002158
# 2 -0.001924 0.021236 -0.013139 0.003938 -0.010246 0.005377
# 3 -0.005439 -0.013139 0.029479 0.002389 0.016674 -0.006726
# 4 0.001718 0.003938 0.002389 0.037274 -0.016570 0.001027
# 5 -0.004066 -0.010246 0.016674 -0.016570 0.043719 -0.001365
# 6 -0.002158 0.005377 -0.006726 0.001027 -0.001365 0.040515
#
#
# Mechanical properties :
#
#
# Convention : Reuss Voigt Hill
#
# Bulk Modulus (GPa) = 44.74810 52.11989 48.43399
# Shear Modulus (GPa) = 21.43045 30.86429 26.14737
#
# Velocity S-wave (km/s) = 3.11816 3.74206 3.44427
# Velocity P-wave (km/s) = 5.76766 6.50517 6.14749
#
# Compressibility (1/GPa) = 0.02234732
#
# Stress axis : x y z
#
# Youngs Moduli (GPa) = 79.13663 47.08900 33.92260
#
# Poissons Ratio (x) = 0.09062 0.18450
# Poissons Ratio (y) = 0.15229 0.44571
# Poissons Ratio (z) = 0.43041 0.61870
#
# Static dielectric constant tensor:
#      x y z
#    x 1.891540 0.017910 -0.022590 
#    y 0.017910 1.768840 -0.018420 
#    z -0.022590 -0.018420 1.849620 
# 
# From -- ./inp_files/126777.got.cif
#   From: 2010.05.17/outbox.cif.g08.bks.cpg/sg2_64_cif.got.tgz:126777.got - 2010.06.03 11:33:40.
