data_PCOD9102782
_publ_section_title
;
Structure prediction by ZEFSAII (Michael W. Deem and Ramdas Pophale) SiO2 
 PCOD9102782
Probable space group: P -1
;
_chemical_formula_sum "Si O2"
_cell_formula_units_Z 16
_cell_length_a 8.436803
_cell_length_b 9.395397
_cell_length_c 18.722469
_cell_angle_alpha 145.317629
_cell_angle_beta 99.630740
_cell_angle_gamma 64.529065
_cell_volume 710.473568
_symmetry_space_group_name_H-M "P -1"
_symmetry_group_IT_number 2
_symmetry_cell_setting 'triclinic'
loop_
_space_group_symop_operation_xyz
x,y,z
-x,-y,-z
loop_
_atom_site_type_symbol
_atom_site_label
_atom_site_fract_x
_atom_site_fract_y
_atom_site_fract_z
Si Si1 0.441564 0.254468 0.267224
Si Si2 0.666364 0.349974 0.837099
Si Si3 0.207990 0.328590 0.914252
Si Si4 0.764716 0.262879 0.651028
Si Si5 0.057595 0.648468 0.896982
Si Si6 0.152655 0.311826 0.372479
Si Si7 0.919698 0.638003 0.359108
Si Si8 0.285132 0.923456 0.024362
O O1 0.415319 0.495533 0.307604
O O2 0.309339 0.380370 0.380213
O O3 0.655360 0.013668 0.201872
O O4 0.360446 0.077448 0.145190
O O5 0.781216 0.299972 0.751899
O O6 0.458542 0.592386 0.893073
O O7 0.723500 0.028521 0.735816
O O8 0.700713 0.505205 0.970834
O O9 0.164177 0.386367 0.851824
O O10 0.000000 0.500000 0.000000
O O11 0.927838 0.297316 0.640160
O O12 0.780364 0.953422 0.512482
O O13 0.137048 0.499553 0.764896
O O14 0.122079 0.871584 0.017636
O O15 0.828414 0.846729 0.954081
O O16 0.000000 0.500000 0.500000
O O17 0.015760 0.400714 0.330592
#
# Coordination Sequence:
#
# PCOD9102782 Si02
#       8
#     2   2   2   2   2   2   2   2
#     4  10  22  42  64  91 124 165 209 249 310 371
#     4  11  23  38  64  94 121 157 210 256 308 366
#     4  11  25  38  63  94 128 159 201 261 311 365
#     4  10  20  38  64  87 122 165 205 246 300 375
#     4  11  21  40  60  90 128 159 202 253 316 364
#     4  11  20  38  64  93 117 159 215 255 294 360
#     4  10  21  39  61  90 121 165 205 247 304 368
#     4  10  22  37  64  88 122 162 198 256 311 368
#
# _framework density 22.520188000000001
#
# number of rings (size 3 to 8) (size 9 to 14) (size 15 to 20)
#    0.000    1.500    3.750    2.250    3.500    3.000 
#    0.000    1.250    2.750    0.000    0.000    0.000 
#    0.000    0.000    0.000    0.000    0.000    0.000 
#
# Total GULP energy -89091.160532 kJ/mol
# GULP energy per Si atom -5568.197533 kJ/mol
# Density = 2.246893 g / cm^3
# Si number density = 22.520188 Si / 1000 Ang^3
#
#
#
# Elastic Constant Matrix: (Units=GPa)
#
#
# Indices 1 2 3 4 5 6 
#
# 1 25.0141 15.7458 9.0210 1.4716 -4.5926 -15.7589
# 2 15.7458 174.9468 46.3399 10.0135 -8.5858 -14.7053
# 3 9.0210 46.3399 90.9339 14.6741 -5.6384 -9.8142
# 4 1.4716 10.0135 14.6741 47.5618 4.5859 -8.6274
# 5 -4.5926 -8.5858 -5.6384 4.5859 18.5917 2.5195
# 6 -15.7589 -14.7053 -9.8142 -8.6274 2.5195 32.0737
#
#
#
# Elastic Compliance Matrix: (Units=1/GPa)
#
#
# Indices 1 2 3 4 5 6 
#
# 1 0.061812 -0.002423 -0.001799 0.003560 0.008800 0.028975
# 2 -0.002423 0.006909 -0.003015 -0.000468 0.001685 0.000797
# 3 -0.001799 -0.003015 0.013567 -0.003676 0.003096 0.000654
# 4 0.003560 -0.000468 -0.003676 0.024228 -0.007445 0.007512
# 5 0.008800 0.001685 0.003096 -0.007445 0.059602 -0.000641
# 6 0.028975 0.000797 0.000654 0.007512 -0.000641 0.048051
#
#
# Mechanical properties :
#
#
# Convention : Reuss Voigt Hill
#
# Bulk Modulus (GPa) = 14.74590 48.12312 31.43451
# Shear Modulus (GPa) = 19.90069 34.29798 27.09934
#
# Velocity S-wave (km/s) = 2.97590 3.90678 3.47268
# Velocity P-wave (km/s) = 4.28603 6.46265 5.48343
#
# Compressibility (1/GPa) = 0.06781547
#
# Stress axis : x y z
#
# Youngs Moduli (GPa) = 16.17804 144.73813 73.70656
#
# Poissons Ratio (x) = 0.35073 0.13258
# Poissons Ratio (y) = 0.03920 0.22219
# Poissons Ratio (z) = 0.02910 0.43632
#
# Static dielectric constant tensor:
#      x y z
#    x 2.118580 0.280510 -0.112260 
#    y 0.280510 2.175680 -0.085080 
#    z -0.112260 -0.085080 1.892370 
# 
# From -- ./inp_files/307849.got.cif
#   From: 2010.05.17/outbox.cif.g08.bks.cpg/sg2_154_cif.got.tgz:307849.got - 2010.06.03 11:33:40.
