data_PCOD9102694
_publ_section_title
;
Structure prediction by ZEFSAII (Michael W. Deem and Ramdas Pophale) SiO2 
 PCOD9102694
Probable space group: P -1
;
_chemical_formula_sum "Si O2"
_cell_formula_units_Z 13
_cell_length_a 11.250998
_cell_length_b 14.116710
_cell_length_c 8.716550
_cell_angle_alpha 49.795397
_cell_angle_beta 64.450210
_cell_angle_gamma 30.744116
_cell_volume 512.765469
_symmetry_space_group_name_H-M "P -1"
_symmetry_group_IT_number 2
_symmetry_cell_setting 'triclinic'
loop_
_space_group_symop_operation_xyz
x,y,z
-x,-y,-z
loop_
_atom_site_type_symbol
_atom_site_label
_atom_site_fract_x
_atom_site_fract_y
_atom_site_fract_z
Si Si1 0.982284 0.891045 0.224383
Si Si2 0.002721 0.246145 0.944867
Si Si3 0.500000 0.500000 0.500000
Si Si4 0.720474 0.973184 0.530416
Si Si5 0.513477 0.847389 0.211732
Si Si6 0.979919 0.537898 0.789934
Si Si7 0.842953 0.250064 0.307229
O O1 0.006440 0.762597 0.221189
O O2 0.213402 0.713408 0.392247
O O3 0.746316 0.050374 0.297267
O O4 0.000000 0.000000 0.000000
O O5 0.964779 0.418495 0.836995
O O6 0.822325 0.304815 0.083538
O O7 0.275665 0.978740 0.124274
O O8 0.583115 0.444066 0.329745
O O9 0.755747 0.808993 0.611882
O O10 0.969328 0.796014 0.679506
O O11 0.516744 0.141317 0.600519
O O12 0.770236 0.596531 0.269084
O O13 0.500000 0.000000 0.000000
O O14 0.000000 0.500000 0.000000
O O15 0.000000 0.000000 0.500000
#
# Coordination Sequence:
#
# PCOD9102694 Si02
#       7
#     2   2   1   2   2   2   2
#     4  11  25  46  68 102 142 176 239 290 333 414
#     4  10  21  38  62  95 136 176 225 282 332 406
#     4  10  24  44  72  92 130 190 222 284 372 376
#     4  10  21  38  63  94 136 180 215 280 345 395
#     4   9  18  36  66  97 131 182 219 266 351 405
#     4  11  19  38  67  98 136 173 221 278 337 412
#     4  10  20  38  63  96 132 173 235 279 329 408
#
# _framework density 25.352720999999999
#
# number of rings (size 3 to 8) (size 9 to 14) (size 15 to 20)
#    0.000    1.846    4.615    1.846    0.000    8.615 
#    0.000    4.615    0.000    0.000    0.000    0.000 
#    0.000    0.000    0.000    0.000    0.000    0.000 
#
# Total GULP energy -72462.113669 kJ/mol
# GULP energy per Si atom -5574.008744 kJ/mol
# Density = 2.529502 g / cm^3
# Si number density = 25.352721 Si / 1000 Ang^3
#
#
#
# Elastic Constant Matrix: (Units=GPa)
#
#
# Indices 1 2 3 4 5 6 
#
# 1 69.9395 28.5662 31.8157 -7.9205 -2.9203 27.5718
# 2 28.5662 171.7646 48.2601 48.0918 -5.6085 -7.6175
# 3 31.8157 48.2601 120.8766 37.9306 -7.9236 0.4927
# 4 -7.9205 48.0918 37.9306 55.2698 -1.3811 -1.3118
# 5 -2.9203 -5.6085 -7.9236 -1.3811 37.3190 2.2169
# 6 27.5718 -7.6175 0.4927 -1.3118 2.2169 34.6541
#
#
#
# Elastic Compliance Matrix: (Units=1/GPa)
#
#
# Indices 1 2 3 4 5 6 
#
# 1 0.042043 -0.011515 -0.014031 0.024884 0.001577 -0.034941
# 2 -0.011515 0.011094 0.002589 -0.012813 0.000184 0.011067
# 3 -0.014031 0.002589 0.015582 -0.014664 0.001411 0.010866
# 4 0.024884 -0.012813 -0.014664 0.042371 -0.000289 -0.020784
# 5 0.001577 0.000184 0.001411 -0.000289 0.027414 -0.002999
# 6 -0.034941 0.011067 0.010866 -0.020784 -0.002999 0.058340
#
#
# Mechanical properties :
#
#
# Convention : Reuss Voigt Hill
#
# Bulk Modulus (GPa) = 43.85140 64.42940 54.14040
# Shear Modulus (GPa) = 19.97132 42.37783 31.17457
#
# Velocity S-wave (km/s) = 2.80971 4.09287 3.51042
# Velocity P-wave (km/s) = 5.27826 6.91403 6.15077
#
# Compressibility (1/GPa) = 0.02280429
#
# Stress axis : x y z
#
# Youngs Moduli (GPa) = 23.78541 90.14114 64.17627
#
# Poissons Ratio (x) = 1.03798 0.90047
# Poissons Ratio (y) = 0.27389 -0.16617
# Poissons Ratio (z) = 0.33374 -0.23340
#
# Static dielectric constant tensor:
#      x y z
#    x 1.941860 -0.131530 -0.080160 
#    y -0.131530 1.838090 -0.020180 
#    z -0.080160 -0.020180 2.067110 
# 
# From -- ./inp_files/271788.got.cif
#   From: 2010.05.17/outbox.cif.g08.bks.cpg/sg2_136_cif.got.tgz:271788.got - 2010.06.03 11:33:40.
