data_PCOD9102759
_publ_section_title
;
Structure prediction by ZEFSAII (Michael W. Deem and Ramdas Pophale) SiO2 
 PCOD9102759
Probable space group: P -1
;
_chemical_formula_sum "Si O2"
_cell_formula_units_Z 16
_cell_length_a 10.222180
_cell_length_b 12.695763
_cell_length_c 14.003149
_cell_angle_alpha 131.141351
_cell_angle_beta 116.388741
_cell_angle_gamma 35.323592
_cell_volume 773.314832
_symmetry_space_group_name_H-M "P -1"
_symmetry_group_IT_number 2
_symmetry_cell_setting 'triclinic'
loop_
_space_group_symop_operation_xyz
x,y,z
-x,-y,-z
loop_
_atom_site_type_symbol
_atom_site_label
_atom_site_fract_x
_atom_site_fract_y
_atom_site_fract_z
Si Si1 0.179937 0.438713 0.168562
Si Si2 0.090885 0.525223 0.739621
Si Si3 0.958123 0.911798 0.858596
Si Si4 0.498807 0.187557 0.808075
Si Si5 0.169149 0.696765 0.598475
Si Si6 0.755477 0.805149 0.123366
Si Si7 0.525681 0.274630 0.332311
Si Si8 0.736036 0.827656 0.534414
O O1 0.381774 0.380447 0.247847
O O2 0.038150 0.491006 0.245846
O O3 0.005279 0.642192 0.158178
O O4 0.244032 0.250314 0.018092
O O5 0.953914 0.768764 0.828743
O O6 0.331990 0.369184 0.780479
O O7 0.144085 0.409252 0.587637
O O8 0.136730 0.750407 0.733375
O O9 0.707974 0.133162 0.865993
O O10 0.000000 0.000000 0.000000
O O11 0.351449 0.246420 0.884462
O O12 0.635060 0.946568 0.673795
O O13 0.361065 0.447542 0.469118
O O14 0.258994 0.777732 0.634149
O O15 0.921108 0.811863 0.558525
O O16 0.612355 0.052190 0.236902
O O17 0.500000 0.000000 0.500000
#
# Coordination Sequence:
#
# PCOD9102759 Si02
#       8
#     2   2   2   2   2   2   2   2
#     4  10  21  39  63  93 120 158 211 244 296 367
#     4  10  20  38  64  85 116 154 196 257 300 344
#     4  11  25  39  58  87 121 157 199 248 305 367
#     4   9  21  37  60  92 113 148 207 247 297 360
#     4  10  24  40  58  95 121 161 209 240 310 371
#     4  10  22  37  65  94 117 163 208 245 298 364
#     4  11  22  41  63  85 134 161 190 261 303 356
#     4   9  18  38  64  87 116 153 201 252 294 357
#
# _framework density 20.690151
#
# number of rings (size 3 to 8) (size 9 to 14) (size 15 to 20)
#    0.000    2.000    1.250    1.125    5.250    1.500 
#    0.000    6.250    0.000    0.000    0.000    0.000 
#    0.000    0.000    0.000    0.000    0.000    0.000 
#
# Total GULP energy -89110.208574 kJ/mol
# GULP energy per Si atom -5569.388036 kJ/mol
# Density = 2.064306 g / cm^3
# Si number density = 20.690151 Si / 1000 Ang^3
#
#
#
# Elastic Constant Matrix: (Units=GPa)
#
#
# Indices 1 2 3 4 5 6 
#
# 1 47.3145 19.5949 18.4601 -9.1246 -3.7704 -21.8338
# 2 19.5949 77.3742 37.3562 -11.6548 5.8624 -14.6380
# 3 18.4601 37.3562 127.7407 -16.5030 -1.4579 -7.0519
# 4 -9.1246 -11.6548 -16.5030 22.4736 -5.3209 3.4778
# 5 -3.7704 5.8624 -1.4579 -5.3209 25.3145 -4.3776
# 6 -21.8338 -14.6380 -7.0519 3.4778 -4.3776 22.8309
#
#
#
# Elastic Compliance Matrix: (Units=1/GPa)
#
#
# Indices 1 2 3 4 5 6 
#
# 1 0.047679 -0.001891 -0.001774 0.014416 0.018274 0.045145
# 2 -0.001891 0.017408 -0.003987 0.003632 -0.002555 0.007078
# 3 -0.001774 -0.003987 0.009854 0.005180 0.002037 -0.001607
# 4 0.014416 0.003632 0.005180 0.057943 0.015846 0.011927
# 5 0.018274 -0.002555 0.002037 0.015846 0.050365 0.023710
# 6 0.045145 0.007078 -0.001607 0.011927 0.023710 0.093744
#
#
# Mechanical properties :
#
#
# Convention : Reuss Voigt Hill
#
# Bulk Modulus (GPa) = 16.76777 44.80575 30.78676
# Shear Modulus (GPa) = 16.01666 25.92500 20.97083
#
# Velocity S-wave (km/s) = 2.78532 3.54363 3.18711
# Velocity P-wave (km/s) = 4.29719 6.20046 5.33439
#
# Compressibility (1/GPa) = 0.05963823
#
# Stress axis : x y z
#
# Youngs Moduli (GPa) = 20.97355 57.44647 101.47910
#
# Poissons Ratio (x) = 0.10860 0.18005
# Poissons Ratio (y) = 0.03965 0.40455
# Poissons Ratio (z) = 0.03721 0.22901
#
# Static dielectric constant tensor:
#      x y z
#    x 1.597990 0.158380 -0.245610 
#    y 0.158380 1.460580 0.339910 
#    z -0.245610 0.339910 1.352030 
# 
# From -- ./inp_files/522529.got.cif
#   From: 2010.05.17/outbox.cif.g08.bks.cpg/sg2_262_cif.got.tgz:522529.got - 2010.06.03 11:33:40.
