data_PCOD9102314
_publ_section_title
;
Structure prediction by ZEFSAII (Michael W. Deem and Ramdas Pophale) SiO2 
 PCOD9102314
Probable space group: P -1
;
_chemical_formula_sum "Si O2"
_cell_formula_units_Z 16
_cell_length_a 10.111675
_cell_length_b 20.437636
_cell_length_c 8.440833
_cell_angle_alpha 147.901130
_cell_angle_beta 44.486411
_cell_angle_gamma 139.706587
_cell_volume 587.847645
_symmetry_space_group_name_H-M "P -1"
_symmetry_group_IT_number 2
_symmetry_cell_setting 'triclinic'
loop_
_space_group_symop_operation_xyz
x,y,z
-x,-y,-z
loop_
_atom_site_type_symbol
_atom_site_label
_atom_site_fract_x
_atom_site_fract_y
_atom_site_fract_z
Si Si1 0.354871 0.355057 0.005582
Si Si2 0.775732 0.161437 0.320325
Si Si3 0.416909 0.407355 0.536769
Si Si4 0.051326 0.672125 0.188749
Si Si5 0.349568 0.119190 0.042944
Si Si6 0.032604 0.160943 0.633614
Si Si7 0.014494 0.572588 0.467521
Si Si8 0.191165 0.106804 0.810763
O O1 0.556837 0.497054 0.132376
O O2 0.198725 0.411714 0.327450
O O3 0.216583 0.262833 0.793563
O O4 0.377361 0.244110 0.870901
O O5 0.797873 0.275119 0.400634
O O6 0.789391 0.241596 0.636693
O O7 0.993210 0.144452 0.074483
O O8 0.609923 0.003134 0.160456
O O9 0.500000 0.500000 0.500000
O O10 0.169845 0.338350 0.581351
O O11 0.487704 0.284246 0.249845
O O12 0.090152 0.760614 0.177209
O O13 0.004431 0.522929 0.862028
O O14 0.156827 0.120504 0.310594
O O15 0.263882 0.069933 0.838606
O O16 0.864003 0.011426 0.516161
O O17 0.000000 0.500000 0.500000
#
# Coordination Sequence:
#
# PCOD9102314 Si02
#       8
#     2   2   2   2   2   2   2   2
#     4  11  22  35  56  88 119 150 183 241 290 337
#     4  10  18  34  58  82 111 151 194 237 285 329
#     4  11  21  36  61  88 119 148 191 238 296 341
#     4  11  20  36  59  85 114 153 189 237 284 345
#     4  10  18  33  58  84 117 146 187 241 289 337
#     4  10  18  31  54  85 115 142 188 236 293 323
#     4  11  23  38  56  83 117 154 195 236 279 341
#     4  10  16  32  56  85 114 143 187 242 287 334
#
# _framework density 27.217936999999999
#
# number of rings (size 3 to 8) (size 9 to 14) (size 15 to 20)
#    0.000    1.500    6.250    2.250    0.000    2.000 
#    0.000    0.000    0.000    5.250    0.000    0.000 
#    0.000    0.000    0.000    0.000    0.000    0.000 
#
# Total GULP energy -89255.021294 kJ/mol
# GULP energy per Si atom -5578.438831 kJ/mol
# Density = 2.715599 g / cm^3
# Si number density = 27.217937 Si / 1000 Ang^3
#
#
#
# Elastic Constant Matrix: (Units=GPa)
#
#
# Indices 1 2 3 4 5 6 
#
# 1 78.1796 32.3195 27.2223 10.1987 9.9668 -15.6412
# 2 32.3195 107.1059 68.2361 47.4280 -3.6472 -28.9854
# 3 27.2223 68.2361 122.5204 64.2921 6.3425 -8.9606
# 4 10.1987 47.4280 64.2921 56.5904 9.3126 -12.5431
# 5 9.9668 -3.6472 6.3425 9.3126 34.2923 3.1282
# 6 -15.6412 -28.9854 -8.9606 -12.5431 3.1282 42.0980
#
#
#
# Elastic Compliance Matrix: (Units=1/GPa)
#
#
# Indices 1 2 3 4 5 6 
#
# 1 0.017486 -0.004853 -0.005353 0.009457 -0.007669 0.005404
# 2 -0.004853 0.020889 -0.004804 -0.010511 0.006651 0.007931
# 3 -0.005353 -0.004804 0.024493 -0.025264 0.004097 -0.007915
# 4 0.009457 -0.010511 -0.025264 0.058171 -0.015849 0.009409
# 5 -0.007669 0.006651 0.004097 -0.015849 0.036082 -0.004801
# 6 0.005404 0.007931 -0.007915 0.009409 -0.004801 0.032698
#
#
# Mechanical properties :
#
#
# Convention : Reuss Voigt Hill
#
# Bulk Modulus (GPa) = 30.44257 62.59575 46.51916
# Shear Modulus (GPa) = 21.66490 38.59802 30.13146
#
# Velocity S-wave (km/s) = 2.82437 3.76986 3.33084
# Velocity P-wave (km/s) = 4.67388 6.48052 5.64988
#
# Compressibility (1/GPa) = 0.03284874
#
# Stress axis : x y z
#
# Youngs Moduli (GPa) = 57.18804 47.87273 40.82780
#
# Poissons Ratio (x) = 0.23231 0.21854
# Poissons Ratio (y) = 0.27751 0.19615
# Poissons Ratio (z) = 0.30611 0.23000
#
# Static dielectric constant tensor:
#      x y z
#    x 2.313720 0.134550 0.128960 
#    y 0.134550 2.461100 0.175750 
#    z 0.128960 0.175750 2.244910 
# 
# From -- ./inp_files/282548.got.cif
#   From: 2010.05.17/outbox.cif.g08.bks.cpg/sg2_142_cif.got.tgz:282548.got - 2010.06.03 11:33:40.
