data_PCOD9102085
_publ_section_title
;
Structure prediction by ZEFSAII (Michael W. Deem and Ramdas Pophale) SiO2 
 PCOD9102085
Probable space group: P -1
;
_chemical_formula_sum "Si O2"
_cell_formula_units_Z 12
_cell_length_a 11.561159
_cell_length_b 4.926681
_cell_length_c 9.188622
_cell_angle_alpha 103.268338
_cell_angle_beta 92.759617
_cell_angle_gamma 110.742784
_cell_volume 471.535897
_symmetry_space_group_name_H-M "P -1"
_symmetry_group_IT_number 2
_symmetry_cell_setting 'triclinic'
loop_
_space_group_symop_operation_xyz
x,y,z
-x,-y,-z
loop_
_atom_site_type_symbol
_atom_site_label
_atom_site_fract_x
_atom_site_fract_y
_atom_site_fract_z
Si Si1 0.605254 0.815978 0.255588
Si Si2 0.974511 0.792534 0.330929
Si Si3 0.673618 0.614898 0.796173
Si Si4 0.375355 0.558617 0.541057
Si Si5 0.850510 0.144416 0.173269
Si Si6 0.822006 0.272127 0.869215
O O1 0.467569 0.575222 0.186013
O O2 0.672800 0.667444 0.354802
O O3 0.591755 0.103158 0.365664
O O4 0.702619 0.948229 0.148519
O O5 0.119010 0.552099 0.692165
O O6 0.095617 0.752284 0.264172
O O7 0.000000 0.000000 0.500000
O O8 0.924450 0.957325 0.224649
O O9 0.696729 0.506060 0.622821
O O10 0.699758 0.963687 0.822344
O O11 0.775221 0.545805 0.890774
O O12 0.500000 0.500000 0.500000
O O13 0.885248 0.256963 0.025188
#
# Coordination Sequence:
#
# PCOD9102085 Si02
#       6
#     2   2   2   2   2   2
#     4  11  23  40  68 103 143 179 223 282 344 410
#     4  12  28  49  73 101 133 182 244 290 335 405
#     4  11  23  40  69 105 140 181 228 273 348 414
#     4  10  20  38  61  97 140 182 222 275 331 393
#     4  12  27  48  71 102 143 183 224 288 352 407
#     4  12  26  45  73 100 144 185 225 284 345 417
#
# _framework density 25.448751999999999
#
# number of rings (size 3 to 8) (size 9 to 14) (size 15 to 20)
#    0.000    0.667    0.000    9.500    7.000    1.333 
#    0.000    0.000    0.000    0.000    0.000    0.000 
#    0.000    0.000    0.000    0.000    0.000    0.000 
#
# Total GULP energy -67260.988233 kJ/mol
# GULP energy per Si atom -5605.082353 kJ/mol
# Density = 2.539083 g / cm^3
# Si number density = 25.448752 Si / 1000 Ang^3
#
#
#
# Elastic Constant Matrix: (Units=GPa)
#
#
# Indices 1 2 3 4 5 6 
#
# 1 100.4222 32.4499 27.0708 -10.7560 -10.7855 -2.7811
# 2 32.4499 116.0043 -4.8497 1.9883 -0.8396 -5.3462
# 3 27.0708 -4.8497 89.1156 -5.5167 -1.7808 6.0104
# 4 -10.7560 1.9883 -5.5167 46.1850 -5.2562 1.5583
# 5 -10.7855 -0.8396 -1.7808 -5.2562 39.7281 -12.8459
# 6 -2.7811 -5.3462 6.0104 1.5583 -12.8459 49.3964
#
#
#
# Elastic Compliance Matrix: (Units=1/GPa)
#
#
# Indices 1 2 3 4 5 6 
#
# 1 0.013119 -0.003776 -0.004033 0.003165 0.004316 0.001843
# 2 -0.003776 0.009780 0.001555 -0.001217 -0.000748 0.000501
# 3 -0.004033 0.001555 0.012665 0.000451 -0.001044 -0.001886
# 4 0.003165 -0.001217 0.000451 0.022939 0.003987 0.000305
# 5 0.004316 -0.000748 -0.001044 0.003987 0.029326 0.007790
# 6 0.001843 0.000501 -0.001886 0.000305 0.007790 0.022648
#
#
# Mechanical properties :
#
#
# Convention : Reuss Voigt Hill
#
# Bulk Modulus (GPa) = 43.37101 46.09822 44.73461
# Shear Modulus (GPa) = 38.26394 43.78663 41.02529
#
# Velocity S-wave (km/s) = 3.88179 4.15249 4.01942
# Velocity P-wave (km/s) = 6.09677 6.41439 6.25759
#
# Compressibility (1/GPa) = 0.02305688
#
# Stress axis : x y z
#
# Youngs Moduli (GPa) = 76.22560 102.24644 78.95561
#
# Poissons Ratio (x) = 0.38613 0.31841
# Poissons Ratio (y) = 0.28786 -0.12281
# Poissons Ratio (z) = 0.30740 -0.15903
#
# Static dielectric constant tensor:
#      x y z
#    x 1.984870 0.083340 0.011370 
#    y 0.083340 1.962380 -0.003640 
#    z 0.011370 -0.003640 2.099350 
# 
# From -- ./inp_files/86217.got.cif
#   From: 2010.05.17/outbox.cif.g08.bks.cpg/sg2_44_cif.got.tgz:86217.got - 2010.06.03 11:33:40.
