data_PCOD9102009
_publ_section_title
;
Structure prediction by ZEFSAII (Michael W. Deem and Ramdas Pophale) SiO2 
 PCOD9102009
Probable space group: P -1
;
_chemical_formula_sum "Si O2"
_cell_formula_units_Z 16
_cell_length_a 10.572458
_cell_length_b 12.694401
_cell_length_c 8.393274
_cell_angle_alpha 128.381101
_cell_angle_beta 122.580781
_cell_angle_gamma 64.024162
_cell_volume 734.858946
_symmetry_space_group_name_H-M "P -1"
_symmetry_group_IT_number 2
_symmetry_cell_setting 'triclinic'
loop_
_space_group_symop_operation_xyz
x,y,z
-x,-y,-z
loop_
_atom_site_type_symbol
_atom_site_label
_atom_site_fract_x
_atom_site_fract_y
_atom_site_fract_z
Si Si1 0.897356 0.598227 0.406506
Si Si2 0.368572 0.522797 0.064686
Si Si3 0.427491 0.792283 0.497201
Si Si4 0.234289 0.917127 0.921925
Si Si5 0.282763 0.127446 0.393387
Si Si6 0.046622 0.172825 0.523886
Si Si7 0.265979 0.070725 0.789764
Si Si8 0.514823 0.711463 0.833561
O O1 0.818345 0.726687 0.581082
O O2 0.986947 0.669406 0.397777
O O3 0.000000 0.500000 0.500000
O O4 0.774277 0.526997 0.163669
O O5 0.348291 0.680078 0.248730
O O6 0.421729 0.428244 0.165474
O O7 0.500000 0.500000 0.000000
O O8 0.548433 0.850651 0.518011
O O9 0.502954 0.717100 0.638362
O O10 0.314672 0.921524 0.606568
O O11 0.349579 0.776965 0.852006
O O12 0.073594 0.895684 0.719811
O O13 0.290721 0.030517 0.954669
O O14 0.238278 0.990659 0.161351
O O15 0.219453 0.126446 0.529320
O O16 0.088736 0.132563 0.694163
O O17 0.376139 0.180928 0.943993
#
# Coordination Sequence:
#
# PCOD9102009 Si02
#       8
#     2   2   2   2   2   2   2   2
#     4  10  24  42  58  86 130 164 201 255 315 366
#     4  12  24  40  64  94 121 169 211 258 302 370
#     4  11  22  40  65  97 127 160 212 255 312 367
#     4  11  21  38  66  92 124 164 207 255 318 365
#     4  10  20  38  61  91 120 160 206 256 306 361
#     4  10  23  37  60  93 124 164 209 254 308 365
#     4  11  21  41  64  91 128 164 206 262 306 369
#     4  11  22  41  67  91 128 166 205 261 310 367
#
# _framework density 21.772887999999998
#
# number of rings (size 3 to 8) (size 9 to 14) (size 15 to 20)
#    0.750    0.500    5.000    1.875    1.750    2.500 
#    0.000    0.000    0.000    4.500    0.000    0.000 
#    0.000    0.000    0.000    0.000    0.000    0.000 
#
# Total GULP energy -89151.639408 kJ/mol
# GULP energy per Si atom -5571.977463 kJ/mol
# Density = 2.172333 g / cm^3
# Si number density = 21.772888 Si / 1000 Ang^3
#
#
#
# Elastic Constant Matrix: (Units=GPa)
#
#
# Indices 1 2 3 4 5 6 
#
# 1 25.1153 -7.8876 7.0640 5.0826 13.0628 3.9458
# 2 -7.8876 79.7093 14.9269 -6.7687 18.4889 8.8434
# 3 7.0640 14.9269 92.1060 11.1551 22.8667 2.8835
# 4 5.0826 -6.7687 11.1551 30.1289 -3.6385 6.4878
# 5 13.0628 18.4889 22.8667 -3.6385 23.8973 5.6087
# 6 3.9458 8.8434 2.8835 6.4878 5.6087 16.5122
#
#
#
# Elastic Compliance Matrix: (Units=1/GPa)
#
#
# Indices 1 2 3 4 5 6 
#
# 1 0.095538 0.025077 0.014111 -0.027076 -0.089818 0.002422
# 2 0.025077 0.022562 0.003252 -0.003069 -0.033305 -0.006125
# 3 0.014111 0.003252 0.018713 -0.014223 -0.032213 0.008149
# 4 -0.027076 -0.003069 -0.014223 0.053266 0.044899 -0.025582
# 5 -0.089818 -0.033305 -0.032213 0.044899 0.160785 -0.027329
# 6 0.002422 -0.006125 0.008149 -0.025582 -0.027329 0.081175
#
#
# Mechanical properties :
#
#
# Convention : Reuss Voigt Hill
#
# Bulk Modulus (GPa) = 4.51073 25.01523 14.76298
# Shear Modulus (GPa) = 11.87492 26.29616 19.08554
#
# Velocity S-wave (km/s) = 2.33791 3.47904 2.96391
# Velocity P-wave (km/s) = 3.06007 5.25855 4.30211
#
# Compressibility (1/GPa) = 0.22169358
#
# Stress axis : x y z
#
# Youngs Moduli (GPa) = 10.46706 44.32163 53.43961
#
# Poissons Ratio (x) = -1.11146 -0.75408
# Poissons Ratio (y) = -0.26248 -0.17380
# Poissons Ratio (z) = -0.14770 -0.14414
#
# Static dielectric constant tensor:
#      x y z
#    x 1.897910 0.055280 -0.036050 
#    y 0.055280 1.865100 -0.034010 
#    z -0.036050 -0.034010 1.800940 
# 
# From -- ./inp_files/263630.got.cif
#   From: 2010.05.17/outbox.cif.g08.bks.cpg/sg2_132_cif.got.tgz:263630.got - 2010.06.03 11:33:40.
