data_PCOD9102762
_publ_section_title
;
Structure prediction by ZEFSAII (Michael W. Deem and Ramdas Pophale) SiO2 
 PCOD9102762
Probable space group: P -1
;
_chemical_formula_sum "Si O2"
_cell_formula_units_Z 12
_cell_length_a 14.228341
_cell_length_b 14.296939
_cell_length_c 8.713225
_cell_angle_alpha 63.147562
_cell_angle_beta 106.619935
_cell_angle_gamma 159.630660
_cell_volume 493.585164
_symmetry_space_group_name_H-M "P -1"
_symmetry_group_IT_number 2
_symmetry_cell_setting 'triclinic'
loop_
_space_group_symop_operation_xyz
x,y,z
-x,-y,-z
loop_
_atom_site_type_symbol
_atom_site_label
_atom_site_fract_x
_atom_site_fract_y
_atom_site_fract_z
Si Si1 0.827798 0.958549 0.319520
Si Si2 0.545610 0.150199 0.007388
Si Si3 0.205469 0.413674 0.416803
Si Si4 0.320579 0.291758 0.866333
Si Si5 0.914121 0.600012 0.108897
Si Si6 0.607646 0.783012 0.776841
O O1 0.514751 0.689889 0.433289
O O2 0.734490 0.776224 0.289308
O O3 0.073853 0.196803 0.390737
O O4 0.962544 0.183105 0.103672
O O5 0.700776 0.390900 0.785575
O O6 0.754942 0.355823 0.102350
O O7 0.500000 0.000000 0.000000
O O8 0.215699 0.855305 0.128895
O O9 0.931318 0.150800 0.600861
O O10 0.543151 0.607815 0.789606
O O11 0.399323 0.263691 0.013707
O O12 0.000000 0.000000 0.000000
O O13 0.654307 0.395996 0.234998
#
# Coordination Sequence:
#
# PCOD9102762 Si02
#       6
#     2   2   2   2   2   2
#     4  10  21  40  58  87 121 168 204 245 301 355
#     4  10  21  41  66  91 117 158 201 247 310 384
#     4  10  24  39  62  90 127 156 204 261 306 348
#     4  11  23  38  62  84 126 171 218 239 294 371
#     4  10  20  38  64  85 121 162 198 243 311 372
#     4  11  24  39  59  93 123 167 208 256 299 353
#
# _framework density 24.311914000000002
#
# number of rings (size 3 to 8) (size 9 to 14) (size 15 to 20)
#    0.000    1.667    1.667    3.500    4.667    1.333 
#    0.000    1.667    0.000    0.000    0.000    3.500 
#    0.000    0.000    0.000    0.000    0.000    0.000 
#
# Total GULP energy -67140.859354 kJ/mol
# GULP energy per Si atom -5595.071613 kJ/mol
# Density = 2.425658 g / cm^3
# Si number density = 24.311914 Si / 1000 Ang^3
#
#
#
# Elastic Constant Matrix: (Units=GPa)
#
#
# Indices 1 2 3 4 5 6 
#
# 1 85.8222 30.4532 24.1204 -17.8138 -17.0963 -20.9201
# 2 30.4532 142.3818 34.8539 -12.0461 -3.0154 -5.1202
# 3 24.1204 34.8539 97.5771 -23.2619 -21.7726 4.5114
# 4 -17.8138 -12.0461 -23.2619 52.3598 12.5811 -15.1781
# 5 -17.0963 -3.0154 -21.7726 12.5811 29.6154 -10.6505
# 6 -20.9201 -5.1202 4.5114 -15.1781 -10.6505 52.2770
#
#
#
# Elastic Compliance Matrix: (Units=1/GPa)
#
#
# Indices 1 2 3 4 5 6 
#
# 1 0.019377 -0.002916 -0.000002 0.006366 0.012446 0.011853
# 2 -0.002916 0.008277 -0.002891 0.000216 -0.003316 -0.000719
# 3 -0.000002 -0.002891 0.014142 0.003881 0.008975 0.001451
# 4 0.006366 0.000216 0.003881 0.026077 -0.001080 0.009585
# 5 0.012446 -0.003316 0.008975 -0.001080 0.052823 0.014330
# 6 0.011853 -0.000719 0.001451 0.009585 0.014330 0.029379
#
#
# Mechanical properties :
#
#
# Convention : Reuss Voigt Hill
#
# Bulk Modulus (GPa) = 33.13492 56.07070 44.60281
# Shear Modulus (GPa) = 29.11194 42.60734 35.85964
#
# Velocity S-wave (km/s) = 3.46415 4.19086 3.84472
# Velocity P-wave (km/s) = 5.44602 6.82136 6.17212
#
# Compressibility (1/GPa) = 0.03017964
#
# Stress axis : x y z
#
# Youngs Moduli (GPa) = 51.60741 120.81935 70.71112
#
# Poissons Ratio (x) = 0.35226 0.00012
# Poissons Ratio (y) = 0.15047 0.20442
# Poissons Ratio (z) = 0.00009 0.34927
#
# Static dielectric constant tensor:
#      x y z
#    x 1.958200 -0.023680 -0.044440 
#    y -0.023680 1.958710 0.033660 
#    z -0.044440 0.033660 1.962750 
# 
# From -- ./inp_files/55695.got.cif
#   From: 2010.05.17/outbox.cif.g08.bks.cpg/sg2_28_cif.got.tgz:55695.got - 2010.06.03 11:33:40.
