data_PCOD9102700
_publ_section_title
;
Structure prediction by ZEFSAII (Michael W. Deem and Ramdas Pophale) SiO2 
 PCOD9102700
Probable space group: P -1
;
_chemical_formula_sum "Si O2"
_cell_formula_units_Z 16
_cell_length_a 25.053130
_cell_length_b 11.467720
_cell_length_c 8.775756
_cell_angle_alpha 29.183372
_cell_angle_beta 49.729887
_cell_angle_gamma 33.474610
_cell_volume 645.925607
_symmetry_space_group_name_H-M "P -1"
_symmetry_group_IT_number 2
_symmetry_cell_setting 'triclinic'
loop_
_space_group_symop_operation_xyz
x,y,z
-x,-y,-z
loop_
_atom_site_type_symbol
_atom_site_label
_atom_site_fract_x
_atom_site_fract_y
_atom_site_fract_z
Si Si1 0.612312 0.103926 0.779505
Si Si2 0.401627 0.805034 0.620234
Si Si3 0.898887 0.475254 0.635198
Si Si4 0.279578 0.803585 0.016425
Si Si5 0.786882 0.892275 0.895319
Si Si6 0.966119 0.477028 0.816829
Si Si7 0.161164 0.692357 0.330144
Si Si8 0.501267 0.951007 0.735257
O O1 0.500000 0.500000 0.500000
O O2 0.654669 0.956150 0.699348
O O3 0.589440 0.935640 0.123726
O O4 0.691627 0.072698 0.756910
O O5 0.357314 0.832463 0.833736
O O6 0.474677 0.847750 0.469612
O O7 0.424478 0.467009 0.918653
O O8 0.804575 0.876929 0.306306
O O9 0.912782 0.443478 0.825412
O O10 0.876634 0.299092 0.776256
O O11 0.995793 0.372797 0.502328
O O12 0.248711 0.854279 0.190724
O O13 0.269906 0.553949 0.266929
O O14 0.823026 0.566585 0.291450
O O15 0.884874 0.732272 0.804395
O O16 0.069617 0.082466 0.119757
O O17 0.500000 0.000000 0.500000
#
# Coordination Sequence:
#
# PCOD9102700 Si02
#       8
#     2   2   2   2   2   2   2   2
#     4  10  24  47  68  99 135 180 233 295 355 417
#     4  11  24  44  70 100 138 182 230 291 352 426
#     4   9  20  38  64  88 137 171 224 273 339 416
#     4  10  23  39  62  97 131 179 229 276 343 417
#     4  11  23  41  64  92 136 171 232 282 351 412
#     4  10  20  38  63  97 127 178 215 281 343 411
#     4  10  22  38  61  97 133 173 223 279 339 419
#     4  11  24  43  73 101 134 180 229 295 361 421
#
# _framework density 24.770654
#
# number of rings (size 3 to 8) (size 9 to 14) (size 15 to 20)
#    0.000    1.750    0.000    3.000    5.250    6.500 
#    4.500    0.000    0.000    0.000    0.000    0.000 
#    0.000    0.000    0.000    0.000    0.000    0.000 
#
# Total GULP energy -89068.068465 kJ/mol
# GULP energy per Si atom -5566.754279 kJ/mol
# Density = 2.471428 g / cm^3
# Si number density = 24.770654 Si / 1000 Ang^3
#
#
#
# Elastic Constant Matrix: (Units=GPa)
#
#
# Indices 1 2 3 4 5 6 
#
# 1 122.0860 9.3563 22.6131 9.0492 -3.1950 3.9759
# 2 9.3563 41.5508 21.7657 18.3691 -12.0774 -1.5508
# 3 22.6131 21.7657 82.4090 8.3081 -0.0787 -4.1313
# 4 9.0492 18.3691 8.3081 48.5403 -7.3693 9.3715
# 5 -3.1950 -12.0774 -0.0787 -7.3693 49.8124 6.5756
# 6 3.9759 -1.5508 -4.1313 9.3715 6.5756 30.0430
#
#
#
# Elastic Compliance Matrix: (Units=1/GPa)
#
#
# Indices 1 2 3 4 5 6 
#
# 1 0.008759 -0.000312 -0.002312 -0.000771 0.000550 -0.001373
# 2 -0.000312 0.035399 -0.007941 -0.011575 0.006445 0.002976
# 3 -0.002312 -0.007941 0.014984 0.000036 -0.002370 0.002464
# 4 -0.000771 -0.011575 0.000036 0.027335 0.002449 -0.009554
# 5 0.000550 0.006445 -0.002370 0.002449 0.022800 -0.005820
# 6 -0.001373 0.002976 0.002464 -0.009554 -0.005820 0.038214
#
#
# Mechanical properties :
#
#
# Convention : Reuss Voigt Hill
#
# Bulk Modulus (GPa) = 26.30814 39.27957 32.79385
# Shear Modulus (GPa) = 27.57975 38.49984 33.03980
#
# Velocity S-wave (km/s) = 3.34039 3.94668 3.65612
# Velocity P-wave (km/s) = 5.05187 6.05476 5.57591
#
# Compressibility (1/GPa) = 0.03801105
#
# Stress axis : x y z
#
# Youngs Moduli (GPa) = 114.16457 28.24977 66.73772
#
# Poissons Ratio (x) = 0.00882 0.15428
# Poissons Ratio (y) = 0.03565 0.52999
# Poissons Ratio (z) = 0.26392 0.22434
#
# Static dielectric constant tensor:
#      x y z
#    x 2.072500 0.133050 -0.004100 
#    y 0.133050 2.593180 0.017360 
#    z -0.004100 0.017360 1.977640 
# 
# From -- ./inp_files/353312.got.cif
#   From: 2010.05.17/outbox.cif.g08.bks.cpg/sg2_177_cif.got.tgz:353312.got - 2010.06.03 11:33:40.
