data_PCOD9102493
_publ_section_title
;
Structure prediction by ZEFSAII (Michael W. Deem and Ramdas Pophale) SiO2 
 PCOD9102493
Probable space group: P -1
;
_chemical_formula_sum "Si O2"
_cell_formula_units_Z 14
_cell_length_a 12.267137
_cell_length_b 9.108797
_cell_length_c 8.004617
_cell_angle_alpha 52.568057
_cell_angle_beta 109.669048
_cell_angle_gamma 97.759249
_cell_volume 665.900617
_symmetry_space_group_name_H-M "P -1"
_symmetry_group_IT_number 2
_symmetry_cell_setting 'triclinic'
loop_
_space_group_symop_operation_xyz
x,y,z
-x,-y,-z
loop_
_atom_site_type_symbol
_atom_site_label
_atom_site_fract_x
_atom_site_fract_y
_atom_site_fract_z
Si Si1 0.081024 0.814118 0.640913
Si Si2 0.240545 0.344251 0.111298
Si Si3 0.594469 0.968207 0.426363
Si Si4 0.207774 0.676166 0.118572
Si Si5 0.562059 0.310783 0.590215
Si Si6 0.317871 0.671919 0.721784
Si Si7 0.995776 0.551034 0.267516
O O1 0.181689 0.760209 0.589990
O O2 0.001959 0.643235 0.698658
O O3 0.154840 0.801314 0.856438
O O4 0.000000 0.000000 0.500000
O O5 0.297777 0.149583 0.344064
O O6 0.227467 0.475388 0.177192
O O7 0.317992 0.469322 0.946288
O O8 0.121379 0.339270 0.947126
O O9 0.532671 0.838537 0.356904
O O10 0.500000 0.000000 0.500000
O O11 0.623284 0.172430 0.247927
O O12 0.324116 0.742496 0.205272
O O13 0.107244 0.657747 0.213159
O O14 0.500000 0.500000 0.500000
O O15 0.615500 0.339255 0.412359
O O16 0.000000 0.500000 0.500000
#
# Coordination Sequence:
#
# PCOD9102493 Si02
#       7
#     2   2   2   2   2   2   2
#     4  10  22  39  61  91 122 158 197 255 310 362
#     4  10  20  40  64  90 119 165 200 251 317 359
#     4  10  22  39  63  90 120 161 209 249 305 362
#     4  10  20  38  63  87 121 157 205 246 308 369
#     4  11  21  39  63  88 121 165 205 255 302 361
#     4   9  22  40  62  89 124 157 211 252 301 368
#     4  10  21  39  62  92 118 157 205 247 310 374
#
# _framework density 21.024159000000001
#
# number of rings (size 3 to 8) (size 9 to 14) (size 15 to 20)
#    0.000    2.286    1.429    3.429    4.000    2.286 
#    5.143    4.286    3.143    0.000    0.000    0.000 
#    0.000    0.000    0.000    0.000    0.000    0.000 
#
# Total GULP energy -77990.532893 kJ/mol
# GULP energy per Si atom -5570.752350 kJ/mol
# Density = 2.097631 g / cm^3
# Si number density = 21.024159 Si / 1000 Ang^3
#
#
#
# Elastic Constant Matrix: (Units=GPa)
#
#
# Indices 1 2 3 4 5 6 
#
# 1 67.9509 15.1549 23.2026 5.0753 -2.4692 -6.0752
# 2 15.1549 71.5843 29.1918 12.2729 14.3924 9.5840
# 3 23.2026 29.1918 91.0629 21.7147 18.9738 2.5325
# 4 5.0753 12.2729 21.7147 31.8721 -1.4448 4.7466
# 5 -2.4692 14.3924 18.9738 -1.4448 33.6713 8.5056
# 6 -6.0752 9.5840 2.5325 4.7466 8.5056 30.7577
#
#
#
# Elastic Compliance Matrix: (Units=1/GPa)
#
#
# Indices 1 2 3 4 5 6 
#
# 1 0.017463 -0.003388 -0.004775 0.001482 0.004627 0.003390
# 2 -0.003388 0.018175 -0.002616 -0.004364 -0.005758 -0.003851
# 3 -0.004775 -0.002616 0.017852 -0.011331 -0.010553 0.003069
# 4 0.001482 -0.004364 -0.011331 0.042161 0.011996 -0.007238
# 5 0.004627 -0.005758 -0.010553 0.011996 0.041418 -0.009728
# 6 0.003390 -0.003851 0.003069 -0.007238 -0.009728 0.037936
#
#
# Mechanical properties :
#
#
# Convention : Reuss Voigt Hill
#
# Bulk Modulus (GPa) = 31.31596 40.63297 35.97447
# Shear Modulus (GPa) = 24.13043 30.13016 27.13030
#
# Velocity S-wave (km/s) = 3.39152 3.78977 3.59616
# Velocity P-wave (km/s) = 5.50128 6.20633 5.86441
#
# Compressibility (1/GPa) = 0.03193260
#
# Stress axis : x y z
#
# Youngs Moduli (GPa) = 57.26335 55.02096 56.01623
#
# Poissons Ratio (x) = 0.18641 0.26749
# Poissons Ratio (y) = 0.19401 0.14651
# Poissons Ratio (z) = 0.27345 0.14391
#
# Static dielectric constant tensor:
#      x y z
#    x 1.844500 0.001080 -0.001260 
#    y 0.001080 1.821700 -0.015900 
#    z -0.001260 -0.015900 1.752690 
# 
# From -- ./inp_files/237297.got.cif
#   From: 2010.05.17/outbox.cif.g08.bks.cpg/sg2_119_cif.got.tgz:237297.got - 2010.06.03 11:33:40.
