data_PCOD9102036
_publ_section_title
;
Structure prediction by ZEFSAII (Michael W. Deem and Ramdas Pophale) SiO2 
 PCOD9102036
Probable space group: P -1
;
_chemical_formula_sum "Si O2"
_cell_formula_units_Z 16
_cell_length_a 7.480317
_cell_length_b 17.591534
_cell_length_c 11.609161
_cell_angle_alpha 28.394740
_cell_angle_beta 73.303572
_cell_angle_gamma 76.014420
_cell_volume 695.632522
_symmetry_space_group_name_H-M "P -1"
_symmetry_group_IT_number 2
_symmetry_cell_setting 'triclinic'
loop_
_space_group_symop_operation_xyz
x,y,z
-x,-y,-z
loop_
_atom_site_type_symbol
_atom_site_label
_atom_site_fract_x
_atom_site_fract_y
_atom_site_fract_z
Si Si1 0.326869 0.838002 0.344921
Si Si2 0.756762 0.492672 0.921927
Si Si3 0.407146 0.348952 0.787123
Si Si4 0.513450 0.779812 0.618331
Si Si5 0.294789 0.916352 0.859845
Si Si6 0.178159 0.494847 0.830771
Si Si7 0.248193 0.113335 0.836810
Si Si8 0.959811 0.685694 0.245238
O O1 0.368895 0.845641 0.462646
O O2 0.212563 0.679459 0.549334
O O3 0.535936 0.827925 0.268201
O O4 0.224580 0.985336 0.114200
O O5 0.656366 0.658368 0.689399
O O6 0.963562 0.455518 0.891117
O O7 0.613517 0.345138 0.118455
O O8 0.785501 0.516007 0.024389
O O9 0.500000 0.500000 0.500000
O O10 0.329816 0.400665 0.856880
O O11 0.223519 0.300346 0.815677
O O12 0.545371 0.203790 0.970237
O O13 0.625761 0.937992 0.429946
O O14 0.234602 0.015975 0.851095
O O15 0.126529 0.796584 0.016126
O O16 0.099740 0.246939 0.708733
O O17 0.000000 0.500000 0.500000
#
# Coordination Sequence:
#
# PCOD9102036 Si02
#       8
#     2   2   2   2   2   2   2   2
#     4   9  18  33  63  91 122 165 207 262 326 375
#     4   9  20  41  66  95 122 161 231 274 320 374
#     4  12  24  44  62  95 143 172 205 264 332 392
#     4   9  19  39  63  94 119 155 220 286 315 368
#     4  11  24  42  64  92 129 176 219 264 324 388
#     4  10  21  38  65  93 126 175 210 268 327 386
#     4  10  20  38  61  92 128 171 215 264 310 396
#     4  12  25  38  60  94 133 175 216 255 323 399
#
# _framework density 23.00065
#
# number of rings (size 3 to 8) (size 9 to 14) (size 15 to 20)
#    0.000    1.750    1.250    4.125    1.750    2.000 
#    6.750    1.250    0.000    0.000    0.000    0.000 
#    0.000    0.000    0.000    0.000    0.000    0.000 
#
# Total GULP energy -89387.667634 kJ/mol
# GULP energy per Si atom -5586.729227 kJ/mol
# Density = 2.294830 g / cm^3
# Si number density = 23.000650 Si / 1000 Ang^3
#
#
#
# Elastic Constant Matrix: (Units=GPa)
#
#
# Indices 1 2 3 4 5 6 
#
# 1 126.8176 10.1574 55.4571 -3.3611 -28.2337 -15.0801
# 2 10.1574 75.6631 25.2754 -16.0479 2.7624 -12.6511
# 3 55.4571 25.2754 150.9275 -22.1323 -25.5748 -13.2815
# 4 -3.3611 -16.0479 -22.1323 22.4650 -1.1910 6.0782
# 5 -28.2337 2.7624 -25.5748 -1.1910 46.7394 1.5431
# 6 -15.0801 -12.6511 -13.2815 6.0782 1.5431 24.0845
#
#
#
# Elastic Compliance Matrix: (Units=1/GPa)
#
#
# Indices 1 2 3 4 5 6 
#
# 1 0.010857 -0.000300 -0.003101 -0.002848 0.004630 0.005353
# 2 -0.000300 0.016572 -0.001130 0.009039 -0.001738 0.005724
# 3 -0.003101 -0.001130 0.009899 0.008541 0.003810 0.000523
# 4 -0.002848 0.009039 0.008541 0.061372 0.004250 -0.008086
# 5 0.004630 -0.001738 0.003810 0.004250 0.026444 0.001321
# 6 0.005353 0.005724 0.000523 -0.008086 0.001321 0.050123
#
#
# Mechanical properties :
#
#
# Convention : Reuss Voigt Hill
#
# Bulk Modulus (GPa) = 35.37898 59.46534 47.42216
# Shear Modulus (GPa) = 25.80614 36.15900 30.98257
#
# Velocity S-wave (km/s) = 3.35322 3.96926 3.67417
# Velocity P-wave (km/s) = 5.51428 6.84957 6.21787
#
# Compressibility (1/GPa) = 0.02826537
#
# Stress axis : x y z
#
# Youngs Moduli (GPa) = 92.10376 60.34291 101.02324
#
# Poissons Ratio (x) = 0.01808 0.31330
# Poissons Ratio (y) = 0.02760 0.11420
# Poissons Ratio (z) = 0.28564 0.06821
#
# Static dielectric constant tensor:
#      x y z
#    x 1.859910 0.008000 -0.032510 
#    y 0.008000 1.964420 0.037730 
#    z -0.032510 0.037730 1.898280 
# 
# From -- ./inp_files/508051.got.cif
#   From: 2010.05.17/outbox.cif.g08.bks.cpg/sg2_255_cif.got.tgz:508051.got - 2010.06.03 11:33:40.
