data_PCOD9102477
_publ_section_title
;
Structure prediction by ZEFSAII (Michael W. Deem and Ramdas Pophale) SiO2 
 PCOD9102477
Probable space group: P -1
;
_chemical_formula_sum "Si O2"
_cell_formula_units_Z 16
_cell_length_a 27.814423
_cell_length_b 5.354732
_cell_length_c 5.015441
_cell_angle_alpha 84.048250
_cell_angle_beta 79.915672
_cell_angle_gamma 125.082233
_cell_volume 582.166140
_symmetry_space_group_name_H-M "P -1"
_symmetry_group_IT_number 2
_symmetry_cell_setting 'triclinic'
loop_
_space_group_symop_operation_xyz
x,y,z
-x,-y,-z
loop_
_atom_site_type_symbol
_atom_site_label
_atom_site_fract_x
_atom_site_fract_y
_atom_site_fract_z
Si Si1 0.148807 0.155253 0.774851
Si Si2 0.724191 0.492435 0.159124
Si Si3 0.880618 0.641579 0.716180
Si Si4 0.245249 0.885500 0.207825
Si Si5 0.356744 0.340760 0.282024
Si Si6 0.386261 0.952590 0.967775
Si Si7 0.961173 0.476469 0.790100
Si Si8 0.485951 0.721914 0.361475
O O1 0.222367 0.344232 0.685159
O O2 0.120821 0.129994 0.515425
O O3 0.140026 0.358773 0.965010
O O4 0.106975 0.826507 0.011729
O O5 0.650299 0.201927 0.261621
O O6 0.731392 0.800614 0.013049
O O7 0.744458 0.342395 0.937973
O O8 0.944583 0.706952 0.694111
O O9 0.827036 0.311391 0.664118
O O10 0.287374 0.026229 0.417470
O O11 0.414581 0.495025 0.396388
O O12 0.377154 0.209521 0.040936
O O13 0.353852 0.628968 0.200157
O O14 0.457704 0.099543 0.922500
O O15 0.000000 0.500000 0.500000
O O16 0.000000 0.500000 0.000000
O O17 0.500000 0.500000 0.500000
O O18 0.500000 0.000000 0.500000
#
# Coordination Sequence:
#
# PCOD9102477 Si02
#       8
#     2   2   2   2   2   2   2   2
#     4  11  24  44  69  99 140 184 233 293 355 421
#     4   9  19  39  65  96 129 171 229 292 350 418
#     4  11  24  44  69  99 140 184 233 293 355 421
#     4   9  19  39  65  96 129 171 229 292 350 418
#     4  10  20  38  63  86 120 170 224 274 341 414
#     4  10  20  38  63  86 120 170 224 274 341 414
#     4  12  26  44  70 102 140 181 236 289 350 430
#     4  12  24  36  54  86 132 166 218 280 342 412
#
# _framework density 27.483559
#
# number of rings (size 3 to 8) (size 9 to 14) (size 15 to 20)
#    0.000    1.500    1.250    3.750    0.000    4.000 
#    0.000    5.000    0.000    0.000    0.000    0.000 
#    0.000    0.000    0.000    0.000    0.000    0.000 
#
# Total GULP energy -89266.083939 kJ/mol
# GULP energy per Si atom -5579.130246 kJ/mol
# Density = 2.742101 g / cm^3
# Si number density = 27.483559 Si / 1000 Ang^3
#
#
#
# Elastic Constant Matrix: (Units=GPa)
#
#
# Indices 1 2 3 4 5 6 
#
# 1 179.3453 43.3445 41.2919 19.1116 27.0888 5.6040
# 2 43.3445 155.0996 33.2877 -7.3704 11.1817 10.4684
# 3 41.2919 33.2877 108.9930 17.5681 10.7298 -1.0551
# 4 19.1116 -7.3704 17.5681 30.2667 9.2018 -1.0608
# 5 27.0888 11.1817 10.7298 9.2018 38.8500 10.1600
# 6 5.6040 10.4684 -1.0551 -1.0608 10.1600 57.3748
#
#
#
# Elastic Compliance Matrix: (Units=1/GPa)
#
#
# Indices 1 2 3 4 5 6 
#
# 1 0.007118 -0.001598 -0.001380 -0.003034 -0.003436 0.000123
# 2 -0.001598 0.007794 -0.002408 0.004668 -0.001310 -0.000992
# 3 -0.001380 -0.002408 0.011474 -0.006287 -0.000209 0.000706
# 4 -0.003034 0.004668 -0.006287 0.042189 -0.007878 0.001504
# 5 -0.003436 -0.001310 -0.000209 -0.007878 0.031798 -0.005206
# 6 0.000123 -0.000992 0.000706 0.001504 -0.005206 0.018561
#
#
# Mechanical properties :
#
#
# Convention : Reuss Voigt Hill
#
# Bulk Modulus (GPa) = 64.04592 75.47624 69.76108
# Shear Modulus (GPa) = 37.06146 46.99921 42.03033
#
# Velocity S-wave (km/s) = 3.67617 4.13980 3.91486
# Velocity P-wave (km/s) = 6.43218 7.09736 6.77294
#
# Compressibility (1/GPa) = 0.01561380
#
# Stress axis : x y z
#
# Youngs Moduli (GPa) = 140.48524 128.30220 87.15344
#
# Poissons Ratio (x) = 0.20500 0.12030
# Poissons Ratio (y) = 0.22447 0.20988
# Poissons Ratio (z) = 0.19391 0.30897
#
# Static dielectric constant tensor:
#      x y z
#    x 2.280110 0.078710 0.020000 
#    y 0.078710 2.278690 -0.108220 
#    z 0.020000 -0.108220 2.295680 
# 
# From -- ./inp_files/125775.got.cif
#   From: 2010.05.17/outbox.cif.g08.bks.cpg/sg2_63_cif.got.tgz:125775.got - 2010.06.03 11:33:40.
