data_PCOD9102831
_publ_section_title
;
Structure prediction by ZEFSAII (Michael W. Deem and Ramdas Pophale) SiO2 
 PCOD9102831
Probable space group: P -1
;
_chemical_formula_sum "Si O2"
_cell_formula_units_Z 16
_cell_length_a 7.834493
_cell_length_b 14.003939
_cell_length_c 8.672815
_cell_angle_alpha 53.700477
_cell_angle_beta 111.725291
_cell_angle_gamma 81.097312
_cell_volume 617.201099
_symmetry_space_group_name_H-M "P -1"
_symmetry_group_IT_number 2
_symmetry_cell_setting 'triclinic'
loop_
_space_group_symop_operation_xyz
x,y,z
-x,-y,-z
loop_
_atom_site_type_symbol
_atom_site_label
_atom_site_fract_x
_atom_site_fract_y
_atom_site_fract_z
Si Si1 0.081884 0.883675 0.305129
Si Si2 0.475241 0.921934 0.306329
Si Si3 0.257202 0.752688 0.814440
Si Si4 0.630286 0.656041 0.411741
Si Si5 0.196828 0.276253 0.194394
Si Si6 0.745618 0.494027 0.904077
Si Si7 0.150370 0.812362 0.057350
Si Si8 0.654002 0.778680 0.019469
O O1 0.274157 0.915879 0.313067
O O2 0.134559 0.806994 0.559406
O O3 0.073550 0.811866 0.210509
O O4 0.877917 0.034526 0.100812
O O5 0.589493 0.794895 0.350161
O O6 0.652459 0.872658 0.545717
O O7 0.406655 0.071872 0.083889
O O8 0.373434 0.587523 0.017720
O O9 0.102764 0.802217 0.868564
O O10 0.432853 0.796765 0.861007
O O11 0.732112 0.533933 0.681976
O O12 0.392492 0.691038 0.262478
O O13 0.737168 0.658971 0.286725
O O14 0.316613 0.366732 0.162280
O O15 0.176649 0.260668 0.021973
O O16 0.988916 0.376705 0.125761
#
# Coordination Sequence:
#
# PCOD9102831 Si02
#       8
#     2   2   2   2   2   2   2   2
#     4  10  20  39  60  95 130 162 200 257 322 364
#     4  10  20  38  64  89 128 154 198 270 311 366
#     4  11  23  39  64  95 121 171 204 254 313 366
#     4   9  21  42  59  87 127 165 200 257 309 361
#     4  10  22  42  61  89 120 162 209 252 301 377
#     4  10  24  43  61  84 129 167 206 252 301 366
#     4   9  21  37  59  91 129 153 208 258 303 374
#     4  11  22  37  66  97 115 159 214 250 320 372
#
# _framework density 25.923480000000001
#
# number of rings (size 3 to 8) (size 9 to 14) (size 15 to 20)
#    0.000    2.000    1.250    1.125    1.750    5.000 
#    2.250    7.500    0.000    0.000    0.000    0.000 
#    0.000    0.000    0.000    0.000    0.000    0.000 
#
# Total GULP energy -89289.017364 kJ/mol
# GULP energy per Si atom -5580.563585 kJ/mol
# Density = 2.586448 g / cm^3
# Si number density = 25.923480 Si / 1000 Ang^3
#
#
#
# Elastic Constant Matrix: (Units=GPa)
#
#
# Indices 1 2 3 4 5 6 
#
# 1 71.2205 0.7118 24.8231 1.5808 -9.7349 -14.5377
# 2 0.7118 95.2582 18.8392 17.4695 -17.3080 -4.4268
# 3 24.8231 18.8392 160.6984 20.2634 -25.7463 -4.6492
# 4 1.5808 17.4695 20.2634 47.3620 -8.1018 -12.4350
# 5 -9.7349 -17.3080 -25.7463 -8.1018 41.6177 6.0441
# 6 -14.5377 -4.4268 -4.6492 -12.4350 6.0441 34.1055
#
#
#
# Elastic Compliance Matrix: (Units=1/GPa)
#
#
# Indices 1 2 3 4 5 6 
#
# 1 0.016611 0.000605 -0.002413 0.002550 0.002067 0.007393
# 2 0.000605 0.011989 -0.000370 -0.003642 0.004235 -0.000315
# 3 -0.002413 -0.000370 0.007530 -0.002836 0.003639 -0.001729
# 4 0.002550 -0.003642 -0.002836 0.026293 0.001047 0.009628
# 5 0.002067 0.004235 0.003639 0.001047 0.029143 -0.002856
# 6 0.007393 -0.000315 -0.001729 0.009628 -0.002856 0.036212
#
#
# Mechanical properties :
#
#
# Convention : Reuss Voigt Hill
#
# Bulk Modulus (GPa) = 31.47412 46.21393 38.84403
# Shear Modulus (GPa) = 35.03211 43.47058 39.25134
#
# Velocity S-wave (km/s) = 3.68008 4.09942 3.89540
# Velocity P-wave (km/s) = 5.49771 6.34608 5.93707
#
# Compressibility (1/GPa) = 0.03177213
#
# Stress axis : x y z
#
# Youngs Moduli (GPa) = 60.20090 83.40756 132.80996
#
# Poissons Ratio (x) = -0.05043 0.32051
# Poissons Ratio (y) = -0.03640 0.04917
# Poissons Ratio (z) = 0.14528 0.03088
#
# Static dielectric constant tensor:
#      x y z
#    x 2.163370 0.099110 0.016800 
#    y 0.099110 2.139850 0.120260 
#    z 0.016800 0.120260 2.004020 
# 
# From -- ./inp_files/205738.got.cif
#   From: 2010.05.17/outbox.cif.g08.bks.cpg/sg2_103_cif.got.tgz:205738.got - 2010.06.03 11:33:40.
