data_PCOD9102239
_publ_section_title
;
Structure prediction by ZEFSAII (Michael W. Deem and Ramdas Pophale) SiO2 
 PCOD9102239
Probable space group: P -1
;
_chemical_formula_sum "Si O2"
_cell_formula_units_Z 16
_cell_length_a 12.312041
_cell_length_b 12.506962
_cell_length_c 12.119394
_cell_angle_alpha 145.960730
_cell_angle_beta 143.644006
_cell_angle_gamma 39.320277
_cell_volume 586.651498
_symmetry_space_group_name_H-M "P -1"
_symmetry_group_IT_number 2
_symmetry_cell_setting 'triclinic'
loop_
_space_group_symop_operation_xyz
x,y,z
-x,-y,-z
loop_
_atom_site_type_symbol
_atom_site_label
_atom_site_fract_x
_atom_site_fract_y
_atom_site_fract_z
Si Si1 0.631254 0.095899 0.789504
Si Si2 0.985597 0.400526 0.226362
Si Si3 0.282376 0.322701 0.575610
Si Si4 0.295668 0.574899 0.329773
Si Si5 0.594880 0.102901 0.404807
Si Si6 0.916201 0.025694 0.154149
Si Si7 0.954917 0.752943 0.366964
Si Si8 0.688499 0.843062 0.968391
O O1 0.504391 0.266690 0.749663
O O2 0.752230 0.897586 0.650246
O O3 0.472897 0.010867 0.649222
O O4 0.752026 0.141234 0.029117
O O5 0.192984 0.397276 0.446175
O O6 0.977776 0.179320 0.001355
O O7 0.941673 0.534002 0.195468
O O8 0.835864 0.515241 0.295097
O O9 0.500000 0.500000 0.500000
O O10 0.323469 0.708621 0.363462
O O11 0.130649 0.716781 0.395304
O O12 0.246234 0.368705 0.096448
O O13 0.400537 0.191359 0.251575
O O14 0.759701 0.927654 0.325057
O O15 0.840420 0.943590 0.133771
O O16 0.011552 0.170910 0.417156
O O17 0.500000 0.000000 0.000000
#
# Coordination Sequence:
#
# PCOD9102239 Si02
#       8
#     2   2   2   2   2   2   2   2
#     4   9  18  37  63  86 115 156 202 241 299 350
#     4  10  20  38  62  89 117 157 197 245 306 343
#     4   9  18  36  64  83 115 159 195 249 300 348
#     4  10  21  37  60  86 121 158 193 236 295 350
#     4  10  21  37  61  88 121 158 196 240 297 352
#     4  10  21  37  60  86 120 157 198 240 292 359
#     4  12  22  40  60  91 126 155 193 249 293 350
#     4  10  20  40  59  87 120 159 199 241 288 354
#
# _framework density 27.273433000000001
#
# number of rings (size 3 to 8) (size 9 to 14) (size 15 to 20)
#    0.000    2.000    2.500    1.875    1.750    0.000 
#    2.250   10.000    0.000    0.000    0.000    0.000 
#    0.000    0.000    0.000    0.000    0.000    0.000 
#
# Total GULP energy -89358.933951 kJ/mol
# GULP energy per Si atom -5584.933372 kJ/mol
# Density = 2.721136 g / cm^3
# Si number density = 27.273433 Si / 1000 Ang^3
#
#
#
# Elastic Constant Matrix: (Units=GPa)
#
#
# Indices 1 2 3 4 5 6 
#
# 1 96.7448 21.1185 21.1166 16.9855 -16.9234 -14.8106
# 2 21.1185 149.2838 34.1815 -8.6112 -4.5599 8.5395
# 3 21.1166 34.1815 97.9742 5.5316 -10.3806 -2.1583
# 4 16.9855 -8.6112 5.5316 48.6295 3.9277 -11.6036
# 5 -16.9234 -4.5599 -10.3806 3.9277 42.5720 18.9026
# 6 -14.8106 8.5395 -2.1583 -11.6036 18.9026 40.8792
#
#
#
# Elastic Compliance Matrix: (Units=1/GPa)
#
#
# Indices 1 2 3 4 5 6 
#
# 1 0.012821 -0.001718 -0.001420 -0.004566 0.004247 0.001670
# 2 -0.001718 0.007723 -0.002438 0.001746 0.000275 -0.001996
# 3 -0.001420 -0.002438 0.011723 -0.001758 0.002698 -0.001133
# 4 -0.004566 0.001746 -0.001758 0.025498 -0.008412 0.009016
# 5 0.004247 0.000275 0.002698 -0.008412 0.033951 -0.016463
# 6 0.001670 -0.001996 -0.001133 0.009016 -0.016463 0.035596
#
#
# Mechanical properties :
#
#
# Convention : Reuss Voigt Hill
#
# Bulk Modulus (GPa) = 47.35387 55.20399 51.27893
# Shear Modulus (GPa) = 34.36361 44.25521 39.30941
#
# Velocity S-wave (km/s) = 3.55345 4.03258 3.80057
# Velocity P-wave (km/s) = 5.85118 6.47821 6.17266
#
# Compressibility (1/GPa) = 0.02111760
#
# Stress axis : x y z
#
# Youngs Moduli (GPa) = 77.99493 129.48121 85.29978
#
# Poissons Ratio (x) = 0.22243 0.12109
# Poissons Ratio (y) = 0.13399 0.20793
# Poissons Ratio (z) = 0.11072 0.31563
#
# Static dielectric constant tensor:
#      x y z
#    x 2.244240 0.016340 0.032960 
#    y 0.016340 2.161090 -0.022170 
#    z 0.032960 -0.022170 2.185590 
# 
# From -- ./inp_files/296463.got.cif
#   From: 2010.05.17/outbox.cif.g08.bks.cpg/sg2_149_cif.got.tgz:296463.got - 2010.06.03 11:33:40.
