data_PCOD9102549
_publ_section_title
;
Structure prediction by ZEFSAII (Michael W. Deem and Ramdas Pophale) SiO2 
 PCOD9102549
Probable space group: P -1
;
_chemical_formula_sum "Si O2"
_cell_formula_units_Z 14
_cell_length_a 24.373812
_cell_length_b 16.260846
_cell_length_c 12.540038
_cell_angle_alpha 149.905478
_cell_angle_beta 157.380014
_cell_angle_gamma 17.670371
_cell_volume 575.859799
_symmetry_space_group_name_H-M "P -1"
_symmetry_group_IT_number 2
_symmetry_cell_setting 'triclinic'
loop_
_space_group_symop_operation_xyz
x,y,z
-x,-y,-z
loop_
_atom_site_type_symbol
_atom_site_label
_atom_site_fract_x
_atom_site_fract_y
_atom_site_fract_z
Si Si1 0.172333 0.440595 0.462861
Si Si2 0.655690 0.469070 0.669165
Si Si3 0.638776 0.382996 0.006289
Si Si4 0.606986 0.101803 0.509614
Si Si5 0.188080 0.895113 0.634876
Si Si6 0.318611 0.136460 0.172062
Si Si7 0.763078 0.714394 0.197474
O O1 0.186056 0.624225 0.680431
O O2 0.420692 0.155115 0.642516
O O3 0.956386 0.592256 0.321489
O O4 0.175259 0.343237 0.246109
O O5 0.500000 0.500000 0.500000
O O6 0.486644 0.710716 0.549294
O O7 0.829889 0.194136 0.604714
O O8 0.767037 0.514585 0.987228
O O9 0.500000 0.500000 0.000000
O O10 0.713346 0.134247 0.820537
O O11 0.442185 0.618715 0.832014
O O12 0.384044 0.216028 0.293533
O O13 0.196432 0.083645 0.850445
O O14 0.000000 0.000000 0.500000
O O15 0.772943 0.807026 0.428876
O O16 0.500000 0.000000 0.000000
#
# Coordination Sequence:
#
# PCOD9102549 Si02
#       7
#     2   2   2   2   2   2   2
#     4  10  21  38  64  87 125 168 196 259 312 362
#     4  10  21  41  59  82 127 161 198 259 306 363
#     4  10  20  40  60  90 128 157 206 257 308 368
#     4  10  21  39  62  89 120 162 211 251 305 378
#     4  10  21  38  62  92 119 159 208 253 311 366
#     4  10  20  38  63  90 122 160 213 250 307 370
#     4  10  22  41  59  90 125 162 213 251 311 370
#
# _framework density 24.311472999999999
#
# number of rings (size 3 to 8) (size 9 to 14) (size 15 to 20)
#    0.000    2.000    1.429    1.714    0.000    1.143 
#   10.286    4.286    0.000    0.000    0.000    0.000 
#    0.000    0.000    0.000    0.000    0.000    0.000 
#
# Total GULP energy -78385.927529 kJ/mol
# GULP energy per Si atom -5598.994824 kJ/mol
# Density = 2.425614 g / cm^3
# Si number density = 24.311473 Si / 1000 Ang^3
#
#
#
# Elastic Constant Matrix: (Units=GPa)
#
#
# Indices 1 2 3 4 5 6 
#
# 1 158.6775 56.5915 87.5405 38.3682 26.9995 -38.3182
# 2 56.5915 128.0743 80.7474 29.6534 -0.9087 -33.2736
# 3 87.5405 80.7474 207.0891 57.5196 13.3995 -33.6869
# 4 38.3682 29.6534 57.5196 57.5744 -0.9978 -13.1257
# 5 26.9995 -0.9087 13.3995 -0.9978 61.1166 0.7561
# 6 -38.3182 -33.2736 -33.6869 -13.1257 0.7561 59.4496
#
#
#
# Elastic Compliance Matrix: (Units=1/GPa)
#
#
# Indices 1 2 3 4 5 6 
#
# 1 0.010472 -0.001608 -0.001918 -0.003382 -0.004335 0.004072
# 2 -0.001608 0.011620 -0.003109 -0.000990 0.001506 0.003467
# 3 -0.001918 -0.003109 0.008583 -0.005562 -0.001180 0.000674
# 4 -0.003382 -0.000990 -0.005562 0.025685 0.003121 -0.000254
# 5 -0.004335 0.001506 -0.001180 0.003121 0.018636 -0.002168
# 6 0.004072 0.003467 0.000674 -0.000254 -0.002168 0.021739
#
#
# Mechanical properties :
#
#
# Convention : Reuss Voigt Hill
#
# Bulk Modulus (GPa) = 57.45797 104.84442 81.15120
# Shear Modulus (GPa) = 43.17537 53.55888 48.36713
#
# Velocity S-wave (km/s) = 4.21875 4.69874 4.46519
# Velocity P-wave (km/s) = 6.88591 8.52388 7.74830
#
# Compressibility (1/GPa) = 0.01740403
#
# Stress axis : x y z
#
# Youngs Moduli (GPa) = 95.49126 86.06135 116.51413
#
# Poissons Ratio (x) = 0.13841 0.22343
# Poissons Ratio (y) = 0.15358 0.36228
# Poissons Ratio (z) = 0.18312 0.26759
#
# Static dielectric constant tensor:
#      x y z
#    x 1.858360 0.045800 -0.067600 
#    y 0.045800 2.007490 -0.013070 
#    z -0.067600 -0.013070 1.943210 
# 
# From -- ./inp_files/544294.got.cif
#   From: 2010.05.17/outbox.cif.g08.bks.cpg/sg2_273_cif.got.tgz:544294.got - 2010.06.03 11:33:40.
