data_PCOD9102069
_publ_section_title
;
Structure prediction by ZEFSAII (Michael W. Deem and Ramdas Pophale) SiO2 
 PCOD9102069
Probable space group: P -1
;
_chemical_formula_sum "Si O2"
_cell_formula_units_Z 16
_cell_length_a 15.491508
_cell_length_b 16.976855
_cell_length_c 23.823001
_cell_angle_alpha 158.334710
_cell_angle_beta 20.192330
_cell_angle_gamma 149.351874
_cell_volume 794.908109
_symmetry_space_group_name_H-M "P -1"
_symmetry_group_IT_number 2
_symmetry_cell_setting 'triclinic'
loop_
_space_group_symop_operation_xyz
x,y,z
-x,-y,-z
loop_
_atom_site_type_symbol
_atom_site_label
_atom_site_fract_x
_atom_site_fract_y
_atom_site_fract_z
Si Si1 0.973640 0.151327 0.022963
Si Si2 0.461445 0.389780 0.510681
Si Si3 0.275300 0.942485 0.557314
Si Si4 0.710364 0.239578 0.882980
Si Si5 0.491836 0.259769 0.823641
Si Si6 0.810511 0.019945 0.564357
Si Si7 0.883113 0.744871 0.742253
Si Si8 0.007060 0.348171 0.005516
O O1 0.738274 0.282203 0.283915
O O2 0.007086 0.260555 0.012650
O O3 0.216974 0.183211 0.931926
O O4 0.928189 0.901840 0.872509
O O5 0.500000 0.500000 0.500000
O O6 0.283118 0.564116 0.770272
O O7 0.298246 0.185642 0.476132
O O8 0.386039 0.769277 0.331281
O O9 0.041913 0.855231 0.672265
O O10 0.500000 0.000000 0.500000
O O11 0.144020 0.165778 0.761899
O O12 0.763950 0.206041 0.761775
O O13 0.817822 0.459860 0.978911
O O14 0.416157 0.237757 0.071999
O O15 0.895977 0.049078 0.671084
O O16 0.654547 0.096563 0.656522
O O17 0.500000 0.500000 0.000000
O O18 0.000000 0.500000 0.500000
#
# Coordination Sequence:
#
# PCOD9102069 Si02
#       8
#     2   2   2   2   2   2   2   2
#     4  10  20  38  61  95 127 164 214 267 317 388
#     4   9  18  36  61  94 123 164 215 264 322 382
#     4  11  22  42  63  92 127 173 218 260 320 393
#     4  10  20  39  64  97 122 167 222 267 321 382
#     4  12  26  42  64  94 136 175 214 268 334 383
#     4  10  22  38  64  93 133 168 215 273 318 386
#     4  11  22  35  68  96 126 167 220 271 314 386
#     4   9  18  35  66  89 119 166 213 260 312 387
#
# _framework density 20.128112000000002
#
# number of rings (size 3 to 8) (size 9 to 14) (size 15 to 20)
#    0.000    1.750    3.750    1.500    1.750    1.500 
#    0.000    3.125    0.000    0.000    0.000    0.000 
#    0.000    0.000    0.000    0.000    0.000    0.000 
#
# Total GULP energy -89088.131297 kJ/mol
# GULP energy per Si atom -5568.008206 kJ/mol
# Density = 2.008230 g / cm^3
# Si number density = 20.128112 Si / 1000 Ang^3
#
#
#
# Elastic Constant Matrix: (Units=GPa)
#
#
# Indices 1 2 3 4 5 6 
#
# 1 54.5999 23.0023 42.7652 -4.6850 -11.9188 19.0596
# 2 23.0023 101.1373 71.5480 -13.8426 -7.8295 16.0274
# 3 42.7652 71.5480 198.0301 -19.1792 -8.2820 33.0243
# 4 -4.6850 -13.8426 -19.1792 44.4783 12.0018 -6.0846
# 5 -11.9188 -7.8295 -8.2820 12.0018 28.7574 -4.2562
# 6 19.0596 16.0274 33.0243 -6.0846 -4.2562 20.1302
#
#
#
# Elastic Compliance Matrix: (Units=1/GPa)
#
#
# Indices 1 2 3 4 5 6 
#
# 1 0.030606 -0.001533 -0.002133 -0.004038 0.009877 -0.023391
# 2 -0.001533 0.013774 -0.004085 0.001848 0.000860 -0.002073
# 3 -0.002133 -0.004085 0.008482 0.001370 -0.001386 -0.008523
# 4 -0.004038 0.001848 0.001370 0.027052 -0.011191 0.005915
# 5 0.009877 0.000860 -0.001386 -0.011191 0.043071 -0.002038
# 6 -0.023391 -0.002073 -0.008523 0.005915 -0.002038 0.088813
#
#
# Mechanical properties :
#
#
# Convention : Reuss Voigt Hill
#
# Bulk Modulus (GPa) = 26.76611 69.82203 48.29407
# Shear Modulus (GPa) = 20.85473 33.10332 26.97902
#
# Velocity S-wave (km/s) = 3.22234 4.05980 3.66507
# Velocity P-wave (km/s) = 5.21262 7.53260 6.47733
#
# Compressibility (1/GPa) = 0.03736068
#
# Stress axis : x y z
#
# Youngs Moduli (GPa) = 32.67301 72.60025 117.89603
#
# Poissons Ratio (x) = 0.11133 0.25144
# Poissons Ratio (y) = 0.05010 0.48157
# Poissons Ratio (z) = 0.06968 0.29655
#
# Static dielectric constant tensor:
#      x y z
#    x 1.708310 0.018780 0.003740 
#    y 0.018780 1.675190 0.005750 
#    z 0.003740 0.005750 1.815390 
# 
# From -- ./inp_files/612204.got.cif
#   From: 2010.05.17/outbox.cif.g08.bks.cpg/sg2_307_cif.got.tgz:612204.got - 2010.06.03 11:33:40.
