data_PCOD9102872
_publ_section_title
;
Structure prediction by ZEFSAII (Michael W. Deem and Ramdas Pophale) SiO2 
 PCOD9102872
Probable space group: P -1
;
_chemical_formula_sum "Si O2"
_cell_formula_units_Z 16
_cell_length_a 21.293052
_cell_length_b 8.956273
_cell_length_c 10.530318
_cell_angle_alpha 101.869358
_cell_angle_beta 37.244239
_cell_angle_gamma 129.396935
_cell_volume 721.249542
_symmetry_space_group_name_H-M "P -1"
_symmetry_group_IT_number 2
_symmetry_cell_setting 'triclinic'
loop_
_space_group_symop_operation_xyz
x,y,z
-x,-y,-z
loop_
_atom_site_type_symbol
_atom_site_label
_atom_site_fract_x
_atom_site_fract_y
_atom_site_fract_z
Si Si1 0.682874 0.674251 0.288037
Si Si2 0.264754 0.607259 0.768873
Si Si3 0.659687 0.078984 0.788291
Si Si4 0.217720 0.100315 0.085800
Si Si5 0.966737 0.138460 0.031358
Si Si6 0.879977 0.603854 0.447023
Si Si7 0.615017 0.023285 0.152394
Si Si8 0.564036 0.450750 0.987176
O O1 0.500000 0.500000 0.500000
O O2 0.689176 0.514646 0.303947
O O3 0.794980 0.813398 0.005250
O O4 0.764095 0.892980 0.290244
O O5 0.292771 0.738235 0.872354
O O6 0.067754 0.369054 0.001844
O O7 0.412039 0.821827 0.465909
O O8 0.822000 0.362492 0.525295
O O9 0.663279 0.069757 0.934664
O O10 0.500000 0.000000 0.000000
O O11 0.601744 0.851441 0.779777
O O12 0.334991 0.337741 0.030848
O O13 0.019081 0.817371 0.368146
O O14 0.320944 0.061110 0.903264
O O15 0.045669 0.280607 0.793025
O O16 0.000000 0.000000 0.000000
O O17 0.712439 0.513678 0.707125
O O18 0.500000 0.500000 0.000000
#
# Coordination Sequence:
#
# PCOD9102872 Si02
#       8
#     2   2   2   2   2   2   2   2
#     4  10  20  38  64  91 122 159 208 268 311 375
#     4  10  21  38  64  91 121 168 208 260 319 370
#     4  10  22  40  63  90 127 165 210 265 312 377
#     4  11  23  41  61  91 127 165 213 259 317 381
#     4   9  20  40  66  90 122 161 207 260 312 375
#     4  10  23  42  64  93 131 162 205 271 316 374
#     4  11  22  39  64  87 129 168 211 259 319 381
#     4  11  22  40  65  93 121 170 215 256 315 375
#
# _framework density 22.183724000000002
#
# number of rings (size 3 to 8) (size 9 to 14) (size 15 to 20)
#    0.000    1.750    2.500    1.875    3.500    0.500 
#    2.250    3.750    0.000    0.000    0.000    0.000 
#    0.000    0.000    0.000    0.000    0.000    0.000 
#
# Total GULP energy -89102.360437 kJ/mol
# GULP energy per Si atom -5568.897527 kJ/mol
# Density = 2.213323 g / cm^3
# Si number density = 22.183724 Si / 1000 Ang^3
#
#
#
# Elastic Constant Matrix: (Units=GPa)
#
#
# Indices 1 2 3 4 5 6 
#
# 1 69.2835 42.3521 31.7843 -28.5099 4.2710 20.6643
# 2 42.3521 172.2683 70.9956 -55.6171 -1.0333 24.6416
# 3 31.7843 70.9956 67.2935 -28.1324 -4.5695 6.2664
# 4 -28.5099 -55.6171 -28.1324 42.6189 1.0918 -2.4775
# 5 4.2710 -1.0333 -4.5695 1.0918 30.6302 -10.5210
# 6 20.6643 24.6416 6.2664 -2.4775 -10.5210 26.3743
#
#
#
# Elastic Compliance Matrix: (Units=1/GPa)
#
#
# Indices 1 2 3 4 5 6 
#
# 1 0.049374 0.018049 -0.022705 0.038968 -0.031312 -0.058984
# 2 0.018049 0.023592 -0.019396 0.028422 -0.018026 -0.036096
# 3 -0.022705 -0.019396 0.038627 -0.013572 0.020282 0.033550
# 4 0.038968 0.028422 -0.013572 0.075012 -0.029264 -0.058489
# 5 -0.031312 -0.018026 0.020282 -0.029264 0.060357 0.057884
# 6 -0.058984 -0.036096 0.033550 -0.058489 0.057884 0.127480
#
#
# Mechanical properties :
#
#
# Convention : Reuss Voigt Hill
#
# Bulk Modulus (GPa) = 15.75082 66.56771 41.15926
# Shear Modulus (GPa) = 11.26864 30.83889 21.05377
#
# Velocity S-wave (km/s) = 2.25626 3.73253 3.08403
# Velocity P-wave (km/s) = 3.72870 6.97483 5.59247
#
# Compressibility (1/GPa) = 0.06348878
#
# Stress axis : x y z
#
# Youngs Moduli (GPa) = 20.25340 42.38683 25.88890
#
# Poissons Ratio (x) = -0.76504 0.58782
# Poissons Ratio (y) = -0.36555 0.50214
# Poissons Ratio (z) = 0.45986 0.82213
#
# Static dielectric constant tensor:
#      x y z
#    x 1.819310 0.002960 0.024960 
#    y 0.002960 1.799910 -0.056220 
#    z 0.024960 -0.056220 1.959080 
# 
# From -- ./inp_files/470016.got.cif
#   From: 2010.05.17/outbox.cif.g08.bks.cpg/sg2_236_cif.got.tgz:470016.got - 2010.06.03 11:33:40.
