data_PCOD9102270
_publ_section_title
;
Structure prediction by ZEFSAII (Michael W. Deem and Ramdas Pophale) SiO2 
 PCOD9102270
Probable space group: P -1
;
_chemical_formula_sum "Si O2"
_cell_formula_units_Z 16
_cell_length_a 18.896022
_cell_length_b 18.168178
_cell_length_c 12.213100
_cell_angle_alpha 159.825687
_cell_angle_beta 148.343866
_cell_angle_gamma 29.841394
_cell_volume 702.592216
_symmetry_space_group_name_H-M "P -1"
_symmetry_group_IT_number 2
_symmetry_cell_setting 'triclinic'
loop_
_space_group_symop_operation_xyz
x,y,z
-x,-y,-z
loop_
_atom_site_type_symbol
_atom_site_label
_atom_site_fract_x
_atom_site_fract_y
_atom_site_fract_z
Si Si1 0.352044 0.421633 0.495202
Si Si2 0.510721 0.705757 0.164510
Si Si3 0.103057 0.870054 0.553984
Si Si4 0.763480 0.759724 0.717715
Si Si5 0.360697 0.175062 0.704298
Si Si6 0.951352 0.691806 0.548682
Si Si7 0.051502 0.866981 0.714609
Si Si8 0.622123 0.587386 0.736072
O O1 0.297357 0.257727 0.265874
O O2 0.213813 0.667631 0.654613
O O3 0.395342 0.352936 0.331616
O O4 0.478723 0.475363 0.800495
O O5 0.648327 0.723172 0.432389
O O6 0.527795 0.764561 0.142230
O O7 0.378633 0.917390 0.338484
O O8 0.007896 0.865878 0.529338
O O9 0.218563 0.616650 0.324328
O O10 0.000000 0.000000 0.500000
O O11 0.201056 0.012590 0.921890
O O12 0.913003 0.544686 0.594028
O O13 0.200006 0.340036 0.687918
O O14 0.386993 0.205202 0.906911
O O15 0.959253 0.794136 0.581326
O O16 0.955188 0.883434 0.907472
O O17 0.500000 0.500000 0.500000
#
# Coordination Sequence:
#
# PCOD9102270 Si02
#       8
#     2   2   2   2   2   2   2   2
#     4  10  21  42  63  89 127 162 200 248 307 362
#     4  11  22  39  64  93 126 156 201 256 306 355
#     4  11  24  41  59  87 128 161 198 251 310 357
#     4  11  24  38  63  92 123 162 201 255 307 353
#     4  11  22  37  67  92 115 161 211 244 301 367
#     4  10  20  38  62  90 117 153 208 250 295 357
#     4   9  20  39  62  86 120 160 198 250 299 359
#     4  11  22  41  63  86 120 164 204 242 295 371
#
# _framework density 22.772811999999998
#
# number of rings (size 3 to 8) (size 9 to 14) (size 15 to 20)
#    0.000    1.500    2.500    2.625    3.500    4.000 
#    0.000    6.250    0.000    0.000    0.000    0.000 
#    0.000    0.000    0.000    0.000    0.000    0.000 
#
# Total GULP energy -89484.795365 kJ/mol
# GULP energy per Si atom -5592.799710 kJ/mol
# Density = 2.272098 g / cm^3
# Si number density = 22.772812 Si / 1000 Ang^3
#
#
#
# Elastic Constant Matrix: (Units=GPa)
#
#
# Indices 1 2 3 4 5 6 
#
# 1 135.1982 17.3476 26.1952 -1.9475 -33.6918 11.2471
# 2 17.3476 71.4602 -4.5428 -13.9382 -11.4750 0.7364
# 3 26.1952 -4.5428 50.9199 1.2637 -13.5323 0.3241
# 4 -1.9475 -13.9382 1.2637 24.1209 3.4301 0.0015
# 5 -33.6918 -11.4750 -13.5323 3.4301 32.8685 -2.4806
# 6 11.2471 0.7364 0.3241 0.0015 -2.4806 28.2223
#
#
#
# Elastic Compliance Matrix: (Units=1/GPa)
#
#
# Indices 1 2 3 4 5 6 
#
# 1 0.010727 -0.001552 -0.003217 -0.001141 0.008991 -0.003407
# 2 -0.001552 0.017099 0.003401 0.008881 0.004894 0.000563
# 3 -0.003217 0.003401 0.023684 -0.000649 0.007829 0.001610
# 4 -0.001141 0.008881 -0.000649 0.046993 -0.003244 -0.000057
# 5 0.008991 0.004894 0.007829 -0.003244 0.044922 0.000148
# 6 -0.003407 0.000563 0.001610 -0.000057 0.000148 0.036771
#
#
# Mechanical properties :
#
#
# Convention : Reuss Voigt Hill
#
# Bulk Modulus (GPa) = 20.50357 37.28647 28.89502
# Shear Modulus (GPa) = 25.10166 31.61424 28.35795
#
# Velocity S-wave (km/s) = 3.32364 3.72996 3.53264
# Velocity P-wave (km/s) = 4.87359 5.91261 5.41806
#
# Compressibility (1/GPa) = 0.04877200
#
# Stress axis : x y z
#
# Youngs Moduli (GPa) = 93.22627 58.48232 42.22300
#
# Poissons Ratio (x) = 0.09077 0.13585
# Poissons Ratio (y) = 0.14470 -0.14359
# Poissons Ratio (z) = 0.29994 -0.19888
#
# Static dielectric constant tensor:
#      x y z
#    x 1.848740 0.010230 -0.006390 
#    y 0.010230 1.870050 -0.016800 
#    z -0.006390 -0.016800 1.810550 
# 
# From -- ./inp_files/466497.got.cif
#   From: 2010.05.17/outbox.cif.g08.bks.cpg/sg2_234_cif.got.tgz:466497.got - 2010.06.03 11:33:40.
