data_PCOD9102725
_publ_section_title
;
Structure prediction by ZEFSAII (Michael W. Deem and Ramdas Pophale) SiO2 
 PCOD9102725
Probable space group: P -1
;
_chemical_formula_sum "Si O2"
_cell_formula_units_Z 13
_cell_length_a 7.090980
_cell_length_b 7.267555
_cell_length_c 16.674135
_cell_angle_alpha 59.136573
_cell_angle_beta 130.580031
_cell_angle_gamma 86.798726
_cell_volume 449.206801
_symmetry_space_group_name_H-M "P -1"
_symmetry_group_IT_number 2
_symmetry_cell_setting 'triclinic'
loop_
_space_group_symop_operation_xyz
x,y,z
-x,-y,-z
loop_
_atom_site_type_symbol
_atom_site_label
_atom_site_fract_x
_atom_site_fract_y
_atom_site_fract_z
Si Si1 0.753470 0.542932 0.806368
Si Si2 0.719141 0.395285 0.455740
Si Si3 0.176060 0.070169 0.795586
Si Si4 0.374420 0.106757 0.624914
Si Si5 0.500000 0.000000 0.500000
Si Si6 0.314357 0.860445 0.046121
Si Si7 0.186133 0.620734 0.820866
O O1 0.488966 0.096631 0.569637
O O2 0.826347 0.264742 0.915159
O O3 0.053573 0.515943 0.870249
O O4 0.566437 0.786816 0.763558
O O5 0.567415 0.708790 0.349041
O O6 0.010616 0.249665 0.507715
O O7 0.471434 0.351717 0.360363
O O8 0.879530 0.836177 0.638193
O O9 0.461718 0.084720 0.861915
O O10 0.884852 0.287238 0.612248
O O11 0.274364 0.788943 0.853301
O O12 0.116380 0.078058 0.872650
O O13 0.430351 0.400045 0.877522
#
# Coordination Sequence:
#
# PCOD9102725 Si02
#       7
#     2   2   2   2   1   2   2
#     4  11  24  42  70 104 134 175 230 286 343 406
#     4  11  21  39  69 102 135 177 227 282 343 407
#     4  11  24  43  67  96 134 181 226 275 339 407
#     4  10  21  37  64 100 138 175 221 280 343 403
#     4  10  20  38  64 100 138 170 216 286 344 396
#     4  11  25  46  67  94 138 182 226 280 336 407
#     4  11  23  41  66  96 133 176 224 279 342 402
#
# _framework density 28.939900000000002
#
# number of rings (size 3 to 8) (size 9 to 14) (size 15 to 20)
#    0.000    1.231    0.000    7.385    0.000    3.077 
#    0.000   12.308    0.000    0.000    0.000    0.000 
#    0.000    0.000    0.000    0.000    0.000    0.000 
#
# Total GULP energy -72771.248450 kJ/mol
# GULP energy per Si atom -5597.788342 kJ/mol
# Density = 2.887403 g / cm^3
# Si number density = 28.939900 Si / 1000 Ang^3
#
#
#
# Elastic Constant Matrix: (Units=GPa)
#
#
# Indices 1 2 3 4 5 6 
#
# 1 79.0146 22.1808 25.9173 -4.2087 -24.0694 16.6421
# 2 22.1808 218.9089 40.0529 -20.8740 1.8277 24.3400
# 3 25.9173 40.0529 155.9628 0.4716 -22.1367 9.0749
# 4 -4.2087 -20.8740 0.4716 51.1479 1.0813 12.4443
# 5 -24.0694 1.8277 -22.1367 1.0813 54.4816 -5.6913
# 6 16.6421 24.3400 9.0749 12.4443 -5.6913 61.3641
#
#
#
# Elastic Compliance Matrix: (Units=1/GPa)
#
#
# Indices 1 2 3 4 5 6 
#
# 1 0.016074 -0.000866 -0.001370 0.001726 0.006164 -0.003592
# 2 -0.000866 0.005444 -0.001322 0.002783 -0.001411 -0.002424
# 3 -0.001370 -0.001322 0.007317 -0.000822 0.002450 0.000208
# 4 0.001726 0.002783 -0.000822 0.022323 -0.000740 -0.006046
# 5 0.006164 -0.001411 0.002450 -0.000740 0.022213 0.000736
# 6 -0.003592 -0.002424 0.000208 -0.006046 0.000736 0.019495
#
#
# Mechanical properties :
#
#
# Convention : Reuss Voigt Hill
#
# Bulk Modulus (GPa) = 46.03930 70.02092 58.03011
# Shear Modulus (GPa) = 46.63214 57.78108 52.20661
#
# Velocity S-wave (km/s) = 4.01851 4.47317 4.25192
# Velocity P-wave (km/s) = 6.12163 7.13630 6.64835
#
# Compressibility (1/GPa) = 0.02172057
#
# Stress axis : x y z
#
# Youngs Moduli (GPa) = 62.21037 183.67694 136.66615
#
# Poissons Ratio (x) = 0.15899 0.18726
# Poissons Ratio (y) = 0.05385 0.18066
# Poissons Ratio (z) = 0.08524 0.24280
#
# Static dielectric constant tensor:
#      x y z
#    x 2.131950 -0.007960 0.050800 
#    y -0.007960 2.132780 0.049200 
#    z 0.050800 0.049200 2.063580 
# 
# From -- ./inp_files/341196.got.cif
#   From: 2010.05.17/outbox.cif.g08.bks.cpg/sg2_171_cif.got.tgz:341196.got - 2010.06.03 11:33:40.
