data_PCOD9102788
_publ_section_title
;
Structure prediction by ZEFSAII (Michael W. Deem and Ramdas Pophale) SiO2 
 PCOD9102788
Probable space group: P -1
;
_chemical_formula_sum "Si O2"
_cell_formula_units_Z 16
_cell_length_a 22.670866
_cell_length_b 7.259465
_cell_length_c 9.157769
_cell_angle_alpha 89.943369
_cell_angle_beta 132.323585
_cell_angle_gamma 53.104111
_cell_volume 648.974283
_symmetry_space_group_name_H-M "P -1"
_symmetry_group_IT_number 2
_symmetry_cell_setting 'triclinic'
loop_
_space_group_symop_operation_xyz
x,y,z
-x,-y,-z
loop_
_atom_site_type_symbol
_atom_site_label
_atom_site_fract_x
_atom_site_fract_y
_atom_site_fract_z
Si Si1 0.431898 0.798947 0.005980
Si Si2 0.762769 0.746095 0.760376
Si Si3 0.240514 0.291268 0.921265
Si Si4 0.805909 0.201180 0.177831
Si Si5 0.488342 0.302661 0.169400
Si Si6 0.987496 0.337798 0.687160
Si Si7 0.820944 0.903649 0.598007
Si Si8 0.043094 0.017305 0.270751
O O1 0.510761 0.743931 0.002716
O O2 0.369639 0.041689 0.027409
O O3 0.302885 0.936588 0.711841
O O4 0.513861 0.476880 0.214169
O O5 0.798393 0.846920 0.712802
O O6 0.614796 0.958841 0.452883
O O7 0.738338 0.840686 0.888357
O O8 0.890529 0.365033 0.971129
O O9 0.201186 0.575138 0.885018
O O10 0.116905 0.438959 0.622204
O O11 0.910024 0.002620 0.489146
O O12 0.655492 0.444488 0.988833
O O13 0.867753 0.968842 0.148483
O O14 0.953405 0.565864 0.738816
O O15 0.945899 0.224009 0.699379
O O16 0.851001 0.064553 0.652343
#
# Coordination Sequence:
#
# PCOD9102788 Si02
#       8
#     2   2   2   2   2   2   2   2
#     4   9  20  41  60  88 119 165 206 251 295 381
#     4  11  22  39  61  91 130 157 196 268 306 359
#     4  10  20  38  64  87 126 155 206 257 308 355
#     4  11  20  39  65  88 117 167 205 249 303 372
#     4  10  22  38  63  85 123 162 206 248 310 367
#     4  10  21  40  65  94 121 163 211 252 299 372
#     4  10  22  38  67  93 120 168 206 248 317 359
#     4  11  20  40  64  92 123 159 207 259 298 361
#
# _framework density 24.654292000000002
#
# number of rings (size 3 to 8) (size 9 to 14) (size 15 to 20)
#    0.000    1.750    3.750    1.125    0.000    3.500 
#    0.000    0.000    0.000    0.000    0.000    0.000 
#    0.000    0.000    0.000    0.000    0.000    0.000 
#
# Total GULP energy -89436.995447 kJ/mol
# GULP energy per Si atom -5589.812215 kJ/mol
# Density = 2.459818 g / cm^3
# Si number density = 24.654292 Si / 1000 Ang^3
#
#
#
# Elastic Constant Matrix: (Units=GPa)
#
#
# Indices 1 2 3 4 5 6 
#
# 1 217.9678 29.0634 82.2088 -25.0925 16.6476 -67.0087
# 2 29.0634 76.6898 19.6114 -4.3596 -7.1763 -19.8429
# 3 82.2088 19.6114 145.4774 -33.3702 11.6986 -33.6136
# 4 -25.0925 -4.3596 -33.3702 37.5682 -22.0432 17.7676
# 5 16.6476 -7.1763 11.6986 -22.0432 56.7271 -25.0328
# 6 -67.0087 -19.8429 -33.6136 17.7676 -25.0328 70.7210
#
#
#
# Elastic Compliance Matrix: (Units=1/GPa)
#
#
# Indices 1 2 3 4 5 6 
#
# 1 0.007486 -0.000471 -0.002826 0.000240 0.001033 0.005923
# 2 -0.000471 0.015198 -0.000742 0.001361 0.004884 0.004852
# 3 -0.002826 -0.000742 0.010457 0.008181 0.002099 0.000772
# 4 0.000240 0.001361 0.008181 0.043429 0.014767 -0.001186
# 5 0.001033 0.004884 0.002099 0.014767 0.027362 0.009322
# 6 0.005923 0.004852 0.000772 -0.001186 0.009322 0.025078
#
#
# Mechanical properties :
#
#
# Convention : Reuss Voigt Hill
#
# Bulk Modulus (GPa) = 39.90169 77.98914 58.94542
# Shear Modulus (GPa) = 34.37758 53.61999 43.99878
#
# Velocity S-wave (km/s) = 3.73820 4.66861 4.22907
# Velocity P-wave (km/s) = 5.90354 7.79507 6.91429
#
# Compressibility (1/GPa) = 0.02506160
#
# Stress axis : x y z
#
# Youngs Moduli (GPa) = 133.57661 65.79993 95.62680
#
# Poissons Ratio (x) = 0.03102 0.27028
# Poissons Ratio (y) = 0.06297 0.07095
# Poissons Ratio (z) = 0.37754 0.04882
#
# Static dielectric constant tensor:
#      x y z
#    x 2.034980 -0.029450 0.034240 
#    y -0.029450 1.959610 -0.033250 
#    z 0.034240 -0.033250 2.003830 
# 
# From -- ./inp_files/352203.got.cif
#   From: 2010.05.17/outbox.cif.g08.bks.cpg/sg2_177_cif.got.tgz:352203.got - 2010.06.03 11:33:40.
