data_PCOD9102035
_publ_section_title
;
Structure prediction by ZEFSAII (Michael W. Deem and Ramdas Pophale) SiO2 
 PCOD9102035
Probable space group: P -1
;
_chemical_formula_sum "Si O2"
_cell_formula_units_Z 15
_cell_length_a 13.585357
_cell_length_b 7.799285
_cell_length_c 13.240863
_cell_angle_alpha 42.368924
_cell_angle_beta 42.659466
_cell_angle_gamma 45.373488
_cell_volume 600.504216
_symmetry_space_group_name_H-M "P -1"
_symmetry_group_IT_number 2
_symmetry_cell_setting 'triclinic'
loop_
_space_group_symop_operation_xyz
x,y,z
-x,-y,-z
loop_
_atom_site_type_symbol
_atom_site_label
_atom_site_fract_x
_atom_site_fract_y
_atom_site_fract_z
Si Si1 0.636192 0.358905 0.253277
Si Si2 0.133513 0.881268 0.321124
Si Si3 0.500000 0.000000 0.500000
Si Si4 0.492817 0.049944 0.820039
Si Si5 0.559687 0.440675 0.866143
Si Si6 0.932687 0.498452 0.939480
Si Si7 0.735215 0.691876 0.288040
Si Si8 0.209242 0.901973 0.488000
O O1 0.627737 0.099464 0.428569
O O2 0.539818 0.650830 0.242485
O O3 0.530443 0.327805 0.248406
O O4 0.801487 0.364693 0.095173
O O5 0.140334 0.184128 0.170528
O O6 0.955186 0.916987 0.421269
O O7 0.259293 0.667702 0.248776
O O8 0.171026 0.827789 0.434262
O O9 0.356384 0.217314 0.580124
O O10 0.354688 0.097135 0.822984
O O11 0.660867 0.965146 0.679953
O O12 0.488897 0.823554 0.000067
O O13 0.500000 0.500000 0.000000
O O14 0.084103 0.347114 0.825063
O O15 0.000000 0.500000 0.000000
O O16 0.733165 0.399543 0.377219
#
# Coordination Sequence:
#
# PCOD9102035 Si02
#       8
#     2   2   1   2   2   2   2   2
#     4  12  24  42  67  97 131 174 221 264 327 389
#     4  10  20  38  61  92 127 166 215 269 316 378
#     4  12  26  40  60  96 140 168 206 268 332 388
#     4  12  21  40  69  95 123 173 228 263 318 390
#     4  12  24  42  65  96 134 168 213 274 332 391
#     4  11  22  40  67  97 124 170 231 272 311 382
#     4  11  23  40  62  97 131 169 216 271 323 383
#     4  10  21  36  64  93 123 167 221 266 311 381
#
# _framework density 24.979006999999999
#
# number of rings (size 3 to 8) (size 9 to 14) (size 15 to 20)
#    0.000    0.800    5.333    2.400    0.000    0.533 
#    0.000    2.000    0.000    0.000    0.000    0.000 
#    0.000    0.000    0.000    0.000    0.000    0.000 
#
# Total GULP energy -83708.925243 kJ/mol
# GULP energy per Si atom -5580.595016 kJ/mol
# Density = 2.492215 g / cm^3
# Si number density = 24.979007 Si / 1000 Ang^3
#
#
#
# Elastic Constant Matrix: (Units=GPa)
#
#
# Indices 1 2 3 4 5 6 
#
# 1 42.6012 35.1896 15.7321 15.1109 -2.8062 -8.5223
# 2 35.1896 120.3138 36.1334 45.4729 -16.2757 -12.2798
# 3 15.7321 36.1334 101.5070 37.3517 -27.3395 -21.9671
# 4 15.1109 45.4729 37.3517 69.2128 -11.8758 -6.8910
# 5 -2.8062 -16.2757 -27.3395 -11.8758 61.1726 4.7223
# 6 -8.5223 -12.2798 -21.9671 -6.8910 4.7223 41.4950
#
#
#
# Elastic Compliance Matrix: (Units=1/GPa)
#
#
# Indices 1 2 3 4 5 6 
#
# 1 0.031835 -0.008590 -0.001462 -0.000499 -0.001834 0.003348
# 2 -0.008590 0.013750 -0.000557 -0.006493 0.001698 0.000739
# 3 -0.001462 -0.000557 0.015110 -0.006033 0.004906 0.005974
# 4 -0.000499 -0.006493 -0.006033 0.021910 -0.000072 -0.001571
# 5 -0.001834 0.001698 0.004906 -0.000072 0.018850 0.000566
# 6 0.003348 0.000739 0.005974 -0.001571 0.000566 0.027843
#
#
# Mechanical properties :
#
#
# Convention : Reuss Voigt Hill
#
# Bulk Modulus (GPa) = 25.33016 48.72579 37.02798
# Shear Modulus (GPa) = 30.54835 46.20052 38.37444
#
# Velocity S-wave (km/s) = 3.50088 4.30533 3.92378
# Velocity P-wave (km/s) = 5.14822 6.65309 5.94843
#
# Compressibility (1/GPa) = 0.03947862
#
# Stress axis : x y z
#
# Youngs Moduli (GPa) = 31.41218 72.72514 66.17949
#
# Poissons Ratio (x) = 0.62469 0.09674
# Poissons Ratio (y) = 0.26982 0.03686
# Poissons Ratio (z) = 0.04592 0.04051
#
# Static dielectric constant tensor:
#      x y z
#    x 2.082900 -0.021220 0.118830 
#    y -0.021220 1.897130 0.190870 
#    z 0.118830 0.190870 1.533150 
# 
# From -- ./inp_files/529281.got.cif
#   From: 2010.05.17/outbox.cif.g08.bks.cpg/sg2_265_cif.got.tgz:529281.got - 2010.06.03 11:33:40.
