data_PCOD9102024
_publ_section_title
;
Structure prediction by ZEFSAII (Michael W. Deem and Ramdas Pophale) SiO2 
 PCOD9102024
Probable space group: P -1
;
_chemical_formula_sum "Si O2"
_cell_formula_units_Z 14
_cell_length_a 13.995145
_cell_length_b 11.584035
_cell_length_c 7.952820
_cell_angle_alpha 54.461930
_cell_angle_beta 126.267314
_cell_angle_gamma 147.661656
_cell_volume 546.059541
_symmetry_space_group_name_H-M "P -1"
_symmetry_group_IT_number 2
_symmetry_cell_setting 'triclinic'
loop_
_space_group_symop_operation_xyz
x,y,z
-x,-y,-z
loop_
_atom_site_type_symbol
_atom_site_label
_atom_site_fract_x
_atom_site_fract_y
_atom_site_fract_z
Si Si1 0.431550 0.746717 0.664413
Si Si2 0.053429 0.087410 0.225826
Si Si3 0.217028 0.818627 0.389582
Si Si4 0.521229 0.174957 0.954499
Si Si5 0.094642 0.554424 0.835816
Si Si6 0.286629 0.338244 0.945821
Si Si7 0.881701 0.113381 0.315325
O O1 0.332966 0.794408 0.450134
O O2 0.479649 0.809102 0.858505
O O3 0.632448 0.921790 0.642863
O O4 0.283936 0.487511 0.723362
O O5 0.220785 0.288363 0.111321
O O6 0.091775 0.960151 0.430882
O O7 0.005421 0.141952 0.286354
O O8 0.861127 0.901766 0.082848
O O9 0.155233 0.695392 0.606366
O O10 0.058117 0.689274 0.196972
O O11 0.739159 0.386721 0.967534
O O12 0.339207 0.091132 0.777057
O O13 0.500000 0.000000 0.000000
O O14 0.060278 0.666836 0.812352
O O15 0.500000 0.500000 0.000000
#
# Coordination Sequence:
#
# PCOD9102024 Si02
#       7
#     2   2   2   2   2   2   2
#     4  10  20  38  61  91 134 170 218 277 332 394
#     4  10  24  44  69  98 131 179 227 274 340 387
#     4   9  19  36  63  99 129 170 221 273 334 399
#     4   9  19  38  59  91 132 169 212 269 333 401
#     4   9  18  36  66  99 130 170 222 274 339 393
#     4  11  24  44  69 100 128 176 230 280 330 394
#     4  10  20  42  67  95 140 172 221 280 330 408
#
# _framework density 25.63823
#
# number of rings (size 3 to 8) (size 9 to 14) (size 15 to 20)
#    0.000    2.286    0.000    1.714    2.000    0.000 
#   15.429    7.857    3.143    0.000    0.000    0.000 
#    0.000    0.000    0.000    0.000    0.000    0.000 
#
# Total GULP energy -78116.051568 kJ/mol
# GULP energy per Si atom -5579.717969 kJ/mol
# Density = 2.557988 g / cm^3
# Si number density = 25.638230 Si / 1000 Ang^3
#
#
#
# Elastic Constant Matrix: (Units=GPa)
#
#
# Indices 1 2 3 4 5 6 
#
# 1 121.3745 41.5192 16.1812 -9.4846 3.6785 21.0274
# 2 41.5192 134.1342 29.8394 -12.4198 2.8809 23.7549
# 3 16.1812 29.8394 46.2685 -6.1282 25.8250 18.9724
# 4 -9.4846 -12.4198 -6.1282 49.9976 6.1265 7.7982
# 5 3.6785 2.8809 25.8250 6.1265 36.1425 5.9608
# 6 21.0274 23.7549 18.9724 7.7982 5.9608 45.5979
#
#
#
# Elastic Compliance Matrix: (Units=1/GPa)
#
#
# Indices 1 2 3 4 5 6 
#
# 1 0.009788 -0.002212 0.000125 0.001973 -0.000639 -0.003667
# 2 -0.002212 0.010164 -0.007794 0.000806 0.005151 -0.001844
# 3 0.000125 -0.007794 0.057328 0.012604 -0.039718 -0.016814
# 4 0.001973 0.000806 0.012604 0.025038 -0.011983 -0.009290
# 5 -0.000639 0.005151 -0.039718 -0.011983 0.056277 0.008829
# 6 -0.003667 -0.001844 -0.016814 -0.009290 0.008829 0.032013
#
#
# Mechanical properties :
#
#
# Convention : Reuss Voigt Hill
#
# Bulk Modulus (GPa) = 17.38565 52.98407 35.18486
# Shear Modulus (GPa) = 21.78245 40.63009 31.20627
#
# Velocity S-wave (km/s) = 2.91797 3.98521 3.49259
# Velocity P-wave (km/s) = 4.26011 6.47200 5.47884
#
# Compressibility (1/GPa) = 0.05751872
#
# Stress axis : x y z
#
# Youngs Moduli (GPa) = 102.16900 98.38474 17.44335
#
# Poissons Ratio (x) = 0.21758 -0.00218
# Poissons Ratio (y) = 0.22595 0.13596
# Poissons Ratio (z) = -0.01276 0.76683
#
# Static dielectric constant tensor:
#      x y z
#    x 2.180060 -0.000290 0.018270 
#    y -0.000290 2.152380 -0.044220 
#    z 0.018270 -0.044220 2.072850 
# 
# From -- ./inp_files/304847.got.cif
#   From: 2010.05.17/outbox.cif.g08.bks.cpg/sg2_153_cif.got.tgz:304847.got - 2010.06.03 11:33:40.
