data_PCOD9102520
_publ_section_title
;
Structure prediction by ZEFSAII (Michael W. Deem and Ramdas Pophale) SiO2 
 PCOD9102520
Probable space group: P -1
;
_chemical_formula_sum "Si O2"
_cell_formula_units_Z 16
_cell_length_a 12.693369
_cell_length_b 14.917791
_cell_length_c 13.218328
_cell_angle_alpha 54.251099
_cell_angle_beta 73.695065
_cell_angle_gamma 28.281195
_cell_volume 764.228983
_symmetry_space_group_name_H-M "P -1"
_symmetry_group_IT_number 2
_symmetry_cell_setting 'triclinic'
loop_
_space_group_symop_operation_xyz
x,y,z
-x,-y,-z
loop_
_atom_site_type_symbol
_atom_site_label
_atom_site_fract_x
_atom_site_fract_y
_atom_site_fract_z
Si Si1 0.397115 0.433418 0.770532
Si Si2 0.752134 0.244141 0.679287
Si Si3 0.799112 0.580539 0.504716
Si Si4 0.979238 0.802495 0.455677
Si Si5 0.277337 0.215682 0.249082
Si Si6 0.319537 0.373643 0.279463
Si Si7 0.827353 0.518766 0.058412
Si Si8 0.098894 0.132981 0.086193
O O1 0.586784 0.367684 0.747031
O O2 0.308744 0.469567 0.878147
O O3 0.138423 0.678418 0.600749
O O4 0.605174 0.144102 0.866791
O O5 0.500000 0.500000 0.500000
O O6 0.959786 0.152160 0.666971
O O7 0.904354 0.986806 0.786534
O O8 0.820662 0.491223 0.661702
O O9 0.000000 0.500000 0.500000
O O10 0.874159 0.436352 0.483122
O O11 0.491188 0.917734 0.378756
O O12 0.650946 0.090559 0.373670
O O13 0.286925 0.279279 0.305671
O O14 0.968085 0.454536 0.154120
O O15 0.348155 0.237302 0.125587
O O16 0.150800 0.610051 0.093351
O O17 0.081786 0.244070 0.099654
#
# Coordination Sequence:
#
# PCOD9102520 Si02
#       8
#     2   2   2   2   2   2   2   2
#     4   9  20  38  64  85 119 151 194 249 294 344
#     4   8  19  41  62  87 117 148 198 249 290 349
#     4  12  25  37  60  84 121 165 194 232 295 352
#     4  11  22  42  60  87 121 155 198 246 288 356
#     4  10  22  39  57  91 122 153 202 240 287 356
#     4  11  24  40  58  89 123 155 197 243 292 348
#     4  10  20  38  63  89 119 153 195 247 295 348
#     4   9  21  40  62  88 119 149 198 244 294 349
#
# _framework density 20.936133000000002
#
# number of rings (size 3 to 8) (size 9 to 14) (size 15 to 20)
#    0.750    1.250    1.250    1.875    3.500    0.500 
#    2.250    4.375    0.000    0.000    0.000    0.000 
#    0.000    0.000    0.000    0.000    0.000    0.000 
#
# Total GULP energy -89093.602937 kJ/mol
# GULP energy per Si atom -5568.350184 kJ/mol
# Density = 2.088848 g / cm^3
# Si number density = 20.936133 Si / 1000 Ang^3
#
#
#
# Elastic Constant Matrix: (Units=GPa)
#
#
# Indices 1 2 3 4 5 6 
#
# 1 37.9336 2.4473 9.8812 0.2798 -10.3030 -6.7522
# 2 2.4473 53.3655 8.3431 3.0018 0.8032 -17.0660
# 3 9.8812 8.3431 82.7487 -5.1251 -19.8748 -0.9054
# 4 0.2798 3.0018 -5.1251 30.6842 -6.6824 -9.3455
# 5 -10.3030 0.8032 -19.8748 -6.6824 30.8366 0.8043
# 6 -6.7522 -17.0660 -0.9054 -9.3455 0.8043 21.5659
#
#
#
# Elastic Compliance Matrix: (Units=1/GPa)
#
#
# Indices 1 2 3 4 5 6 
#
# 1 0.031900 0.002767 -0.000936 0.006027 0.010915 0.014343
# 2 0.002767 0.026288 -0.002832 0.003694 -0.001390 0.023203
# 3 -0.000936 -0.002832 0.015402 0.005202 0.010816 -0.000037
# 4 0.006027 0.003694 0.005202 0.043165 0.014019 0.023212
# 5 0.010915 -0.001390 0.010816 0.014019 0.045935 0.007133
# 6 0.014343 0.023203 -0.000037 0.023212 0.007133 0.079013
#
#
# Mechanical properties :
#
#
# Convention : Reuss Voigt Hill
#
# Bulk Modulus (GPa) = 13.96904 23.93230 18.95067
# Shear Modulus (GPa) = 18.68680 26.84242 22.76461
#
# Velocity S-wave (km/s) = 2.99082 3.58454 3.30106
# Velocity P-wave (km/s) = 4.31432 5.34676 4.85804
#
# Compressibility (1/GPa) = 0.07158691
#
# Stress axis : x y z
#
# Youngs Moduli (GPa) = 31.34755 38.04042 64.92753
#
# Poissons Ratio (x) = -0.10526 0.06080
# Poissons Ratio (y) = -0.08674 0.18388
# Poissons Ratio (z) = 0.02936 0.10773
#
# Static dielectric constant tensor:
#      x y z
#    x 1.749410 -0.011890 -0.003610 
#    y -0.011890 1.762060 0.027590 
#    z -0.003610 0.027590 1.823950 
# 
# From -- ./inp_files/521552.got.cif
#   From: 2010.05.17/outbox.cif.g08.bks.cpg/sg2_261_cif.got.tgz:521552.got - 2010.06.03 11:33:40.
