data_PCOD9102695
_publ_section_title
;
Structure prediction by ZEFSAII (Michael W. Deem and Ramdas Pophale) SiO2 
 PCOD9102695
Probable space group: P -1
;
_chemical_formula_sum "Si O2"
_cell_formula_units_Z 16
_cell_length_a 12.382554
_cell_length_b 17.923530
_cell_length_c 6.104124
_cell_angle_alpha 58.807374
_cell_angle_beta 53.762318
_cell_angle_gamma 47.263759
_cell_volume 786.829115
_symmetry_space_group_name_H-M "P -1"
_symmetry_group_IT_number 2
_symmetry_cell_setting 'triclinic'
loop_
_space_group_symop_operation_xyz
x,y,z
-x,-y,-z
loop_
_atom_site_type_symbol
_atom_site_label
_atom_site_fract_x
_atom_site_fract_y
_atom_site_fract_z
Si Si1 0.563890 0.065838 0.422596
Si Si2 0.537196 0.547945 0.179572
Si Si3 0.013310 0.450056 0.308265
Si Si4 0.377213 0.285607 0.067321
Si Si5 0.846373 0.041275 0.890328
Si Si6 0.224155 0.613968 0.179073
Si Si7 0.591026 0.159579 0.638276
Si Si8 0.852626 0.166691 0.070283
O O1 0.464131 0.180201 0.262153
O O2 0.553027 0.085747 0.662905
O O3 0.500000 0.000000 0.500000
O O4 0.748261 0.014731 0.217258
O O5 0.500000 0.500000 0.500000
O O6 0.383453 0.588336 0.151404
O O7 0.556864 0.642255 0.064571
O O8 0.702404 0.456660 0.016429
O O9 0.191258 0.349722 0.238493
O O10 0.000000 0.500000 0.500000
O O11 0.879608 0.421800 0.518819
O O12 0.000000 0.500000 0.000000
O O13 0.432708 0.249959 0.805289
O O14 0.724649 0.094632 0.758362
O O15 0.868510 0.124574 0.866959
O O16 0.011943 0.935521 0.808612
O O17 0.128544 0.737127 0.070945
O O18 0.679159 0.198187 0.317422
#
# Coordination Sequence:
#
# PCOD9102695 Si02
#       8
#     2   2   2   2   2   2   2   2
#     4  10  23  40  63  92 131 176 230 280 341 427
#     4  11  22  41  66  98 131 172 234 290 350 421
#     4  12  28  50  70 103 146 188 238 293 361 426
#     4  11  24  42  69  94 137 184 227 289 355 416
#     4   9  20  37  60  93 133 173 217 287 344 416
#     4  11  24  39  67  98 131 178 233 291 348 424
#     4  10  20  39  66  94 127 181 228 278 352 415
#     4  10  20  38  63  96 133 168 224 289 354 409
#
# _framework density 20.334783000000002
#
# number of rings (size 3 to 8) (size 9 to 14) (size 15 to 20)
#    0.000    1.500    1.250    4.125    3.500    4.000 
#    0.000    1.250    0.000    0.000    0.000    0.000 
#    0.000    0.000    0.000    0.000    0.000    0.000 
#
# Total GULP energy -89203.792378 kJ/mol
# GULP energy per Si atom -5575.237024 kJ/mol
# Density = 2.028850 g / cm^3
# Si number density = 20.334783 Si / 1000 Ang^3
#
#
#
# Elastic Constant Matrix: (Units=GPa)
#
#
# Indices 1 2 3 4 5 6 
#
# 1 82.2831 43.3421 31.7765 0.8010 -6.3048 22.3305
# 2 43.3421 122.1365 62.1375 10.4188 -5.1816 13.8881
# 3 31.7765 62.1375 105.6468 15.1698 -10.9360 10.2798
# 4 0.8010 10.4188 15.1698 40.6640 -6.6515 -8.4275
# 5 -6.3048 -5.1816 -10.9360 -6.6515 36.4449 -0.2795
# 6 22.3305 13.8881 10.2798 -8.4275 -0.2795 42.0504
#
#
#
# Elastic Compliance Matrix: (Units=1/GPa)
#
#
# Indices 1 2 3 4 5 6 
#
# 1 0.017215 -0.004327 -0.001775 0.000233 0.001817 -0.007220
# 2 -0.004327 0.013035 -0.006216 -0.001253 -0.000995 -0.000745
# 3 -0.001775 -0.006216 0.014565 -0.003663 0.002501 -0.001282
# 4 0.000233 -0.001253 -0.003663 0.028356 0.003991 0.006895
# 5 0.001817 -0.000995 0.002501 0.003991 0.029089 -0.000255
# 6 -0.007220 -0.000745 -0.001282 0.006895 -0.000255 0.029555
#
#
# Mechanical properties :
#
#
# Convention : Reuss Voigt Hill
#
# Bulk Modulus (GPa) = 49.56032 64.95317 57.25674
# Shear Modulus (GPa) = 30.64164 35.35254 32.99709
#
# Velocity S-wave (km/s) = 3.88604 4.17409 4.03264
# Velocity P-wave (km/s) = 6.67534 7.43249 7.06407
#
# Compressibility (1/GPa) = 0.02017743
#
# Stress axis : x y z
#
# Youngs Moduli (GPa) = 58.09043 76.71755 68.65830
#
# Poissons Ratio (x) = 0.33199 0.12190
# Poissons Ratio (y) = 0.25138 0.42675
# Poissons Ratio (z) = 0.10314 0.47684
#
# Static dielectric constant tensor:
#      x y z
#    x 1.757520 0.012310 0.066560 
#    y 0.012310 1.707930 0.039080 
#    z 0.066560 0.039080 1.765590 
# 
# From -- ./inp_files/81198.got.cif
#   From: 2010.05.17/outbox.cif.g08.bks.cpg/sg2_41_cif.got.tgz:81198.got - 2010.06.03 11:33:40.
