data_PCOD9102639
_publ_section_title
;
Structure prediction by ZEFSAII (Michael W. Deem and Ramdas Pophale) SiO2 
 PCOD9102639
Probable space group: P -1
;
_chemical_formula_sum "Si O2"
_cell_formula_units_Z 16
_cell_length_a 14.842429
_cell_length_b 7.609829
_cell_length_c 22.083127
_cell_angle_alpha 54.711967
_cell_angle_beta 18.337601
_cell_angle_gamma 54.571435
_cell_volume 635.756325
_symmetry_space_group_name_H-M "P -1"
_symmetry_group_IT_number 2
_symmetry_cell_setting 'triclinic'
loop_
_space_group_symop_operation_xyz
x,y,z
-x,-y,-z
loop_
_atom_site_type_symbol
_atom_site_label
_atom_site_fract_x
_atom_site_fract_y
_atom_site_fract_z
Si Si1 0.693971 0.462854 0.323548
Si Si2 0.682377 0.773577 0.167752
Si Si3 0.874884 0.947467 0.895719
Si Si4 0.592634 0.727652 0.919177
Si Si5 0.626982 0.556021 0.654115
Si Si6 0.357220 0.192407 0.510986
Si Si7 0.063615 0.967991 0.537087
Si Si8 0.242944 0.630409 0.271630
O O1 0.500000 0.500000 0.500000
O O2 0.810841 0.651010 0.170588
O O3 0.457567 0.393810 0.440926
O O4 0.953401 0.264399 0.203743
O O5 0.548527 0.615544 0.234564
O O6 0.405955 0.931794 0.333196
O O7 0.893064 0.891821 0.966624
O O8 0.552785 0.051919 0.065564
O O9 0.030915 0.150560 0.733282
O O10 0.468887 0.726632 0.065601
O O11 0.500000 0.500000 0.000000
O O12 0.924823 0.760473 0.693250
O O13 0.553563 0.781325 0.620262
O O14 0.588700 0.529888 0.754986
O O15 0.981484 0.520612 0.428742
O O16 0.500000 0.000000 0.500000
O O17 0.928318 0.173142 0.620944
O O18 0.000000 0.000000 0.500000
#
# Coordination Sequence:
#
# PCOD9102639 Si02
#       8
#     2   2   2   2   2   2   2   2
#     4  10  24  44  70  98 127 173 231 284 338 398
#     4  11  23  43  68  93 139 177 219 278 338 405
#     4  11  22  43  68  97 130 181 223 271 343 398
#     4  12  26  42  66  97 141 178 230 273 334 408
#     4  10  20  38  63  93 128 175 221 262 334 391
#     4   9  20  40  67  91 127 172 220 275 334 385
#     4  12  24  41  64  98 137 176 221 275 342 391
#     4  11  23  39  66  94 136 179 227 269 329 411
#
# _framework density 25.166874
#
# number of rings (size 3 to 8) (size 9 to 14) (size 15 to 20)
#    0.000    1.250    3.750    1.500    5.250    0.000 
#    0.000    1.875    0.000    0.000    0.000    0.000 
#    0.000    0.000    0.000    0.000    0.000    0.000 
#
# Total GULP energy -89300.852908 kJ/mol
# GULP energy per Si atom -5581.303307 kJ/mol
# Density = 2.510959 g / cm^3
# Si number density = 25.166874 Si / 1000 Ang^3
#
#
#
# Elastic Constant Matrix: (Units=GPa)
#
#
# Indices 1 2 3 4 5 6 
#
# 1 82.2740 34.1620 19.3087 3.4072 28.4183 -28.2420
# 2 34.1620 98.1303 42.4541 5.5487 20.0134 -20.4117
# 3 19.3087 42.4541 108.2889 -4.0025 39.6665 -8.9467
# 4 3.4072 5.5487 -4.0025 48.3592 -9.4176 7.7020
# 5 28.4183 20.0134 39.6665 -9.4176 53.8522 -10.3216
# 6 -28.2420 -20.4117 -8.9467 7.7020 -10.3216 48.7433
#
#
#
# Elastic Compliance Matrix: (Units=1/GPa)
#
#
# Indices 1 2 3 4 5 6 
#
# 1 0.019728 -0.003722 0.002011 -0.004063 -0.009520 0.008867
# 2 -0.003722 0.014360 -0.004968 -0.002233 0.000551 0.003414
# 3 0.002011 -0.004968 0.014433 -0.000263 -0.009956 -0.000333
# 4 -0.004063 -0.002233 -0.000263 0.023307 0.006147 -0.005718
# 5 -0.009520 0.000551 -0.009956 0.006147 0.031527 -0.001408
# 6 0.008867 0.003414 -0.000333 -0.005718 -0.001408 0.027627
#
#
# Mechanical properties :
#
#
# Convention : Reuss Voigt Hill
#
# Bulk Modulus (GPa) = 28.43926 53.39364 40.91645
# Shear Modulus (GPa) = 32.03826 43.04216 37.54021
#
# Velocity S-wave (km/s) = 3.57183 4.14003 3.86638
# Velocity P-wave (km/s) = 5.32310 6.64191 6.01874
#
# Compressibility (1/GPa) = 0.03516266
#
# Stress axis : x y z
#
# Youngs Moduli (GPa) = 50.68818 69.63837 69.28328
#
# Poissons Ratio (x) = 0.25923 -0.13934
# Poissons Ratio (y) = 0.18869 0.34422
# Poissons Ratio (z) = -0.10195 0.34599
#
# Static dielectric constant tensor:
#      x y z
#    x 2.088170 -0.008620 -0.072770 
#    y -0.008620 2.078120 -0.062430 
#    z -0.072770 -0.062430 2.184590 
# 
# From -- ./inp_files/597140.got.cif
#   From: 2010.05.17/outbox.cif.g08.bks.cpg/sg2_299_cif.got.tgz:597140.got - 2010.06.03 11:33:40.
