data_PCOD9102460
_publ_section_title
;
Structure prediction by ZEFSAII (Michael W. Deem and Ramdas Pophale) SiO2 
 PCOD9102460
Probable space group: P -1
;
_chemical_formula_sum "Si O2"
_cell_formula_units_Z 14
_cell_length_a 12.941726
_cell_length_b 16.374793
_cell_length_c 25.167773
_cell_angle_alpha 163.641210
_cell_angle_beta 154.401597
_cell_angle_gamma 25.387732
_cell_volume 616.419594
_symmetry_space_group_name_H-M "P -1"
_symmetry_group_IT_number 2
_symmetry_cell_setting 'triclinic'
loop_
_space_group_symop_operation_xyz
x,y,z
-x,-y,-z
loop_
_atom_site_type_symbol
_atom_site_label
_atom_site_fract_x
_atom_site_fract_y
_atom_site_fract_z
Si Si1 0.565687 0.132984 0.056357
Si Si2 0.845661 0.010338 0.757347
Si Si3 0.496620 0.173324 0.437190
Si Si4 0.001096 0.767957 0.243859
Si Si5 0.825537 0.655577 0.197466
Si Si6 0.187922 0.740997 0.210256
Si Si7 0.415350 0.434794 0.361925
O O1 0.545686 0.900274 0.854476
O O2 0.406075 0.467393 0.168568
O O3 0.500000 0.000000 0.000000
O O4 0.853991 0.126067 0.190580
O O5 0.742152 0.068607 0.685450
O O6 0.710378 0.824931 0.614859
O O7 0.789354 0.339168 0.965544
O O8 0.730810 0.254614 0.621780
O O9 0.423345 0.412871 0.505657
O O10 0.622474 0.844905 0.263006
O O11 0.013751 0.930347 0.295047
O O12 0.815615 0.847631 0.257902
O O13 0.974467 0.444387 0.011309
O O14 0.109967 0.586056 0.308355
O O15 0.500000 0.500000 0.500000
#
# Coordination Sequence:
#
# PCOD9102460 Si02
#       7
#     2   2   2   2   2   2   2
#     4  11  22  41  65  85 119 163 202 245 297 354
#     4  10  23  40  57  90 121 158 191 245 300 361
#     4  11  21  38  60  83 127 152 190 249 306 342
#     4   9  18  35  62  87 109 150 204 244 274 357
#     4   9  19  37  59  80 116 158 196 230 302 348
#     4  10  20  38  63  85 115 153 205 238 295 355
#     4  10  22  36  58  94 114 151 210 250 282 356
#
# _framework density 22.711804000000001
#
# number of rings (size 3 to 8) (size 9 to 14) (size 15 to 20)
#    0.000    2.000    0.000    7.286    6.000    0.571 
#    2.571    4.286    0.000    0.000    0.000    0.000 
#    0.000    0.000    0.000    0.000    0.000    0.000 
#
# Total GULP energy -78089.385906 kJ/mol
# GULP energy per Si atom -5577.813279 kJ/mol
# Density = 2.266011 g / cm^3
# Si number density = 22.711804 Si / 1000 Ang^3
#
#
#
# Elastic Constant Matrix: (Units=GPa)
#
#
# Indices 1 2 3 4 5 6 
#
# 1 180.1114 50.0337 31.9979 -13.6740 25.6570 18.4489
# 2 50.0337 103.0584 21.0672 5.3453 5.0717 -5.3149
# 3 31.9979 21.0672 54.4362 -7.2121 -2.4750 9.0454
# 4 -13.6740 5.3453 -7.2121 27.8740 1.7531 -4.5128
# 5 25.6570 5.0717 -2.4750 1.7531 52.2630 -7.0841
# 6 18.4489 -5.3149 9.0454 -4.5128 -7.0841 35.4036
#
#
#
# Elastic Compliance Matrix: (Units=1/GPa)
#
#
# Indices 1 2 3 4 5 6 
#
# 1 0.008506 -0.003852 -0.002414 0.003797 -0.004701 -0.004851
# 2 -0.003852 0.012819 -0.004032 -0.004723 0.001239 0.004608
# 3 -0.002414 -0.004032 0.022751 0.004678 0.001930 -0.004178
# 4 0.003797 -0.004723 0.004678 0.040128 -0.002429 0.000746
# 5 -0.004701 0.001239 0.001930 -0.002429 0.022349 0.006305
# 6 -0.004851 0.004608 -0.004178 0.000746 0.006305 0.033889
#
#
# Mechanical properties :
#
#
# Convention : Reuss Voigt Hill
#
# Bulk Modulus (GPa) = 42.58793 60.42260 51.50526
# Shear Modulus (GPa) = 29.60963 38.74193 34.17578
#
# Velocity S-wave (km/s) = 3.61461 4.13462 3.88333
# Velocity P-wave (km/s) = 6.01770 7.03244 6.54477
#
# Compressibility (1/GPa) = 0.02348083
#
# Stress axis : x y z
#
# Youngs Moduli (GPa) = 117.56832 78.00888 43.95403
#
# Poissons Ratio (x) = 0.30047 0.10609
# Poissons Ratio (y) = 0.45284 0.17722
# Poissons Ratio (z) = 0.28378 0.31453
#
# Static dielectric constant tensor:
#      x y z
#    x 1.932560 0.000710 -0.024330 
#    y 0.000710 1.945600 0.044160 
#    z -0.024330 0.044160 1.860790 
# 
# From -- ./inp_files/417945.got.cif
#   From: 2010.05.17/outbox.cif.g08.bks.cpg/sg2_209_cif.got.tgz:417945.got - 2010.06.03 11:33:40.
