data_PCOD9102964
_publ_section_title
;
Structure prediction by ZEFSAII (Michael W. Deem and Ramdas Pophale) SiO2 
 PCOD9102964
Probable space group: P -1
;
_chemical_formula_sum "Si O2"
_cell_formula_units_Z 15
_cell_length_a 11.803758
_cell_length_b 12.323926
_cell_length_c 9.489958
_cell_angle_alpha 83.262405
_cell_angle_beta 65.359985
_cell_angle_gamma 35.585398
_cell_volume 662.924031
_symmetry_space_group_name_H-M "P -1"
_symmetry_group_IT_number 2
_symmetry_cell_setting 'triclinic'
loop_
_space_group_symop_operation_xyz
x,y,z
-x,-y,-z
loop_
_atom_site_type_symbol
_atom_site_label
_atom_site_fract_x
_atom_site_fract_y
_atom_site_fract_z
Si Si1 0.988707 0.614872 0.087822
Si Si2 0.242522 0.834028 0.048903
Si Si3 0.500000 0.000000 0.000000
Si Si4 0.433782 0.914916 0.808245
Si Si5 0.481698 0.770196 0.175485
Si Si6 0.170697 0.384966 0.560097
Si Si7 0.283578 0.708152 0.772872
Si Si8 0.362854 0.437442 0.595882
O O1 0.891102 0.656985 0.284028
O O2 0.254736 0.454264 0.978640
O O3 0.797967 0.838633 0.088837
O O4 0.000000 0.500000 0.000000
O O5 0.319660 0.803959 0.172128
O O6 0.356208 0.852566 0.902781
O O7 0.317299 0.680023 0.929423
O O8 0.962096 0.047974 0.159527
O O9 0.601796 0.846798 0.845852
O O10 0.563007 0.070043 0.866309
O O11 0.564977 0.820911 0.607012
O O12 0.484535 0.748157 0.345189
O O13 0.167337 0.504573 0.621239
O O14 0.000000 0.500000 0.500000
O O15 0.264835 0.607092 0.718168
O O16 0.487783 0.620024 0.597882
#
# Coordination Sequence:
#
# PCOD9102964 Si02
#       8
#     2   2   1   2   2   2   2   2
#     4  12  23  40  63  95 132 175 213 269 337 409
#     4  10  22  41  68  95 122 175 224 276 322 394
#     4  10  20  38  64  94 126 170 206 274 328 404
#     4  11  22  39  64  91 133 169 219 268 336 390
#     4  11  23  39  68  96 133 167 227 264 337 400
#     4  12  25  40  65  99 135 170 223 271 336 401
#     4  10  23  43  69  90 133 174 224 274 331 382
#     4  11  23  44  65  96 134 175 214 279 329 395
#
# _framework density 22.627026999999998
#
# number of rings (size 3 to 8) (size 9 to 14) (size 15 to 20)
#    0.000    1.067    4.000    2.800    0.000    2.133 
#    0.000    0.000    0.000    0.000    0.000    0.000 
#    0.000    0.000    0.000    0.000    0.000    0.000 
#
# Total GULP energy -83520.274047 kJ/mol
# GULP energy per Si atom -5568.018270 kJ/mol
# Density = 2.257553 g / cm^3
# Si number density = 22.627027 Si / 1000 Ang^3
#
#
#
# Elastic Constant Matrix: (Units=GPa)
#
#
# Indices 1 2 3 4 5 6 
#
# 1 109.4143 8.4924 1.7963 3.0415 31.5428 -1.3799
# 2 8.4924 45.8294 3.3141 3.3379 10.1852 9.5352
# 3 1.7963 3.3141 70.7521 -2.5140 12.3585 4.9333
# 4 3.0415 3.3379 -2.5140 31.5271 -4.8063 5.0093
# 5 31.5428 10.1852 12.3585 -4.8063 43.1479 3.8474
# 6 -1.3799 9.5352 4.9333 5.0093 3.8474 34.6367
#
#
#
# Elastic Compliance Matrix: (Units=1/GPa)
#
#
# Indices 1 2 3 4 5 6 
#
# 1 0.011981 -0.000387 0.001139 -0.002765 -0.009469 0.001873
# 2 -0.000387 0.024443 0.000105 -0.002420 -0.005268 -0.005824
# 3 0.001139 0.000105 0.015105 0.000591 -0.004969 -0.001668
# 4 -0.002765 -0.002420 0.000591 0.034136 0.006690 -0.005208
# 5 -0.009469 -0.005268 -0.004969 0.006690 0.033772 -0.002938
# 6 0.001873 -0.005824 -0.001668 -0.005208 -0.002938 0.031866
#
#
# Mechanical properties :
#
#
# Convention : Reuss Voigt Hill
#
# Bulk Modulus (GPa) = 18.78135 28.13350 23.45743
# Shear Modulus (GPa) = 29.87984 36.02187 32.95086
#
# Velocity S-wave (km/s) = 3.63786 3.99430 3.82024
# Velocity P-wave (km/s) = 5.09547 5.80802 5.46338
#
# Compressibility (1/GPa) = 0.05324431
#
# Stress axis : x y z
#
# Youngs Moduli (GPa) = 83.46510 40.91186 66.20173
#
# Poissons Ratio (x) = 0.01581 -0.07540
# Poissons Ratio (y) = 0.03226 -0.00696
# Poissons Ratio (z) = -0.09506 -0.00430
#
# Static dielectric constant tensor:
#      x y z
#    x 1.468840 0.299670 -0.023700 
#    y 0.299670 1.659470 -0.001730 
#    z -0.023700 -0.001730 1.847770 
# 
# From -- ./inp_files/237087.got.cif
#   From: 2010.05.17/outbox.cif.g08.bks.cpg/sg2_119_cif.got.tgz:237087.got - 2010.06.03 11:33:40.
