data_PCOD9102556
_publ_section_title
;
Structure prediction by ZEFSAII (Michael W. Deem and Ramdas Pophale) SiO2 
 PCOD9102556
Probable space group: P -1
;
_chemical_formula_sum "Si O2"
_cell_formula_units_Z 16
_cell_length_a 10.458971
_cell_length_b 12.188535
_cell_length_c 7.567239
_cell_angle_alpha 76.414542
_cell_angle_beta 125.451982
_cell_angle_gamma 127.880212
_cell_volume 609.117550
_symmetry_space_group_name_H-M "P -1"
_symmetry_group_IT_number 2
_symmetry_cell_setting 'triclinic'
loop_
_space_group_symop_operation_xyz
x,y,z
-x,-y,-z
loop_
_atom_site_type_symbol
_atom_site_label
_atom_site_fract_x
_atom_site_fract_y
_atom_site_fract_z
Si Si1 0.958196 0.202256 0.230689
Si Si2 0.066303 0.042626 0.827271
Si Si3 0.040093 0.662061 0.167812
Si Si4 0.118444 0.615405 0.706671
Si Si5 0.586358 0.147593 0.340771
Si Si6 0.668363 0.649509 0.996758
Si Si7 0.405239 0.337617 0.457716
Si Si8 0.632010 0.918815 0.459969
O O1 0.183684 0.261935 0.370628
O O2 0.942670 0.281263 0.350839
O O3 0.856288 0.039169 0.167623
O O4 0.904213 0.259859 0.002612
O O5 0.231746 0.207675 0.869053
O O6 0.864365 0.999061 0.593945
O O7 0.000000 0.000000 0.000000
O O8 0.224891 0.761556 0.407899
O O9 0.955040 0.498430 0.154876
O O10 0.852587 0.651171 0.090505
O O11 0.347895 0.730055 0.795800
O O12 0.000000 0.500000 0.500000
O O13 0.409516 0.086264 0.359529
O O14 0.573586 0.015449 0.301945
O O15 0.500000 0.500000 0.000000
O O16 0.589531 0.670978 0.745985
O O17 0.500000 0.500000 0.500000
O O18 0.472755 0.244455 0.618273
#
# Coordination Sequence:
#
# PCOD9102556 Si02
#       8
#     2   2   2   2   2   2   2   2
#     4  10  21  40  66  94 121 173 214 261 318 385
#     4  11  18  41  69  92 125 167 215 258 319 384
#     4  10  20  38  64  92 127 164 213 254 323 378
#     4  10  23  37  59  91 131 165 208 264 320 368
#     4  10  21  37  63  92 123 169 211 255 317 380
#     4  11  23  39  67  98 124 163 210 270 324 372
#     4  10  23  38  62  93 127 162 213 258 319 382
#     4  10  20  38  63  90 125 165 214 254 312 387
#
# _framework density 26.267510000000001
#
# number of rings (size 3 to 8) (size 9 to 14) (size 15 to 20)
#    0.000    1.750    5.000    0.375    5.250    1.000 
#    2.250    1.250    0.000    7.500    0.000    0.000 
#    0.000    0.000    0.000    0.000    0.000    0.000 
#
# Total GULP energy -89423.240159 kJ/mol
# GULP energy per Si atom -5588.952510 kJ/mol
# Density = 2.620772 g / cm^3
# Si number density = 26.267510 Si / 1000 Ang^3
#
#
#
# Elastic Constant Matrix: (Units=GPa)
#
#
# Indices 1 2 3 4 5 6 
#
# 1 77.5566 62.1250 18.2304 -2.0331 -11.1564 -20.4674
# 2 62.1250 258.6349 18.7003 -0.2018 1.5608 -30.1296
# 3 18.2304 18.7003 49.4274 -8.0194 -7.9914 -2.0814
# 4 -2.0331 -0.2018 -8.0194 23.0767 -0.6140 -0.7644
# 5 -11.1564 1.5608 -7.9914 -0.6140 27.3764 2.7066
# 6 -20.4674 -30.1296 -2.0814 -0.7644 2.7066 56.9581
#
#
#
# Elastic Compliance Matrix: (Units=1/GPa)
#
#
# Indices 1 2 3 4 5 6 
#
# 1 0.019006 -0.003781 -0.004305 0.000457 0.006282 0.004380
# 2 -0.003781 0.005011 -0.000907 -0.000619 -0.002239 0.001357
# 3 -0.004305 -0.000907 0.024361 0.008188 0.005721 -0.001298
# 4 0.000457 -0.000619 0.008188 0.046329 0.003593 0.000587
# 5 0.006282 -0.002239 0.005721 0.003593 0.041027 -0.000620
# 6 0.004380 0.001357 -0.001298 0.000587 -0.000620 0.019838
#
#
# Mechanical properties :
#
#
# Convention : Reuss Voigt Hill
#
# Bulk Modulus (GPa) = 32.90302 64.85892 48.88097
# Shear Modulus (GPa) = 27.21968 40.58647 33.90308
#
# Velocity S-wave (km/s) = 3.22257 3.93507 3.59651
# Velocity P-wave (km/s) = 5.13809 6.73733 5.99131
#
# Compressibility (1/GPa) = 0.03039235
#
# Stress axis : x y z
#
# Youngs Moduli (GPa) = 52.61441 199.54331 41.04877
#
# Poissons Ratio (x) = 0.75455 0.17672
# Poissons Ratio (y) = 0.19896 0.03722
# Poissons Ratio (z) = 0.22652 0.18092
#
# Static dielectric constant tensor:
#      x y z
#    x 2.020390 0.043300 -0.063480 
#    y 0.043300 2.113300 -0.024340 
#    z -0.063480 -0.024340 2.155980 
# 
# From -- ./inp_files/262309.got.cif
#   From: 2010.05.17/outbox.cif.g08.bks.cpg/sg2_132_cif.got.tgz:262309.got - 2010.06.03 11:33:40.
