data_PCOD9102538
_publ_section_title
;
Structure prediction by ZEFSAII (Michael W. Deem and Ramdas Pophale) SiO2 
 PCOD9102538
Probable space group: P -1
;
_chemical_formula_sum "Si O2"
_cell_formula_units_Z 16
_cell_length_a 13.798364
_cell_length_b 11.034511
_cell_length_c 13.700099
_cell_angle_alpha 109.392215
_cell_angle_beta 150.643400
_cell_angle_gamma 53.517821
_cell_volume 724.726968
_symmetry_space_group_name_H-M "P -1"
_symmetry_group_IT_number 2
_symmetry_cell_setting 'triclinic'
loop_
_space_group_symop_operation_xyz
x,y,z
-x,-y,-z
loop_
_atom_site_type_symbol
_atom_site_label
_atom_site_fract_x
_atom_site_fract_y
_atom_site_fract_z
Si Si1 0.702065 0.904571 0.403570
Si Si2 0.832740 0.470885 0.281298
Si Si3 0.437984 0.409473 0.295012
Si Si4 0.001679 0.412448 0.189250
Si Si5 0.120155 0.081258 0.232881
Si Si6 0.331962 0.823127 0.007250
Si Si7 0.881978 0.069492 0.520259
Si Si8 0.471524 0.692756 0.429919
O O1 0.700166 0.949838 0.525758
O O2 0.004517 0.727509 0.604470
O O3 0.677248 0.040840 0.352936
O O4 0.503854 0.873901 0.201486
O O5 0.000000 0.500000 0.500000
O O6 0.873546 0.468172 0.199738
O O7 0.535135 0.629434 0.092717
O O8 0.711922 0.269303 0.441505
O O9 0.390141 0.581791 0.309700
O O10 0.470711 0.331688 0.409222
O O11 0.202817 0.454857 0.036042
O O12 0.087967 0.229078 0.188437
O O13 0.260668 0.387149 0.411046
O O14 0.835882 0.163045 0.047755
O O15 0.259486 0.892173 0.268526
O O16 0.114910 0.960715 0.774854
O O17 0.000000 0.000000 0.500000
#
# Coordination Sequence:
#
# PCOD9102538 Si02
#       8
#     2   2   2   2   2   2   2   2
#     4   9  20  37  60  89 125 166 210 260 325 378
#     4   9  20  39  65  96 126 166 213 268 332 379
#     4  11  25  43  63  97 132 177 217 261 328 382
#     4  11  24  40  69  98 127 172 219 271 327 385
#     4  10  22  42  65  97 122 165 219 271 323 377
#     4  10  20  38  63  89 129 166 208 263 330 381
#     4  11  23  39  61  93 129 166 219 266 315 393
#     4  11  24  46  64  91 139 170 223 268 316 390
#
# _framework density 22.077279000000001
#
# number of rings (size 3 to 8) (size 9 to 14) (size 15 to 20)
#    0.000    1.750    2.500    1.500    0.000   13.500 
#    0.000    0.000    0.000    0.000    0.000    0.000 
#    0.000    0.000    0.000    0.000    0.000    0.000 
#
# Total GULP energy -89380.337056 kJ/mol
# GULP energy per Si atom -5586.271066 kJ/mol
# Density = 2.202703 g / cm^3
# Si number density = 22.077279 Si / 1000 Ang^3
#
#
#
# Elastic Constant Matrix: (Units=GPa)
#
#
# Indices 1 2 3 4 5 6 
#
# 1 45.2958 -1.0995 10.6990 7.4823 1.0696 -4.6035
# 2 -1.0995 91.3131 21.1741 -4.0920 -4.2099 -7.5834
# 3 10.6990 21.1741 81.3821 -0.2066 13.8137 0.7987
# 4 7.4823 -4.0920 -0.2066 32.2830 3.3029 9.9881
# 5 1.0696 -4.2099 13.8137 3.3029 31.6545 -1.5616
# 6 -4.6035 -7.5834 0.7987 9.9881 -1.5616 30.4127
#
#
#
# Elastic Compliance Matrix: (Units=1/GPa)
#
#
# Indices 1 2 3 4 5 6 
#
# 1 0.025113 0.001619 -0.004220 -0.008083 0.002402 0.007093
# 2 0.001619 0.012377 -0.004081 -0.000357 0.003594 0.003740
# 3 -0.004220 -0.004081 0.015203 0.002307 -0.007433 -0.003195
# 4 -0.008083 -0.000357 0.002307 0.037715 -0.005409 -0.014037
# 5 0.002402 0.003594 -0.007433 -0.005409 0.036047 0.005082
# 6 0.007093 0.003740 -0.003195 -0.014037 0.005082 0.039842
#
#
# Mechanical properties :
#
#
# Convention : Reuss Voigt Hill
#
# Bulk Modulus (GPa) = 25.42716 31.05979 28.24347
# Shear Modulus (GPa) = 25.93736 31.35120 28.64428
#
# Velocity S-wave (km/s) = 3.43132 3.77246 3.60593
# Velocity P-wave (km/s) = 5.21929 5.75105 5.49161
#
# Compressibility (1/GPa) = 0.03932803
#
# Stress axis : x y z
#
# Youngs Moduli (GPa) = 39.82067 80.79224 65.77565
#
# Poissons Ratio (x) = -0.13077 0.27760
# Poissons Ratio (y) = -0.06446 0.26842
# Poissons Ratio (z) = 0.16806 0.32970
#
# Static dielectric constant tensor:
#      x y z
#    x 1.792690 -0.002480 0.003070 
#    y -0.002480 1.892240 0.007290 
#    z 0.003070 0.007290 1.805910 
# 
# From -- ./inp_files/532561.got.cif
#   From: 2010.05.17/outbox.cif.g08.bks.cpg/sg2_267_cif.got.tgz:532561.got - 2010.06.03 11:33:40.
