data_PCOD9102200
_publ_section_title
;
Structure prediction by ZEFSAII (Michael W. Deem and Ramdas Pophale) SiO2 
 PCOD9102200
Probable space group: P -1
;
_chemical_formula_sum "Si O2"
_cell_formula_units_Z 16
_cell_length_a 8.696209
_cell_length_b 10.372533
_cell_length_c 16.219720
_cell_angle_alpha 75.684645
_cell_angle_beta 33.559702
_cell_angle_gamma 61.421372
_cell_volume 674.831188
_symmetry_space_group_name_H-M "P -1"
_symmetry_group_IT_number 2
_symmetry_cell_setting 'triclinic'
loop_
_space_group_symop_operation_xyz
x,y,z
-x,-y,-z
loop_
_atom_site_type_symbol
_atom_site_label
_atom_site_fract_x
_atom_site_fract_y
_atom_site_fract_z
Si Si1 0.915093 0.959593 0.385100
Si Si2 0.536145 0.404369 0.610432
Si Si3 0.678358 0.312584 0.886206
Si Si4 0.100594 0.459224 0.636674
Si Si5 0.925743 0.941788 0.124709
Si Si6 0.509404 0.821016 0.598767
Si Si7 0.061452 0.375499 0.062306
Si Si8 0.500262 0.852117 0.229808
O O1 0.730126 0.886520 0.523775
O O2 0.127103 0.824416 0.245805
O O3 0.158002 0.985371 0.326921
O O4 0.645977 0.104013 0.432418
O O5 0.340134 0.402116 0.617672
O O6 0.863191 0.396508 0.433488
O O7 0.575602 0.274158 0.677134
O O8 0.274959 0.565965 0.748851
O O9 0.308264 0.378457 0.017970
O O10 0.801249 0.435270 0.799739
O O11 0.789988 0.214305 0.935982
O O12 0.248050 0.352730 0.506268
O O13 0.667961 0.894437 0.218807
O O14 0.793720 0.089967 0.220403
O O15 0.000000 0.000000 0.000000
O O16 0.255788 0.219302 0.946384
O O17 0.000000 0.500000 0.000000
#
# Coordination Sequence:
#
# PCOD9102200 Si02
#       8
#     2   2   2   2   2   2   2   2
#     4   8  17  35  63  84 111 158 192 238 308 343
#     4  10  21  37  60  90 119 156 200 247 293 351
#     4   9  18  40  62  85 121 158 197 245 300 357
#     4  10  20  38  62  88 119 155 201 243 294 358
#     4  11  23  38  59  90 121 155 198 247 300 355
#     4   9  19  38  59  85 116 154 194 243 299 355
#     4   9  20  39  62  87 120 162 196 241 302 350
#     4  10  20  39  59  89 123 150 196 250 293 358
#
# _framework density 23.709634000000001
#
# number of rings (size 3 to 8) (size 9 to 14) (size 15 to 20)
#    0.000    2.500    1.250    0.750    1.750    1.000 
#    2.250   13.125    0.000    0.000    0.000    0.000 
#    0.000    0.000    0.000    0.000    0.000    0.000 
#
# Total GULP energy -89124.515156 kJ/mol
# GULP energy per Si atom -5570.282197 kJ/mol
# Density = 2.365567 g / cm^3
# Si number density = 23.709634 Si / 1000 Ang^3
#
#
#
# Elastic Constant Matrix: (Units=GPa)
#
#
# Indices 1 2 3 4 5 6 
#
# 1 95.2883 21.6538 10.7057 0.8601 -4.7716 -9.3703
# 2 21.6538 35.8490 26.0957 -7.9629 6.8700 0.3787
# 3 10.7057 26.0957 58.6243 -17.7962 8.9982 -15.8809
# 4 0.8601 -7.9629 -17.7962 35.0418 2.7014 13.0706
# 5 -4.7716 6.8700 8.9982 2.7014 38.7920 13.3747
# 6 -9.3703 0.3787 -15.8809 13.0706 13.3747 20.1352
#
#
#
# Elastic Compliance Matrix: (Units=1/GPa)
#
#
# Indices 1 2 3 4 5 6 
#
# 1 0.015502 -0.017425 0.009602 -0.007797 -0.004732 0.023319
# 2 -0.017425 0.072368 -0.044724 0.018306 0.017722 -0.068400
# 3 0.009602 -0.044724 0.058231 -0.006664 -0.029960 0.075463
# 4 -0.007797 0.018306 -0.006664 0.045684 0.009818 -0.045406
# 5 -0.004732 0.017722 -0.029960 0.009818 0.051288 -0.066606
# 6 0.023319 -0.068400 0.075463 -0.045406 -0.066606 0.195039
#
#
# Mechanical properties :
#
#
# Convention : Reuss Voigt Hill
#
# Bulk Modulus (GPa) = 24.38580 34.07466 29.23023
# Shear Modulus (GPa) = 8.97869 27.54756 18.26313
#
# Velocity S-wave (km/s) = 1.94812 3.41232 2.77841
# Velocity P-wave (km/s) = 3.92017 5.47066 4.75898
#
# Compressibility (1/GPa) = 0.04100747
#
# Stress axis : x y z
#
# Youngs Moduli (GPa) = 64.50820 13.81822 17.17313
#
# Poissons Ratio (x) = 0.24078 -0.16489
# Poissons Ratio (y) = 1.12403 0.76805
# Poissons Ratio (z) = -0.61939 0.61800
#
# Static dielectric constant tensor:
#      x y z
#    x 1.928910 0.150320 -0.124280 
#    y 0.150320 2.188030 -0.323000 
#    z -0.124280 -0.323000 2.400710 
# 
# From -- ./inp_files/294859.got.cif
#   From: 2010.05.17/outbox.cif.g08.bks.cpg/sg2_148_cif.got.tgz:294859.got - 2010.06.03 11:33:40.
