data_PCOD9102248
_publ_section_title
;
Structure prediction by ZEFSAII (Michael W. Deem and Ramdas Pophale) SiO2 
 PCOD9102248
Probable space group: P -1
;
_chemical_formula_sum "Si O2"
_cell_formula_units_Z 12
_cell_length_a 11.708128
_cell_length_b 17.763843
_cell_length_c 12.266623
_cell_angle_alpha 28.652644
_cell_angle_beta 147.286354
_cell_angle_gamma 150.856001
_cell_volume 564.250495
_symmetry_space_group_name_H-M "P -1"
_symmetry_group_IT_number 2
_symmetry_cell_setting 'triclinic'
loop_
_space_group_symop_operation_xyz
x,y,z
-x,-y,-z
loop_
_atom_site_type_symbol
_atom_site_label
_atom_site_fract_x
_atom_site_fract_y
_atom_site_fract_z
Si Si1 0.344896 0.014025 0.497042
Si Si2 0.242904 0.985874 0.702720
Si Si3 0.199947 0.281852 0.651818
Si Si4 0.523486 0.690138 0.366536
Si Si5 0.095034 0.419252 0.086149
Si Si6 0.468488 0.238560 0.110907
O O1 0.340624 0.038282 0.591364
O O2 0.425159 0.193514 0.260838
O O3 0.513842 0.929860 0.710938
O O4 0.070141 0.861640 0.427272
O O5 0.428504 0.135989 0.746723
O O6 0.000000 0.000000 0.500000
O O7 0.137088 0.768928 0.906629
O O8 0.272859 0.493518 0.430616
O O9 0.395333 0.265403 0.750814
O O10 0.254912 0.246960 0.862772
O O11 0.727246 0.642120 0.636498
O O12 0.274726 0.575011 0.947631
O O13 0.000000 0.500000 0.000000
#
# Coordination Sequence:
#
# PCOD9102248 Si02
#       6
#     2   2   2   2   2   2
#     4  11  20  37  59  79 117 146 184 237 273 329
#     4  10  18  34  59  83 111 149 184 232 281 321
#     4  10  18  36  58  81 111 150 185 227 278 335
#     4   9  19  32  57  84 112 140 193 232 272 328
#     4  10  16  32  56  83 106 145 187 226 269 334
#     4  10  22  33  58  88 106 148 193 221 281 339
#
# _framework density 21.267150999999998
#
# number of rings (size 3 to 8) (size 9 to 14) (size 15 to 20)
#    0.000    2.000    5.000    0.500    0.000    0.000 
#    0.000    8.333    0.000    2.000    0.000    0.000 
#    0.000    0.000    0.000    0.000    0.000    0.000 
#
# Total GULP energy -67048.762485 kJ/mol
# GULP energy per Si atom -5587.396874 kJ/mol
# Density = 2.121875 g / cm^3
# Si number density = 21.267151 Si / 1000 Ang^3
#
#
#
# Elastic Constant Matrix: (Units=GPa)
#
#
# Indices 1 2 3 4 5 6 
#
# 1 58.9445 24.6724 19.2703 -24.5561 -3.0119 -15.0065
# 2 24.6724 137.3567 28.2872 -19.4223 -1.7838 -18.1711
# 3 19.2703 28.2872 92.3153 -23.2097 -12.4222 -8.8664
# 4 -24.5561 -19.4223 -23.2097 37.9435 8.6324 6.6324
# 5 -3.0119 -1.7838 -12.4222 8.6324 33.1413 -5.2727
# 6 -15.0065 -18.1711 -8.8664 6.6324 -5.2727 34.9737
#
#
#
# Elastic Compliance Matrix: (Units=1/GPa)
#
#
# Indices 1 2 3 4 5 6 
#
# 1 0.025547 -0.001488 -0.000684 0.014218 -0.000567 0.007234
# 2 -0.001488 0.008542 -0.001558 0.002006 -0.000308 0.002978
# 3 -0.000684 -0.001558 0.013613 0.005935 0.003693 0.001779
# 4 0.014218 0.002006 0.005935 0.041966 -0.007373 -0.000422
# 5 -0.000567 -0.000308 0.003693 -0.007373 0.034546 0.007139
# 6 0.007234 0.002978 0.001779 -0.000422 0.007139 0.034851
#
#
# Mechanical properties :
#
#
# Convention : Reuss Voigt Hill
#
# Bulk Modulus (GPa) = 24.84916 48.11960 36.48438
# Shear Modulus (GPa) = 27.78714 35.63746 31.71230
#
# Velocity S-wave (km/s) = 3.61858 4.09798 3.86572
# Velocity P-wave (km/s) = 5.40079 6.71317 6.09242
#
# Compressibility (1/GPa) = 0.04024282
#
# Stress axis : x y z
#
# Youngs Moduli (GPa) = 39.14283 117.06811 73.46052
#
# Poissons Ratio (x) = 0.17420 0.05023
# Poissons Ratio (y) = 0.05825 0.11445
# Poissons Ratio (z) = 0.02676 0.18238
#
# Static dielectric constant tensor:
#      x y z
#    x 1.750960 0.032070 0.014340 
#    y 0.032070 1.808340 0.022520 
#    z 0.014340 0.022520 1.853430 
# 
# From -- ./inp_files/150474.got.cif
#   From: 2010.05.17/outbox.cif.g08.bks.cpg/sg2_76_cif.got.tgz:150474.got - 2010.06.03 11:33:40.
