data_PCOD9102765
_publ_section_title
;
Structure prediction by ZEFSAII (Michael W. Deem and Ramdas Pophale) SiO2 
 PCOD9102765
Probable space group: P -1
;
_chemical_formula_sum "Si O2"
_cell_formula_units_Z 12
_cell_length_a 8.905500
_cell_length_b 9.169682
_cell_length_c 15.585693
_cell_angle_alpha 150.755518
_cell_angle_beta 78.971500
_cell_angle_gamma 100.618495
_cell_volume 609.896716
_symmetry_space_group_name_H-M "P -1"
_symmetry_group_IT_number 2
_symmetry_cell_setting 'triclinic'
loop_
_space_group_symop_operation_xyz
x,y,z
-x,-y,-z
loop_
_atom_site_type_symbol
_atom_site_label
_atom_site_fract_x
_atom_site_fract_y
_atom_site_fract_z
Si Si1 0.125625 0.771089 0.123458
Si Si2 0.683047 0.700216 0.049869
Si Si3 0.744867 0.903101 0.449920
Si Si4 0.010167 0.960954 0.876601
Si Si5 0.979953 0.728715 0.476250
Si Si6 0.482066 0.280641 0.758060
O O1 0.073035 0.043890 0.328181
O O2 0.265554 0.611286 0.071125
O O3 0.123133 0.885742 0.084963
O O4 0.000000 0.500000 0.000000
O O5 0.596122 0.853922 0.216116
O O6 0.830030 0.882205 0.092336
O O7 0.567090 0.593115 0.933569
O O8 0.854552 0.737943 0.418462
O O9 0.653296 0.703106 0.287819
O O10 0.613932 0.074414 0.602290
O O11 0.859038 0.138978 0.510121
O O12 0.007091 0.612556 0.674465
O O13 0.000000 0.000000 0.000000
#
# Coordination Sequence:
#
# PCOD9102765 Si02
#       6
#     2   2   2   2   2   2
#     4  10  21  38  62  90 121 160 203 251 306 358
#     4  10  21  40  63  88 123 166 204 243 310 370
#     4  10  21  36  65  95 116 162 207 252 303 364
#     4  11  24  37  63  96 126 155 206 264 306 351
#     4  11  22  39  64  94 126 154 210 259 306 355
#     4  10  20  38  64  85 125 163 206 243 301 380
#
# _framework density 19.675464999999999
#
# number of rings (size 3 to 8) (size 9 to 14) (size 15 to 20)
#    0.000    1.667    1.667    3.500    9.333    0.000 
#    0.000    1.667   14.667    0.000    0.000    0.000 
#    0.000    0.000    0.000    0.000    0.000    0.000 
#
# Total GULP energy -66958.116551 kJ/mol
# GULP energy per Si atom -5579.843046 kJ/mol
# Density = 1.963068 g / cm^3
# Si number density = 19.675465 Si / 1000 Ang^3
#
#
#
# Elastic Constant Matrix: (Units=GPa)
#
#
# Indices 1 2 3 4 5 6 
#
# 1 110.9406 40.5037 33.6656 -6.2184 9.6742 -5.3939
# 2 40.5037 97.4242 35.2321 -3.7235 -4.7230 -6.9034
# 3 33.6656 35.2321 91.0677 -7.3277 2.0909 -12.5995
# 4 -6.2184 -3.7235 -7.3277 37.0600 -4.4678 -5.0814
# 5 9.6742 -4.7230 2.0909 -4.4678 32.8644 -16.5491
# 6 -5.3939 -6.9034 -12.5995 -5.0814 -16.5491 29.3412
#
#
#
# Elastic Compliance Matrix: (Units=1/GPa)
#
#
# Indices 1 2 3 4 5 6 
#
# 1 0.011841 -0.004339 -0.003051 -0.000193 -0.005637 -0.003367
# 2 -0.004339 0.013891 -0.003128 0.001444 0.006093 0.004814
# 3 -0.003051 -0.003128 0.014601 0.003611 0.003952 0.007828
# 4 -0.000193 0.001444 0.003611 0.030978 0.011008 0.013428
# 5 -0.005637 0.006093 0.003952 0.011008 0.050592 0.032536
# 6 -0.003367 0.004814 0.007828 0.013428 0.032536 0.058633
#
#
# Mechanical properties :
#
#
# Convention : Reuss Voigt Hill
#
# Bulk Modulus (GPa) = 51.81687 57.58170 54.69928
# Shear Modulus (GPa) = 24.03811 32.52186 28.27999
#
# Velocity S-wave (km/s) = 3.49912 4.07002 3.79532
# Velocity P-wave (km/s) = 6.53591 7.17049 6.86054
#
# Compressibility (1/GPa) = 0.01929873
#
# Stress axis : x y z
#
# Youngs Moduli (GPa) = 84.45540 71.98886 68.48630
#
# Poissons Ratio (x) = 0.31234 0.20892
# Poissons Ratio (y) = 0.36643 0.21422
# Poissons Ratio (z) = 0.25764 0.22517
#
# Static dielectric constant tensor:
#      x y z
#    x 1.719210 -0.024650 -0.001440 
#    y -0.024650 1.696090 -0.045670 
#    z -0.001440 -0.045670 1.709790 
# 
# From -- ./inp_files/144864.got.cif
#   From: 2010.05.17/outbox.cif.g08.bks.cpg/sg2_73_cif.got.tgz:144864.got - 2010.06.03 11:33:40.
