data_PCOD9102064
_publ_section_title
;
Structure prediction by ZEFSAII (Michael W. Deem and Ramdas Pophale) SiO2 
 PCOD9102064
Probable space group: P -1
;
_chemical_formula_sum "Si O2"
_cell_formula_units_Z 12
_cell_length_a 24.909420
_cell_length_b 13.665137
_cell_length_c 4.921220
_cell_angle_alpha 63.866597
_cell_angle_beta 122.357777
_cell_angle_gamma 159.716508
_cell_volume 479.581538
_symmetry_space_group_name_H-M "P -1"
_symmetry_group_IT_number 2
_symmetry_cell_setting 'triclinic'
loop_
_space_group_symop_operation_xyz
x,y,z
-x,-y,-z
loop_
_atom_site_type_symbol
_atom_site_label
_atom_site_fract_x
_atom_site_fract_y
_atom_site_fract_z
Si Si1 0.817848 0.710951 0.718063
Si Si2 0.656484 0.354029 0.232556
Si Si3 0.181414 0.828230 0.208155
Si Si4 0.840546 0.977946 0.240540
Si Si5 0.003513 0.697798 0.233965
Si Si6 0.340628 0.885291 0.302836
O O1 0.807318 0.626124 0.514555
O O2 0.767040 0.752915 0.441759
O O3 0.695085 0.461767 0.910622
O O4 0.000000 0.000000 0.000000
O O5 0.633289 0.187539 0.383770
O O6 0.495871 0.150258 0.197992
O O7 0.251761 0.051391 0.987116
O O8 0.124817 0.785304 0.401764
O O9 0.304410 0.925090 0.365197
O O10 0.000000 0.500000 0.000000
O O11 0.904320 0.067458 0.997102
O O12 0.996362 0.258431 0.516588
O O13 0.823250 0.388101 0.999738
#
# Coordination Sequence:
#
# PCOD9102064 Si02
#       6
#     2   2   2   2   2   2
#     4  12  24  43  65  86 124 160 210 242 299 365
#     4  11  26  41  62  94 118 168 192 254 307 354
#     4   8  19  37  62  93 117 161 197 252 295 349
#     4  10  20  38  61  95 115 155 212 245 293 352
#     4   9  19  36  64  93 116 156 198 251 300 339
#     4  10  21  43  60  92 129 151 206 249 304 361
#
# _framework density 25.021813000000002
#
# number of rings (size 3 to 8) (size 9 to 14) (size 15 to 20)
#    1.000    1.000    0.000    3.500    0.000    6.667 
#    6.000    1.667    0.000    0.000    0.000    0.000 
#    0.000    0.000    0.000    0.000    0.000    0.000 
#
# Total GULP energy -67073.029277 kJ/mol
# GULP energy per Si atom -5589.419106 kJ/mol
# Density = 2.496486 g / cm^3
# Si number density = 25.021813 Si / 1000 Ang^3
#
#
#
# Elastic Constant Matrix: (Units=GPa)
#
#
# Indices 1 2 3 4 5 6 
#
# 1 125.7149 24.5467 45.4285 -16.1669 29.9129 -5.9223
# 2 24.5467 57.7698 28.1933 -19.2477 19.9373 -4.3273
# 3 45.4285 28.1933 115.8725 -42.0968 3.6125 -12.6731
# 4 -16.1669 -19.2477 -42.0968 46.4587 -11.6365 5.2355
# 5 29.9129 19.9373 3.6125 -11.6365 46.0656 -2.2087
# 6 -5.9223 -4.3273 -12.6731 5.2355 -2.2087 36.9935
#
#
#
# Elastic Compliance Matrix: (Units=1/GPa)
#
#
# Indices 1 2 3 4 5 6 
#
# 1 0.011303 -0.000744 -0.005031 -0.002762 -0.007323 -0.000047
# 2 -0.000744 0.023731 -0.003711 0.004057 -0.008457 0.000306
# 3 -0.005031 -0.003711 0.016294 0.012897 0.006994 0.002935
# 4 -0.002762 0.004057 0.012897 0.035979 0.008107 -0.000157
# 5 -0.007323 -0.008457 0.006994 0.008107 0.031670 0.000978
# 6 -0.000047 0.000306 0.002935 -0.000157 0.000978 0.028146
#
#
# Mechanical properties :
#
#
# Convention : Reuss Voigt Hill
#
# Bulk Modulus (GPa) = 30.90659 55.07715 42.99187
# Shear Modulus (GPa) = 28.26798 39.31614 33.79206
#
# Velocity S-wave (km/s) = 3.36480 3.96823 3.67891
# Velocity P-wave (km/s) = 5.24161 6.56165 5.93842
#
# Compressibility (1/GPa) = 0.03235556
#
# Stress axis : x y z
#
# Youngs Moduli (GPa) = 88.47482 42.13950 61.37279
#
# Poissons Ratio (x) = 0.03136 0.30874
# Poissons Ratio (y) = 0.06583 0.22776
# Poissons Ratio (z) = 0.44508 0.15638
#
# Static dielectric constant tensor:
#      x y z
#    x 1.979280 -0.022280 0.061900 
#    y -0.022280 1.966900 0.016510 
#    z 0.061900 0.016510 2.038560 
# 
# From -- ./inp_files/127096.got.cif
#   From: 2010.05.17/outbox.cif.g08.bks.cpg/sg2_64_cif.got.tgz:127096.got - 2010.06.03 11:33:40.
