data_PCOD9102485
_publ_section_title
;
Structure prediction by ZEFSAII (Michael W. Deem and Ramdas Pophale) SiO2 
 PCOD9102485
Probable space group: P -1
;
_chemical_formula_sum "Si O2"
_cell_formula_units_Z 16
_cell_length_a 8.262101
_cell_length_b 11.620273
_cell_length_c 16.888370
_cell_angle_alpha 49.336694
_cell_angle_beta 113.527894
_cell_angle_gamma 72.756450
_cell_volume 676.255610
_symmetry_space_group_name_H-M "P -1"
_symmetry_group_IT_number 2
_symmetry_cell_setting 'triclinic'
loop_
_space_group_symop_operation_xyz
x,y,z
-x,-y,-z
loop_
_atom_site_type_symbol
_atom_site_label
_atom_site_fract_x
_atom_site_fract_y
_atom_site_fract_z
Si Si1 0.787857 0.285972 0.710522
Si Si2 0.488386 0.673351 0.960408
Si Si3 0.826515 0.496364 0.516904
Si Si4 0.112861 0.780386 0.954294
Si Si5 0.704012 0.799748 0.500300
Si Si6 0.057625 0.788429 0.475527
Si Si7 0.624253 0.579583 0.696684
Si Si8 0.924580 0.676078 0.841881
O O1 0.500000 0.500000 0.500000
O O2 0.992251 0.265236 0.711827
O O3 0.755552 0.369874 0.753419
O O4 0.887724 0.045564 0.834949
O O5 0.374827 0.711145 0.008446
O O6 0.182403 0.489409 0.911020
O O7 0.242555 0.942267 0.745346
O O8 0.500000 0.500000 0.000000
O O9 0.000000 0.500000 0.500000
O O10 0.340105 0.280771 0.550163
O O11 0.760532 0.433076 0.455784
O O12 0.968728 0.808567 0.835232
O O13 0.231815 0.563827 0.128282
O O14 0.955052 0.745690 0.545051
O O15 0.717459 0.672580 0.632726
O O16 0.423126 0.091973 0.340612
O O17 0.275309 0.778233 0.544407
O O18 0.000000 0.500000 0.000000
#
# Coordination Sequence:
#
# PCOD9102485 Si02
#       8
#     2   2   2   2   2   2   2   2
#     4  11  18  36  65  90 122 168 209 246 305 382
#     4  10  20  38  63  87 113 160 221 257 301 365
#     4   9  18  31  59  90 113 153 204 257 295 357
#     4  11  23  39  61  95 128 160 206 265 318 373
#     4  10  22  39  63  90 124 163 217 258 306 376
#     4  11  19  39  64  88 124 164 215 253 311 375
#     4  11  23  38  61  95 136 163 197 255 331 384
#     4  11  22  41  65  88 117 163 222 270 301 362
#
# _framework density 23.659690999999999
#
# number of rings (size 3 to 8) (size 9 to 14) (size 15 to 20)
#    0.000    1.500    3.750    3.375    0.000    0.000 
#    2.250    6.250    0.000    3.000    0.000    0.000 
#    0.000    0.000    0.000    0.000    0.000    0.000 
#
# Total GULP energy -89077.116985 kJ/mol
# GULP energy per Si atom -5567.319812 kJ/mol
# Density = 2.360584 g / cm^3
# Si number density = 23.659691 Si / 1000 Ang^3
#
#
#
# Elastic Constant Matrix: (Units=GPa)
#
#
# Indices 1 2 3 4 5 6 
#
# 1 131.8617 24.3378 39.3624 16.6838 -16.7945 -29.8065
# 2 24.3378 72.3965 28.7234 -7.7865 10.9926 -13.7968
# 3 39.3624 28.7234 90.8812 -7.5819 -16.5226 -10.8376
# 4 16.6838 -7.7865 -7.5819 31.1699 -0.2841 -7.4317
# 5 -16.7945 10.9926 -16.5226 -0.2841 35.8792 1.2402
# 6 -29.8065 -13.7968 -10.8376 -7.4317 1.2402 42.1454
#
#
#
# Elastic Compliance Matrix: (Units=1/GPa)
#
#
# Indices 1 2 3 4 5 6 
#
# 1 0.011696 -0.003129 -0.003144 -0.006536 0.004756 0.005146
# 2 -0.003129 0.020315 -0.005944 0.006238 -0.010526 0.004319
# 3 -0.003144 -0.005944 0.016073 0.004296 0.007768 0.000493
# 4 -0.006536 0.006238 0.004296 0.039486 -0.002872 0.005571
# 5 0.004756 -0.010526 0.007768 -0.002872 0.036866 0.000324
# 6 0.005146 0.004319 0.000493 0.005571 0.000324 0.029881
#
#
# Mechanical properties :
#
#
# Convention : Reuss Voigt Hill
#
# Bulk Modulus (GPa) = 42.28123 53.33184 47.80653
# Shear Modulus (GPa) = 26.79074 35.35327 31.07200
#
# Velocity S-wave (km/s) = 3.36867 3.86973 3.62786
# Velocity P-wave (km/s) = 5.74804 6.52354 6.14803
#
# Compressibility (1/GPa) = 0.02365116
#
# Stress axis : x y z
#
# Youngs Moduli (GPa) = 85.50217 49.22491 62.21638
#
# Poissons Ratio (x) = 0.15402 0.19559
# Poissons Ratio (y) = 0.26752 0.36979
# Poissons Ratio (z) = 0.26879 0.29258
#
# Static dielectric constant tensor:
#      x y z
#    x 1.866610 -0.124110 0.060070 
#    y -0.124110 1.920010 -0.019170 
#    z 0.060070 -0.019170 1.901460 
# 
# From -- ./inp_files/560774.got.cif
#   From: 2010.05.17/outbox.cif.g08.bks.cpg/sg2_281_cif.got.tgz:560774.got - 2010.06.03 11:33:40.
