data_PCOD9102763
_publ_section_title
;
Structure prediction by ZEFSAII (Michael W. Deem and Ramdas Pophale) SiO2 
 PCOD9102763
Probable space group: P -1
;
_chemical_formula_sum "Si O2"
_cell_formula_units_Z 16
_cell_length_a 16.827899
_cell_length_b 11.326186
_cell_length_c 7.132527
_cell_angle_alpha 62.409763
_cell_angle_beta 118.323805
_cell_angle_gamma 148.532349
_cell_volume 619.610372
_symmetry_space_group_name_H-M "P -1"
_symmetry_group_IT_number 2
_symmetry_cell_setting 'triclinic'
loop_
_space_group_symop_operation_xyz
x,y,z
-x,-y,-z
loop_
_atom_site_type_symbol
_atom_site_label
_atom_site_fract_x
_atom_site_fract_y
_atom_site_fract_z
Si Si1 0.869105 0.161051 0.171936
Si Si2 0.754343 0.730550 0.299603
Si Si3 0.822456 0.529705 0.588430
Si Si4 0.184391 0.239499 0.064923
Si Si5 0.636300 0.055962 0.092552
Si Si6 0.806615 0.043559 0.626999
Si Si7 0.484251 0.719696 0.461257
Si Si8 0.138759 0.474626 0.805894
O O1 0.742600 0.119350 0.001376
O O2 0.852640 0.136844 0.399161
O O3 0.054720 0.396593 0.194786
O O4 0.819069 0.954865 0.204207
O O5 0.864874 0.740162 0.481337
O O6 0.723470 0.657876 0.102147
O O7 0.603664 0.521206 0.409227
O O8 0.643196 0.320880 0.601433
O O9 0.829302 0.496676 0.403287
O O10 0.195798 0.405576 0.019582
O O11 0.222971 0.150920 0.279646
O O12 0.000000 0.000000 0.000000
O O13 0.767043 0.289246 0.188129
O O14 0.545116 0.817743 0.249034
O O15 0.500000 0.000000 0.000000
O O16 0.951719 0.252787 0.767575
O O17 0.647146 0.918660 0.604701
#
# Coordination Sequence:
#
# PCOD9102763 Si02
#       8
#     2   2   2   2   2   2   2   2
#     4  10  20  38  64  85 123 162 199 239 301 364
#     4   9  19  36  60  95 125 150 191 256 302 350
#     4   8  18  37  59  90 109 151 199 247 294 346
#     4   9  18  36  61  93 119 153 197 245 303 352
#     4  11  25  42  56  85 122 164 203 241 300 361
#     4   9  19  35  61  93 114 155 204 241 300 357
#     4   9  21  37  58  90 118 150 202 248 300 343
#     4   9  19  39  60  80 119 161 197 241 286 361
#
# _framework density 25.822679000000001
#
# number of rings (size 3 to 8) (size 9 to 14) (size 15 to 20)
#    0.750    2.000    0.000    1.125    0.000    9.500 
#    6.750    0.625    0.000    0.000    0.000    0.000 
#    0.000    0.000    0.000    0.000    0.000    0.000 
#
# Total GULP energy -89164.181474 kJ/mol
# GULP energy per Si atom -5572.761342 kJ/mol
# Density = 2.576391 g / cm^3
# Si number density = 25.822679 Si / 1000 Ang^3
#
#
#
# Elastic Constant Matrix: (Units=GPa)
#
#
# Indices 1 2 3 4 5 6 
#
# 1 118.3264 43.5000 16.7771 13.1436 17.0038 20.0463
# 2 43.5000 93.3283 24.4823 -3.0027 -14.0564 21.4961
# 3 16.7771 24.4823 43.2925 -9.9006 6.1267 5.2026
# 4 13.1436 -3.0027 -9.9006 43.5025 8.0132 9.8710
# 5 17.0038 -14.0564 6.1267 8.0132 24.3253 5.6696
# 6 20.0463 21.4961 5.2026 9.8710 5.6696 48.3578
#
#
#
# Elastic Compliance Matrix: (Units=1/GPa)
#
#
# Indices 1 2 3 4 5 6 
#
# 1 0.013951 -0.009280 0.001505 -0.001827 -0.014963 0.000308
# 2 -0.009280 0.024350 -0.013237 -0.001485 0.026324 -0.008336
# 3 0.001505 -0.013237 0.035100 0.010112 -0.021320 0.001919
# 4 -0.001827 -0.001485 0.010112 0.028656 -0.010570 -0.004281
# 5 -0.014963 0.026324 -0.021320 -0.010570 0.078008 -0.010193
# 6 0.000308 -0.008336 0.001919 -0.004281 -0.010193 0.026119
#
#
# Mechanical properties :
#
#
# Convention : Reuss Voigt Hill
#
# Bulk Modulus (GPa) = 31.87201 47.16289 39.51745
# Shear Modulus (GPa) = 19.32991 34.58298 26.95644
#
# Velocity S-wave (km/s) = 2.73896 3.66354 3.23446
# Velocity P-wave (km/s) = 4.72990 6.01658 5.41161
#
# Compressibility (1/GPa) = 0.03137550
#
# Stress axis : x y z
#
# Youngs Moduli (GPa) = 71.68147 41.06846 28.49014
#
# Poissons Ratio (x) = 0.38113 -0.04287
# Poissons Ratio (y) = 0.66523 0.37712
# Poissons Ratio (z) = -0.10787 0.54361
#
# Static dielectric constant tensor:
#      x y z
#    x 2.106690 0.051610 0.074520 
#    y 0.051610 2.006770 0.029440 
#    z 0.074520 0.029440 2.176960 
# 
# From -- ./inp_files/262308.got.cif
#   From: 2010.05.17/outbox.cif.g08.bks.cpg/sg2_132_cif.got.tgz:262308.got - 2010.06.03 11:33:40.
