data_PCOD9102300
_publ_section_title
;
Structure prediction by ZEFSAII (Michael W. Deem and Ramdas Pophale) SiO2 
 PCOD9102300
Probable space group: P -1
;
_chemical_formula_sum "Si O2"
_cell_formula_units_Z 16
_cell_length_a 8.470301
_cell_length_b 13.145802
_cell_length_c 14.965892
_cell_angle_alpha 127.975538
_cell_angle_beta 53.858923
_cell_angle_gamma 151.058533
_cell_volume 629.901668
_symmetry_space_group_name_H-M "P -1"
_symmetry_group_IT_number 2
_symmetry_cell_setting 'triclinic'
loop_
_space_group_symop_operation_xyz
x,y,z
-x,-y,-z
loop_
_atom_site_type_symbol
_atom_site_label
_atom_site_fract_x
_atom_site_fract_y
_atom_site_fract_z
Si Si1 0.806757 0.748103 0.498559
Si Si2 0.132491 0.702879 0.905949
Si Si3 0.194775 0.299261 0.713180
Si Si4 0.625259 0.165302 0.917397
Si Si5 0.839432 0.023906 0.175701
Si Si6 0.330843 0.817945 0.387390
Si Si7 0.662606 0.777139 0.746431
Si Si8 0.733003 0.499332 0.766772
O O1 0.500000 0.500000 0.500000
O O2 0.780946 0.786783 0.426473
O O3 0.854114 0.858151 0.632205
O O4 0.068951 0.774872 0.410506
O O5 0.380080 0.729741 0.795886
O O6 0.798346 0.527809 0.866648
O O7 0.331560 0.937631 0.945333
O O8 0.132120 0.668281 0.991744
O O9 0.454403 0.544104 0.723751
O O10 0.370819 0.339188 0.765171
O O11 0.852324 0.187668 0.794511
O O12 0.407302 0.142063 0.913289
O O13 0.103650 0.073133 0.164676
O O14 0.025659 0.257148 0.214015
O O15 0.597652 0.926424 0.284073
O O16 0.188851 0.604250 0.351043
O O17 0.500000 0.000000 0.500000
#
# Coordination Sequence:
#
# PCOD9102300 Si02
#       8
#     2   2   2   2   2   2   2   2
#     4  10  20  38  62  90 129 164 202 263 311 374
#     4  10  23  43  64  88 128 169 207 267 324 360
#     4  10  21  39  63  94 124 160 218 256 312 383
#     4  10  22  41  65  93 123 163 217 267 308 380
#     4  10  22  42  63  94 129 162 215 259 314 382
#     4  12  23  41  65  94 127 171 210 255 317 380
#     4  10  21  40  60  90 129 165 203 262 320 371
#     4  10  24  43  61  92 132 169 204 267 318 368
#
# _framework density 25.400791000000002
#
# number of rings (size 3 to 8) (size 9 to 14) (size 15 to 20)
#    0.000    1.750    2.500    1.500    1.750    2.000 
#    4.500    1.250    0.000    0.000    0.000    0.000 
#    0.000    0.000    0.000    0.000    0.000    0.000 
#
# Total GULP energy -89215.196868 kJ/mol
# GULP energy per Si atom -5575.949804 kJ/mol
# Density = 2.534298 g / cm^3
# Si number density = 25.400791 Si / 1000 Ang^3
#
#
#
# Elastic Constant Matrix: (Units=GPa)
#
#
# Indices 1 2 3 4 5 6 
#
# 1 117.9705 44.7858 18.9119 9.8362 28.3139 16.7324
# 2 44.7858 30.9072 123.4778 27.0259 97.9385 -20.7885
# 3 18.9119 123.4778 -45.3514 -43.8078 -92.7077 27.9406
# 4 9.8362 27.0259 -43.8078 11.6245 -29.8623 22.7629
# 5 28.3139 97.9385 -92.7077 -29.8623 -42.7674 26.4175
# 6 16.7324 -20.7885 27.9406 22.7629 26.4175 44.9076
#
#
#
# Elastic Compliance Matrix: (Units=1/GPa)
#
#
# Indices 1 2 3 4 5 6 
#
# 1 0.011989 -0.004976 0.000132 -0.002323 -0.004127 -0.003247
# 2 -0.004976 0.008429 0.001890 0.008309 0.004647 -0.002366
# 3 0.000132 0.001890 0.008587 -0.003492 -0.009871 0.003060
# 4 -0.002323 0.008309 -0.003492 0.044093 -0.011208 -0.008872
# 5 -0.004127 0.004647 -0.009871 -0.011208 0.017114 0.005444
# 6 -0.003247 -0.002366 0.003060 -0.008872 0.005444 0.021774
#
#
# Mechanical properties :
#
#
# Convention : Reuss Voigt Hill
#
# Bulk Modulus (GPa) = 43.29208 53.09749 48.19478
# Shear Modulus (GPa) = 39.81143 -2.82366 18.49389
#
# Velocity S-wave (km/s) = 3.96325 -1.05549 2.70123
# Velocity P-wave (km/s) = 6.16634 4.41178 5.36132
#
# Compressibility (1/GPa) = 0.02309891
#
# Stress axis : x y z
#
# Youngs Moduli (GPa) = 83.40814 118.63869 116.44991
#
# Poissons Ratio (x) = 0.59030 -0.01536
# Poissons Ratio (y) = 0.41501 -0.22013
# Poissons Ratio (z) = -0.01100 -0.22427
#
# Static dielectric constant tensor:
#      x y z
#    x 2.226240 0.020280 0.053510 
#    y 0.020280 1.976350 0.149810 
#    z 0.053510 0.149810 2.046460 
# 
# From -- ./inp_files/379610.got.cif
#   From: 2010.05.17/outbox.cif.g08.bks.cpg/sg2_190_cif.got.tgz:379610.got - 2010.06.03 11:33:40.
