data_PCOD9102988
_publ_section_title
;
Structure prediction by ZEFSAII (Michael W. Deem and Ramdas Pophale) SiO2 
 PCOD9102988
Probable space group: P -1
;
_chemical_formula_sum "Si O2"
_cell_formula_units_Z 14
_cell_length_a 10.215274
_cell_length_b 18.608630
_cell_length_c 13.289056
_cell_angle_alpha 148.046438
_cell_angle_beta 31.067356
_cell_angle_gamma 129.355922
_cell_volume 649.009124
_symmetry_space_group_name_H-M "P -1"
_symmetry_group_IT_number 2
_symmetry_cell_setting 'triclinic'
loop_
_space_group_symop_operation_xyz
x,y,z
-x,-y,-z
loop_
_atom_site_type_symbol
_atom_site_label
_atom_site_fract_x
_atom_site_fract_y
_atom_site_fract_z
Si Si1 0.309084 0.297265 0.038198
Si Si2 0.298877 0.591328 0.465572
Si Si3 0.098068 0.119897 0.632688
Si Si4 0.800468 0.038739 0.428355
Si Si5 0.550388 0.352795 0.350002
Si Si6 0.253387 0.149831 0.351945
Si Si7 0.027108 0.856518 0.869419
O O1 0.403136 0.428370 0.164378
O O2 0.025977 0.371919 0.254766
O O3 0.556031 0.159788 0.676637
O O4 0.189361 0.219061 0.111535
O O5 0.437741 0.611390 0.498546
O O6 0.294830 0.716280 0.536644
O O7 0.221120 0.178814 0.527801
O O8 0.271852 0.040070 0.519921
O O9 0.000000 0.000000 0.500000
O O10 0.835709 0.240405 0.992979
O O11 0.995945 0.120747 0.439859
O O12 0.954899 0.916695 0.102351
O O13 0.500000 0.500000 0.500000
O O14 0.330669 0.273508 0.391005
O O15 0.500000 0.000000 0.000000
O O16 0.000000 0.000000 0.000000
#
# Coordination Sequence:
#
# PCOD9102988 Si02
#       7
#     2   2   2   2   2   2   2
#     4   9  21  40  65  84 127 174 211 268 327 384
#     4   9  21  43  60  89 134 171 211 265 330 386
#     4  10  21  41  65  95 129 174 218 273 325 383
#     4  11  21  39  68  98 126 171 227 272 326 391
#     4  12  25  42  68  98 138 174 216 274 339 392
#     4  11  23  42  66  98 133 172 223 269 329 396
#     4  10  20  38  64  95 122 167 219 265 326 383
#
# _framework density 21.571345000000001
#
# number of rings (size 3 to 8) (size 9 to 14) (size 15 to 20)
#    0.857    0.857    4.286    0.429    4.000    4.000 
#    0.000    0.714    0.000    0.000    0.000    0.000 
#    0.000    0.000    0.000    0.000    0.000    0.000 
#
# Total GULP energy -77937.958836 kJ/mol
# GULP energy per Si atom -5566.997060 kJ/mol
# Density = 2.152225 g / cm^3
# Si number density = 21.571345 Si / 1000 Ang^3
#
#
#
# Elastic Constant Matrix: (Units=GPa)
#
#
# Indices 1 2 3 4 5 6 
#
# 1 44.5477 18.1221 -3.9061 5.5038 2.2423 -3.8605
# 2 18.1221 137.0357 19.0776 34.4417 0.7815 -13.3576
# 3 -3.9061 19.0776 47.5648 30.2579 0.4365 -5.3957
# 4 5.5038 34.4417 30.2579 41.7737 0.9535 -1.6841
# 5 2.2423 0.7815 0.4365 0.9535 29.7358 0.9849
# 6 -3.8605 -13.3576 -5.3957 -1.6841 0.9849 29.1591
#
#
#
# Elastic Compliance Matrix: (Units=1/GPa)
#
#
# Indices 1 2 3 4 5 6 
#
# 1 0.025326 -0.002375 0.007781 -0.006836 -0.001854 0.003373
# 2 -0.002375 0.010084 0.002257 -0.009468 0.000046 0.004174
# 3 0.007781 0.002257 0.043218 -0.033852 -0.000464 0.008122
# 4 -0.006836 -0.009468 -0.033852 0.056841 -0.000289 -0.008214
# 5 -0.001854 0.000046 -0.000464 -0.000289 0.033833 -0.001470
# 6 0.003373 0.004174 0.008122 -0.008214 -0.001470 0.037731
#
#
# Mechanical properties :
#
#
# Convention : Reuss Voigt Hill
#
# Bulk Modulus (GPa) = 10.64358 32.85948 21.75153
# Shear Modulus (GPa) = 22.41901 33.19068 27.80484
#
# Velocity S-wave (km/s) = 3.22731 3.92681 3.59412
# Velocity P-wave (km/s) = 4.33961 5.98547 5.22772
#
# Compressibility (1/GPa) = 0.09395337
#
# Stress axis : x y z
#
# Youngs Moduli (GPa) = 39.48434 99.17156 23.13864
#
# Poissons Ratio (x) = 0.23553 -0.18004
# Poissons Ratio (y) = 0.09377 -0.05222
# Poissons Ratio (z) = -0.30723 -0.22381
#
# Static dielectric constant tensor:
#      x y z
#    x 1.804960 -0.002090 -0.024640 
#    y -0.002090 1.869780 -0.046910 
#    z -0.024640 -0.046910 1.745040 
# 
# From -- ./inp_files/523929.got.cif
#   From: 2010.05.17/outbox.cif.g08.bks.cpg/sg2_262_cif.got.tgz:523929.got - 2010.06.03 11:33:40.
