data_PCOD9102476
_publ_section_title
;
Structure prediction by ZEFSAII (Michael W. Deem and Ramdas Pophale) SiO2 
 PCOD9102476
Probable space group: P -1
;
_chemical_formula_sum "Si O2"
_cell_formula_units_Z 15
_cell_length_a 9.084998
_cell_length_b 12.018170
_cell_length_c 11.398275
_cell_angle_alpha 145.231133
_cell_angle_beta 108.899986
_cell_angle_gamma 92.260742
_cell_volume 553.404589
_symmetry_space_group_name_H-M "P -1"
_symmetry_group_IT_number 2
_symmetry_cell_setting 'triclinic'
loop_
_space_group_symop_operation_xyz
x,y,z
-x,-y,-z
loop_
_atom_site_type_symbol
_atom_site_label
_atom_site_fract_x
_atom_site_fract_y
_atom_site_fract_z
Si Si1 0.178694 0.001388 0.580464
Si Si2 0.500000 0.000000 0.000000
Si Si3 0.060133 0.308654 0.169002
Si Si4 0.887032 0.209854 0.387172
Si Si5 0.256400 0.377573 0.506985
Si Si6 0.528293 0.284470 0.805549
Si Si7 0.661523 0.149074 0.952893
Si Si8 0.343589 0.469151 0.172570
O O1 0.313702 0.053112 0.551167
O O2 0.124265 0.798453 0.481870
O O3 0.298375 0.228390 0.893077
O O4 0.000000 0.000000 0.500000
O O5 0.702564 0.028125 0.106702
O O6 0.502313 0.928503 0.797437
O O7 0.066972 0.536585 0.412486
O O8 0.177704 0.281969 0.275281
O O9 0.173317 0.374829 0.135959
O O10 0.835007 0.129080 0.954848
O O11 0.074625 0.223143 0.410839
O O12 0.315516 0.653706 0.774014
O O13 0.447198 0.405367 0.613464
O O14 0.640858 0.359348 0.778181
O O15 0.500000 0.500000 0.000000
O O16 0.620423 0.236688 0.897692
#
# Coordination Sequence:
#
# PCOD9102476 Si02
#       8
#     2   1   2   2   2   2   2   2
#     4  11  23  40  64  90 119 166 216 253 305 377
#     4  12  18  38  62  96 124 154 206 264 302 348
#     4  11  24  39  62  99 125 163 205 261 314 369
#     4  11  22  37  69  92 119 163 218 254 301 374
#     4  11  19  41  64  91 122 174 210 242 305 396
#     4  10  20  38  63  86 119 171 212 247 300 380
#     4  11  20  38  66  91 124 163 214 251 302 380
#     4  11  24  42  63  89 132 164 205 262 316 363
#
# _framework density 27.104942000000001
#
# number of rings (size 3 to 8) (size 9 to 14) (size 15 to 20)
#    0.000    1.067    6.667    2.000    5.600    0.533 
#    0.000    4.000    0.000    0.000    0.000    0.000 
#    0.000    0.000    0.000    0.000    0.000    0.000 
#
# Total GULP energy -83667.120432 kJ/mol
# GULP energy per Si atom -5577.808029 kJ/mol
# Density = 2.704325 g / cm^3
# Si number density = 27.104942 Si / 1000 Ang^3
#
#
#
# Elastic Constant Matrix: (Units=GPa)
#
#
# Indices 1 2 3 4 5 6 
#
# 1 137.5700 24.9143 30.0188 -2.9042 7.6279 25.7389
# 2 24.9143 83.3914 -7.8164 -25.2448 -11.2089 -3.5233
# 3 30.0188 -7.8164 53.0171 -2.5219 18.8045 -22.6921
# 4 -2.9042 -25.2448 -2.5219 35.9601 -5.7259 5.0314
# 5 7.6279 -11.2089 18.8045 -5.7259 37.0785 -3.7929
# 6 25.7389 -3.5233 -22.6921 5.0314 -3.7929 55.9248
#
#
#
# Elastic Compliance Matrix: (Units=1/GPa)
#
#
# Indices 1 2 3 4 5 6 
#
# 1 0.013926 -0.006803 -0.014642 -0.002806 0.000795 -0.012473
# 2 -0.006803 0.020250 0.008252 0.014275 0.006246 0.006894
# 3 -0.014642 0.008252 0.043562 0.002134 -0.013821 0.023805
# 4 -0.002806 0.014275 0.002134 0.039302 0.009899 0.000192
# 5 0.000795 0.006246 -0.013821 0.009899 0.036826 -0.003974
# 6 -0.012473 0.006894 0.023805 0.000192 -0.003974 0.033429
#
#
# Mechanical properties :
#
#
# Convention : Reuss Voigt Hill
#
# Bulk Modulus (GPa) = 19.47376 40.91242 30.19309
# Shear Modulus (GPa) = 21.66390 40.91678 31.29034
#
# Velocity S-wave (km/s) = 2.83019 3.88953 3.40135
# Velocity P-wave (km/s) = 4.22849 5.94122 5.15646
#
# Compressibility (1/GPa) = 0.05135115
#
# Stress axis : x y z
#
# Youngs Moduli (GPa) = 71.80590 49.38350 22.95590
#
# Poissons Ratio (x) = 0.33594 0.33613
# Poissons Ratio (y) = 0.48847 -0.18943
# Poissons Ratio (z) = 1.05141 -0.40750
#
# Static dielectric constant tensor:
#      x y z
#    x 2.112750 -0.099730 -0.109930 
#    y -0.099730 1.933900 -0.180560 
#    z -0.109930 -0.180560 2.043760 
# 
# From -- ./inp_files/177335.got.cif
#   From: 2010.05.17/outbox.cif.g08.bks.cpg/sg2_89_cif.got.tgz:177335.got - 2010.06.03 11:33:40.
