data_PCOD9102866
_publ_section_title
;
Structure prediction by ZEFSAII (Michael W. Deem and Ramdas Pophale) SiO2 
 PCOD9102866
Probable space group: P -1
;
_chemical_formula_sum "Si O2"
_cell_formula_units_Z 16
_cell_length_a 16.167854
_cell_length_b 20.017635
_cell_length_c 9.490841
_cell_angle_alpha 40.895601
_cell_angle_beta 141.107223
_cell_angle_gamma 161.162702
_cell_volume 619.882025
_symmetry_space_group_name_H-M "P -1"
_symmetry_group_IT_number 2
_symmetry_cell_setting 'triclinic'
loop_
_space_group_symop_operation_xyz
x,y,z
-x,-y,-z
loop_
_atom_site_type_symbol
_atom_site_label
_atom_site_fract_x
_atom_site_fract_y
_atom_site_fract_z
Si Si1 0.344876 0.980359 0.110917
Si Si2 0.219771 0.225187 0.193045
Si Si3 0.678888 0.470414 0.190123
Si Si4 0.712799 0.936849 0.828499
Si Si5 0.706382 0.049171 0.368433
Si Si6 0.065981 0.378000 0.071970
Si Si7 0.508650 0.705098 0.317566
Si Si8 0.169964 0.567112 0.329906
O O1 0.352335 0.014951 0.228814
O O2 0.591356 0.076103 0.238121
O O3 0.077799 0.744760 0.071084
O O4 0.363642 0.102370 0.865551
O O5 0.439455 0.329345 0.211374
O O6 0.281635 0.217687 0.437052
O O7 0.251915 0.368522 0.017631
O O8 0.933108 0.016983 0.071879
O O9 0.547045 0.305249 0.166451
O O10 0.893359 0.551399 0.436824
O O11 0.824858 0.060912 0.633480
O O12 0.883463 0.195289 0.235835
O O13 0.443863 0.811614 0.345778
O O14 0.369195 0.557766 0.233433
O O15 0.036629 0.480781 0.888092
O O16 0.258466 0.562467 0.318760
#
# Coordination Sequence:
#
# PCOD9102866 Si02
#       8
#     2   2   2   2   2   2   2   2
#     4  11  23  41  57  92 127 152 192 244 296 366
#     4  10  23  40  61  89 115 155 208 247 280 350
#     4   9  21  39  61  88 120 147 203 252 287 346
#     4  11  24  39  63  86 124 162 187 239 312 346
#     4  10  20  38  64  91 118 153 200 243 292 354
#     4  11  21  36  65  91 117 156 196 246 295 343
#     4  11  22  36  62  89 115 156 205 242 290 343
#     4   9  17  36  59  92 116 144 194 252 289 341
#
# _framework density 25.811361999999999
#
# number of rings (size 3 to 8) (size 9 to 14) (size 15 to 20)
#    0.000    1.750    2.500    1.875    5.250    2.500 
#    0.000    1.250    0.000    6.000    0.000    0.000 
#    0.000    0.000    0.000    0.000    0.000    0.000 
#
# Total GULP energy -89631.624444 kJ/mol
# GULP energy per Si atom -5601.976528 kJ/mol
# Density = 2.575261 g / cm^3
# Si number density = 25.811362 Si / 1000 Ang^3
#
#
#
# Elastic Constant Matrix: (Units=GPa)
#
#
# Indices 1 2 3 4 5 6 
#
# 1 77.8758 4.4021 11.5658 -0.0640 -15.6039 -17.5595
# 2 4.4021 104.5882 39.1040 6.7703 4.7723 -30.7538
# 3 11.5658 39.1040 175.5277 5.2234 2.1099 -8.4035
# 4 -0.0640 6.7703 5.2234 45.8949 -6.5233 3.0184
# 5 -15.6039 4.7723 2.1099 -6.5233 29.8552 6.8324
# 6 -17.5595 -30.7538 -8.4035 3.0184 6.8324 37.9576
#
#
#
# Elastic Compliance Matrix: (Units=1/GPa)
#
#
# Indices 1 2 3 4 5 6 
#
# 1 0.015841 0.001515 -0.001133 0.000397 0.006582 0.007089
# 2 0.001515 0.014880 -0.002605 -0.003523 -0.005240 0.013403
# 3 -0.001133 -0.002605 0.006313 -0.000323 -0.000433 -0.001134
# 4 0.000397 -0.003523 -0.000323 0.023783 0.007353 -0.005957
# 5 0.006582 -0.005240 -0.000433 0.007353 0.041552 -0.009360
# 6 0.007089 0.013403 -0.001134 -0.005957 -0.009360 0.042392
#
#
# Mechanical properties :
#
#
# Convention : Reuss Voigt Hill
#
# Bulk Modulus (GPa) = 30.68638 52.01505 41.35072
# Shear Modulus (GPa) = 31.23674 42.93620 37.08647
#
# Velocity S-wave (km/s) = 3.48256 4.08298 3.79466
# Velocity P-wave (km/s) = 5.29957 6.51332 5.93754
#
# Compressibility (1/GPa) = 0.03258774
#
# Stress axis : x y z
#
# Youngs Moduli (GPa) = 63.12730 67.20470 158.41124
#
# Poissons Ratio (x) = -0.10183 0.17946
# Poissons Ratio (y) = -0.09565 0.41271
# Poissons Ratio (z) = 0.07152 0.17509
#
# Static dielectric constant tensor:
#      x y z
#    x 2.085770 0.033720 -0.057240 
#    y 0.033720 2.038890 0.002880 
#    z -0.057240 0.002880 2.005500 
# 
# From -- ./inp_files/226521.got.cif
#   From: 2010.05.17/outbox.cif.g08.bks.cpg/sg2_114_cif.got.tgz:226521.got - 2010.06.03 11:33:40.
