data_PCOD9102976
_publ_section_title
;
Structure prediction by ZEFSAII (Michael W. Deem and Ramdas Pophale) SiO2 
 PCOD9102976
Probable space group: P -1
;
_chemical_formula_sum "Si O2"
_cell_formula_units_Z 14
_cell_length_a 5.185358
_cell_length_b 15.029623
_cell_length_c 8.317097
_cell_angle_alpha 62.603612
_cell_angle_beta 106.708438
_cell_angle_gamma 84.127357
_cell_volume 529.797115
_symmetry_space_group_name_H-M "P -1"
_symmetry_group_IT_number 2
_symmetry_cell_setting 'triclinic'
loop_
_space_group_symop_operation_xyz
x,y,z
-x,-y,-z
loop_
_atom_site_type_symbol
_atom_site_label
_atom_site_fract_x
_atom_site_fract_y
_atom_site_fract_z
Si Si1 0.170703 0.070204 0.690770
Si Si2 0.910842 0.419382 0.669582
Si Si3 0.201486 0.082910 0.341053
Si Si4 0.339125 0.624965 0.843767
Si Si5 0.561144 0.297790 0.867343
Si Si6 0.329738 0.116865 0.001275
Si Si7 0.182066 0.418324 0.230468
O O1 0.125873 0.133504 0.462341
O O2 0.493646 0.002542 0.832253
O O3 0.113849 0.124406 0.809385
O O4 0.002350 0.986007 0.692447
O O5 0.711070 0.341723 0.711195
O O6 0.737253 0.504550 0.695984
O O7 0.000000 0.500000 0.500000
O O8 0.232008 0.351346 0.809173
O O9 0.217753 0.152055 0.131308
O O10 0.500000 0.000000 0.500000
O O11 0.557293 0.659955 0.741351
O O12 0.049851 0.631103 0.698221
O O13 0.500000 0.500000 0.000000
O O14 0.291506 0.681893 0.957927
O O15 0.545703 0.181277 0.934940
O O16 0.000000 0.500000 0.000000
#
# Coordination Sequence:
#
# PCOD9102976 Si02
#       7
#     2   2   2   2   2   2   2
#     4   9  19  40  64  92 133 169 212 255 329 401
#     4  12  24  40  60  87 124 168 209 266 331 379
#     4   9  18  37  65  93 121 168 212 255 321 404
#     4  10  16  32  59  81 105 148 203 251 297 357
#     4  12  23  39  62  93 124 162 221 267 311 394
#     4  10  22  36  64  95 126 175 211 268 328 380
#     4  10  16  34  60  78 101 149 204 244 299 374
#
# _framework density 26.425215000000001
#
# number of rings (size 3 to 8) (size 9 to 14) (size 15 to 20)
#    0.000    1.714    5.714    0.857    2.000    0.000 
#    0.000    2.857    3.143    0.000    0.000    0.000 
#    0.000    0.000    0.000    0.000    0.000    0.000 
#
# Total GULP energy -77994.430276 kJ/mol
# GULP energy per Si atom -5571.030734 kJ/mol
# Density = 2.636507 g / cm^3
# Si number density = 26.425215 Si / 1000 Ang^3
#
#
#
# Elastic Constant Matrix: (Units=GPa)
#
#
# Indices 1 2 3 4 5 6 
#
# 1 139.3938 16.8113 33.0335 -3.2444 -22.1785 13.1661
# 2 16.8113 98.9363 55.4302 8.4005 -7.2144 11.6261
# 3 33.0335 55.4302 156.1166 16.1325 -35.9833 13.0403
# 4 -3.2444 8.4005 16.1325 29.6299 1.9393 -2.8228
# 5 -22.1785 -7.2144 -35.9833 1.9393 45.9457 -6.0326
# 6 13.1661 11.6261 13.0403 -2.8228 -6.0326 40.8039
#
#
#
# Elastic Compliance Matrix: (Units=1/GPa)
#
#
# Indices 1 2 3 4 5 6 
#
# 1 0.008085 -0.000614 -0.000801 0.001146 0.002912 -0.001668
# 2 -0.000614 0.013069 -0.004669 -0.001322 -0.002166 -0.002445
# 3 -0.000801 -0.004669 0.010496 -0.005049 0.007175 -0.001054
# 4 0.001146 -0.001322 -0.005049 0.037645 -0.004735 0.003525
# 5 0.002912 -0.002166 0.007175 -0.004735 0.028823 0.001318
# 6 -0.001668 -0.002445 -0.001054 0.003525 0.001318 0.026518
#
#
# Mechanical properties :
#
#
# Convention : Reuss Voigt Hill
#
# Bulk Modulus (GPa) = 51.32539 67.22187 59.27363
# Shear Modulus (GPa) = 34.89234 42.55401 38.72317
#
# Velocity S-wave (km/s) = 3.63770 4.01728 3.83219
# Velocity P-wave (km/s) = 6.09170 6.85651 6.48539
#
# Compressibility (1/GPa) = 0.01948354
#
# Stress axis : x y z
#
# Youngs Moduli (GPa) = 123.68161 76.51552 95.27242
#
# Poissons Ratio (x) = 0.04700 0.07627
# Poissons Ratio (y) = 0.07597 0.44481
# Poissons Ratio (z) = 0.09902 0.35723
#
# Static dielectric constant tensor:
#      x y z
#    x 2.457430 0.043230 0.014380 
#    y 0.043230 2.145430 -0.012700 
#    z 0.014380 -0.012700 2.263800 
# 
# From -- ./inp_files/136611.got.cif
#   From: 2010.05.17/outbox.cif.g08.bks.cpg/sg2_69_cif.got.tgz:136611.got - 2010.06.03 11:33:40.
