data_PCOD9102646
_publ_section_title
;
Structure prediction by ZEFSAII (Michael W. Deem and Ramdas Pophale) SiO2 
 PCOD9102646
Probable space group: P -1
;
_chemical_formula_sum "Si O2"
_cell_formula_units_Z 12
_cell_length_a 11.462021
_cell_length_b 5.324386
_cell_length_c 12.004679
_cell_angle_alpha 133.677462
_cell_angle_beta 59.569992
_cell_angle_gamma 111.885125
_cell_volume 456.562994
_symmetry_space_group_name_H-M "P -1"
_symmetry_group_IT_number 2
_symmetry_cell_setting 'triclinic'
loop_
_space_group_symop_operation_xyz
x,y,z
-x,-y,-z
loop_
_atom_site_type_symbol
_atom_site_label
_atom_site_fract_x
_atom_site_fract_y
_atom_site_fract_z
Si Si1 0.330380 0.500879 0.417800
Si Si2 0.468118 0.034023 0.870596
Si Si3 0.068016 0.955918 0.099667
Si Si4 0.940497 0.870542 0.604826
Si Si5 0.775549 0.114592 0.197676
Si Si6 0.701992 0.497732 0.803745
O O1 0.215638 0.198644 0.367357
O O2 0.286968 0.677676 0.606419
O O3 0.303068 0.693742 0.372423
O O4 0.479709 0.352435 0.294570
O O5 0.600192 0.277491 0.862244
O O6 0.355198 0.101568 0.850137
O O7 0.384811 0.146069 0.054199
O O8 0.052389 0.881526 0.215344
O O9 0.152486 0.336346 0.178156
O O10 0.162469 0.734824 0.904590
O O11 0.915489 0.965636 0.130603
O O12 0.000000 0.500000 0.500000
O O13 0.000000 0.000000 0.500000
#
# Coordination Sequence:
#
# PCOD9102646 Si02
#       6
#     2   2   2   2   2   2
#     4  11  22  35  65  91 131 167 227 270 340 396
#     4  10  21  38  61  90 128 172 218 277 338 399
#     4   9  20  41  65  90 133 171 226 272 343 394
#     4  11  24  43  71 101 134 178 235 283 333 403
#     4  10  20  38  63  93 135 174 215 279 339 411
#     4   9  21  39  61  88 123 173 222 278 327 403
#
# _framework density 26.283337
#
# number of rings (size 3 to 8) (size 9 to 14) (size 15 to 20)
#    0.000    2.000    1.667    1.000    4.667    0.667 
#    0.000    2.500    3.667    0.000    0.000    0.000 
#    0.000    0.000    0.000    0.000    0.000    0.000 
#
# Total GULP energy -66834.392475 kJ/mol
# GULP energy per Si atom -5569.532706 kJ/mol
# Density = 2.622351 g / cm^3
# Si number density = 26.283337 Si / 1000 Ang^3
#
#
#
# Elastic Constant Matrix: (Units=GPa)
#
#
# Indices 1 2 3 4 5 6 
#
# 1 138.5068 41.7868 48.0522 8.0512 -1.0536 13.0824
# 2 41.7868 91.0480 34.9528 -32.4383 4.0638 2.6582
# 3 48.0522 34.9528 232.0152 -40.0949 7.9085 -16.1475
# 4 8.0512 -32.4383 -40.0949 40.9657 -3.7893 9.9848
# 5 -1.0536 4.0638 7.9085 -3.7893 53.6786 0.3598
# 6 13.0824 2.6582 -16.1475 9.9848 0.3598 31.9648
#
#
#
# Elastic Compliance Matrix: (Units=1/GPa)
#
#
# Indices 1 2 3 4 5 6 
#
# 1 0.011707 -0.008107 -0.003348 -0.011397 0.000547 -0.002255
# 2 -0.008107 0.021894 0.001856 0.021760 -0.000525 -0.004357
# 3 -0.003348 0.001856 0.006206 0.007668 -0.000592 0.001963
# 4 -0.011397 0.021760 0.007668 0.053936 0.000875 -0.010129
# 5 0.000547 -0.000525 -0.000592 0.000875 0.018835 -0.000965
# 6 -0.002255 -0.004357 0.001963 -0.010129 -0.000965 0.036736
#
#
# Mechanical properties :
#
#
# Convention : Reuss Voigt Hill
#
# Bulk Modulus (GPa) = 48.52394 79.01706 63.77050
# Shear Modulus (GPa) = 28.50913 47.77372 38.14142
#
# Velocity S-wave (km/s) = 3.29703 4.26801 3.81355
# Velocity P-wave (km/s) = 5.74420 7.37677 6.61107
#
# Compressibility (1/GPa) = 0.02060838
#
# Stress axis : x y z
#
# Youngs Moduli (GPa) = 85.41994 45.67366 161.13528
#
# Poissons Ratio (x) = 0.37025 0.53956
# Poissons Ratio (y) = 0.69246 -0.29899
# Poissons Ratio (z) = 0.28603 -0.08475
#
# Static dielectric constant tensor:
#      x y z
#    x 2.102820 -0.128770 -0.007290 
#    y -0.128770 2.304920 0.004760 
#    z -0.007290 0.004760 2.317330 
# 
# From -- ./inp_files/409716.got.cif
#   From: 2010.05.17/outbox.cif.g08.bks.cpg/sg2_205_cif.got.tgz:409716.got - 2010.06.03 11:33:40.
