data_PCOD9102341
_publ_section_title
;
Structure prediction by ZEFSAII (Michael W. Deem and Ramdas Pophale) SiO2 
 PCOD9102341
Probable space group: P -1
;
_chemical_formula_sum "Si O2"
_cell_formula_units_Z 14
_cell_length_a 12.728069
_cell_length_b 11.999984
_cell_length_c 9.963648
_cell_angle_alpha 118.838313
_cell_angle_beta 36.038157
_cell_angle_gamma 95.075369
_cell_volume 635.995429
_symmetry_space_group_name_H-M "P -1"
_symmetry_group_IT_number 2
_symmetry_cell_setting 'triclinic'
loop_
_space_group_symop_operation_xyz
x,y,z
-x,-y,-z
loop_
_atom_site_type_symbol
_atom_site_label
_atom_site_fract_x
_atom_site_fract_y
_atom_site_fract_z
Si Si1 0.869322 0.017063 0.953356
Si Si2 0.677989 0.866159 0.637938
Si Si3 0.890838 0.172775 0.769891
Si Si4 0.460494 0.059799 0.728021
Si Si5 0.663868 0.218900 0.557106
Si Si6 0.512284 0.508400 0.286195
Si Si7 0.746031 0.562972 0.308853
O O1 0.126721 0.875342 0.616452
O O2 0.826222 0.147218 0.968215
O O3 0.744050 0.937023 0.005706
O O4 0.768323 0.111247 0.251708
O O5 0.637233 0.734730 0.582478
O O6 0.919683 0.800196 0.400728
O O7 0.655139 0.937134 0.555191
O O8 0.500000 0.000000 0.000000
O O9 0.689370 0.320602 0.985995
O O10 0.000000 0.000000 0.500000
O O11 0.468999 0.208377 0.804027
O O12 0.500000 0.000000 0.500000
O O13 0.571152 0.391953 0.705048
O O14 0.636159 0.563303 0.282646
O O15 0.307846 0.531653 0.591768
O O16 0.000000 0.500000 0.000000
#
# Coordination Sequence:
#
# PCOD9102341 Si02
#       7
#     2   2   2   2   2   2   2
#     4  10  20  38  62  92 125 173 216 265 325 400
#     4  12  24  42  69 101 136 178 231 284 339 406
#     4  12  24  43  67  94 135 179 227 280 344 404
#     4  10  20  38  64  94 130 174 224 270 328 407
#     4  10  21  36  62  94 130 164 215 271 328 394
#     4  11  23  40  64 101 135 170 227 286 333 396
#     4  11  22  39  64  97 136 175 222 278 334 396
#
# _framework density 22.012734999999999
#
# number of rings (size 3 to 8) (size 9 to 14) (size 15 to 20)
#    0.000    1.143    2.857    6.000    0.000    1.143 
#    0.000    0.714    0.000    1.714    0.000    0.000 
#    0.000    0.000    0.000    0.000    0.000    0.000 
#
# Total GULP energy -78194.744098 kJ/mol
# GULP energy per Si atom -5585.338864 kJ/mol
# Density = 2.196263 g / cm^3
# Si number density = 22.012735 Si / 1000 Ang^3
#
#
#
# Elastic Constant Matrix: (Units=GPa)
#
#
# Indices 1 2 3 4 5 6 
#
# 1 36.6974 22.2678 29.6739 10.0781 -5.8642 7.4348
# 2 22.2678 146.7179 46.0864 13.4156 -20.3416 4.1837
# 3 29.6739 46.0864 92.8711 7.4224 -19.6530 10.2941
# 4 10.0781 13.4156 7.4224 41.6610 5.3053 -10.3244
# 5 -5.8642 -20.3416 -19.6530 5.3053 36.2170 4.0137
# 6 7.4348 4.1837 10.2941 -10.3244 4.0137 37.5086
#
#
#
# Elastic Compliance Matrix: (Units=1/GPa)
#
#
# Indices 1 2 3 4 5 6 
#
# 1 0.041248 -0.001550 -0.010111 -0.010079 0.002718 -0.008293
# 2 -0.001550 0.008683 -0.002711 -0.002663 0.003661 -0.001042
# 3 -0.010111 -0.002711 0.017317 -0.001533 0.006861 -0.003602
# 4 -0.010079 -0.002663 -0.001533 0.031970 -0.010038 0.012590
# 5 0.002718 0.003661 0.006861 -0.010038 0.036352 -0.009483
# 6 -0.008293 -0.001042 -0.003602 0.012590 -0.009483 0.033889
#
#
# Mechanical properties :
#
#
# Convention : Reuss Voigt Hill
#
# Bulk Modulus (GPa) = 25.96975 52.48252 39.22614
# Shear Modulus (GPa) = 23.69243 34.96119 29.32681
#
# Velocity S-wave (km/s) = 3.28427 3.98958 3.65398
# Velocity P-wave (km/s) = 5.11909 6.71684 5.97164
#
# Compressibility (1/GPa) = 0.03850633
#
# Stress axis : x y z
#
# Youngs Moduli (GPa) = 24.24345 115.16456 57.74623
#
# Poissons Ratio (x) = 0.17845 0.58385
# Poissons Ratio (y) = 0.03757 0.15655
# Poissons Ratio (z) = 0.24512 0.31220
#
# Static dielectric constant tensor:
#      x y z
#    x 1.743330 0.157050 -0.031480 
#    y 0.157050 1.596320 0.075400 
#    z -0.031480 0.075400 1.847130 
# 
# From -- ./inp_files/256552.got.cif
#   From: 2010.05.17/outbox.cif.g08.bks.cpg/sg2_129_cif.got.tgz:256552.got - 2010.06.03 11:33:40.
