data_PCOD9102084
_publ_section_title
;
Structure prediction by ZEFSAII (Michael W. Deem and Ramdas Pophale) SiO2 
 PCOD9102084
Probable space group: P -1
;
_chemical_formula_sum "Si O2"
_cell_formula_units_Z 16
_cell_length_a 6.002804
_cell_length_b 13.154281
_cell_length_c 10.199013
_cell_angle_alpha 61.898734
_cell_angle_beta 77.925550
_cell_angle_gamma 101.997178
_cell_volume 649.387306
_symmetry_space_group_name_H-M "P -1"
_symmetry_group_IT_number 2
_symmetry_cell_setting 'triclinic'
loop_
_space_group_symop_operation_xyz
x,y,z
-x,-y,-z
loop_
_atom_site_type_symbol
_atom_site_label
_atom_site_fract_x
_atom_site_fract_y
_atom_site_fract_z
Si Si1 0.854548 0.308771 0.475473
Si Si2 0.727853 0.755644 0.117252
Si Si3 0.984239 0.907902 0.441241
Si Si4 0.632149 0.877400 0.292520
Si Si5 0.659488 0.410323 0.191569
Si Si6 0.574393 0.950246 0.885072
Si Si7 0.696441 0.486404 0.714612
Si Si8 0.088914 0.651818 0.021112
O O1 0.634365 0.224842 0.642917
O O2 0.741108 0.373046 0.343200
O O3 0.941405 0.206777 0.457692
O O4 0.086532 0.411000 0.453036
O O5 0.790930 0.844662 0.181372
O O6 0.541346 0.616343 0.257009
O O7 0.973516 0.748048 0.030706
O O8 0.588828 0.818481 0.997937
O O9 0.721500 0.857911 0.435962
O O10 0.000000 0.000000 0.500000
O O11 0.165642 0.978731 0.258415
O O12 0.606203 0.010458 0.211222
O O13 0.407579 0.431540 0.227778
O O14 0.850040 0.546987 0.051833
O O15 0.701042 0.320792 0.130879
O O16 0.500000 0.000000 0.000000
O O17 0.823543 0.411471 0.831134
#
# Coordination Sequence:
#
# PCOD9102084 Si02
#       8
#     2   2   2   2   2   2   2   2
#     4  10  22  40  64  92 132 175 215 268 331 391
#     4  10  22  39  65 101 133 171 221 267 329 401
#     4  11  25  44  70  96 129 174 231 278 334 392
#     4  10  23  45  66  92 135 176 219 276 328 391
#     4   9  18  36  56  86 131 170 213 264 321 376
#     4   9  22  43  67  98 135 173 220 277 335 391
#     4  10  20  38  61  97 135 172 215 265 332 397
#     4   9  19  33  58  90 127 171 216 261 317 384
#
# _framework density 24.638607
#
# number of rings (size 3 to 8) (size 9 to 14) (size 15 to 20)
#    0.000    2.250    0.000    1.125    1.750    9.500 
#    2.250    8.750    0.000    0.000    0.000    0.000 
#    0.000    0.000    0.000    0.000    0.000    0.000 
#
# Total GULP energy -89275.141418 kJ/mol
# GULP energy per Si atom -5579.696339 kJ/mol
# Density = 2.458253 g / cm^3
# Si number density = 24.638607 Si / 1000 Ang^3
#
#
#
# Elastic Constant Matrix: (Units=GPa)
#
#
# Indices 1 2 3 4 5 6 
#
# 1 88.8550 65.4750 24.4279 -0.0157 -3.1737 -29.0640
# 2 65.4750 118.2176 36.4606 3.1684 -14.9035 -35.2996
# 3 24.4279 36.4606 55.7005 -14.2896 -15.2274 0.8480
# 4 -0.0157 3.1684 -14.2896 37.3634 1.0284 -5.6310
# 5 -3.1737 -14.9035 -15.2274 1.0284 39.1405 -11.3422
# 6 -29.0640 -35.2996 0.8480 -5.6310 -11.3422 55.5454
#
#
#
# Elastic Compliance Matrix: (Units=1/GPa)
#
#
# Indices 1 2 3 4 5 6 
#
# 1 0.020311 -0.009029 -0.003527 0.000167 -0.001839 0.004585
# 2 -0.009029 0.019404 -0.008144 -0.003634 0.006077 0.008604
# 3 -0.003527 -0.008144 0.029463 0.011020 0.006318 -0.005064
# 4 0.000167 -0.003634 0.011020 0.031415 0.002468 0.001298
# 5 -0.001839 0.006077 0.006318 0.002468 0.032941 0.009780
# 6 0.004585 0.008604 -0.005064 0.001298 0.009780 0.028076
#
#
# Mechanical properties :
#
#
# Convention : Reuss Voigt Hill
#
# Bulk Modulus (GPa) = 36.00027 57.27779 46.63903
# Shear Modulus (GPa) = 23.55509 35.50384 29.52946
#
# Velocity S-wave (km/s) = 3.09532 3.80015 3.46570
# Velocity P-wave (km/s) = 5.23619 6.52323 5.91482
#
# Compressibility (1/GPa) = 0.02777757
#
# Stress axis : x y z
#
# Youngs Moduli (GPa) = 49.23411 51.53635 33.94137
#
# Poissons Ratio (x) = 0.46530 0.11972
# Poissons Ratio (y) = 0.44451 0.27642
# Poissons Ratio (z) = 0.17367 0.41971
#
# Static dielectric constant tensor:
#      x y z
#    x 1.969080 0.015980 -0.064450 
#    y 0.015980 2.023610 -0.031140 
#    z -0.064450 -0.031140 1.967920 
# 
# From -- ./inp_files/366798.got.cif
#   From: 2010.05.17/outbox.cif.g08.bks.cpg/sg2_184_cif.got.tgz:366798.got - 2010.06.03 11:33:40.
