data_PCOD9102942
_publ_section_title
;
Structure prediction by ZEFSAII (Michael W. Deem and Ramdas Pophale) SiO2 
 PCOD9102942
Probable space group: P -1
;
_chemical_formula_sum "Si O2"
_cell_formula_units_Z 16
_cell_length_a 11.127189
_cell_length_b 8.974914
_cell_length_c 20.589904
_cell_angle_alpha 148.315310
_cell_angle_beta 138.598866
_cell_angle_gamma 53.844998
_cell_volume 707.299560
_symmetry_space_group_name_H-M "P -1"
_symmetry_group_IT_number 2
_symmetry_cell_setting 'triclinic'
loop_
_space_group_symop_operation_xyz
x,y,z
-x,-y,-z
loop_
_atom_site_type_symbol
_atom_site_label
_atom_site_fract_x
_atom_site_fract_y
_atom_site_fract_z
Si Si1 0.295692 0.750847 0.005733
Si Si2 0.089751 0.798201 0.678430
Si Si3 0.478722 0.174880 0.661438
Si Si4 0.229166 0.833031 0.327556
Si Si5 0.646263 0.250428 0.123520
Si Si6 0.713291 0.654238 0.728535
Si Si7 0.280846 0.128394 0.768846
Si Si8 0.667476 0.278491 0.458481
O O1 0.317733 0.790293 0.952406
O O2 0.201714 0.425347 0.856608
O O3 0.505598 0.778183 0.126959
O O4 0.218349 0.015130 0.105749
O O5 0.165471 0.743386 0.758897
O O6 0.000000 0.500000 0.500000
O O7 0.256949 0.937083 0.752132
O O8 0.956121 0.038186 0.712540
O O9 0.673416 0.206343 0.716247
O O10 0.432608 0.457171 0.782686
O O11 0.343392 0.078685 0.510440
O O12 0.442607 0.925156 0.607304
O O13 0.233670 0.548147 0.267189
O O14 0.500000 0.000000 0.000000
O O15 0.771239 0.535747 0.638607
O O16 0.488702 0.629096 0.618838
O O17 0.207041 0.914597 0.601718
#
# Coordination Sequence:
#
# PCOD9102942 Si02
#       8
#     2   2   2   2   2   2   2   2
#     4  10  20  39  66  99 128 177 226 270 332 408
#     4  12  26  43  65 101 138 176 229 286 335 391
#     4  10  20  38  64  93 127 177 225 270 329 401
#     4  10  22  40  62  92 135 173 222 282 331 389
#     4  12  22  39  67  99 130 180 227 270 336 406
#     4   9  19  35  59  93 128 166 215 269 328 392
#     4  10  21  39  67  95 134 171 225 278 332 395
#     4   9  18  35  64  96 124 169 229 275 319 399
#
# _framework density 22.621251000000001
#
# number of rings (size 3 to 8) (size 9 to 14) (size 15 to 20)
#    0.000    1.750    3.750    0.750    1.750    3.000 
#    0.000   10.000    0.000    0.000    0.000    0.000 
#    0.000    0.000    0.000    0.000    0.000    0.000 
#
# Total GULP energy -89350.074877 kJ/mol
# GULP energy per Si atom -5584.379680 kJ/mol
# Density = 2.256976 g / cm^3
# Si number density = 22.621251 Si / 1000 Ang^3
#
#
#
# Elastic Constant Matrix: (Units=GPa)
#
#
# Indices 1 2 3 4 5 6 
#
# 1 55.2848 33.3793 33.9793 0.4827 -22.7620 3.5331
# 2 33.3793 107.0551 48.1403 13.8449 -14.0991 -3.7775
# 3 33.9793 48.1403 115.7332 31.6373 -44.9009 -5.1362
# 4 0.4827 13.8449 31.6373 46.3908 -6.0186 -6.4507
# 5 -22.7620 -14.0991 -44.9009 -6.0186 39.7926 0.3515
# 6 3.5331 -3.7775 -5.1362 -6.4507 0.3515 29.5952
#
#
#
# Elastic Compliance Matrix: (Units=1/GPa)
#
#
# Indices 1 2 3 4 5 6 
#
# 1 0.029019 -0.007178 -0.002081 0.004319 0.012396 -0.003947
# 2 -0.007178 0.013401 -0.005304 -0.000805 -0.005478 0.001537
# 3 -0.002081 -0.005304 0.022501 -0.010943 0.020658 0.000846
# 4 0.004319 -0.000805 -0.010943 0.028999 -0.005811 0.003872
# 5 0.012396 -0.005478 0.020658 -0.005811 0.052715 -0.000486
# 6 -0.003947 0.001537 0.000846 0.003872 -0.000486 0.035453
#
#
# Mechanical properties :
#
#
# Convention : Reuss Voigt Hill
#
# Bulk Modulus (GPa) = 27.93550 56.56343 42.24946
# Shear Modulus (GPa) = 22.40700 33.99403 28.20052
#
# Velocity S-wave (km/s) = 3.15068 3.88073 3.53461
# Velocity P-wave (km/s) = 5.06081 6.71855 5.94772
#
# Compressibility (1/GPa) = 0.03579675
#
# Stress axis : x y z
#
# Youngs Moduli (GPa) = 34.46018 74.62239 44.44220
#
# Poissons Ratio (x) = 0.53560 0.09247
# Poissons Ratio (y) = 0.24734 0.23571
# Poissons Ratio (z) = 0.07170 0.39579
#
# Static dielectric constant tensor:
#      x y z
#    x 1.827620 -0.031410 -0.022830 
#    y -0.031410 1.852130 0.017360 
#    z -0.022830 0.017360 1.901040 
# 
# From -- ./inp_files/504552.got.cif
#   From: 2010.05.17/outbox.cif.g08.bks.cpg/sg2_253_cif.got.tgz:504552.got - 2010.06.03 11:33:40.
