data_PCOD9102770
_publ_section_title
;
Structure prediction by ZEFSAII (Michael W. Deem and Ramdas Pophale) SiO2 
 PCOD9102770
Probable space group: P -1
;
_chemical_formula_sum "Si O2"
_cell_formula_units_Z 16
_cell_length_a 16.246547
_cell_length_b 15.162008
_cell_length_c 9.912658
_cell_angle_alpha 124.457216
_cell_angle_beta 145.635751
_cell_angle_gamma 40.677720
_cell_volume 886.241685
_symmetry_space_group_name_H-M "P -1"
_symmetry_group_IT_number 2
_symmetry_cell_setting 'triclinic'
loop_
_space_group_symop_operation_xyz
x,y,z
-x,-y,-z
loop_
_atom_site_type_symbol
_atom_site_label
_atom_site_fract_x
_atom_site_fract_y
_atom_site_fract_z
Si Si1 0.094561 0.061988 0.241876
Si Si2 0.292755 0.876425 0.874038
Si Si3 0.424458 0.917021 0.360167
Si Si4 0.819229 0.658819 0.739586
Si Si5 0.000654 0.335172 0.264928
Si Si6 0.949102 0.886123 0.462519
Si Si7 0.900239 0.659854 0.161511
Si Si8 0.284281 0.345295 0.837055
O O1 0.983510 0.221699 0.191503
O O2 0.106328 0.050140 0.408091
O O3 0.294341 0.982291 0.371176
O O4 0.000000 0.000000 0.000000
O O5 0.153049 0.840344 0.665611
O O6 0.195492 0.001245 0.744916
O O7 0.311296 0.923736 0.085692
O O8 0.501196 0.752360 0.000217
O O9 0.604510 0.760962 0.495190
O O10 0.500000 0.000000 0.500000
O O11 0.931859 0.687867 0.818914
O O12 0.918997 0.499214 0.714016
O O13 0.838738 0.679941 0.940516
O O14 0.164771 0.318949 0.558286
O O15 0.818010 0.492819 0.172369
O O16 0.945007 0.760489 0.345050
O O17 0.747557 0.683131 0.078829
#
# Coordination Sequence:
#
# PCOD9102770 Si02
#       8
#     2   2   2   2   2   2   2   2
#     4  12  24  40  58  88 123 159 200 242 298 359
#     4  11  24  41  59  87 123 162 196 246 306 359
#     4  12  22  38  62  88 117 160 202 245 296 355
#     4  10  21  39  64  91 120 152 203 250 300 351
#     4  10  20  38  64  86 121 154 194 256 298 349
#     4  11  25  42  59  85 127 162 196 248 303 359
#     4  10  22  39  64  91 120 155 198 254 298 351
#     4  10  20  39  64  90 114 152 206 247 300 349
#
# _framework density 18.053767000000001
#
# number of rings (size 3 to 8) (size 9 to 14) (size 15 to 20)
#    0.000    1.250    5.000    0.750    1.750    0.500 
#    2.250    1.250    0.000    3.000    0.000    0.000 
#    0.000    0.000    0.000    0.000    0.000    0.000 
#
# Total GULP energy -89382.732920 kJ/mol
# GULP energy per Si atom -5586.420808 kJ/mol
# Density = 1.801268 g / cm^3
# Si number density = 18.053767 Si / 1000 Ang^3
#
#
#
# Elastic Constant Matrix: (Units=GPa)
#
#
# Indices 1 2 3 4 5 6 
#
# 1 96.1207 39.0194 33.4113 -9.3756 -7.0889 -14.0677
# 2 39.0194 84.5061 46.3438 1.7027 8.4555 0.1005
# 3 33.4113 46.3438 76.8588 -10.6266 -5.3944 -1.6273
# 4 -9.3756 1.7027 -10.6266 22.8322 -2.6616 1.7978
# 5 -7.0889 8.4555 -5.3944 -2.6616 38.3255 -0.7194
# 6 -14.0677 0.1005 -1.6273 1.7978 -0.7194 33.6039
#
#
#
# Elastic Compliance Matrix: (Units=1/GPa)
#
#
# Indices 1 2 3 4 5 6 
#
# 1 0.015644 -0.007306 -0.001006 0.006582 0.004939 0.006276
# 2 -0.007306 0.023841 -0.013581 -0.011933 -0.009415 -0.003351
# 3 -0.001006 -0.013581 0.023866 0.012509 0.007043 0.000257
# 4 0.006582 -0.011933 0.012509 0.054252 0.009391 0.000695
# 5 0.004939 -0.009415 0.007043 0.009391 0.030775 0.002593
# 6 0.006276 -0.003351 0.000257 0.000695 0.002593 0.032426
#
#
# Mechanical properties :
#
#
# Convention : Reuss Voigt Hill
#
# Bulk Modulus (GPa) = 51.10975 55.00384 53.05680
# Shear Modulus (GPa) = 21.63445 28.19971 24.91708
#
# Velocity S-wave (km/s) = 3.46545 3.95648 3.71908
# Velocity P-wave (km/s) = 6.66211 7.16969 6.92056
#
# Compressibility (1/GPa) = 0.01956574
#
# Stress axis : x y z
#
# Youngs Moduli (GPa) = 63.92362 41.94383 41.89997
#
# Poissons Ratio (x) = 0.30644 0.04213
# Poissons Ratio (y) = 0.46703 0.56905
# Poissons Ratio (z) = 0.06428 0.56965
#
# Static dielectric constant tensor:
#      x y z
#    x 1.627720 -0.004330 -0.022290 
#    y -0.004330 1.614680 -0.002720 
#    z -0.022290 -0.002720 1.592030 
# 
# From -- ./inp_files/245677.got.cif
#   From: 2010.05.17/outbox.cif.g08.bks.cpg/sg2_123_cif.got.tgz:245677.got - 2010.06.03 11:33:40.
