data_PCOD9102421
_publ_section_title
;
Structure prediction by ZEFSAII (Michael W. Deem and Ramdas Pophale) SiO2 
 PCOD9102421
Probable space group: P -1
;
_chemical_formula_sum "Si O2"
_cell_formula_units_Z 14
_cell_length_a 8.930128
_cell_length_b 8.988471
_cell_length_c 9.339767
_cell_angle_alpha 88.708867
_cell_angle_beta 66.644443
_cell_angle_gamma 99.754816
_cell_volume 674.966044
_symmetry_space_group_name_H-M "P -1"
_symmetry_group_IT_number 2
_symmetry_cell_setting 'triclinic'
loop_
_space_group_symop_operation_xyz
x,y,z
-x,-y,-z
loop_
_atom_site_type_symbol
_atom_site_label
_atom_site_fract_x
_atom_site_fract_y
_atom_site_fract_z
Si Si1 0.464727 0.237015 0.565537
Si Si2 0.655902 0.371158 0.769750
Si Si3 0.703403 0.700314 0.638262
Si Si4 0.760561 0.085788 0.386272
Si Si5 0.933363 0.941675 0.873339
Si Si6 0.566066 0.845277 0.940980
Si Si7 0.924931 0.175296 0.612034
O O1 0.527595 0.307770 0.691219
O O2 0.386730 0.335936 0.479383
O O3 0.626414 0.191431 0.432766
O O4 0.329879 0.079028 0.632733
O O5 0.690175 0.551027 0.742435
O O6 0.824658 0.307764 0.682014
O O7 0.569759 0.293501 0.946148
O O8 0.611635 0.814432 0.760432
O O9 0.894527 0.764319 0.524550
O O10 0.817205 0.078606 0.529789
O O11 0.928989 0.147777 0.236051
O O12 0.935099 0.075247 0.751649
O O13 0.743846 0.856101 0.951235
O O14 0.000000 0.000000 0.000000
O O15 0.500000 0.000000 0.000000
#
# Coordination Sequence:
#
# PCOD9102421 Si02
#       7
#     2   2   2   2   2   2   2
#     4  10  22  36  68  94 128 160 220 265 315 368
#     4  11  25  44  64  96 134 172 212 255 328 390
#     4  12  24  43  68  94 133 173 209 264 321 389
#     4  10  20  38  62  97 126 165 212 271 312 371
#     4  12  23  37  63  94 130 157 215 272 321 359
#     4  12  26  42  66  94 130 170 215 268 318 378
#     4  11  22  42  66  94 127 171 215 261 319 384
#
# _framework density 20.741783999999999
#
# number of rings (size 3 to 8) (size 9 to 14) (size 15 to 20)
#    0.000    0.857    4.286    3.429    6.000    0.000 
#    0.000    0.000    0.000    1.714    0.000    0.000 
#    0.000    0.000    0.000    0.000    0.000    0.000 
#
# Total GULP energy -78226.825173 kJ/mol
# GULP energy per Si atom -5587.630369 kJ/mol
# Density = 2.069457 g / cm^3
# Si number density = 20.741784 Si / 1000 Ang^3
#
#
#
# Elastic Constant Matrix: (Units=GPa)
#
#
# Indices 1 2 3 4 5 6 
#
# 1 107.9871 13.6693 32.0501 0.0548 -17.3067 7.7086
# 2 13.6693 57.2986 22.9846 -13.5187 -15.4480 -2.9571
# 3 32.0501 22.9846 98.9309 -3.5181 -18.6255 -2.8098
# 4 0.0548 -13.5187 -3.5181 34.7654 7.0420 5.6099
# 5 -17.3067 -15.4480 -18.6255 7.0420 48.2745 8.5090
# 6 7.7086 -2.9571 -2.8098 5.6099 8.5090 18.0434
#
#
#
# Elastic Compliance Matrix: (Units=1/GPa)
#
#
# Indices 1 2 3 4 5 6 
#
# 1 0.011409 -0.000910 -0.002952 -0.000305 0.003986 -0.007268
# 2 -0.000910 0.022073 -0.003774 0.007475 0.004360 -0.000961
# 3 -0.002952 -0.003774 0.012399 -0.000969 0.002348 0.001767
# 4 -0.000305 0.007475 -0.000969 0.033229 -0.001450 -0.008443
# 5 0.003986 0.004360 0.002348 -0.001450 0.026925 -0.012869
# 6 -0.007268 -0.000961 0.001767 -0.008443 -0.012869 0.067338
#
#
# Mechanical properties :
#
#
# Convention : Reuss Voigt Hill
#
# Bulk Modulus (GPa) = 32.66977 44.62496 38.64736
# Shear Modulus (GPa) = 25.14478 33.25085 29.19781
#
# Velocity S-wave (km/s) = 3.48555 4.00820 3.75598
# Velocity P-wave (km/s) = 5.65541 6.55607 6.12233
#
# Compressibility (1/GPa) = 0.03060934
#
# Stress axis : x y z
#
# Youngs Moduli (GPa) = 87.64705 45.30451 80.65287
#
# Poissons Ratio (x) = 0.04124 0.23806
# Poissons Ratio (y) = 0.07979 0.30437
# Poissons Ratio (z) = 0.25870 0.17097
#
# Static dielectric constant tensor:
#      x y z
#    x 1.743510 -0.011220 -0.000810 
#    y -0.011220 1.772990 0.003970 
#    z -0.000810 0.003970 1.749100 
# 
# From -- ./inp_files/156931.got.cif
#   From: 2010.05.17/outbox.cif.g08.bks.cpg/sg2_79_cif.got.tgz:156931.got - 2010.06.03 11:33:40.
