data_PCOD9102471
_publ_section_title
;
Structure prediction by ZEFSAII (Michael W. Deem and Ramdas Pophale) SiO2 
 PCOD9102471
Probable space group: P -1
;
_chemical_formula_sum "Si O2"
_cell_formula_units_Z 16
_cell_length_a 18.233413
_cell_length_b 9.080827
_cell_length_c 10.139918
_cell_angle_alpha 123.101702
_cell_angle_beta 142.583289
_cell_angle_gamma 59.840754
_cell_volume 846.748032
_symmetry_space_group_name_H-M "P -1"
_symmetry_group_IT_number 2
_symmetry_cell_setting 'triclinic'
loop_
_space_group_symop_operation_xyz
x,y,z
-x,-y,-z
loop_
_atom_site_type_symbol
_atom_site_label
_atom_site_fract_x
_atom_site_fract_y
_atom_site_fract_z
Si Si1 0.741545 0.175547 0.695118
Si Si2 0.176705 0.328620 0.114870
Si Si3 0.396789 0.442988 0.653425
Si Si4 0.051906 0.720573 0.097217
Si Si5 0.679248 0.872168 0.001680
Si Si6 0.592620 0.508206 0.759981
Si Si7 0.549861 0.943298 0.396123
Si Si8 0.740703 0.203000 0.405432
O O1 0.885753 0.166804 0.868029
O O2 0.697791 0.346927 0.803616
O O3 0.690364 0.211107 0.488851
O O4 0.676247 0.019685 0.586157
O O5 0.299349 0.382441 0.379952
O O6 0.101571 0.512031 0.042830
O O7 0.220604 0.188593 0.996864
O O8 0.090136 0.258676 0.067002
O O9 0.517906 0.475308 0.766541
O O10 0.429366 0.267774 0.700492
O O11 0.329672 0.633372 0.697363
O O12 0.120201 0.766601 0.353030
O O13 0.646370 0.692058 0.930776
O O14 0.554457 0.963066 0.801815
O O15 0.725753 0.014978 0.233058
O O16 0.500000 0.500000 0.500000
O O17 0.500000 0.000000 0.500000
#
# Coordination Sequence:
#
# PCOD9102471 Si02
#       8
#     2   2   2   2   2   2   2   2
#     4  10  18  35  51  75 105 131 169 214 254 296
#     4  10  16  32  57  78  97 134 177 209 255 295
#     4  11  20  34  51  76 109 135 168 212 253 300
#     4   8  18  34  54  76 102 130 172 223 247 290
#     4  12  21  31  56  80 102 140 169 203 264 312
#     4  12  15  32  53  74 100 134 170 215 246 299
#     4  12  21  31  54  78 103 137 173 211 250 307
#     4   9  21  36  49  78 107 137 165 212 259 304
#
# _framework density 18.895823
#
# number of rings (size 3 to 8) (size 9 to 14) (size 15 to 20)
#    0.750    0.750    7.500    0.000    0.000    3.000 
#    0.000    0.625    0.000    0.000    0.000    0.875 
#    0.000    0.000    0.000    0.000    0.000    0.000 
#
# Total GULP energy -89136.393539 kJ/mol
# GULP energy per Si atom -5571.024596 kJ/mol
# Density = 1.885281 g / cm^3
# Si number density = 18.895823 Si / 1000 Ang^3
#
#
#
# Elastic Constant Matrix: (Units=GPa)
#
#
# Indices 1 2 3 4 5 6 
#
# 1 63.7279 15.8942 16.6724 4.6039 31.0986 -8.3622
# 2 15.8942 80.8685 22.1330 23.6587 4.6157 -7.3365
# 3 16.6724 22.1330 45.8842 20.9018 -1.1225 -16.3086
# 4 4.6039 23.6587 20.9018 28.5075 -3.2057 -0.9079
# 5 31.0986 4.6157 -1.1225 -3.2057 27.8596 6.1655
# 6 -8.3622 -7.3365 -16.3086 -0.9079 6.1655 24.3179
#
#
#
# Elastic Compliance Matrix: (Units=1/GPa)
#
#
# Indices 1 2 3 4 5 6 
#
# 1 0.060811 0.001755 -0.004124 -0.015879 -0.078575 0.038004
# 2 0.001755 0.017809 0.000989 -0.016492 -0.008582 0.008200
# 3 -0.004124 0.000989 0.051709 -0.037588 -0.005211 0.033476
# 4 -0.015879 -0.016492 -0.037588 0.081785 0.037681 -0.042144
# 5 -0.078575 -0.008582 -0.005211 0.037681 0.144261 -0.068272
# 6 0.038004 0.008200 0.033476 -0.042144 -0.068272 0.094851
#
#
# Mechanical properties :
#
#
# Convention : Reuss Voigt Hill
#
# Bulk Modulus (GPa) = 7.83888 33.31999 20.57944
# Shear Modulus (GPa) = 10.07035 25.18906 17.62970
#
# Velocity S-wave (km/s) = 2.31105 3.65506 3.05781
# Velocity P-wave (km/s) = 3.35839 5.95688 4.83545
#
# Compressibility (1/GPa) = 0.12756921
#
# Stress axis : x y z
#
# Youngs Moduli (GPa) = 16.44447 56.15209 19.33912
#
# Poissons Ratio (x) = -0.09853 0.07975
# Poissons Ratio (y) = -0.02886 -0.01913
# Poissons Ratio (z) = 0.06781 -0.05555
#
# Static dielectric constant tensor:
#      x y z
#    x 1.666820 0.021300 0.012010 
#    y 0.021300 1.699530 -0.003960 
#    z 0.012010 -0.003960 1.658920 
# 
# From -- ./inp_files/461639.got.cif
#   From: 2010.05.17/outbox.cif.g08.bks.cpg/sg2_231_cif.got.tgz:461639.got - 2010.06.03 11:33:40.
