data_PCOD9102717
_publ_section_title
;
Structure prediction by ZEFSAII (Michael W. Deem and Ramdas Pophale) SiO2 
 PCOD9102717
Probable space group: P -1
;
_chemical_formula_sum "Si O2"
_cell_formula_units_Z 16
_cell_length_a 22.504649
_cell_length_b 19.971179
_cell_length_c 11.699008
_cell_angle_alpha 144.482925
_cell_angle_beta 25.451870
_cell_angle_gamma 161.652680
_cell_volume 674.214625
_symmetry_space_group_name_H-M "P -1"
_symmetry_group_IT_number 2
_symmetry_cell_setting 'triclinic'
loop_
_space_group_symop_operation_xyz
x,y,z
-x,-y,-z
loop_
_atom_site_type_symbol
_atom_site_label
_atom_site_fract_x
_atom_site_fract_y
_atom_site_fract_z
Si Si1 0.291936 0.009783 0.348346
Si Si2 0.116657 0.369392 0.273788
Si Si3 0.701410 0.799619 0.915676
Si Si4 0.902025 0.887372 0.136897
Si Si5 0.789613 0.080839 0.037255
Si Si6 0.881121 0.666637 0.394396
Si Si7 0.316940 0.876705 0.476899
Si Si8 0.317655 0.709385 0.751242
O O1 0.075058 0.815326 0.550167
O O2 0.157234 0.864771 0.266008
O O3 0.286971 0.145487 0.534354
O O4 0.570879 0.176567 0.157573
O O5 0.387947 0.607726 0.189668
O O6 0.198744 0.314951 0.981424
O O7 0.939083 0.325176 0.441057
O O8 0.754269 0.702227 0.673168
O O9 0.845706 0.934451 0.969551
O O10 0.826601 0.971690 0.841148
O O11 0.000000 0.000000 0.000000
O O12 0.506331 0.906622 0.225422
O O13 0.777393 0.132984 0.254091
O O14 0.023456 0.292109 0.842002
O O15 0.669213 0.419944 0.460427
O O16 0.508798 0.100846 0.381763
O O17 0.000000 0.500000 0.000000
#
# Coordination Sequence:
#
# PCOD9102717 Si02
#       8
#     2   2   2   2   2   2   2   2
#     4   9  22  36  62  97 129 162 211 278 321 373
#     4  10  20  38  63  99 126 168 220 265 319 379
#     4  11  23  39  67  98 131 175 211 264 331 389
#     4   9  18  36  59  89 134 160 210 266 319 372
#     4  11  23  45  65  91 138 178 214 260 324 394
#     4  11  24  43  66  98 132 168 217 270 328 377
#     4  10  23  44  69  93 130 178 219 266 318 385
#     4  11  22  44  69  94 125 172 219 271 323 377
#
# _framework density 23.731314999999999
#
# number of rings (size 3 to 8) (size 9 to 14) (size 15 to 20)
#    0.000    1.750    2.500    1.125    1.750    6.500 
#    2.250    0.625    0.000    0.000    0.000    0.000 
#    0.000    0.000    0.000    0.000    0.000    0.000 
#
# Total GULP energy -89439.863172 kJ/mol
# GULP energy per Si atom -5589.991448 kJ/mol
# Density = 2.367730 g / cm^3
# Si number density = 23.731315 Si / 1000 Ang^3
#
#
#
# Elastic Constant Matrix: (Units=GPa)
#
#
# Indices 1 2 3 4 5 6 
#
# 1 161.7535 47.6058 44.4208 -11.9181 -24.8424 15.5593
# 2 47.6058 65.3855 15.9014 -6.1084 -8.6855 12.9876
# 3 44.4208 15.9014 47.3021 -5.8020 -5.8185 8.6309
# 4 -11.9181 -6.1084 -5.8020 40.6937 5.3538 -15.8287
# 5 -24.8424 -8.6855 -5.8185 5.3538 35.0563 -6.5993
# 6 15.5593 12.9876 8.6309 -15.8287 -6.5993 42.4965
#
#
#
# Elastic Compliance Matrix: (Units=1/GPa)
#
#
# Indices 1 2 3 4 5 6 
#
# 1 0.010554 -0.005193 -0.007528 0.000701 0.004887 0.000272
# 2 -0.005193 0.020192 -0.001153 -0.000296 0.000408 -0.004083
# 3 -0.007528 -0.001153 0.029019 0.000911 -0.001446 -0.002670
# 4 0.000701 -0.000296 0.000911 0.029080 -0.001951 0.010177
# 5 0.004887 0.000408 -0.001446 -0.001951 0.032661 0.002725
# 6 0.000272 -0.004083 -0.002670 0.010177 0.002725 0.029436
#
#
# Mechanical properties :
#
#
# Convention : Reuss Voigt Hill
#
# Bulk Modulus (GPa) = 31.23203 54.47743 42.85473
# Shear Modulus (GPa) = 26.40461 34.75018 30.57740
#
# Velocity S-wave (km/s) = 3.33926 3.83079 3.59344
# Velocity P-wave (km/s) = 5.29686 6.52475 5.94261
#
# Compressibility (1/GPa) = 0.03201841
#
# Stress axis : x y z
#
# Youngs Moduli (GPa) = 94.75200 49.52344 34.46052
#
# Poissons Ratio (x) = 0.25716 0.25941
# Poissons Ratio (y) = 0.49201 0.03973
# Poissons Ratio (z) = 0.71328 0.05709
#
# Static dielectric constant tensor:
#      x y z
#    x 1.894520 0.002260 -0.051820 
#    y 0.002260 1.917870 0.050250 
#    z -0.051820 0.050250 1.942410 
# 
# From -- ./inp_files/472422.got.cif
#   From: 2010.05.17/outbox.cif.g08.bks.cpg/sg2_237_cif.got.tgz:472422.got - 2010.06.03 11:33:40.
