data_PCOD9102569
_publ_section_title
;
Structure prediction by ZEFSAII (Michael W. Deem and Ramdas Pophale) SiO2 
 PCOD9102569
Probable space group: P -1
;
_chemical_formula_sum "Si O2"
_cell_formula_units_Z 14
_cell_length_a 10.764342
_cell_length_b 5.990058
_cell_length_c 11.198332
_cell_angle_alpha 105.975073
_cell_angle_beta 120.325332
_cell_angle_gamma 101.656464
_cell_volume 546.262935
_symmetry_space_group_name_H-M "P -1"
_symmetry_group_IT_number 2
_symmetry_cell_setting 'triclinic'
loop_
_space_group_symop_operation_xyz
x,y,z
-x,-y,-z
loop_
_atom_site_type_symbol
_atom_site_label
_atom_site_fract_x
_atom_site_fract_y
_atom_site_fract_z
Si Si1 0.836362 0.659132 0.983208
Si Si2 0.722244 0.310317 0.107967
Si Si3 0.402446 0.119752 0.186449
Si Si4 0.842734 0.212565 0.779413
Si Si5 0.035128 0.768238 0.622378
Si Si6 0.743404 0.742562 0.356953
Si Si7 0.612905 0.069783 0.450762
O O1 0.873008 0.499179 0.873176
O O2 0.694633 0.727696 0.885467
O O3 0.785869 0.497333 0.055065
O O4 0.010621 0.860381 0.134741
O O5 0.862391 0.238611 0.214766
O O6 0.686525 0.479250 0.216758
O O7 0.592377 0.060260 0.945842
O O8 0.289236 0.950068 0.212976
O O9 0.566348 0.232930 0.355665
O O10 0.784293 0.190419 0.611989
O O11 0.000000 0.500000 0.500000
O O12 0.860251 0.759658 0.526152
O O13 0.150279 0.021775 0.643641
O O14 0.603314 0.814804 0.343966
O O15 0.500000 0.000000 0.500000
#
# Coordination Sequence:
#
# PCOD9102569 Si02
#       7
#     2   2   2   2   2   2   2
#     4  10  20  38  63  91 121 160 208 263 308 356
#     4  10  21  37  62  93 124 156 211 259 311 368
#     4  10  21  39  60  88 126 165 207 250 309 371
#     4   9  21  38  60  89 121 162 214 253 305 364
#     4   9  20  37  61  97 119 156 207 261 317 359
#     4  10  21  39  63  90 129 162 202 263 311 363
#     4  10  23  42  61  90 128 169 208 247 308 381
#
# _framework density 25.628685000000001
#
# number of rings (size 3 to 8) (size 9 to 14) (size 15 to 20)
#    0.000    2.286    0.000    1.286    8.000    1.143 
#    5.143   11.429    0.000    0.000    0.000    0.000 
#    0.000    0.000    0.000    0.000    0.000    0.000 
#
# Total GULP energy -78208.341916 kJ/mol
# GULP energy per Si atom -5586.310137 kJ/mol
# Density = 2.557035 g / cm^3
# Si number density = 25.628685 Si / 1000 Ang^3
#
#
#
# Elastic Constant Matrix: (Units=GPa)
#
#
# Indices 1 2 3 4 5 6 
#
# 1 87.6770 38.3305 34.1057 -8.3284 -6.9869 -20.3247
# 2 38.3305 92.9487 77.8995 -22.2395 5.1182 -22.6864
# 3 34.1057 77.8995 205.0746 -41.2045 0.1855 -16.4180
# 4 -8.3284 -22.2395 -41.2045 56.4347 -3.7534 6.7955
# 5 -6.9869 5.1182 0.1855 -3.7534 23.7667 1.9259
# 6 -20.3247 -22.6864 -16.4180 6.7955 1.9259 48.0448
#
#
#
# Elastic Compliance Matrix: (Units=1/GPa)
#
#
# Indices 1 2 3 4 5 6 
#
# 1 0.015133 -0.005588 -0.000146 -0.000144 0.005346 0.003519
# 2 -0.005588 0.019995 -0.005908 0.001731 -0.006039 0.005056
# 3 -0.000146 -0.005908 0.007796 0.003553 0.001791 -0.000762
# 4 -0.000144 0.001731 0.003553 0.021316 0.003018 -0.001165
# 5 0.005346 -0.006039 0.001791 0.003018 0.045591 -0.002232
# 6 0.003519 0.005056 -0.000762 -0.001165 -0.002232 0.024684
#
#
# Mechanical properties :
#
#
# Convention : Reuss Voigt Hill
#
# Bulk Modulus (GPa) = 50.91523 76.26353 63.58938
# Shear Modulus (GPa) = 30.42340 41.34021 35.88181
#
# Velocity S-wave (km/s) = 3.44915 4.02063 3.74580
# Velocity P-wave (km/s) = 5.98095 7.16768 6.60104
#
# Compressibility (1/GPa) = 0.01964049
#
# Stress axis : x y z
#
# Youngs Moduli (GPa) = 66.07858 50.01196 128.26903
#
# Poissons Ratio (x) = 0.27947 0.01874
# Poissons Ratio (y) = 0.36925 0.75781
# Poissons Ratio (z) = 0.00965 0.29547
#
# Static dielectric constant tensor:
#      x y z
#    x 2.198780 -0.000770 0.095460 
#    y -0.000770 2.038470 0.052470 
#    z 0.095460 0.052470 2.052600 
# 
# From -- ./inp_files/71883.got.cif
#   From: 2010.05.17/outbox.cif.g08.bks.cpg/sg2_36_cif.got.tgz:71883.got - 2010.06.03 11:33:40.
