data_PCOD9102415
_publ_section_title
;
Structure prediction by ZEFSAII (Michael W. Deem and Ramdas Pophale) SiO2 
 PCOD9102415
Probable space group: P -1
;
_chemical_formula_sum "Si O2"
_cell_formula_units_Z 16
_cell_length_a 14.995157
_cell_length_b 10.972172
_cell_length_c 8.393715
_cell_angle_alpha 146.562016
_cell_angle_beta 91.843016
_cell_angle_gamma 104.671543
_cell_volume 654.868030
_symmetry_space_group_name_H-M "P -1"
_symmetry_group_IT_number 2
_symmetry_cell_setting 'triclinic'
loop_
_space_group_symop_operation_xyz
x,y,z
-x,-y,-z
loop_
_atom_site_type_symbol
_atom_site_label
_atom_site_fract_x
_atom_site_fract_y
_atom_site_fract_z
Si Si1 0.197738 0.363306 0.500098
Si Si2 0.438631 0.055325 0.694527
Si Si3 0.425521 0.189713 0.168237
Si Si4 0.942743 0.018768 0.671778
Si Si5 0.801773 0.971279 0.133236
Si Si6 0.911847 0.503012 0.599902
Si Si7 0.393291 0.384495 0.667328
Si Si8 0.246246 0.036706 0.548275
O O1 0.178015 0.546866 0.585873
O O2 0.317036 0.460877 0.653108
O O3 0.125621 0.248106 0.525639
O O4 0.159752 0.120425 0.113748
O O5 0.317027 0.921914 0.491816
O O6 0.500000 0.000000 0.500000
O O7 0.451310 0.033591 0.865984
O O8 0.496478 0.365681 0.026747
O O9 0.500000 0.500000 0.500000
O O10 0.405987 0.171489 0.337630
O O11 0.314586 0.119998 0.020466
O O12 0.859559 0.107408 0.716788
O O13 0.000000 0.000000 0.500000
O O14 0.032135 0.225133 0.014303
O O15 0.868605 0.276824 0.478726
O O16 0.788417 0.863167 0.191625
O O17 0.000000 0.500000 0.500000
O O18 0.327903 0.260155 0.684627
#
# Coordination Sequence:
#
# PCOD9102415 Si02
#       8
#     2   2   2   2   2   2   2   2
#     4  10  22  44  66  90 133 167 224 265 326 403
#     4  10  20  38  62  96 132 160 209 273 320 387
#     4   8  17  38  66  85 122 168 208 249 319 390
#     4  11  24  43  65  96 129 175 220 269 335 386
#     4  10  21  42  66  94 126 171 221 266 328 385
#     4  12  25  40  67  93 128 175 221 275 324 381
#     4   9  19  40  68  90 120 175 208 257 331 388
#     4  10  22  40  64  90 130 170 212 262 322 396
#
# _framework density 24.432403000000001
#
# number of rings (size 3 to 8) (size 9 to 14) (size 15 to 20)
#    0.000    2.000    1.250    1.500    1.750    1.500 
#   13.500    0.625    0.000    0.000    0.000    0.000 
#    0.000    0.000    0.000    0.000    0.000    0.000 
#
# Total GULP energy -89114.397041 kJ/mol
# GULP energy per Si atom -5569.649815 kJ/mol
# Density = 2.437679 g / cm^3
# Si number density = 24.432403 Si / 1000 Ang^3
#
#
#
# Elastic Constant Matrix: (Units=GPa)
#
#
# Indices 1 2 3 4 5 6 
#
# 1 133.9422 27.4161 33.5532 -18.5867 8.0835 -0.5191
# 2 27.4161 88.4334 15.7636 -32.3563 -10.7017 27.2415
# 3 33.5532 15.7636 47.2886 -26.8051 3.8152 -2.6296
# 4 -18.5867 -32.3563 -26.8051 30.6515 13.4670 -2.5917
# 5 8.0835 -10.7017 3.8152 13.4670 35.2971 -5.8226
# 6 -0.5191 27.2415 -2.6296 -2.5917 -5.8226 37.3844
#
#
#
# Elastic Compliance Matrix: (Units=1/GPa)
#
#
# Indices 1 2 3 4 5 6 
#
# 1 0.009750 -0.004750 -0.009435 -0.007397 0.000583 0.002511
# 2 -0.004750 0.040663 0.036291 0.080855 -0.025565 -0.025520
# 3 -0.009435 0.036291 0.100206 0.142935 -0.055207 -0.018217
# 4 -0.007397 0.080855 0.142935 0.280178 -0.103675 -0.045691
# 5 0.000583 -0.025565 -0.055207 -0.103675 0.068990 0.018311
# 6 0.002511 -0.025520 -0.018217 -0.045691 0.018311 0.043783
#
#
# Mechanical properties :
#
#
# Convention : Reuss Voigt Hill
#
# Bulk Modulus (GPa) = 5.13265 47.01443 26.07354
# Shear Modulus (GPa) = 8.86053 33.52870 21.19462
#
# Velocity S-wave (km/s) = 1.90642 3.70848 2.94850
# Velocity P-wave (km/s) = 2.63652 6.13364 4.72085
#
# Compressibility (1/GPa) = 0.19483120
#
# Stress axis : x y z
#
# Youngs Moduli (GPa) = 102.56691 24.59244 9.97945
#
# Poissons Ratio (x) = 0.11682 0.09415
# Poissons Ratio (y) = 0.48722 -0.36217
# Poissons Ratio (z) = 0.96768 -0.89249
#
# Static dielectric constant tensor:
#      x y z
#    x 1.970040 -0.079500 -0.099310 
#    y -0.079500 2.245140 0.016410 
#    z -0.099310 0.016410 1.992210 
# 
# From -- ./inp_files/308947.got.cif
#   From: 2010.05.17/outbox.cif.g08.bks.cpg/sg2_155_cif.got.tgz:308947.got - 2010.06.03 11:33:40.
