data_PCOD9102868
_publ_section_title
;
Structure prediction by ZEFSAII (Michael W. Deem and Ramdas Pophale) SiO2 
 PCOD9102868
Probable space group: P -1
;
_chemical_formula_sum "Si O2"
_cell_formula_units_Z 16
_cell_length_a 17.487319
_cell_length_b 14.984250
_cell_length_c 7.295669
_cell_angle_alpha 36.909315
_cell_angle_beta 52.407711
_cell_angle_gamma 37.455592
_cell_volume 696.603816
_symmetry_space_group_name_H-M "P -1"
_symmetry_group_IT_number 2
_symmetry_cell_setting 'triclinic'
loop_
_space_group_symop_operation_xyz
x,y,z
-x,-y,-z
loop_
_atom_site_type_symbol
_atom_site_label
_atom_site_fract_x
_atom_site_fract_y
_atom_site_fract_z
Si Si1 0.434185 0.312683 0.426687
Si Si2 0.773548 0.531198 0.243026
Si Si3 0.303300 0.076475 0.383887
Si Si4 0.789918 0.254595 0.404421
Si Si5 0.950905 0.821511 0.479475
Si Si6 0.994469 0.110185 0.093033
Si Si7 0.469048 0.856859 0.800562
Si Si8 0.452889 0.657111 0.468046
O O1 0.304070 0.389063 0.582581
O O2 0.436328 0.321149 0.188570
O O3 0.473499 0.411325 0.336630
O O4 0.560134 0.085073 0.644845
O O5 0.741128 0.411805 0.377728
O O6 0.924294 0.381549 0.292379
O O7 0.727451 0.720188 0.890788
O O8 0.183807 0.120614 0.388792
O O9 0.333502 0.972625 0.707917
O O10 0.875367 0.273450 0.119399
O O11 0.688423 0.259726 0.436135
O O12 0.885990 0.043263 0.704139
O O13 0.972815 0.813637 0.242925
O O14 0.955425 0.986479 0.273412
O O15 0.500000 0.000000 0.500000
O O16 0.463985 0.801604 0.103167
O O17 0.500000 0.500000 0.500000
#
# Coordination Sequence:
#
# PCOD9102868 Si02
#       8
#     2   2   2   2   2   2   2   2
#     4  10  24  42  64  95 130 174 207 265 331 382
#     4  11  21  39  62  93 128 168 210 271 318 384
#     4  10  22  41  64  88 130 169 220 254 329 386
#     4  10  21  38  61  90 127 164 213 262 329 377
#     4  10  20  38  64  91 120 165 219 262 320 386
#     4   9  20  39  61  86 126 167 203 267 331 386
#     4  10  25  42  66  91 130 177 214 259 324 395
#     4  12  23  39  65  96 129 164 218 271 311 380
#
# _framework density 22.968578999999998
#
# number of rings (size 3 to 8) (size 9 to 14) (size 15 to 20)
#    0.750    1.000    1.250    3.000    1.750    1.500 
#    0.000    0.625    0.000    0.000    0.000    0.000 
#    0.000    0.000    0.000    0.000    0.000    0.000 
#
# Total GULP energy -89255.505789 kJ/mol
# GULP energy per Si atom -5578.469112 kJ/mol
# Density = 2.291630 g / cm^3
# Si number density = 22.968579 Si / 1000 Ang^3
#
#
#
# Elastic Constant Matrix: (Units=GPa)
#
#
# Indices 1 2 3 4 5 6 
#
# 1 64.8055 13.5587 -7.4862 5.4392 -4.9801 -5.7214
# 2 13.5587 107.4711 15.5188 2.3124 -0.8207 -1.2177
# 3 -7.4862 15.5188 56.3561 3.5117 4.8543 6.2295
# 4 5.4392 2.3124 3.5117 20.3928 5.8795 8.3705
# 5 -4.9801 -0.8207 4.8543 5.8795 28.6963 9.7374
# 6 -5.7214 -1.2177 6.2295 8.3705 9.7374 41.6188
#
#
#
# Elastic Compliance Matrix: (Units=1/GPa)
#
#
# Indices 1 2 3 4 5 6 
#
# 1 0.017275 -0.002393 0.002837 -0.006722 0.002966 0.002538
# 2 -0.002393 0.010073 -0.003150 -0.000219 0.000312 0.000408
# 3 0.002837 -0.003150 0.019489 -0.002544 -0.001801 -0.001686
# 4 -0.006722 -0.000219 -0.002544 0.058087 -0.009226 -0.010074
# 5 0.002966 0.000312 -0.001801 -0.009226 0.039869 -0.006786
# 6 0.002538 0.000408 -0.001686 -0.010074 -0.006786 0.028255
#
#
# Mechanical properties :
#
#
# Convention : Reuss Voigt Hill
#
# Bulk Modulus (GPa) = 24.14058 30.20173 27.17115
# Shear Modulus (GPa) = 26.00518 31.94434 28.97476
#
# Velocity S-wave (km/s) = 3.36848 3.73337 3.55561
# Velocity P-wave (km/s) = 5.06576 5.63576 5.35834
#
# Compressibility (1/GPa) = 0.04142402
#
# Stress axis : x y z
#
# Youngs Moduli (GPa) = 57.88613 99.27198 51.31207
#
# Poissons Ratio (x) = 0.23756 -0.14555
# Poissons Ratio (y) = 0.13852 0.16164
# Poissons Ratio (z) = -0.16420 0.31272
#
# Static dielectric constant tensor:
#      x y z
#    x 1.917860 0.010710 0.003360 
#    y 0.010710 1.919820 -0.005120 
#    z 0.003360 -0.005120 1.864350 
# 
# From -- ./inp_files/348779.got.cif
#   From: 2010.05.17/outbox.cif.g08.bks.cpg/sg2_175_cif.got.tgz:348779.got - 2010.06.03 11:33:40.
