data_PCOD9102733
_publ_section_title
;
Structure prediction by ZEFSAII (Michael W. Deem and Ramdas Pophale) SiO2 
 PCOD9102733
Probable space group: P -1
;
_chemical_formula_sum "Si O2"
_cell_formula_units_Z 16
_cell_length_a 21.810490
_cell_length_b 14.227869
_cell_length_c 5.252068
_cell_angle_alpha 66.149465
_cell_angle_beta 72.295924
_cell_angle_gamma 26.684817
_cell_volume 662.893750
_symmetry_space_group_name_H-M "P -1"
_symmetry_group_IT_number 2
_symmetry_cell_setting 'triclinic'
loop_
_space_group_symop_operation_xyz
x,y,z
-x,-y,-z
loop_
_atom_site_type_symbol
_atom_site_label
_atom_site_fract_x
_atom_site_fract_y
_atom_site_fract_z
Si Si1 0.513325 0.199332 0.730945
Si Si2 0.755073 0.615001 0.857290
Si Si3 0.649477 0.848353 0.240893
Si Si4 0.784799 0.787059 0.487797
Si Si5 0.960587 0.961362 0.270820
Si Si6 0.378445 0.745358 0.285827
Si Si7 0.206757 0.641159 0.685101
Si Si8 0.193876 0.012545 0.725966
O O1 0.552766 0.239561 0.812141
O O2 0.356146 0.436344 0.587816
O O3 0.633265 0.016379 0.567154
O O4 0.521725 0.086006 0.017575
O O5 0.649561 0.788244 0.570729
O O6 0.845097 0.594577 0.734624
O O7 0.793796 0.441229 0.993215
O O8 0.709487 0.692773 0.119593
O O9 0.752962 0.797316 0.228745
O O10 0.852762 0.802260 0.396158
O O11 0.087142 0.769666 0.511853
O O12 0.834641 0.187635 0.347873
O O13 0.919445 0.916807 0.222009
O O14 0.000000 0.000000 0.000000
O O15 0.500000 0.500000 0.500000
O O16 0.266729 0.903025 0.479392
O O17 0.302697 0.836105 0.011206
#
# Coordination Sequence:
#
# PCOD9102733 Si02
#       8
#     2   2   2   2   2   2   2   2
#     4  10  20  38  64 102 142 168 211 268 340 405
#     4   9  20  39  65  97 137 170 214 264 332 403
#     4   9  18  37  60 101 137 163 202 263 341 404
#     4   8  19  38  66 104 132 163 204 270 343 399
#     4  11  29  48  65  89 130 190 236 272 320 379
#     4  11  22  37  65 100 125 168 218 274 335 389
#     4  11  26  45  65  94 134 184 227 273 317 399
#     4  11  23  43  69  90 134 170 215 279 329 385
#
# _framework density 24.136596999999998
#
# number of rings (size 3 to 8) (size 9 to 14) (size 15 to 20)
#    0.750    1.250    1.250    1.125    7.000    3.500 
#    0.000    0.625    0.000    1.500    0.000    0.000 
#    0.000    0.000    0.000    0.000    0.000    0.000 
#
# Total GULP energy -89215.929210 kJ/mol
# GULP energy per Si atom -5575.995576 kJ/mol
# Density = 2.408166 g / cm^3
# Si number density = 24.136597 Si / 1000 Ang^3
#
#
#
# Elastic Constant Matrix: (Units=GPa)
#
#
# Indices 1 2 3 4 5 6 
#
# 1 159.0529 23.9337 32.0206 -5.1644 0.7405 -0.0158
# 2 23.9337 65.7519 15.9290 5.6699 1.8769 -8.7249
# 3 32.0206 15.9290 103.8613 -7.7177 -0.6964 4.2122
# 4 -5.1644 5.6699 -7.7177 28.1803 5.6914 -3.7755
# 5 0.7405 1.8769 -0.6964 5.6914 36.9286 2.0621
# 6 -0.0158 -8.7249 4.2122 -3.7755 2.0621 29.1704
#
#
#
# Elastic Compliance Matrix: (Units=1/GPa)
#
#
# Indices 1 2 3 4 5 6 
#
# 1 0.007017 -0.002277 -0.001710 0.001292 -0.000243 -0.000246
# 2 -0.002277 0.017684 -0.002511 -0.003846 -0.000598 0.005195
# 3 -0.001710 -0.002511 0.010834 0.002893 0.000029 -0.001944
# 4 0.001292 -0.003846 0.002893 0.039026 -0.006009 0.003908
# 5 -0.000243 -0.000598 0.000029 -0.006009 0.028206 -0.002955
# 6 -0.000246 0.005195 -0.001944 0.003908 -0.002955 0.036831
#
#
# Mechanical properties :
#
#
# Convention : Reuss Voigt Hill
#
# Bulk Modulus (GPa) = 44.36497 52.49253 48.42875
# Shear Modulus (GPa) = 31.22924 35.97471 33.60198
#
# Velocity S-wave (km/s) = 3.60092 3.86484 3.73521
# Velocity P-wave (km/s) = 5.97575 6.45843 6.22177
#
# Compressibility (1/GPa) = 0.02254031
#
# Stress axis : x y z
#
# Youngs Moduli (GPa) = 142.50802 56.54872 92.29867
#
# Poissons Ratio (x) = 0.12877 0.15781
# Poissons Ratio (y) = 0.32451 0.23172
# Poissons Ratio (z) = 0.24366 0.14197
#
# Static dielectric constant tensor:
#      x y z
#    x 1.971810 -0.016220 -0.048560 
#    y -0.016220 2.034430 -0.014150 
#    z -0.048560 -0.014150 1.925200 
# 
# From -- ./inp_files/119237.got.cif
#   From: 2010.05.17/outbox.cif.g08.bks.cpg/sg2_60_cif.got.tgz:119237.got - 2010.06.03 11:33:40.
