data_PCOD9102779
_publ_section_title
;
Structure prediction by ZEFSAII (Michael W. Deem and Ramdas Pophale) SiO2 
 PCOD9102779
Probable space group: P -1
;
_chemical_formula_sum "Si O2"
_cell_formula_units_Z 16
_cell_length_a 18.501491
_cell_length_b 10.309387
_cell_length_c 5.362612
_cell_angle_alpha 99.300612
_cell_angle_beta 107.216217
_cell_angle_gamma 41.014186
_cell_volume 638.056700
_symmetry_space_group_name_H-M "P -1"
_symmetry_group_IT_number 2
_symmetry_cell_setting 'triclinic'
loop_
_space_group_symop_operation_xyz
x,y,z
-x,-y,-z
loop_
_atom_site_type_symbol
_atom_site_label
_atom_site_fract_x
_atom_site_fract_y
_atom_site_fract_z
Si Si1 0.164750 0.087136 0.150701
Si Si2 0.657698 0.052789 0.351080
Si Si3 0.564331 0.717435 0.540753
Si Si4 0.399969 0.081026 0.105078
Si Si5 0.969683 0.682591 0.417634
Si Si6 0.860711 0.179010 0.942039
Si Si7 0.108477 0.754944 0.513021
Si Si8 0.573867 0.424669 0.298054
O O1 0.084683 0.184647 0.346058
O O2 0.268906 0.038807 0.348834
O O3 0.188084 0.902051 0.078113
O O4 0.108056 0.218149 0.882167
O O5 0.521792 0.217107 0.306914
O O6 0.670413 0.185942 0.308892
O O7 0.683836 0.900229 0.141251
O O8 0.641684 0.735042 0.731783
O O9 0.608496 0.530774 0.390865
O O10 0.471643 0.902634 0.318601
O O11 0.500000 0.000000 0.000000
O O12 0.000000 0.500000 0.500000
O O13 0.066666 0.659686 0.427871
O O14 0.827592 0.283404 0.679447
O O15 0.827100 0.310288 0.182682
O O16 0.000000 0.000000 0.000000
O O17 0.000000 0.000000 0.500000
O O18 0.500000 0.500000 0.500000
O O19 0.500000 0.500000 0.000000
#
# Coordination Sequence:
#
# PCOD9102779 Si02
#       8
#     2   2   2   2   2   2   2   2
#     4  12  23  37  61  90 122 149 198 259 308 358
#     4  10  22  34  58  90 119 155 194 256 313 342
#     4   9  18  34  58  85 115 161 208 235 282 364
#     4   9  17  33  56  83 109 166 211 227 280 370
#     4  12  24  39  61  91 116 158 202 252 304 368
#     4  10  16  32  58  84 103 149 195 235 272 357
#     4  10  16  34  60  81 105 143 202 233 269 359
#     4  10  19  34  57  86 120 150 194 246 285 344
#
# _framework density 25.076142000000001
#
# number of rings (size 3 to 8) (size 9 to 14) (size 15 to 20)
#    0.000    1.750    6.250    0.375    1.750    0.000 
#    0.000    0.000    2.750    4.500    0.000    0.000 
#    0.000    0.000    0.000    0.000    0.000    0.000 
#
# Total GULP energy -89273.822011 kJ/mol
# GULP energy per Si atom -5579.613876 kJ/mol
# Density = 2.501907 g / cm^3
# Si number density = 25.076142 Si / 1000 Ang^3
#
#
#
# Elastic Constant Matrix: (Units=GPa)
#
#
# Indices 1 2 3 4 5 6 
#
# 1 78.2813 43.4419 62.0744 -2.0214 4.0963 25.0621
# 2 43.4419 119.3951 82.7482 13.5712 24.0316 52.0922
# 3 62.0744 82.7482 246.9458 12.2806 13.4618 33.6227
# 4 -2.0214 13.5712 12.2806 40.2800 24.1183 6.6814
# 5 4.0963 24.0316 13.4618 24.1183 51.5074 7.1353
# 6 25.0621 52.0922 33.6227 6.6814 7.1353 35.7013
#
#
#
# Elastic Compliance Matrix: (Units=1/GPa)
#
#
# Indices 1 2 3 4 5 6 
#
# 1 0.019200 -0.000397 -0.003460 0.004537 -0.001140 -0.010262
# 2 -0.000397 0.028849 -0.004253 0.002735 -0.008525 -0.036618
# 3 -0.003460 -0.004253 0.005943 -0.001718 0.001075 0.003143
# 4 0.004537 0.002735 -0.001718 0.036284 -0.016936 -0.008964
# 5 -0.001140 -0.008525 0.001075 -0.016936 0.029825 0.009436
# 6 -0.010262 -0.036618 0.003143 -0.008964 0.009436 0.085475
#
#
# Mechanical properties :
#
#
# Convention : Reuss Voigt Hill
#
# Bulk Modulus (GPa) = 26.47375 91.23901 58.85638
# Shear Modulus (GPa) = 21.33237 42.58824 31.96031
#
# Velocity S-wave (km/s) = 2.91985 4.12558 3.57393
# Velocity P-wave (km/s) = 4.68483 7.69140 6.36810
#
# Compressibility (1/GPa) = 0.03777327
#
# Stress axis : x y z
#
# Youngs Moduli (GPa) = 52.08208 34.66361 168.26727
#
# Poissons Ratio (x) = 0.01377 0.58212
# Poissons Ratio (y) = 0.02069 0.71557
# Poissons Ratio (z) = 0.18018 0.14741
#
# Static dielectric constant tensor:
#      x y z
#    x 2.064570 0.127160 -0.001580 
#    y 0.127160 2.044890 0.053990 
#    z -0.001580 0.053990 2.004020 
# 
# From -- ./inp_files/117200.got.cif
#   From: 2010.05.17/outbox.cif.g08.bks.cpg/sg2_59_cif.got.tgz:117200.got - 2010.06.03 11:33:40.
