data_PCOD9102735
_publ_section_title
;
Structure prediction by ZEFSAII (Michael W. Deem and Ramdas Pophale) SiO2 
 PCOD9102735
Probable space group: P -1
;
_chemical_formula_sum "Si O2"
_cell_formula_units_Z 13
_cell_length_a 14.174634
_cell_length_b 5.444742
_cell_length_c 22.033330
_cell_angle_alpha 72.199199
_cell_angle_beta 155.788679
_cell_angle_gamma 121.120402
_cell_volume 526.358350
_symmetry_space_group_name_H-M "P -1"
_symmetry_group_IT_number 2
_symmetry_cell_setting 'triclinic'
loop_
_space_group_symop_operation_xyz
x,y,z
-x,-y,-z
loop_
_atom_site_type_symbol
_atom_site_label
_atom_site_fract_x
_atom_site_fract_y
_atom_site_fract_z
Si Si1 0.071250 0.519232 0.197107
Si Si2 0.184424 0.248904 0.534406
Si Si3 0.037298 0.048917 0.773184
Si Si4 0.500000 0.000000 0.500000
Si Si5 0.922668 0.641767 0.344774
Si Si6 0.840121 0.636222 0.867948
Si Si7 0.691398 0.688311 0.954739
O O1 0.297857 0.879984 0.327772
O O2 0.200184 0.463617 0.219430
O O3 0.019715 0.295401 0.241486
O O4 0.760227 0.433069 0.006064
O O5 0.531657 0.488391 0.727679
O O6 0.067218 0.459528 0.438173
O O7 0.000000 0.000000 0.500000
O O8 0.123635 0.003230 0.463286
O O9 0.176515 0.305285 0.781611
O O10 0.210964 0.187373 0.927732
O O11 0.720873 0.955090 0.600063
O O12 0.634155 0.436103 0.232725
O O13 0.000000 0.500000 0.000000
O O14 0.081534 0.022680 0.978436
#
# Coordination Sequence:
#
# PCOD9102735 Si02
#       7
#     2   2   2   1   2   2   2
#     4  10  23  40  69 106 144 188 243 301 365 441
#     4  12  30  51  74 109 145 194 252 308 372 431
#     4  10  23  39  69 105 145 188 241 293 376 431
#     4  10  20  38  64 102 148 178 238 302 364 434
#     4  12  28  47  78 107 154 193 243 307 375 437
#     4  11  26  48  76 102 143 197 252 303 368 443
#     4  10  25  45  72 107 147 189 247 299 370 443
#
# _framework density 24.698003
#
# number of rings (size 3 to 8) (size 9 to 14) (size 15 to 20)
#    0.000    1.231    0.000    3.231   19.385    1.231 
#    0.000    0.000    0.000    0.000    0.000    0.000 
#    0.000    0.000    0.000    0.000    0.000    0.000 
#
# Total GULP energy -72448.034025 kJ/mol
# GULP energy per Si atom -5572.925694 kJ/mol
# Density = 2.464179 g / cm^3
# Si number density = 24.698003 Si / 1000 Ang^3
#
#
#
# Elastic Constant Matrix: (Units=GPa)
#
#
# Indices 1 2 3 4 5 6 
#
# 1 79.0924 44.1501 17.4030 7.2339 0.8789 7.7226
# 2 44.1501 124.1357 64.5334 -16.5971 27.2407 23.4162
# 3 17.4030 64.5334 152.7028 5.1068 34.1846 4.2072
# 4 7.2339 -16.5971 5.1068 28.1771 -2.4656 2.5047
# 5 0.8789 27.2407 34.1846 -2.4656 46.7106 2.0733
# 6 7.7226 23.4162 4.2072 2.5047 2.0733 38.6601
#
#
#
# Elastic Compliance Matrix: (Units=1/GPa)
#
#
# Indices 1 2 3 4 5 6 
#
# 1 0.018807 -0.010470 0.001735 -0.011241 0.003759 0.002923
# 2 -0.010470 0.020558 -0.006474 0.016395 -0.005726 -0.010411
# 3 0.001735 -0.006474 0.010164 -0.006746 -0.004191 0.003130
# 4 -0.011241 0.016395 -0.006746 0.050039 -0.001322 -0.010122
# 5 0.003759 -0.005726 -0.004191 -0.001322 0.027595 0.001779
# 6 0.002923 -0.010411 0.003130 -0.010122 0.001779 0.031808
#
#
# Mechanical properties :
#
#
# Convention : Reuss Voigt Hill
#
# Bulk Modulus (GPa) = 52.32559 67.56709 59.94634
# Shear Modulus (GPa) = 25.54139 38.03248 31.78694
#
# Velocity S-wave (km/s) = 3.21931 3.92841 3.59140
# Velocity P-wave (km/s) = 5.92037 6.92772 6.44376
#
# Compressibility (1/GPa) = 0.01911111
#
# Stress axis : x y z
#
# Youngs Moduli (GPa) = 53.17117 48.64383 98.38210
#
# Poissons Ratio (x) = 0.50931 -0.17072
# Poissons Ratio (y) = 0.55672 0.63693
# Poissons Ratio (z) = -0.09227 0.31492
#
# Static dielectric constant tensor:
#      x y z
#    x 2.031170 -0.001520 -0.037170 
#    y -0.001520 2.114970 0.070540 
#    z -0.037170 0.070540 2.001090 
# 
# From -- ./inp_files/23480.got.cif
#   From: 2010.05.17/outbox.cif.g08.bks.cpg/sg2_12_cif.got.tgz:23480.got - 2010.06.03 11:33:40.
