data_PCOD9102167
_publ_section_title
;
Structure prediction by ZEFSAII (Michael W. Deem and Ramdas Pophale) SiO2 
 PCOD9102167
Probable space group: P -1
;
_chemical_formula_sum "Si O2"
_cell_formula_units_Z 14
_cell_length_a 11.821044
_cell_length_b 5.385486
_cell_length_c 11.999203
_cell_angle_alpha 51.186268
_cell_angle_beta 74.532053
_cell_angle_gamma 78.727805
_cell_volume 573.250389
_symmetry_space_group_name_H-M "P -1"
_symmetry_group_IT_number 2
_symmetry_cell_setting 'triclinic'
loop_
_space_group_symop_operation_xyz
x,y,z
-x,-y,-z
loop_
_atom_site_type_symbol
_atom_site_label
_atom_site_fract_x
_atom_site_fract_y
_atom_site_fract_z
Si Si1 0.876084 0.362674 0.808707
Si Si2 0.808140 0.573996 0.540598
Si Si3 0.537981 0.940439 0.880078
Si Si4 0.029303 0.990076 0.321543
Si Si5 0.578420 0.184868 0.578110
Si Si6 0.651939 0.084659 0.356232
Si Si7 0.693268 0.297508 0.061307
O O1 0.787311 0.518398 0.693899
O O2 0.945271 0.093310 0.792782
O O3 0.955010 0.647368 0.750945
O O4 0.801102 0.245779 0.964774
O O5 0.870283 0.239140 0.581634
O O6 0.909623 0.833047 0.431485
O O7 0.707233 0.725898 0.448298
O O8 0.406656 0.957092 0.858062
O O9 0.608620 0.134818 0.714144
O O10 0.619725 0.619155 0.956536
O O11 0.500000 0.000000 0.000000
O O12 0.500000 0.500000 0.500000
O O13 0.666691 0.185399 0.451679
O O14 0.486948 0.905026 0.642888
O O15 0.718550 0.283141 0.189830
#
# Coordination Sequence:
#
# PCOD9102167 Si02
#       7
#     2   2   2   2   2   2   2
#     4  10  20  38  62  87 118 156 201 249 299 355
#     4   9  20  36  63  85 117 155 201 250 301 351
#     4  10  21  36  57  80 117 156 200 244 296 358
#     4   9  21  38  64  88 119 153 208 251 293 362
#     4  10  21  37  56  85 116 156 196 247 293 360
#     4  10  21  39  55  84 121 151 200 243 304 354
#     4  10  22  36  55  84 117 157 198 246 299 360
#
# _framework density 24.422136999999999
#
# number of rings (size 3 to 8) (size 9 to 14) (size 15 to 20)
#    0.857    1.429    0.000    2.143    2.000    5.714 
#    0.000    1.429    0.000    0.000    0.000    0.000 
#    0.000    0.000    0.000    0.000    0.000    0.000 
#
# Total GULP energy -78004.858717 kJ/mol
# GULP energy per Si atom -5571.775623 kJ/mol
# Density = 2.436655 g / cm^3
# Si number density = 24.422137 Si / 1000 Ang^3
#
#
#
# Elastic Constant Matrix: (Units=GPa)
#
#
# Indices 1 2 3 4 5 6 
#
# 1 50.9222 7.5668 16.8084 10.2115 -5.2285 3.7318
# 2 7.5668 74.8896 21.8020 33.1853 -3.9288 9.3890
# 3 16.8084 21.8020 191.5172 49.9495 -7.8220 -4.6208
# 4 10.2115 33.1853 49.9495 43.4526 -8.2889 -1.4159
# 5 -5.2285 -3.9288 -7.8220 -8.2889 20.9554 0.8770
# 6 3.7318 9.3890 -4.6208 -1.4159 0.8770 27.0887
#
#
#
# Elastic Compliance Matrix: (Units=1/GPa)
#
#
# Indices 1 2 3 4 5 6 
#
# 1 0.021251 0.000370 -0.000885 -0.003661 0.003741 -0.003519
# 2 0.000370 0.023007 0.002633 -0.021490 -0.002751 -0.008610
# 3 -0.000885 0.002633 0.007826 -0.011022 -0.001166 0.000006
# 4 -0.003661 -0.021490 -0.011022 0.055637 0.012592 0.008573
# 5 0.003741 -0.002751 -0.001166 0.012592 0.052718 -0.000809
# 6 -0.003519 -0.008610 0.000006 0.008573 -0.000809 0.040860
#
#
# Mechanical properties :
#
#
# Convention : Reuss Voigt Hill
#
# Bulk Modulus (GPa) = 17.75530 45.52039 31.63785
# Shear Modulus (GPa) = 23.16579 36.37612 29.77095
#
# Velocity S-wave (km/s) = 3.08321 3.86356 3.49523
# Velocity P-wave (km/s) = 4.46775 6.21146 5.41032
#
# Compressibility (1/GPa) = 0.05632122
#
# Stress axis : x y z
#
# Youngs Moduli (GPa) = 47.05689 43.46551 127.77113
#
# Poissons Ratio (x) = -0.01608 0.11302
# Poissons Ratio (y) = -0.01741 -0.33643
# Poissons Ratio (z) = 0.04162 -0.11445
#
# Static dielectric constant tensor:
#      x y z
#    x 2.079180 0.088680 -0.017930 
#    y 0.088680 2.098480 0.030320 
#    z -0.017930 0.030320 2.057260 
# 
# From -- ./inp_files/409837.got.cif
#   From: 2010.05.17/outbox.cif.g08.bks.cpg/sg2_205_cif.got.tgz:409837.got - 2010.06.03 11:33:40.
