data_PCOD9102059
_publ_section_title
;
Structure prediction by ZEFSAII (Michael W. Deem and Ramdas Pophale) SiO2 
 PCOD9102059
Probable space group: P -1
;
_chemical_formula_sum "Si O2"
_cell_formula_units_Z 16
_cell_length_a 14.423508
_cell_length_b 19.091885
_cell_length_c 8.382125
_cell_angle_alpha 127.782852
_cell_angle_beta 52.468437
_cell_angle_gamma 160.298854
_cell_volume 610.422371
_symmetry_space_group_name_H-M "P -1"
_symmetry_group_IT_number 2
_symmetry_cell_setting 'triclinic'
loop_
_space_group_symop_operation_xyz
x,y,z
-x,-y,-z
loop_
_atom_site_type_symbol
_atom_site_label
_atom_site_fract_x
_atom_site_fract_y
_atom_site_fract_z
Si Si1 0.445004 0.619955 0.737387
Si Si2 0.894149 0.269242 0.487888
Si Si3 0.162950 0.876144 0.268393
Si Si4 0.294264 0.056545 0.668041
Si Si5 0.289631 0.852105 0.848933
Si Si6 0.502384 0.619998 0.333964
Si Si7 0.273430 0.262114 0.076454
Si Si8 0.789810 0.390668 0.848330
O O1 0.606293 0.712969 0.534004
O O2 0.606854 0.699725 0.835594
O O3 0.150703 0.363770 0.687645
O O4 0.351813 0.656876 0.921125
O O5 0.788123 0.102588 0.429494
O O6 0.764431 0.190777 0.340725
O O7 0.826437 0.311358 0.715083
O O8 0.222437 0.484796 0.427957
O O9 0.260170 0.030323 0.474873
O O10 0.398799 0.964889 0.187072
O O11 0.187694 0.878911 0.055926
O O12 0.051497 0.942809 0.850606
O O13 0.590436 0.271803 0.739026
O O14 0.078868 0.636852 0.850240
O O15 0.417532 0.458055 0.199768
O O16 0.658180 0.735350 0.162753
#
# Coordination Sequence:
#
# PCOD9102059 Si02
#       8
#     2   2   2   2   2   2   2   2
#     4  11  22  42  65  98 131 174 220 274 327 389
#     4  11  21  40  65  93 132 171 211 273 329 395
#     4  10  20  38  61  94 126 166 221 259 325 398
#     4  11  23  41  66  95 130 176 220 259 332 399
#     4  10  22  38  63  94 133 167 214 272 326 399
#     4  10  21  39  65  99 122 174 226 265 323 394
#     4  10  22  41  68  92 132 173 224 272 319 385
#     4  11  24  39  67  97 134 172 209 272 343 388
#
# _framework density 26.211359999999999
#
# number of rings (size 3 to 8) (size 9 to 14) (size 15 to 20)
#    0.000    1.500    3.750    2.625    0.000    1.000 
#    0.000    0.625    0.000    0.000    0.000    0.875 
#    0.000    0.000    0.000    0.000    0.000    0.000 
#
# Total GULP energy -89585.975182 kJ/mol
# GULP energy per Si atom -5599.123449 kJ/mol
# Density = 2.615170 g / cm^3
# Si number density = 26.211360 Si / 1000 Ang^3
#
#
#
# Elastic Constant Matrix: (Units=GPa)
#
#
# Indices 1 2 3 4 5 6 
#
# 1 89.2367 42.3669 47.6507 -10.4861 7.6507 5.2205
# 2 42.3669 121.7248 42.2735 6.2226 14.7070 6.6425
# 3 47.6507 42.2735 228.9034 -10.5209 6.3166 10.4021
# 4 -10.4861 6.2226 -10.5209 45.9760 2.0770 3.9144
# 5 7.6507 14.7070 6.3166 2.0770 39.4731 -4.8488
# 6 5.2205 6.6425 10.4021 3.9144 -4.8488 35.5397
#
#
#
# Elastic Compliance Matrix: (Units=1/GPa)
#
#
# Indices 1 2 3 4 5 6 
#
# 1 0.015058 -0.004497 -0.002034 0.003752 -0.001283 -0.001364
# 2 -0.004497 0.010681 -0.001015 -0.002470 -0.002959 -0.001170
# 3 -0.002034 -0.001015 0.005081 0.000943 -0.000229 -0.001134
# 4 0.003752 -0.002470 0.000943 0.023498 -0.001583 -0.003169
# 5 -0.001283 -0.002959 -0.000229 -0.001583 0.027385 0.004719
# 6 -0.001364 -0.001170 -0.001134 -0.003169 0.004719 0.029881
#
#
# Mechanical properties :
#
#
# Convention : Reuss Voigt Hill
#
# Bulk Modulus (GPa) = 63.58552 78.27191 70.92872
# Shear Modulus (GPa) = 37.90238 44.70270 41.30254
#
# Velocity S-wave (km/s) = 3.80679 4.13421 3.97388
# Velocity P-wave (km/s) = 6.60558 7.26055 6.94080
#
# Compressibility (1/GPa) = 0.01572685
#
# Stress axis : x y z
#
# Youngs Moduli (GPa) = 66.40967 93.62764 196.81989
#
# Poissons Ratio (x) = 0.42104 0.40040
# Poissons Ratio (y) = 0.29864 0.19978
# Poissons Ratio (z) = 0.13510 0.09504
#
# Static dielectric constant tensor:
#      x y z
#    x 2.134550 -0.035920 0.061790 
#    y -0.035920 2.004160 0.028860 
#    z 0.061790 0.028860 2.245730 
# 
# From -- ./inp_files/319473.got.cif
#   From: 2010.05.17/outbox.cif.g08.bks.cpg/sg2_160_cif.got.tgz:319473.got - 2010.06.03 11:33:40.
