data_PCOD9102042
_publ_section_title
;
Structure prediction by ZEFSAII (Michael W. Deem and Ramdas Pophale) SiO2 
 PCOD9102042
Probable space group: P -1
;
_chemical_formula_sum "Si O2"
_cell_formula_units_Z 12
_cell_length_a 7.439644
_cell_length_b 8.311633
_cell_length_c 9.064533
_cell_angle_alpha 86.223915
_cell_angle_beta 102.910162
_cell_angle_gamma 117.139810
_cell_volume 485.767221
_symmetry_space_group_name_H-M "P -1"
_symmetry_group_IT_number 2
_symmetry_cell_setting 'triclinic'
loop_
_space_group_symop_operation_xyz
x,y,z
-x,-y,-z
loop_
_atom_site_type_symbol
_atom_site_label
_atom_site_fract_x
_atom_site_fract_y
_atom_site_fract_z
Si Si1 0.001716 0.166118 0.360132
Si Si2 0.490834 0.151885 0.188065
Si Si3 0.559210 0.691031 0.424936
Si Si4 0.227991 0.845889 0.379368
Si Si5 0.077685 0.526862 0.683741
Si Si6 0.683951 0.879273 0.147834
O O1 0.209628 0.202046 0.476830
O O2 0.022880 0.349793 0.276475
O O3 0.839962 0.133655 0.468228
O O4 0.915987 0.001596 0.240759
O O5 0.677886 0.347413 0.255228
O O6 0.338192 0.028067 0.294192
O O7 0.592282 0.022670 0.158754
O O8 0.362504 0.172238 0.026478
O O9 0.500000 0.500000 0.500000
O O10 0.580255 0.711349 0.250525
O O11 0.398589 0.769751 0.426731
O O12 0.031233 0.681050 0.273202
O O13 0.000000 0.500000 0.500000
#
# Coordination Sequence:
#
# PCOD9102042 Si02
#       6
#     2   2   2   2   2   2
#     4  10  20  38  61  93 120 155 217 256 294 375
#     4   9  19  38  60  90 126 162 204 253 313 368
#     4  11  21  36  60  93 126 161 204 261 308 361
#     4  10  21  39  65  92 119 163 206 254 316 357
#     4   9  18  33  59  93 121 152 209 254 294 371
#     4   9  20  38  58  89 126 159 205 259 303 370
#
# _framework density 24.703188000000001
#
# number of rings (size 3 to 8) (size 9 to 14) (size 15 to 20)
#    0.000    2.333    1.667    0.500    0.000   10.667 
#    3.000    4.167    0.000    8.000    0.000    3.500 
#    0.000    0.000    0.000    0.000    0.000    0.000 
#
# Total GULP energy -67025.778209 kJ/mol
# GULP energy per Si atom -5585.481517 kJ/mol
# Density = 2.464696 g / cm^3
# Si number density = 24.703188 Si / 1000 Ang^3
#
#
#
# Elastic Constant Matrix: (Units=GPa)
#
#
# Indices 1 2 3 4 5 6 
#
# 1 122.8837 43.4094 36.4238 0.3854 4.2192 16.7460
# 2 43.4094 185.3960 97.9819 6.0204 21.4526 12.8595
# 3 36.4238 97.9819 159.7487 6.8913 30.4634 24.4017
# 4 0.3854 6.0204 6.8913 28.9583 -0.1842 10.5257
# 5 4.2192 21.4526 30.4634 -0.1842 22.8475 7.0188
# 6 16.7460 12.8595 24.4017 10.5257 7.0188 42.7759
#
#
#
# Elastic Compliance Matrix: (Units=1/GPa)
#
#
# Indices 1 2 3 4 5 6 
#
# 1 0.009448 -0.001724 -0.001118 0.001738 0.002412 -0.003366
# 2 -0.001724 0.008352 -0.004519 -0.001136 -0.001918 0.001336
# 3 -0.001118 -0.004519 0.011744 -0.000810 -0.010290 -0.003016
# 4 0.001738 -0.001136 -0.000810 0.038704 0.005292 -0.010269
# 5 0.002412 -0.001918 -0.010290 0.005292 0.060653 -0.005752
# 6 -0.003366 0.001336 -0.003016 -0.010269 -0.005752 0.029485
#
#
# Mechanical properties :
#
#
# Convention : Reuss Voigt Hill
#
# Bulk Modulus (GPa) = 67.45959 91.51762 79.48860
# Shear Modulus (GPa) = 28.08214 38.26388 33.17301
#
# Velocity S-wave (km/s) = 3.37528 3.93993 3.66849
# Velocity P-wave (km/s) = 6.52360 7.60426 7.08456
#
# Compressibility (1/GPa) = 0.01482369
#
# Stress axis : x y z
#
# Youngs Moduli (GPa) = 105.83722 119.73425 85.14838
#
# Poissons Ratio (x) = 0.20636 0.09519
# Poissons Ratio (y) = 0.18241 0.38478
# Poissons Ratio (z) = 0.11832 0.54107
#
# Static dielectric constant tensor:
#      x y z
#    x 2.061710 -0.019650 0.019640 
#    y -0.019650 2.171310 0.000750 
#    z 0.019640 0.000750 1.950450 
# 
# From -- ./inp_files/248961.got.cif
#   From: 2010.05.17/outbox.cif.g08.bks.cpg/sg2_125_cif.got.tgz:248961.got - 2010.06.03 11:33:40.
