data_PCOD9102881
_publ_section_title
;
Structure prediction by ZEFSAII (Michael W. Deem and Ramdas Pophale) SiO2 
 PCOD9102881
Probable space group: P -1
;
_chemical_formula_sum "Si O2"
_cell_formula_units_Z 16
_cell_length_a 12.740476
_cell_length_b 8.786286
_cell_length_c 10.097150
_cell_angle_alpha 113.485725
_cell_angle_beta 46.480146
_cell_angle_gamma 90.040133
_cell_volume 685.096623
_symmetry_space_group_name_H-M "P -1"
_symmetry_group_IT_number 2
_symmetry_cell_setting 'triclinic'
loop_
_space_group_symop_operation_xyz
x,y,z
-x,-y,-z
loop_
_atom_site_type_symbol
_atom_site_label
_atom_site_fract_x
_atom_site_fract_y
_atom_site_fract_z
Si Si1 0.809949 0.095923 0.423493
Si Si2 0.525978 0.074333 0.171473
Si Si3 0.472511 0.162842 0.682012
Si Si4 0.357346 0.660627 0.745529
Si Si5 0.975993 0.314309 0.940535
Si Si6 0.756714 0.448063 0.955108
Si Si7 0.241187 0.070389 0.322697
Si Si8 0.055880 0.663932 0.491835
O O1 0.634140 0.193831 0.550863
O O2 0.903747 0.226134 0.386786
O O3 0.794637 0.049151 0.576119
O O4 0.894888 0.890507 0.217597
O O5 0.605579 0.165202 0.234507
O O6 0.335248 0.178411 0.351749
O O7 0.541844 0.895481 0.174954
O O8 0.624108 0.039938 0.939671
O O9 0.500000 0.000000 0.500000
O O10 0.314479 0.343893 0.860995
O O11 0.500000 0.500000 0.500000
O O12 0.188492 0.672749 0.846865
O O13 0.354591 0.625344 0.894336
O O14 0.927040 0.330769 0.833338
O O15 0.000000 0.500000 0.000000
O O16 0.785823 0.422265 0.766700
O O17 0.090064 0.182571 0.405136
O O18 0.000000 0.500000 0.500000
#
# Coordination Sequence:
#
# PCOD9102881 Si02
#       8
#     2   2   2   2   2   2   2   2
#     4  11  23  41  70  92 128 182 216 270 340 393
#     4  10  21  36  61  94 123 168 217 267 322 395
#     4  11  23  41  63  93 134 173 220 271 335 393
#     4  10  21  35  62  90 124 170 216 266 316 386
#     4  10  22  40  66  95 128 173 225 267 321 393
#     4  10  23  39  61  93 130 168 214 279 326 385
#     4  10  20  38  64  91 127 164 219 270 325 394
#     4  12  24  40  65  97 136 171 219 279 336 399
#
# _framework density 23.354368000000001
#
# number of rings (size 3 to 8) (size 9 to 14) (size 15 to 20)
#    0.750    0.750    1.250    4.125    3.500    1.500 
#    0.000    1.250    0.000    6.000    0.000    0.000 
#    0.000    0.000    0.000    0.000    0.000    0.000 
#
# Total GULP energy -89103.120239 kJ/mol
# GULP energy per Si atom -5568.945015 kJ/mol
# Density = 2.330121 g / cm^3
# Si number density = 23.354368 Si / 1000 Ang^3
#
#
#
# Elastic Constant Matrix: (Units=GPa)
#
#
# Indices 1 2 3 4 5 6 
#
# 1 62.2036 19.0140 4.5142 -0.3320 -11.7571 19.8375
# 2 19.0140 75.5909 21.2010 3.2174 0.1919 35.9111
# 3 4.5142 21.2010 84.9887 -0.1070 -5.9051 14.5355
# 4 -0.3320 3.2174 -0.1070 31.6440 -1.4527 -0.1608
# 5 -11.7571 0.1919 -5.9051 -1.4527 26.3800 -2.8250
# 6 19.8375 35.9111 14.5355 -0.1608 -2.8250 40.5905
#
#
#
# Elastic Compliance Matrix: (Units=1/GPa)
#
#
# Indices 1 2 3 4 5 6 
#
# 1 0.020885 -0.001553 0.001376 0.000738 0.008735 -0.008716
# 2 -0.001553 0.023839 -0.002774 -0.002721 -0.003736 -0.019609
# 3 0.001376 -0.002774 0.013071 0.000479 0.003300 -0.002668
# 4 0.000738 -0.002721 0.000479 0.032011 0.002451 0.002172
# 5 0.008735 -0.003736 0.003300 0.002451 0.042792 0.000842
# 6 -0.008716 -0.019609 -0.002668 0.002172 0.000842 0.047267
#
#
# Mechanical properties :
#
#
# Convention : Reuss Voigt Hill
#
# Bulk Modulus (GPa) = 19.26937 34.69351 26.98144
# Shear Modulus (GPa) = 24.62289 31.59316 28.10802
#
# Velocity S-wave (km/s) = 3.25055 3.68200 3.47298
# Velocity P-wave (km/s) = 4.72830 5.74140 5.25930
#
# Compressibility (1/GPa) = 0.05189585
#
# Stress axis : x y z
#
# Youngs Moduli (GPa) = 47.88036 41.94880 76.50363
#
# Poissons Ratio (x) = 0.06513 -0.10530
# Poissons Ratio (y) = 0.07434 0.21218
# Poissons Ratio (z) = -0.06590 0.11635
#
# Static dielectric constant tensor:
#      x y z
#    x 2.027000 0.106050 0.091420 
#    y 0.106050 2.003360 0.038510 
#    z 0.091420 0.038510 1.916880 
# 
# From -- ./inp_files/447997.got.cif
#   From: 2010.05.17/outbox.cif.g08.bks.cpg/sg2_224_cif.got.tgz:447997.got - 2010.06.03 11:33:40.
