data_PCOD9102455
_publ_section_title
;
Structure prediction by ZEFSAII (Michael W. Deem and Ramdas Pophale) SiO2 
 PCOD9102455
Probable space group: P -1
;
_chemical_formula_sum "Si O2"
_cell_formula_units_Z 12
_cell_length_a 8.601998
_cell_length_b 15.622439
_cell_length_c 9.536912
_cell_angle_alpha 36.889892
_cell_angle_beta 48.072468
_cell_angle_gamma 69.658161
_cell_volume 519.901403
_symmetry_space_group_name_H-M "P -1"
_symmetry_group_IT_number 2
_symmetry_cell_setting 'triclinic'
loop_
_space_group_symop_operation_xyz
x,y,z
-x,-y,-z
loop_
_atom_site_type_symbol
_atom_site_label
_atom_site_fract_x
_atom_site_fract_y
_atom_site_fract_z
Si Si1 0.324159 0.270214 0.842542
Si Si2 0.829984 0.338652 0.379927
Si Si3 0.805881 0.564201 0.514033
Si Si4 0.929002 0.057338 0.716141
Si Si5 0.440575 0.246182 0.125628
Si Si6 0.148972 0.807534 0.158276
O O1 0.567206 0.311727 0.563913
O O2 0.227439 0.389795 0.684409
O O3 0.370935 0.274532 0.972853
O O4 0.158002 0.096189 0.122480
O O5 0.868864 0.188110 0.499180
O O6 0.879447 0.324795 0.532798
O O7 0.000000 0.500000 0.000000
O O8 0.000000 0.500000 0.500000
O O9 0.914345 0.729539 0.314481
O O10 0.570552 0.418203 0.890950
O O11 0.814092 0.047988 0.950817
O O12 0.200890 0.130167 0.486786
O O13 0.629323 0.174742 0.088024
#
# Coordination Sequence:
#
# PCOD9102455 Si02
#       6
#     2   2   2   2   2   2
#     4  11  21  37  62  86 119 154 193 241 292 339
#     4   9  19  37  59  88 112 147 195 234 284 344
#     4  10  21  39  59  84 119 158 193 242 284 341
#     4  10  21  37  62  89 118 148 195 240 293 342
#     4  10  20  38  63  84 116 156 195 236 288 343
#     4   8  21  38  60  84 123 144 197 240 286 339
#
# _framework density 23.081299999999999
#
# number of rings (size 3 to 8) (size 9 to 14) (size 15 to 20)
#    1.000    1.333    0.000    2.500    0.000    4.000 
#    0.000    3.333    0.000    0.000    0.000    0.000 
#    0.000    0.000    0.000    0.000    0.000    0.000 
#
# Total GULP energy -66938.152268 kJ/mol
# GULP energy per Si atom -5578.179356 kJ/mol
# Density = 2.302877 g / cm^3
# Si number density = 23.081300 Si / 1000 Ang^3
#
#
#
# Elastic Constant Matrix: (Units=GPa)
#
#
# Indices 1 2 3 4 5 6 
#
# 1 87.0076 18.3639 20.3548 -9.5019 -15.8322 1.4263
# 2 18.3639 63.0733 5.3054 -14.7710 -2.1330 -5.8588
# 3 20.3548 5.3054 49.0201 -4.1926 -5.6364 -17.8449
# 4 -9.5019 -14.7710 -4.1926 29.9152 -4.2214 -7.4131
# 5 -15.8322 -2.1330 -5.6364 -4.2214 28.1769 -3.5127
# 6 1.4263 -5.8588 -17.8449 -7.4131 -3.5127 31.1544
#
#
#
# Elastic Compliance Matrix: (Units=1/GPa)
#
#
# Indices 1 2 3 4 5 6 
#
# 1 0.015278 -0.003468 -0.006277 0.002351 0.006969 -0.003602
# 2 -0.003468 0.020482 0.004301 0.012564 0.003574 0.009866
# 3 -0.006277 0.004301 0.033171 0.011839 0.008179 0.023835
# 4 0.002351 0.012564 0.011839 0.049728 0.014902 0.022549
# 5 0.006969 0.003574 0.008179 0.014902 0.045251 0.013686
# 6 -0.003602 0.009866 0.023835 0.022549 0.013686 0.054680
#
#
# Mechanical properties :
#
#
# Convention : Reuss Voigt Hill
#
# Bulk Modulus (GPa) = 17.22929 31.90546 24.56737
# Shear Modulus (GPa) = 20.09433 28.18779 24.14106
#
# Velocity S-wave (km/s) = 2.95378 3.49841 3.23757
# Velocity P-wave (km/s) = 4.37194 5.49287 4.96415
#
# Compressibility (1/GPa) = 0.05804070
#
# Stress axis : x y z
#
# Youngs Moduli (GPa) = 65.45447 48.82265 30.14720
#
# Poissons Ratio (x) = 0.16934 0.18924
# Poissons Ratio (y) = 0.22702 -0.12965
# Poissons Ratio (z) = 0.41087 -0.20997
#
# Static dielectric constant tensor:
#      x y z
#    x 1.881080 -0.027280 0.016180 
#    y -0.027280 1.947120 -0.023890 
#    z 0.016180 -0.023890 1.869950 
# 
# From -- ./inp_files/164105.got.cif
#   From: 2010.05.17/outbox.cif.g08.bks.cpg/sg2_83_cif.got.tgz:164105.got - 2010.06.03 11:33:40.
