data_PCOD9102618
_publ_section_title
;
Structure prediction by ZEFSAII (Michael W. Deem and Ramdas Pophale) SiO2 
 PCOD9102618
Probable space group: P -1
;
_chemical_formula_sum "Si O2"
_cell_formula_units_Z 14
_cell_length_a 15.315595
_cell_length_b 6.912618
_cell_length_c 14.564510
_cell_angle_alpha 111.112723
_cell_angle_beta 150.398276
_cell_angle_gamma 86.336824
_cell_volume 597.586466
_symmetry_space_group_name_H-M "P -1"
_symmetry_group_IT_number 2
_symmetry_cell_setting 'triclinic'
loop_
_space_group_symop_operation_xyz
x,y,z
-x,-y,-z
loop_
_atom_site_type_symbol
_atom_site_label
_atom_site_fract_x
_atom_site_fract_y
_atom_site_fract_z
Si Si1 0.491699 0.766131 0.994118
Si Si2 0.723574 0.879178 0.534990
Si Si3 0.805598 0.760955 0.406756
Si Si4 0.567176 0.986543 0.746026
Si Si5 0.844369 0.494941 0.641627
Si Si6 0.867392 0.303704 0.222438
Si Si7 0.138470 0.883616 0.115896
O O1 0.287676 0.173853 0.753425
O O2 0.314445 0.671808 0.896425
O O3 0.387062 0.521755 0.794319
O O4 0.500000 0.000000 0.000000
O O5 0.833622 0.935856 0.546620
O O6 0.758179 0.672169 0.571176
O O7 0.487583 0.807013 0.287839
O O8 0.811653 0.096139 0.727893
O O9 0.011295 0.746567 0.595837
O O10 0.355237 0.759723 0.553508
O O11 0.648962 0.946573 0.718861
O O12 0.745408 0.075690 0.001084
O O13 0.959678 0.489899 0.653104
O O14 0.012938 0.628519 0.901211
O O15 0.000000 0.000000 0.000000
#
# Coordination Sequence:
#
# PCOD9102618 Si02
#       7
#     2   2   2   2   2   2   2
#     4  11  24  43  71  94 126 168 218 267 333 393
#     4  10  20  38  63  92 131 165 217 266 308 383
#     4  10  23  43  63  97 133 164 212 275 322 379
#     4  11  21  40  66  94 130 178 213 257 325 378
#     4   9  22  40  64  91 135 169 214 266 315 374
#     4  10  22  42  66  98 130 167 216 268 316 390
#     4   9  20  39  60  95 133 170 216 266 308 381
#
# _framework density 23.427568999999998
#
# number of rings (size 3 to 8) (size 9 to 14) (size 15 to 20)
#    0.000    2.000    1.429    1.714    4.000    3.429 
#    0.000   18.571    0.000    0.000    0.000    0.000 
#    0.000    0.000    0.000    0.000    0.000    0.000 
#
# Total GULP energy -78087.535483 kJ/mol
# GULP energy per Si atom -5577.681106 kJ/mol
# Density = 2.337425 g / cm^3
# Si number density = 23.427569 Si / 1000 Ang^3
#
#
#
# Elastic Constant Matrix: (Units=GPa)
#
#
# Indices 1 2 3 4 5 6 
#
# 1 94.7654 14.0866 32.8752 5.6442 3.4824 -3.1273
# 2 14.0866 91.4751 27.8854 -15.8737 3.0758 12.9213
# 3 32.8752 27.8854 92.3757 -13.5589 -4.5382 19.9212
# 4 5.6442 -15.8737 -13.5589 41.8049 6.9464 7.4694
# 5 3.4824 3.0758 -4.5382 6.9464 52.2785 -14.7883
# 6 -3.1273 12.9213 19.9212 7.4694 -14.7883 26.4816
#
#
#
# Elastic Compliance Matrix: (Units=1/GPa)
#
#
# Indices 1 2 3 4 5 6 
#
# 1 0.015012 -0.003556 -0.008694 -0.009521 0.003945 0.014937
# 2 -0.003556 0.015285 0.001137 0.010393 -0.006228 -0.015143
# 3 -0.008694 0.001137 0.020567 0.013735 -0.006469 -0.024540
# 4 -0.009521 0.010393 0.013735 0.042670 -0.014886 -0.036877
# 5 0.003945 -0.006228 -0.006469 -0.014886 0.028745 0.028622
# 6 0.014937 -0.015143 -0.024540 -0.036877 0.028622 0.091760
#
#
# Mechanical properties :
#
#
# Convention : Reuss Voigt Hill
#
# Bulk Modulus (GPa) = 34.92029 47.59008 41.25519
# Shear Modulus (GPa) = 20.34081 37.69759 29.01920
#
# Velocity S-wave (km/s) = 2.94979 4.01573 3.52330
# Velocity P-wave (km/s) = 5.15167 6.46987 5.84803
#
# Compressibility (1/GPa) = 0.02863665
#
# Stress axis : x y z
#
# Youngs Moduli (GPa) = 66.61315 65.42364 48.62234
#
# Poissons Ratio (x) = 0.23266 0.42272
# Poissons Ratio (y) = 0.23689 -0.05527
# Poissons Ratio (z) = 0.57913 -0.07436
#
# Static dielectric constant tensor:
#      x y z
#    x 1.964120 -0.025470 -0.051210 
#    y -0.025470 1.926220 -0.007920 
#    z -0.051210 -0.007920 1.925450 
# 
# From -- ./inp_files/572748.got.cif
#   From: 2010.05.17/outbox.cif.g08.bks.cpg/sg2_287_cif.got.tgz:572748.got - 2010.06.03 11:33:40.
