data_PCOD9102701
_publ_section_title
;
Structure prediction by ZEFSAII (Michael W. Deem and Ramdas Pophale) SiO2 
 PCOD9102701
Probable space group: P -1
;
_chemical_formula_sum "Si O2"
_cell_formula_units_Z 14
_cell_length_a 10.790414
_cell_length_b 19.283542
_cell_length_c 8.175506
_cell_angle_alpha 98.442514
_cell_angle_beta 61.967076
_cell_angle_gamma 150.182049
_cell_volume 600.358915
_symmetry_space_group_name_H-M "P -1"
_symmetry_group_IT_number 2
_symmetry_cell_setting 'triclinic'
loop_
_space_group_symop_operation_xyz
x,y,z
-x,-y,-z
loop_
_atom_site_type_symbol
_atom_site_label
_atom_site_fract_x
_atom_site_fract_y
_atom_site_fract_z
Si Si1 0.295446 0.401498 0.259149
Si Si2 0.596089 0.801677 0.229259
Si Si3 0.703335 0.205139 0.381724
Si Si4 0.861256 0.046823 0.594404
Si Si5 0.250815 0.508753 0.879099
Si Si6 0.538405 0.634136 0.421032
Si Si7 0.574954 0.790220 0.868725
O O1 0.387742 0.365462 0.246514
O O2 0.491780 0.544607 0.308272
O O3 0.911346 0.251000 0.395853
O O4 0.500000 0.500000 0.000000
O O5 0.440060 0.794883 0.424697
O O6 0.534936 0.702260 0.334450
O O7 0.452003 0.729975 0.110505
O O8 0.000000 0.000000 0.000000
O O9 0.396724 0.032308 0.399894
O O10 0.976594 0.358789 0.130203
O O11 0.615869 0.885808 0.805892
O O12 0.109723 0.196488 0.629327
O O13 0.062292 0.082594 0.363339
O O14 0.225927 0.481976 0.693415
O O15 0.320870 0.622729 0.875563
#
# Coordination Sequence:
#
# PCOD9102701 Si02
#       7
#     2   2   2   2   2   2   2
#     4  10  23  45  66  91 130 173 215 263 316 379
#     4  12  21  37  65  99 133 164 205 269 330 376
#     4  11  23  40  66  99 129 166 220 263 315 385
#     4  10  20  38  63  97 128 166 208 262 327 378
#     4  10  23  42  66  90 133 174 215 261 313 384
#     4  11  23  42  69  92 130 174 207 267 331 373
#     4  10  20  39  63  92 134 168 201 263 331 377
#
# _framework density 23.319383999999999
#
# number of rings (size 3 to 8) (size 9 to 14) (size 15 to 20)
#    0.000    1.429    2.857    3.857    0.000    5.714 
#    0.000    5.714    6.286    0.000    0.000    0.000 
#    0.000    0.000    0.000    0.000    0.000    0.000 
#
# Total GULP energy -78034.772753 kJ/mol
# GULP energy per Si atom -5573.912340 kJ/mol
# Density = 2.326631 g / cm^3
# Si number density = 23.319384 Si / 1000 Ang^3
#
#
#
# Elastic Constant Matrix: (Units=GPa)
#
#
# Indices 1 2 3 4 5 6 
#
# 1 6.7845 18.8239 24.0215 -35.3974 2.0090 17.4217
# 2 18.8239 99.8812 26.9412 21.3582 -12.5944 15.5277
# 3 24.0215 26.9412 136.9709 19.4069 13.5434 -1.4226
# 4 -35.3974 21.3582 19.4069 36.4217 9.7680 5.4814
# 5 2.0090 -12.5944 13.5434 9.7680 38.0410 -13.2076
# 6 17.4217 15.5277 -1.4226 5.4814 -13.2076 34.1436
#
#
#
# Elastic Compliance Matrix: (Units=1/GPa)
#
#
# Indices 1 2 3 4 5 6 
#
# 1 -0.011301 0.005228 0.002884 -0.019888 0.010089 0.010604
# 2 0.005228 0.011124 -0.003510 0.001035 0.001848 -0.007324
# 3 0.002884 -0.003510 0.007637 0.002550 -0.005402 -0.002056
# 4 -0.019888 0.001035 0.002550 0.003760 0.003127 0.010389
# 5 0.010089 0.001848 -0.005402 0.003127 0.029058 0.004525
# 6 0.010604 -0.007324 -0.002056 0.010389 0.004525 0.027205
#
#
# Mechanical properties :
#
#
# Convention : Reuss Voigt Hill
#
# Bulk Modulus (GPa) = 60.01220 42.57888 51.29554
# Shear Modulus (GPa) = 78.32916 33.31124 55.82020
#
# Velocity S-wave (km/s) = 5.80195 3.78362 4.89788
# Velocity P-wave (km/s) = 8.40680 6.11444 7.35053
#
# Compressibility (1/GPa) = 0.01666328
#
# Stress axis : x y z
#
# Youngs Moduli (GPa) = -88.48828 89.89882 130.94186
#
# Poissons Ratio (x) = -0.47001 -0.37762
# Poissons Ratio (y) = 0.46264 0.45965
# Poissons Ratio (z) = 0.25519 0.31557
#
# Static dielectric constant tensor:
#      x y z
#    x 1.942100 0.069120 -0.034410 
#    y 0.069120 1.930080 -0.061710 
#    z -0.034410 -0.061710 1.928410 
# 
# From -- ./inp_files/281074.got.cif
#   From: 2010.05.17/outbox.cif.g08.bks.cpg/sg2_141_cif.got.tgz:281074.got - 2010.06.03 11:33:40.
