data_PCOD9102029
_publ_section_title
;
Structure prediction by ZEFSAII (Michael W. Deem and Ramdas Pophale) SiO2 
 PCOD9102029
Probable space group: P -1
;
_chemical_formula_sum "Si O2"
_cell_formula_units_Z 12
_cell_length_a 13.575358
_cell_length_b 6.185136
_cell_length_c 9.935146
_cell_angle_alpha 63.958471
_cell_angle_beta 139.275336
_cell_angle_gamma 111.728851
_cell_volume 488.001566
_symmetry_space_group_name_H-M "P -1"
_symmetry_group_IT_number 2
_symmetry_cell_setting 'triclinic'
loop_
_space_group_symop_operation_xyz
x,y,z
-x,-y,-z
loop_
_atom_site_type_symbol
_atom_site_label
_atom_site_fract_x
_atom_site_fract_y
_atom_site_fract_z
Si Si1 0.574949 0.957276 0.807066
Si Si2 0.650838 0.311679 0.564827
Si Si3 0.385644 0.704035 0.870170
Si Si4 0.113455 0.787012 0.368469
Si Si5 0.136857 0.321833 0.205469
Si Si6 0.792633 0.607654 0.046472
O O1 0.477423 0.780757 0.647684
O O2 0.481689 0.942866 0.852374
O O3 0.602799 0.204485 0.688667
O O4 0.729494 0.824015 0.010190
O O5 0.800238 0.200175 0.689130
O O6 0.720208 0.582535 0.580729
O O7 0.235700 0.702613 0.622853
O O8 0.313094 0.628116 0.959012
O O9 0.500000 0.500000 0.000000
O O10 0.968628 0.603080 0.265232
O O11 0.075849 0.064437 0.269836
O O12 0.206906 0.322020 0.128188
O O13 0.000000 0.500000 0.000000
#
# Coordination Sequence:
#
# PCOD9102029 Si02
#       6
#     2   2   2   2   2   2
#     4   9  19  38  62  86 123 157 201 251 299 358
#     4  10  20  38  61  92 120 157 203 254 300 354
#     4   9  21  40  65  88 119 167 203 244 308 365
#     4  11  21  40  67  88 122 163 204 250 306 356
#     4  12  23  36  63  97 125 154 205 255 300 359
#     4  11  20  38  62  92 122 161 201 248 309 360
#
# _framework density 24.590083
#
# number of rings (size 3 to 8) (size 9 to 14) (size 15 to 20)
#    0.000    1.667    3.333    2.000    0.000    0.667 
#    0.000    1.667   14.667    0.000    0.000    0.000 
#    0.000    0.000    0.000    0.000    0.000    0.000 
#
# Total GULP energy -66935.956892 kJ/mol
# GULP energy per Si atom -5577.996408 kJ/mol
# Density = 2.453411 g / cm^3
# Si number density = 24.590083 Si / 1000 Ang^3
#
#
#
# Elastic Constant Matrix: (Units=GPa)
#
#
# Indices 1 2 3 4 5 6 
#
# 1 126.2398 22.5132 18.0275 0.0090 0.6815 39.9034
# 2 22.5132 72.5764 25.8618 1.7839 -0.2807 32.4190
# 3 18.0275 25.8618 82.7765 -3.7885 12.7236 2.7186
# 4 0.0090 1.7839 -3.7885 29.4351 6.0337 -0.1567
# 5 0.6815 -0.2807 12.7236 6.0337 42.7830 -0.2599
# 6 39.9034 32.4190 2.7186 -0.1567 -0.2599 36.9395
#
#
#
# Elastic Compliance Matrix: (Units=1/GPa)
#
#
# Indices 1 2 3 4 5 6 
#
# 1 0.013821 0.006431 -0.004611 -0.001354 0.001261 -0.020232
# 2 0.006431 0.030269 -0.010525 -0.004104 0.003606 -0.032729
# 3 -0.004611 -0.010525 0.016983 0.004029 -0.005536 0.012946
# 4 -0.001354 -0.004104 0.004029 0.036050 -0.006258 0.004877
# 5 0.001261 0.003606 -0.005536 -0.006258 0.025882 -0.003964
# 6 -0.020232 -0.032729 0.012946 0.004877 -0.003964 0.076691
#
#
# Mechanical properties :
#
#
# Convention : Reuss Voigt Hill
#
# Bulk Modulus (GPa) = 22.90171 46.04419 34.47295
# Shear Modulus (GPa) = 21.58345 36.17753 28.88049
#
# Velocity S-wave (km/s) = 2.96586 3.83982 3.43078
# Velocity P-wave (km/s) = 4.58934 6.19873 5.45373
#
# Compressibility (1/GPa) = 0.04366485
#
# Stress axis : x y z
#
# Youngs Moduli (GPa) = 72.35123 33.03762 58.88154
#
# Poissons Ratio (x) = -0.21247 0.27149
# Poissons Ratio (y) = -0.46531 0.61971
# Poissons Ratio (z) = 0.33359 0.34771
#
# Static dielectric constant tensor:
#      x y z
#    x 1.995980 -0.058850 -0.009990 
#    y -0.058850 2.040340 0.001790 
#    z -0.009990 0.001790 1.959750 
# 
# From -- ./inp_files/60269.got.cif
#   From: 2010.05.17/outbox.cif.g08.bks.cpg/sg2_31_cif.got.tgz:60269.got - 2010.06.03 11:33:40.
