data_PCOD9102139
_publ_section_title
;
Structure prediction by ZEFSAII (Michael W. Deem and Ramdas Pophale) SiO2 
 PCOD9102139
Probable space group: P -1
;
_chemical_formula_sum "Si O2"
_cell_formula_units_Z 14
_cell_length_a 8.218107
_cell_length_b 19.017799
_cell_length_c 5.757746
_cell_angle_alpha 49.389280
_cell_angle_beta 53.404746
_cell_angle_gamma 58.175274
_cell_volume 533.962002
_symmetry_space_group_name_H-M "P -1"
_symmetry_group_IT_number 2
_symmetry_cell_setting 'triclinic'
loop_
_space_group_symop_operation_xyz
x,y,z
-x,-y,-z
loop_
_atom_site_type_symbol
_atom_site_label
_atom_site_fract_x
_atom_site_fract_y
_atom_site_fract_z
Si Si1 0.266717 0.149881 0.120763
Si Si2 0.310930 0.534605 0.839194
Si Si3 0.811401 0.204966 0.003758
Si Si4 0.817228 0.102784 0.615363
Si Si5 0.493398 0.719497 0.271353
Si Si6 0.745921 0.906394 0.259733
Si Si7 0.755174 0.412860 0.725554
O O1 0.364322 0.102974 0.381562
O O2 0.045234 0.123284 0.375398
O O3 0.285367 0.259233 0.902388
O O4 0.344785 0.115093 0.869605
O O5 0.435382 0.619984 0.571738
O O6 0.500290 0.442224 0.867341
O O7 0.192591 0.551930 0.653747
O O8 0.194075 0.541681 0.170858
O O9 0.782764 0.108255 0.357139
O O10 0.592529 0.249654 0.975746
O O11 0.843061 0.299606 0.905808
O O12 0.027824 0.169390 0.758686
O O13 0.660352 0.196946 0.635488
O O14 0.789847 0.010548 0.965865
#
# Coordination Sequence:
#
# PCOD9102139 Si02
#       7
#     2   2   2   2   2   2   2
#     4  11  25  41  59  88 117 159 192 251 286 347
#     4   9  18  33  52  91 113 144 188 246 273 354
#     4  10  20  38  62  86 115 161 194 240 289 355
#     4  11  23  42  58  85 120 159 195 246 286 351
#     4  11  23  37  65  86 120 151 202 236 302 338
#     4  11  25  42  59  82 125 154 199 241 293 340
#     4   9  17  31  58  84 114 146 196 225 294 338
#
# _framework density 26.219093999999998
#
# number of rings (size 3 to 8) (size 9 to 14) (size 15 to 20)
#    0.000    1.714    2.857    2.143    4.000    1.143 
#    0.000    0.000    0.000    4.286    0.000    0.000 
#    0.000    0.000    0.000    0.000    0.000    0.000 
#
# Total GULP energy -77989.861068 kJ/mol
# GULP energy per Si atom -5570.704362 kJ/mol
# Density = 2.615942 g / cm^3
# Si number density = 26.219094 Si / 1000 Ang^3
#
#
#
# Elastic Constant Matrix: (Units=GPa)
#
#
# Indices 1 2 3 4 5 6 
#
# 1 80.7813 44.8140 55.5071 5.7164 8.6859 21.3531
# 2 44.8140 73.4832 32.8072 0.6455 6.9259 0.0231
# 3 55.5071 32.8072 118.4012 12.3492 22.7951 17.3068
# 4 5.7164 0.6455 12.3492 43.6026 14.9278 22.4065
# 5 8.6859 6.9259 22.7951 14.9278 51.8300 9.0162
# 6 21.3531 0.0231 17.3068 22.4065 9.0162 30.9089
#
#
#
# Elastic Compliance Matrix: (Units=1/GPa)
#
#
# Indices 1 2 3 4 5 6 
#
# 1 0.034462 -0.017334 -0.008858 0.012063 0.001854 -0.028121
# 2 -0.017334 0.024459 -0.000214 -0.006314 -0.001420 0.017068
# 3 -0.008858 -0.000214 0.013474 -0.001808 -0.004080 0.001075
# 4 0.012063 -0.006314 -0.001808 0.042946 -0.006388 -0.036586
# 5 0.001854 -0.001420 -0.004080 -0.006388 0.022993 -0.001072
# 6 -0.028121 0.017068 0.001075 -0.036586 -0.001072 0.078000
#
#
# Mechanical properties :
#
#
# Convention : Reuss Voigt Hill
#
# Bulk Modulus (GPa) = 51.06091 59.88025 55.47058
# Shear Modulus (GPa) = 18.13736 34.57081 26.35408
#
# Velocity S-wave (km/s) = 2.63299 3.63510 3.17385
# Velocity P-wave (km/s) = 5.36288 6.36448 5.88503
#
# Compressibility (1/GPa) = 0.01958445
#
# Stress axis : x y z
#
# Youngs Moduli (GPa) = 29.01772 40.88440 74.21480
#
# Poissons Ratio (x) = 0.70869 0.65736
# Poissons Ratio (y) = 0.50299 0.01587
# Poissons Ratio (z) = 0.25703 0.00875
#
# Static dielectric constant tensor:
#      x y z
#    x 2.247400 0.132890 0.087900 
#    y 0.132890 2.095560 0.078680 
#    z 0.087900 0.078680 2.178400 
# 
# From -- ./inp_files/38172.got.cif
#   From: 2010.05.17/outbox.cif.g08.bks.cpg/sg2_20_cif.got.tgz:38172.got - 2010.06.03 11:33:40.
