data_PCOD9102128
_publ_section_title
;
Structure prediction by ZEFSAII (Michael W. Deem and Ramdas Pophale) SiO2 
 PCOD9102128
Probable space group: P -1
;
_chemical_formula_sum "Si O2"
_cell_formula_units_Z 16
_cell_length_a 29.152586
_cell_length_b 28.896074
_cell_length_c 19.291459
_cell_angle_alpha 161.653616
_cell_angle_beta 163.058192
_cell_angle_gamma 9.875479
_cell_volume 804.754984
_symmetry_space_group_name_H-M "P -1"
_symmetry_group_IT_number 2
_symmetry_cell_setting 'triclinic'
loop_
_space_group_symop_operation_xyz
x,y,z
-x,-y,-z
loop_
_atom_site_type_symbol
_atom_site_label
_atom_site_fract_x
_atom_site_fract_y
_atom_site_fract_z
Si Si1 0.277439 0.784515 0.546174
Si Si2 0.428280 0.135632 0.892380
Si Si3 0.109202 0.404969 0.139642
Si Si4 0.140470 0.461242 0.579001
Si Si5 0.413635 0.754283 0.984067
Si Si6 0.813884 0.837644 0.221228
Si Si7 0.231262 0.783943 0.317816
Si Si8 0.543895 0.924616 0.316633
O O1 0.500000 0.500000 0.500000
O O2 0.208441 0.788719 0.374617
O O3 0.403130 0.850245 0.820331
O O4 0.000000 0.000000 0.500000
O O5 0.101865 0.419618 0.850311
O O6 0.467579 0.085645 0.796520
O O7 0.571216 0.884351 0.781533
O O8 0.027726 0.609003 0.264948
O O9 0.041851 0.324731 0.874233
O O10 0.000000 0.500000 0.500000
O O11 0.858781 0.745751 0.537423
O O12 0.290355 0.223129 0.407578
O O13 0.400133 0.356533 0.835697
O O14 0.498219 0.525110 0.755742
O O15 0.515281 0.789589 0.121821
O O16 0.067633 0.042440 0.900664
O O17 0.751807 0.057613 0.449133
O O18 0.500000 0.000000 0.000000
#
# Coordination Sequence:
#
# PCOD9102128 Si02
#       8
#     2   2   2   2   2   2   2   2
#     4  12  24  36  51  79 126 167 187 220 281 356
#     4  12  23  38  58  89 118 157 202 240 290 358
#     4  11  23  39  61  81 116 148 206 254 289 340
#     4  10  20  38  62  85 120 161 199 249 289 335
#     4  11  23  38  57  92 121 155 200 239 291 352
#     4  11  24  42  63  83 116 160 206 255 302 340
#     4  12  24  37  59  87 120 158 195 245 292 349
#     4  11  21  38  62  88 125 161 196 239 291 355
#
# _framework density 19.881827999999999
#
# number of rings (size 3 to 8) (size 9 to 14) (size 15 to 20)
#    0.000    0.750    2.500    7.500    5.250    0.000 
#    0.000    0.000    0.000    0.000    0.000   17.500 
#    0.000    0.000    0.000    0.000    0.000    0.000 
#
# Total GULP energy -89420.723676 kJ/mol
# GULP energy per Si atom -5588.795230 kJ/mol
# Density = 1.983658 g / cm^3
# Si number density = 19.881828 Si / 1000 Ang^3
#
#
#
# Elastic Constant Matrix: (Units=GPa)
#
#
# Indices 1 2 3 4 5 6 
#
# 1 49.0475 15.0652 10.8825 14.0424 -4.2748 -3.7790
# 2 15.0652 101.1049 -1.1142 5.9761 0.7767 -5.5503
# 3 10.8825 -1.1142 37.4579 3.8705 0.8892 -2.3750
# 4 14.0424 5.9761 3.8705 37.8946 1.4444 -8.2781
# 5 -4.2748 0.7767 0.8892 1.4444 24.1338 14.3842
# 6 -3.7790 -5.5503 -2.3750 -8.2781 14.3842 35.7329
#
#
#
# Elastic Compliance Matrix: (Units=1/GPa)
#
#
# Indices 1 2 3 4 5 6 
#
# 1 0.026220 -0.003681 -0.007158 -0.009482 0.007729 -0.003583
# 2 -0.003681 0.010599 0.001580 0.000150 -0.002490 0.002399
# 3 -0.007158 0.001580 0.029100 0.000304 -0.004340 0.003240
# 4 -0.009482 0.000150 0.000304 0.032539 -0.009952 0.010585
# 5 0.007729 -0.002490 -0.004340 -0.009952 0.059113 -0.025959
# 6 -0.003583 0.002399 0.003240 0.010585 -0.025959 0.041097
#
#
# Mechanical properties :
#
#
# Convention : Reuss Voigt Hill
#
# Bulk Modulus (GPa) = 21.09664 26.36416 23.73040
# Shear Modulus (GPa) = 21.46060 30.40404 25.93232
#
# Velocity S-wave (km/s) = 3.28900 3.91479 3.61546
# Velocity P-wave (km/s) = 5.00574 5.80718 5.42129
#
# Compressibility (1/GPa) = 0.04740092
#
# Stress axis : x y z
#
# Youngs Moduli (GPa) = 38.13947 94.35174 34.36396
#
# Poissons Ratio (x) = 0.34734 0.24597
# Poissons Ratio (y) = 0.14041 -0.05431
# Poissons Ratio (z) = 0.27300 -0.14912
#
# Static dielectric constant tensor:
#      x y z
#    x 1.694170 0.005580 -0.001400 
#    y 0.005580 1.716790 -0.015730 
#    z -0.001400 -0.015730 1.712500 
# 
# From -- ./inp_files/579972.got.cif
#   From: 2010.05.17/outbox.cif.g08.bks.cpg/sg2_290_cif.got.tgz:579972.got - 2010.06.03 11:33:40.
