data_PCOD9102250
_publ_section_title
;
Structure prediction by ZEFSAII (Michael W. Deem and Ramdas Pophale) SiO2 
 PCOD9102250
Probable space group: P -1
;
_chemical_formula_sum "Si O2"
_cell_formula_units_Z 16
_cell_length_a 11.857646
_cell_length_b 17.152498
_cell_length_c 9.649194
_cell_angle_alpha 100.415194
_cell_angle_beta 141.866240
_cell_angle_gamma 51.909889
_cell_volume 743.435664
_symmetry_space_group_name_H-M "P -1"
_symmetry_group_IT_number 2
_symmetry_cell_setting 'triclinic'
loop_
_space_group_symop_operation_xyz
x,y,z
-x,-y,-z
loop_
_atom_site_type_symbol
_atom_site_label
_atom_site_fract_x
_atom_site_fract_y
_atom_site_fract_z
Si Si1 0.376362 0.465610 0.789489
Si Si2 0.063159 0.798824 0.653829
Si Si3 0.266397 0.961891 0.080194
Si Si4 0.268323 0.566394 0.418162
Si Si5 0.722858 0.025565 0.593466
Si Si6 0.234064 0.270481 0.699106
Si Si7 0.643281 0.737594 0.866789
Si Si8 0.115982 0.801290 0.398005
O O1 0.395439 0.480226 0.649784
O O2 0.032761 0.577191 0.530828
O O3 0.500000 0.500000 0.000000
O O4 0.601926 0.321478 0.007890
O O5 0.057385 0.844604 0.515407
O O6 0.931342 0.757683 0.479273
O O7 0.859461 0.904966 0.607995
O O8 0.361270 0.957401 0.322829
O O9 0.511461 0.826646 0.197310
O O10 0.985241 0.000836 0.836523
O O11 0.148418 0.074628 0.909429
O O12 0.500000 0.500000 0.500000
O O13 0.159582 0.692212 0.392805
O O14 0.982759 0.612493 0.115534
O O15 0.472323 0.149989 0.299181
O O16 0.356356 0.242390 0.962544
O O17 0.420789 0.740430 0.630123
#
# Coordination Sequence:
#
# PCOD9102250 Si02
#       8
#     2   2   2   2   2   2   2   2
#     4   9  19  40  58  89 122 157 202 252 295 361
#     4  11  21  37  67  88 122 165 204 253 305 355
#     4  10  23  40  58  90 127 156 206 254 309 363
#     4  11  24  41  65  89 126 161 203 255 301 364
#     4  10  23  40  59  90 126 159 199 262 305 361
#     4  10  20  38  62  89 122 155 210 252 291 372
#     4  10  22  42  63  91 121 159 210 246 308 364
#     4  11  22  41  65  88 123 164 201 254 305 362
#
# _framework density 21.521702000000001
#
# number of rings (size 3 to 8) (size 9 to 14) (size 15 to 20)
#    0.000    1.750    3.750    1.500    3.500    6.000 
#    0.000    5.625    0.000    0.000    0.000    0.000 
#    0.000    0.000    0.000    0.000    0.000    0.000 
#
# Total GULP energy -89358.410119 kJ/mol
# GULP energy per Si atom -5584.900632 kJ/mol
# Density = 2.147272 g / cm^3
# Si number density = 21.521702 Si / 1000 Ang^3
#
#
#
# Elastic Constant Matrix: (Units=GPa)
#
#
# Indices 1 2 3 4 5 6 
#
# 1 84.3073 26.2157 38.6819 -14.9042 -10.9570 -25.5984
# 2 26.2157 45.8241 7.0133 2.7927 -15.6481 -6.1743
# 3 38.6819 7.0133 107.6681 -10.1442 -17.5889 -9.1714
# 4 -14.9042 2.7927 -10.1442 17.8675 10.5134 8.8132
# 5 -10.9570 -15.6481 -17.5889 10.5134 31.6364 1.2910
# 6 -25.5984 -6.1743 -9.1714 8.8132 1.2910 44.1669
#
#
#
# Elastic Compliance Matrix: (Units=1/GPa)
#
#
# Indices 1 2 3 4 5 6 
#
# 1 0.025435 -0.018440 -0.007180 0.024440 -0.012677 0.006167
# 2 -0.018440 0.045647 0.005489 -0.040503 0.032541 0.003964
# 3 -0.007180 0.005489 0.012478 -0.004898 0.008797 -0.000083
# 4 0.024440 -0.040503 -0.004898 0.118276 -0.053004 -0.014566
# 5 -0.012677 0.032541 0.008797 -0.053004 0.065506 0.007690
# 6 0.006167 0.003964 -0.000083 -0.014566 0.007690 0.029434
#
#
# Mechanical properties :
#
#
# Convention : Reuss Voigt Hill
#
# Bulk Modulus (GPa) = 23.09524 42.40235 32.74879
# Shear Modulus (GPa) = 14.22593 29.79339 22.00966
#
# Velocity S-wave (km/s) = 2.57379 3.72471 3.20140
# Velocity P-wave (km/s) = 4.42572 6.18408 5.37726
#
# Compressibility (1/GPa) = 0.04329897
#
# Stress axis : x y z
#
# Youngs Moduli (GPa) = 39.31565 21.90741 80.13864
#
# Poissons Ratio (x) = 0.40397 0.57539
# Poissons Ratio (y) = 0.72498 -0.43990
# Poissons Ratio (z) = 0.28228 -0.12026
#
# Static dielectric constant tensor:
#      x y z
#    x 1.812000 0.018860 0.022590 
#    y 0.018860 1.787040 -0.002460 
#    z 0.022590 -0.002460 1.789710 
# 
# From -- ./inp_files/279577.got.cif
#   From: 2010.05.17/outbox.cif.g08.bks.cpg/sg2_140_cif.got.tgz:279577.got - 2010.06.03 11:33:40.
