data_PCOD9102528
_publ_section_title
;
Structure prediction by ZEFSAII (Michael W. Deem and Ramdas Pophale) SiO2 
 PCOD9102528
Probable space group: P -1
;
_chemical_formula_sum "Si O2"
_cell_formula_units_Z 16
_cell_length_a 17.181387
_cell_length_b 8.420982
_cell_length_c 18.678964
_cell_angle_alpha 35.072081
_cell_angle_beta 30.243920
_cell_angle_gamma 43.379943
_cell_volume 780.340358
_symmetry_space_group_name_H-M "P -1"
_symmetry_group_IT_number 2
_symmetry_cell_setting 'triclinic'
loop_
_space_group_symop_operation_xyz
x,y,z
-x,-y,-z
loop_
_atom_site_type_symbol
_atom_site_label
_atom_site_fract_x
_atom_site_fract_y
_atom_site_fract_z
Si Si1 0.175505 0.593069 0.765690
Si Si2 0.633428 0.116836 0.899109
Si Si3 0.364150 0.726827 0.423922
Si Si4 0.603498 0.770436 0.699849
Si Si5 0.052840 0.329041 0.590792
Si Si6 0.438924 0.850034 0.534069
Si Si7 0.162576 0.148606 0.046896
Si Si8 0.857914 0.205860 0.559428
O O1 0.262362 0.643494 0.604229
O O2 0.257573 0.781988 0.691519
O O3 0.991234 0.659556 0.876689
O O4 0.203942 0.285815 0.888695
O O5 0.586288 0.439298 0.840143
O O6 0.777828 0.120565 0.728230
O O7 0.694321 0.914036 0.989731
O O8 0.500000 0.000000 0.000000
O O9 0.481241 0.458944 0.421058
O O10 0.264109 0.765274 0.417841
O O11 0.423567 0.029007 0.284501
O O12 0.782234 0.789972 0.526372
O O13 0.516641 0.941616 0.641697
O O14 0.083007 0.500857 0.574052
O O15 0.000000 0.500000 0.500000
O O16 0.916852 0.138395 0.788243
O O17 0.500000 0.000000 0.500000
O O18 0.000000 0.000000 0.500000
#
# Coordination Sequence:
#
# PCOD9102528 Si02
#       8
#     2   2   2   2   2   2   2   2
#     4  10  23  39  63  93 126 175 205 266 332 388
#     4  11  25  42  65 100 130 173 217 280 333 382
#     4  11  22  40  64  95 128 162 219 268 319 392
#     4  10  20  38  63  89 123 169 217 259 322 385
#     4  11  18  37  64  91 118 164 220 257 314 388
#     4  11  22  38  65  92 124 167 220 266 316 393
#     4  11  21  39  67  87 134 165 217 259 333 390
#     4  11  23  38  66  95 126 166 222 270 317 390
#
# _framework density 20.503872999999999
#
# number of rings (size 3 to 8) (size 9 to 14) (size 15 to 20)
#    0.000    1.250    5.000    4.500    3.500    0.000 
#    0.000    3.750    0.000    0.000    0.000    0.000 
#    0.000    0.000    0.000    0.000    0.000    0.000 
#
# Total GULP energy -89137.694845 kJ/mol
# GULP energy per Si atom -5571.105928 kJ/mol
# Density = 2.045721 g / cm^3
# Si number density = 20.503873 Si / 1000 Ang^3
#
#
#
# Elastic Constant Matrix: (Units=GPa)
#
#
# Indices 1 2 3 4 5 6 
#
# 1 133.4959 49.8044 7.2592 -25.3306 -3.1461 -6.9281
# 2 49.8044 129.2999 12.8823 -19.1822 -5.0402 -9.9050
# 3 7.2592 12.8823 49.0694 -20.6181 3.9402 2.2968
# 4 -25.3306 -19.1822 -20.6181 30.8628 -4.4211 2.5202
# 5 -3.1461 -5.0402 3.9402 -4.4211 35.3509 -4.9980
# 6 -6.9281 -9.9050 2.2968 2.5202 -4.9980 38.3076
#
#
#
# Elastic Compliance Matrix: (Units=1/GPa)
#
#
# Indices 1 2 3 4 5 6 
#
# 1 0.010047 -0.002789 0.002656 0.008433 0.001334 0.000556
# 2 -0.002789 0.009606 -0.001072 0.003069 0.001920 0.002092
# 3 0.002656 -0.001072 0.029437 0.021293 -0.000971 -0.003089
# 4 0.008433 0.003069 0.021293 0.056415 0.005596 -0.001939
# 5 0.001334 0.001920 -0.000971 0.005596 0.030104 0.004356
# 6 0.000556 0.002092 -0.003089 -0.001939 0.004356 0.027627
#
#
# Mechanical properties :
#
#
# Convention : Reuss Voigt Hill
#
# Bulk Modulus (GPa) = 21.42202 50.19522 35.80862
# Shear Modulus (GPa) = 27.59288 37.03220 32.31254
#
# Velocity S-wave (km/s) = 3.67241 4.25444 3.97410
# Velocity P-wave (km/s) = 5.33410 6.97622 6.20968
#
# Compressibility (1/GPa) = 0.04668094
#
# Stress axis : x y z
#
# Youngs Moduli (GPa) = 99.52808 104.10680 33.97068
#
# Poissons Ratio (x) = 0.29036 -0.09023
# Poissons Ratio (y) = 0.27759 0.03640
# Poissons Ratio (z) = -0.26436 0.11156
#
# Static dielectric constant tensor:
#      x y z
#    x 1.732480 -0.035600 -0.015530 
#    y -0.035600 1.826720 -0.024840 
#    z -0.015530 -0.024840 1.791630 
# 
# From -- ./inp_files/599321.got.cif
#   From: 2010.05.17/outbox.cif.g08.bks.cpg/sg2_300_cif.got.tgz:599321.got - 2010.06.03 11:33:40.
