data_PCOD9102256
_publ_section_title
;
Structure prediction by ZEFSAII (Michael W. Deem and Ramdas Pophale) SiO2 
 PCOD9102256
Probable space group: P -1
;
_chemical_formula_sum "Si O2"
_cell_formula_units_Z 16
_cell_length_a 23.594981
_cell_length_b 20.659576
_cell_length_c 13.233100
_cell_angle_alpha 156.800091
_cell_angle_beta 163.466940
_cell_angle_gamma 19.981654
_cell_volume 616.205069
_symmetry_space_group_name_H-M "P -1"
_symmetry_group_IT_number 2
_symmetry_cell_setting 'triclinic'
loop_
_space_group_symop_operation_xyz
x,y,z
-x,-y,-z
loop_
_atom_site_type_symbol
_atom_site_label
_atom_site_fract_x
_atom_site_fract_y
_atom_site_fract_z
Si Si1 0.351085 0.166399 0.257632
Si Si2 0.510287 0.613319 0.815485
Si Si3 0.720106 0.890772 0.330540
Si Si4 0.575314 0.248170 0.488229
Si Si5 0.920129 0.573731 0.355348
Si Si6 0.674878 0.492131 0.373081
Si Si7 0.307351 0.846045 0.002693
Si Si8 0.015774 0.207334 0.891965
O O1 0.211628 0.391995 0.310121
O O2 0.175814 0.114545 0.933817
O O3 0.498531 0.038896 0.232735
O O4 0.540469 0.134985 0.622257
O O5 0.632800 0.381996 0.709924
O O6 0.478973 0.721993 0.024504
O O7 0.353164 0.346272 0.978204
O O8 0.249567 0.698283 0.455087
O O9 0.922719 0.743107 0.541672
O O10 0.763153 0.030808 0.534142
O O11 0.630794 0.773893 0.945165
O O12 0.474720 0.379955 0.604663
O O13 0.000000 0.500000 0.500000
O O14 0.040132 0.384991 0.222115
O O15 0.806006 0.274413 0.323378
O O16 0.500000 0.500000 0.000000
O O17 0.116203 0.050793 0.926365
#
# Coordination Sequence:
#
# PCOD9102256 Si02
#       8
#     2   2   2   2   2   2   2   2
#     4  10  20  38  62  91 122 164 207 255 305 366
#     4  11  23  43  61  89 124 163 206 259 317 365
#     4  10  20  39  65  90 126 165 206 249 310 366
#     4   9  19  38  65  90 124 165 203 255 305 368
#     4  12  25  42  64  90 124 166 208 257 316 375
#     4   8  17  35  62  92 125 162 207 253 307 360
#     4  10  20  38  62  89 124 161 206 256 306 364
#     4  12  23  37  58  93 126 158 209 255 308 371
#
# _framework density 25.965382000000002
#
# number of rings (size 3 to 8) (size 9 to 14) (size 15 to 20)
#    0.000    1.750    1.250    3.375    0.000    0.000 
#    0.000    8.750    0.000    0.000    0.000    0.000 
#    0.000    0.000    0.000    0.000    0.000    0.000 
#
# Total GULP energy -89546.423660 kJ/mol
# GULP energy per Si atom -5596.651479 kJ/mol
# Density = 2.590628 g / cm^3
# Si number density = 25.965382 Si / 1000 Ang^3
#
#
#
# Elastic Constant Matrix: (Units=GPa)
#
#
# Indices 1 2 3 4 5 6 
#
# 1 75.4317 34.7929 23.1637 6.0194 -17.8323 10.9952
# 2 34.7929 159.5651 25.5355 20.5608 22.1878 44.5048
# 3 23.1637 25.5355 55.2631 -4.3808 -12.5396 -4.4222
# 4 6.0194 20.5608 -4.3808 36.3193 6.7943 2.5380
# 5 -17.8323 22.1878 -12.5396 6.7943 40.3911 19.7315
# 6 10.9952 44.5048 -4.4222 2.5380 19.7315 51.2803
#
#
#
# Elastic Compliance Matrix: (Units=1/GPa)
#
#
# Indices 1 2 3 4 5 6 
#
# 1 0.020864 -0.002982 -0.005230 -0.004423 0.013551 -0.007332
# 2 -0.002982 0.011382 -0.006140 -0.005247 -0.004861 -0.007638
# 3 -0.005230 -0.006140 0.025188 0.006049 0.004680 0.006522
# 4 -0.004423 -0.005247 0.006049 0.032612 -0.005951 0.006700
# 5 0.013551 -0.004861 0.004680 -0.005951 0.042957 -0.014518
# 6 -0.007332 -0.007638 0.006522 0.006700 -0.014518 0.033519
#
#
# Mechanical properties :
#
#
# Convention : Reuss Voigt Hill
#
# Bulk Modulus (GPa) = 34.80560 50.80490 42.80525
# Shear Modulus (GPa) = 24.41400 39.38265 31.89833
#
# Velocity S-wave (km/s) = 3.06968 3.89876 3.50879
# Velocity P-wave (km/s) = 5.09879 6.31474 5.73906
#
# Compressibility (1/GPa) = 0.02873101
#
# Stress axis : x y z
#
# Youngs Moduli (GPa) = 47.93040 87.85640 39.70197
#
# Poissons Ratio (x) = 0.26196 0.20763
# Poissons Ratio (y) = 0.14291 0.24376
# Poissons Ratio (z) = 0.25066 0.53942
#
# Static dielectric constant tensor:
#      x y z
#    x 2.000730 0.039530 -0.006610 
#    y 0.039530 2.105910 -0.010460 
#    z -0.006610 -0.010460 2.077410 
# 
# From -- ./inp_files/516901.got.cif
#   From: 2010.05.17/outbox.cif.g08.bks.cpg/sg2_259_cif.got.tgz:516901.got - 2010.06.03 11:33:40.
