data_PCOD9102509
_publ_section_title
;
Structure prediction by ZEFSAII (Michael W. Deem and Ramdas Pophale) SiO2 
 PCOD9102509
Probable space group: P -1
;
_chemical_formula_sum "Si O2"
_cell_formula_units_Z 16
_cell_length_a 9.194735
_cell_length_b 9.467590
_cell_length_c 11.931619
_cell_angle_alpha 48.973365
_cell_angle_beta 65.643580
_cell_angle_gamma 95.639414
_cell_volume 602.234108
_symmetry_space_group_name_H-M "P -1"
_symmetry_group_IT_number 2
_symmetry_cell_setting 'triclinic'
loop_
_space_group_symop_operation_xyz
x,y,z
-x,-y,-z
loop_
_atom_site_type_symbol
_atom_site_label
_atom_site_fract_x
_atom_site_fract_y
_atom_site_fract_z
Si Si1 0.811938 0.631529 0.354398
Si Si2 0.252135 0.932783 0.099071
Si Si3 0.253614 0.524267 0.992393
Si Si4 0.064073 0.447922 0.859565
Si Si5 0.852817 0.964119 0.706152
Si Si6 0.204392 0.034263 0.699655
Si Si7 0.607286 0.375914 0.770256
Si Si8 0.356067 0.189491 0.356229
O O1 0.795941 0.514519 0.304465
O O2 0.715972 0.771271 0.335835
O O3 0.743073 0.479395 0.565233
O O4 0.038463 0.815799 0.185568
O O5 0.333172 0.785239 0.109974
O O6 0.234054 0.932694 0.240235
O O7 0.392554 0.194368 0.894283
O O8 0.184901 0.552726 0.877929
O O9 0.464524 0.732325 0.822653
O O10 0.253334 0.300896 0.107238
O O11 0.085189 0.479944 0.151588
O O12 0.918540 0.192108 0.077071
O O13 0.819516 0.981089 0.577752
O O14 0.054152 0.048211 0.657346
O O15 0.353678 0.078852 0.532955
O O16 0.628013 0.578269 0.732022
#
# Coordination Sequence:
#
# PCOD9102509 Si02
#       8
#     2   2   2   2   2   2   2   2
#     4  10  21  40  64  85 121 168 202 249 311 356
#     4  10  21  38  59  94 129 154 201 253 301 374
#     4  10  22  38  60  86 119 160 208 250 298 366
#     4  10  22  42  59  82 121 169 203 248 301 364
#     4  10  20  38  63  88 126 161 193 251 318 363
#     4   9  21  40  60  92 120 158 207 254 299 366
#     4  10  22  38  60  95 126 153 205 253 304 369
#     4  11  21  38  64  92 122 157 202 256 312 360
#
# _framework density 26.567741999999999
#
# number of rings (size 3 to 8) (size 9 to 14) (size 15 to 20)
#    0.000    2.000    1.250    1.500    1.750    1.500 
#    9.000    1.250    0.000    0.000    0.000    0.000 
#    0.000    0.000    0.000    0.000    0.000    0.000 
#
# Total GULP energy -89345.234514 kJ/mol
# GULP energy per Si atom -5584.077157 kJ/mol
# Density = 2.650727 g / cm^3
# Si number density = 26.567742 Si / 1000 Ang^3
#
#
#
# Elastic Constant Matrix: (Units=GPa)
#
#
# Indices 1 2 3 4 5 6 
#
# 1 40.2888 17.4256 14.1349 7.4074 -2.7445 -1.3571
# 2 17.4256 101.5330 34.8609 25.3031 21.1475 3.9278
# 3 14.1349 34.8609 102.6412 0.5065 -13.0627 -3.2089
# 4 7.4074 25.3031 0.5065 53.5943 -2.1531 2.5030
# 5 -2.7445 21.1475 -13.0627 -2.1531 19.9336 -4.7733
# 6 -1.3571 3.9278 -3.2089 2.5030 -4.7733 33.3150
#
#
#
# Elastic Compliance Matrix: (Units=1/GPa)
#
#
# Indices 1 2 3 4 5 6 
#
# 1 0.029402 -0.008927 0.001077 0.000547 0.015364 0.004514
# 2 -0.008927 0.031190 -0.015897 -0.014776 -0.049084 -0.011495
# 3 0.001077 -0.015897 0.019325 0.008112 0.032425 0.007816
# 4 0.000547 -0.014776 0.008112 0.026290 0.024898 0.004138
# 5 0.015364 -0.049084 0.032425 0.024898 0.134752 0.026973
# 6 0.004514 -0.011495 0.007816 0.004138 0.026973 0.035862
#
#
# Mechanical properties :
#
#
# Convention : Reuss Voigt Hill
#
# Bulk Modulus (GPa) = 30.84339 41.92287 36.38313
# Shear Modulus (GPa) = 14.91994 33.23803 24.07898
#
# Velocity S-wave (km/s) = 2.37234 3.54088 3.01379
# Velocity P-wave (km/s) = 4.37476 5.70359 5.08279
#
# Compressibility (1/GPa) = 0.03242186
#
# Stress axis : x y z
#
# Youngs Moduli (GPa) = 34.01109 32.06182 51.74776
#
# Poissons Ratio (x) = 0.28621 -0.05572
# Poissons Ratio (y) = 0.30361 0.82264
# Poissons Ratio (z) = -0.03662 0.50969
#
# Static dielectric constant tensor:
#      x y z
#    x 2.200900 -0.046380 -0.051180 
#    y -0.046380 2.126580 0.060980 
#    z -0.051180 0.060980 2.104450 
# 
# From -- ./inp_files/416839.got.cif
#   From: 2010.05.17/outbox.cif.g08.bks.cpg/sg2_209_cif.got.tgz:416839.got - 2010.06.03 11:33:40.
