data_PCOD9102550
_publ_section_title
;
Structure prediction by ZEFSAII (Michael W. Deem and Ramdas Pophale) SiO2 
 PCOD9102550
Probable space group: P -1
;
_chemical_formula_sum "Si O2"
_cell_formula_units_Z 16
_cell_length_a 13.321756
_cell_length_b 9.098106
_cell_length_c 14.292344
_cell_angle_alpha 120.729266
_cell_angle_beta 42.985730
_cell_angle_gamma 88.526552
_cell_volume 742.831714
_symmetry_space_group_name_H-M "P -1"
_symmetry_group_IT_number 2
_symmetry_cell_setting 'triclinic'
loop_
_space_group_symop_operation_xyz
x,y,z
-x,-y,-z
loop_
_atom_site_type_symbol
_atom_site_label
_atom_site_fract_x
_atom_site_fract_y
_atom_site_fract_z
Si Si1 0.465869 0.802925 0.052548
Si Si2 0.970333 0.528702 0.142675
Si Si3 0.307738 0.511329 0.890043
Si Si4 0.983041 0.975884 0.760681
Si Si5 0.873703 0.962459 0.128555
Si Si6 0.826825 0.758083 0.748261
Si Si7 0.663732 0.277250 0.700586
Si Si8 0.557830 0.806321 0.472232
O O1 0.353399 0.825004 0.229255
O O2 0.302919 0.029647 0.171420
O O3 0.656230 0.781635 0.925028
O O4 0.573952 0.540078 0.860427
O O5 0.736446 0.739951 0.391957
O O6 0.000000 0.500000 0.000000
O O7 0.127889 0.545961 0.071597
O O8 0.035850 0.289176 0.046468
O O9 0.511226 0.318970 0.742812
O O10 0.343098 0.421654 0.731344
O O11 0.230837 0.764065 0.022635
O O12 0.118014 0.883174 0.545940
O O13 0.939981 0.810110 0.751939
O O14 0.092117 0.002599 0.775739
O O15 0.637381 0.120495 0.324904
O O16 0.000000 0.000000 0.000000
O O17 0.000000 0.500000 0.500000
O O18 0.500000 0.000000 0.500000
#
# Coordination Sequence:
#
# PCOD9102550 Si02
#       8
#     2   2   2   2   2   2   2   2
#     4  10  24  44  65  99 128 167 220 273 338 395
#     4  10  20  38  63  90 122 168 215 264 316 385
#     4  11  21  37  68  95 123 165 232 267 316 395
#     4  12  23  41  65  95 128 177 219 272 335 392
#     4  12  25  40  62  98 133 168 219 275 328 387
#     4  11  23  43  69  92 139 176 205 273 348 399
#     4  11  23  40  70  98 125 168 227 279 317 396
#     4  11  19  39  68  84 122 176 216 260 322 378
#
# _framework density 21.539199
#
# number of rings (size 3 to 8) (size 9 to 14) (size 15 to 20)
#    0.000    1.000    8.750    0.000    0.000    3.000 
#    0.000    0.000    0.000    0.000    0.000    0.000 
#    0.000    0.000    0.000    0.000    0.000    0.000 
#
# Total GULP energy -89236.002960 kJ/mol
# GULP energy per Si atom -5577.250185 kJ/mol
# Density = 2.149017 g / cm^3
# Si number density = 21.539199 Si / 1000 Ang^3
#
#
#
# Elastic Constant Matrix: (Units=GPa)
#
#
# Indices 1 2 3 4 5 6 
#
# 1 34.2095 5.4713 4.7518 -0.7382 -14.8894 20.5238
# 2 5.4713 96.7061 40.1913 -5.5739 -1.4177 23.8892
# 3 4.7518 40.1913 108.1908 -0.8119 -19.4717 4.5464
# 4 -0.7382 -5.5739 -0.8119 41.8637 11.5934 0.0918
# 5 -14.8894 -1.4177 -19.4717 11.5934 36.3330 -6.2182
# 6 20.5238 23.8892 4.5464 0.0918 -6.2182 33.2223
#
#
#
# Elastic Compliance Matrix: (Units=1/GPa)
#
#
# Indices 1 2 3 4 5 6 
#
# 1 0.058618 0.005742 0.000266 -0.003430 0.019189 -0.036777
# 2 0.005742 0.016682 -0.006536 0.003400 -0.004228 -0.015449
# 3 0.000266 -0.006536 0.012985 -0.002980 0.008510 0.004359
# 4 -0.003430 0.003400 -0.002980 0.027563 -0.012050 -0.002250
# 5 0.019189 -0.004228 0.008510 -0.012050 0.043313 -0.001839
# 6 -0.036777 -0.015449 0.004359 -0.002250 -0.001839 0.062994
#
#
# Mechanical properties :
#
#
# Convention : Reuss Voigt Hill
#
# Bulk Modulus (GPa) = 11.46408 37.77057 24.61733
# Shear Modulus (GPa) = 19.81857 34.86329 27.34093
#
# Velocity S-wave (km/s) = 3.03663 4.02754 3.56667
# Velocity P-wave (km/s) = 4.19867 6.26115 5.33061
#
# Compressibility (1/GPa) = 0.08722895
#
# Stress axis : x y z
#
# Youngs Moduli (GPa) = 17.05962 59.94360 77.01115
#
# Poissons Ratio (x) = -0.34417 -0.02046
# Poissons Ratio (y) = -0.09795 0.50331
# Poissons Ratio (z) = -0.00453 0.39177
#
# Static dielectric constant tensor:
#      x y z
#    x 1.909250 0.030490 0.004620 
#    y 0.030490 1.817220 0.029670 
#    z 0.004620 0.029670 1.795330 
# 
# From -- ./inp_files/504451.got.cif
#   From: 2010.05.17/outbox.cif.g08.bks.cpg/sg2_253_cif.got.tgz:504451.got - 2010.06.03 11:33:40.
