data_PCOD9102879
_publ_section_title
;
Structure prediction by ZEFSAII (Michael W. Deem and Ramdas Pophale) SiO2 
 PCOD9102879
Probable space group: P -1
;
_chemical_formula_sum "Si O2"
_cell_formula_units_Z 16
_cell_length_a 16.078019
_cell_length_b 9.409699
_cell_length_c 16.566427
_cell_angle_alpha 125.747224
_cell_angle_beta 151.238774
_cell_angle_gamma 36.658119
_cell_volume 655.275965
_symmetry_space_group_name_H-M "P -1"
_symmetry_group_IT_number 2
_symmetry_cell_setting 'triclinic'
loop_
_space_group_symop_operation_xyz
x,y,z
-x,-y,-z
loop_
_atom_site_type_symbol
_atom_site_label
_atom_site_fract_x
_atom_site_fract_y
_atom_site_fract_z
Si Si1 0.018152 0.234421 0.643048
Si Si2 0.059775 0.319232 0.246494
Si Si3 0.251271 0.911466 0.583507
Si Si4 0.716536 0.859182 0.794989
Si Si5 0.113149 0.985037 0.305356
Si Si6 0.478876 0.694755 0.124734
Si Si7 0.495333 0.707450 0.958697
Si Si8 0.256959 0.504081 0.221293
O O1 0.887759 0.515995 0.642731
O O2 0.825929 0.217994 0.488168
O O3 0.137314 0.137765 0.622788
O O4 0.262752 0.008534 0.834776
O O5 0.187393 0.166453 0.220569
O O6 0.747602 0.540128 0.062466
O O7 0.163942 0.115206 0.337169
O O8 0.146394 0.998302 0.432144
O O9 0.557790 0.688215 0.758458
O O10 0.669495 0.687653 0.709248
O O11 0.513046 0.148677 0.755574
O O12 0.963548 0.700042 0.010539
O O13 0.278292 0.690925 0.323697
O O14 0.817662 0.146972 0.089767
O O15 0.599166 0.424230 0.171094
O O16 0.570281 0.676484 0.106500
#
# Coordination Sequence:
#
# PCOD9102879 Si02
#       8
#     2   2   2   2   2   2   2   2
#     4  11  24  39  62  89 124 157 213 247 293 364
#     4  11  24  38  63  94 124 157 201 260 298 351
#     4  11  23  41  60  86 118 172 203 244 301 364
#     4  10  22  39  64  96 120 149 206 255 300 362
#     4  10  21  41  61  85 128 159 201 248 305 357
#     4   9  20  37  64  94 121 157 196 248 308 360
#     4  10  20  38  64  91 126 155 195 253 309 350
#     4  10  22  39  66  87 119 163 200 249 306 362
#
# _framework density 24.417193000000001
#
# number of rings (size 3 to 8) (size 9 to 14) (size 15 to 20)
#    0.000    1.750    1.250    2.250    5.250    6.000 
#    0.000    5.000    0.000    0.000    0.000    0.000 
#    0.000    0.000    0.000    0.000    0.000    0.000 
#
# Total GULP energy -89551.539449 kJ/mol
# GULP energy per Si atom -5596.971216 kJ/mol
# Density = 2.436162 g / cm^3
# Si number density = 24.417193 Si / 1000 Ang^3
#
#
#
# Elastic Constant Matrix: (Units=GPa)
#
#
# Indices 1 2 3 4 5 6 
#
# 1 129.2565 48.8434 -1.9143 15.5953 -26.6373 -0.4269
# 2 48.8434 133.3648 17.8116 21.2221 -22.4926 15.5079
# 3 -1.9143 17.8116 26.6505 -2.4248 -10.5894 16.5619
# 4 15.5953 21.2221 -2.4248 27.1694 -7.5535 0.4969
# 5 -26.6373 -22.4926 -10.5894 -7.5535 38.7800 -2.7863
# 6 -0.4269 15.5079 16.5619 0.4969 -2.7863 39.2627
#
#
#
# Elastic Compliance Matrix: (Units=1/GPa)
#
#
# Indices 1 2 3 4 5 6 
#
# 1 0.010579 -0.003285 0.005880 -0.001106 0.006710 -0.000578
# 2 -0.003285 0.011075 -0.007269 -0.007199 0.000693 -0.001203
# 3 0.005880 -0.007269 0.066492 0.013951 0.018976 -0.023943
# 4 -0.001106 -0.007199 0.013951 0.046509 0.007711 -0.003095
# 5 0.006710 0.000693 0.018976 0.007711 0.037074 -0.005672
# 6 -0.000578 -0.001203 -0.023943 -0.003095 -0.005672 0.035675
#
#
# Mechanical properties :
#
#
# Convention : Reuss Voigt Hill
#
# Bulk Modulus (GPa) = 12.69081 46.52816 29.60949
# Shear Modulus (GPa) = 20.57459 36.01116 28.29288
#
# Velocity S-wave (km/s) = 2.90595 3.84452 3.40770
# Velocity P-wave (km/s) = 4.05810 6.22928 5.25700
#
# Compressibility (1/GPa) = 0.07879716
#
# Stress axis : x y z
#
# Youngs Moduli (GPa) = 94.52387 90.29698 15.03941
#
# Poissons Ratio (x) = 0.29663 -0.08843
# Poissons Ratio (y) = 0.31052 0.10933
# Poissons Ratio (z) = -0.55580 0.65640
#
# Static dielectric constant tensor:
#      x y z
#    x 1.914510 0.009360 0.038240 
#    y 0.009360 1.944230 -0.011920 
#    z 0.038240 -0.011920 1.984600 
# 
# From -- ./inp_files/528961.got.cif
#   From: 2010.05.17/outbox.cif.g08.bks.cpg/sg2_265_cif.got.tgz:528961.got - 2010.06.03 11:33:40.
