data_PCOD9102807
_publ_section_title
;
Structure prediction by ZEFSAII (Michael W. Deem and Ramdas Pophale) SiO2 
 PCOD9102807
Probable space group: P -1
;
_chemical_formula_sum "Si O2"
_cell_formula_units_Z 16
_cell_length_a 17.155473
_cell_length_b 11.913555
_cell_length_c 7.871519
_cell_angle_alpha 108.047949
_cell_angle_beta 113.907460
_cell_angle_gamma 27.867822
_cell_volume 683.053604
_symmetry_space_group_name_H-M "P -1"
_symmetry_group_IT_number 2
_symmetry_cell_setting 'triclinic'
loop_
_space_group_symop_operation_xyz
x,y,z
-x,-y,-z
loop_
_atom_site_type_symbol
_atom_site_label
_atom_site_fract_x
_atom_site_fract_y
_atom_site_fract_z
Si Si1 0.987992 0.579011 0.252956
Si Si2 0.539618 0.207911 0.630041
Si Si3 0.974606 0.927914 0.085268
Si Si4 0.619287 0.352906 0.369449
Si Si5 0.983360 0.141004 0.386451
Si Si6 0.936455 0.739177 0.660925
Si Si7 0.226406 0.482008 0.317326
Si Si8 0.695452 0.076167 0.032616
O O1 0.984356 0.628759 0.467395
O O2 0.996454 0.428501 0.211240
O O3 0.156261 0.433358 0.242475
O O4 0.824764 0.834515 0.135630
O O5 0.432510 0.458926 0.664195
O O6 0.426946 0.255669 0.437834
O O7 0.727799 0.994136 0.608787
O O8 0.581351 0.136480 0.831250
O O9 0.150471 0.645514 0.165761
O O10 0.817188 0.021622 0.003490
O O11 0.929480 0.073799 0.267647
O O12 0.000000 0.000000 0.000000
O O13 0.500000 0.500000 0.500000
O O14 0.592977 0.280833 0.174536
O O15 0.815393 0.103322 0.493619
O O16 0.981998 0.229174 0.261194
O O17 0.871442 0.335967 0.525476
#
# Coordination Sequence:
#
# PCOD9102807 Si02
#       8
#     2   2   2   2   2   2   2   2
#     4   9  20  42  66  80 114 166 215 249 293 364
#     4  12  23  34  59  93 125 154 198 255 311 358
#     4  11  21  35  59  86 121 159 203 243 292 371
#     4  12  21  37  61  89 124 158 199 251 303 367
#     4  11  19  39  60  85 120 162 201 240 306 366
#     4  10  20  38  64  89 111 162 214 251 297 363
#     4  10  21  39  60  84 122 165 194 252 307 354
#     4  11  23  40  58  93 124 161 203 249 306 362
#
# _framework density 23.424223000000001
#
# number of rings (size 3 to 8) (size 9 to 14) (size 15 to 20)
#    0.000    1.250    6.250    2.250    0.000    1.000 
#    0.000    0.000    0.000    6.750    0.000    0.000 
#    0.000    0.000    0.000    0.000    0.000    0.000 
#
# Total GULP energy -89361.000264 kJ/mol
# GULP energy per Si atom -5585.062517 kJ/mol
# Density = 2.337091 g / cm^3
# Si number density = 23.424223 Si / 1000 Ang^3
#
#
#
# Elastic Constant Matrix: (Units=GPa)
#
#
# Indices 1 2 3 4 5 6 
#
# 1 109.6718 42.6053 47.8583 -18.0576 -25.5179 28.3727
# 2 42.6053 49.7612 6.4952 -1.7463 -6.9622 9.3504
# 3 47.8583 6.4952 88.6357 -16.3942 -13.3278 8.4178
# 4 -18.0576 -1.7463 -16.3942 30.5576 6.7478 -10.6239
# 5 -25.5179 -6.9622 -13.3278 6.7478 32.5254 -1.9296
# 6 28.3727 9.3504 8.4178 -10.6239 -1.9296 45.5937
#
#
#
# Elastic Compliance Matrix: (Units=1/GPa)
#
#
# Indices 1 2 3 4 5 6 
#
# 1 0.025347 -0.017060 -0.009251 0.003328 0.011200 -0.009317
# 2 -0.017060 0.033082 0.005409 -0.003975 -0.003157 0.001773
# 3 -0.009251 0.005409 0.016461 0.004641 -0.000159 0.002684
# 4 0.003328 -0.003975 0.004641 0.040376 -0.004293 0.007114
# 5 0.011200 -0.003157 -0.000159 -0.004293 0.039348 -0.005628
# 6 -0.009317 0.001773 0.002684 0.007114 -0.005628 0.028291
#
#
# Mechanical properties :
#
#
# Convention : Reuss Voigt Hill
#
# Bulk Modulus (GPa) = 30.22517 49.10961 39.66739
# Shear Modulus (GPa) = 21.21003 31.80933 26.50968
#
# Velocity S-wave (km/s) = 3.01237 3.68906 3.36776
# Velocity P-wave (km/s) = 5.00306 6.25750 5.66511
#
# Compressibility (1/GPa) = 0.03308501
#
# Stress axis : x y z
#
# Youngs Moduli (GPa) = 39.45268 30.22786 60.75080
#
# Poissons Ratio (x) = 0.51568 0.56202
# Poissons Ratio (y) = 0.67305 -0.32858
# Poissons Ratio (z) = 0.36499 -0.16349
#
# Static dielectric constant tensor:
#      x y z
#    x 1.961080 0.018730 -0.014960 
#    y 0.018730 1.872150 0.029360 
#    z -0.014960 0.029360 2.018770 
# 
# From -- ./inp_files/333393.got.cif
#   From: 2010.05.17/outbox.cif.g08.bks.cpg/sg2_167_cif.got.tgz:333393.got - 2010.06.03 11:33:40.
