data_PCOD9102399
_publ_section_title
;
Structure prediction by ZEFSAII (Michael W. Deem and Ramdas Pophale) SiO2 
 PCOD9102399
Probable space group: P -1
;
_chemical_formula_sum "Si O2"
_cell_formula_units_Z 14
_cell_length_a 11.947205
_cell_length_b 14.220259
_cell_length_c 10.416770
_cell_angle_alpha 110.911227
_cell_angle_beta 42.701828
_cell_angle_gamma 143.664349
_cell_volume 576.746787
_symmetry_space_group_name_H-M "P -1"
_symmetry_group_IT_number 2
_symmetry_cell_setting 'triclinic'
loop_
_space_group_symop_operation_xyz
x,y,z
-x,-y,-z
loop_
_atom_site_type_symbol
_atom_site_label
_atom_site_fract_x
_atom_site_fract_y
_atom_site_fract_z
Si Si1 0.716753 0.565957 0.488871
Si Si2 0.415476 0.567901 0.060707
Si Si3 0.672606 0.192907 0.484307
Si Si4 0.647190 0.124005 0.753715
Si Si5 0.666654 0.764400 0.674236
Si Si6 0.351993 0.219801 0.771731
Si Si7 0.714536 0.243849 0.023715
O O1 0.667580 0.657957 0.545529
O O2 0.406632 0.345009 0.695491
O O3 0.928379 0.610845 0.232861
O O4 0.549810 0.082396 0.184184
O O5 0.476513 0.664684 0.182747
O O6 0.617268 0.708695 0.837348
O O7 0.047908 0.382147 0.236703
O O8 0.500000 0.500000 0.000000
O O9 0.616512 0.169638 0.673470
O O10 0.526711 0.216400 0.557645
O O11 0.500000 0.000000 0.500000
O O12 0.979406 0.704557 0.451984
O O13 0.545727 0.129919 0.971225
O O14 0.380530 0.691471 0.841164
O O15 0.000000 0.000000 0.500000
O O16 0.000000 0.000000 0.000000
#
# Coordination Sequence:
#
# PCOD9102399 Si02
#       7
#     2   2   2   2   2   2   2
#     4  10  20  38  62  95 133 165 223 274 331 403
#     4  12  23  42  68 100 133 176 226 281 336 405
#     4  12  25  41  68  99 134 180 227 277 346 404
#     4   9  17  38  62  96 128 167 220 274 331 405
#     4  12  20  34  67 100 127 172 221 270 339 405
#     4  12  25  43  64  97 139 177 226 285 332 399
#     4   9  18  35  63  98 127 169 219 271 339 406
#
# _framework density 24.274084999999999
#
# number of rings (size 3 to 8) (size 9 to 14) (size 15 to 20)
#    0.857    0.286    4.286    3.000    0.000    0.000 
#    0.000    0.000    3.143    3.429    0.000    0.000 
#    0.000    0.000    0.000    0.000    0.000    0.000 
#
# Total GULP energy -78284.208071 kJ/mol
# GULP energy per Si atom -5591.729148 kJ/mol
# Density = 2.421884 g / cm^3
# Si number density = 24.274085 Si / 1000 Ang^3
#
#
#
# Elastic Constant Matrix: (Units=GPa)
#
#
# Indices 1 2 3 4 5 6 
#
# 1 49.0826 40.3274 31.6583 -2.4611 0.8972 -21.5312
# 2 40.3274 182.8931 90.2497 5.9974 -17.3926 -31.3849
# 3 31.6583 90.2497 140.0698 -17.8993 -12.2386 -24.8367
# 4 -2.4611 5.9974 -17.8993 59.6099 -14.9429 -2.7614
# 5 0.8972 -17.3926 -12.2386 -14.9429 42.1653 -3.3957
# 6 -21.5312 -31.3849 -24.8367 -2.7614 -3.3957 45.2425
#
#
#
# Elastic Compliance Matrix: (Units=1/GPa)
#
#
# Indices 1 2 3 4 5 6 
#
# 1 0.029547 -0.003746 -0.002546 0.000841 -0.001811 0.009981
# 2 -0.003746 0.009290 -0.004859 -0.001961 0.001969 0.002022
# 3 -0.002546 -0.004859 0.012311 0.005126 0.003662 0.002764
# 4 0.000841 -0.001961 0.005126 0.020811 0.008338 0.003750
# 5 -0.001811 0.001969 0.003662 0.008338 0.029004 0.005201
# 6 0.009981 0.002022 0.002764 0.003750 0.005201 0.030393
#
#
# Mechanical properties :
#
#
# Convention : Reuss Voigt Hill
#
# Bulk Modulus (GPa) = 34.66603 77.39067 56.02835
# Shear Modulus (GPa) = 30.62380 43.39088 37.00734
#
# Velocity S-wave (km/s) = 3.55573 4.23252 3.90880
# Velocity P-wave (km/s) = 5.58299 7.47240 6.59570
#
# Compressibility (1/GPa) = 0.02884668
#
# Stress axis : x y z
#
# Youngs Moduli (GPa) = 33.84421 107.64301 81.23139
#
# Poissons Ratio (x) = 0.40322 0.20678
# Poissons Ratio (y) = 0.12678 0.39470
# Poissons Ratio (z) = 0.08615 0.52303
#
# Static dielectric constant tensor:
#      x y z
#    x 2.033580 0.060090 -0.012890 
#    y 0.060090 2.002790 0.024160 
#    z -0.012890 0.024160 1.929560 
# 
# From -- ./inp_files/532573.got.cif
#   From: 2010.05.17/outbox.cif.g08.bks.cpg/sg2_267_cif.got.tgz:532573.got - 2010.06.03 11:33:40.
