data_PCOD9102058
_publ_section_title
;
Structure prediction by ZEFSAII (Michael W. Deem and Ramdas Pophale) SiO2 
 PCOD9102058
Probable space group: P -1
;
_chemical_formula_sum "Si O2"
_cell_formula_units_Z 16
_cell_length_a 8.217668
_cell_length_b 11.355469
_cell_length_c 11.652464
_cell_angle_alpha 124.156838
_cell_angle_beta 39.973505
_cell_angle_gamma 109.585268
_cell_volume 568.738710
_symmetry_space_group_name_H-M "P -1"
_symmetry_group_IT_number 2
_symmetry_cell_setting 'triclinic'
loop_
_space_group_symop_operation_xyz
x,y,z
-x,-y,-z
loop_
_atom_site_type_symbol
_atom_site_label
_atom_site_fract_x
_atom_site_fract_y
_atom_site_fract_z
Si Si1 0.126720 0.263248 0.483726
Si Si2 0.666527 0.069035 0.784118
Si Si3 0.518421 0.260167 0.434785
Si Si4 0.209074 0.279545 0.208266
Si Si5 0.645942 0.957796 0.279422
Si Si6 0.988383 0.762479 0.149531
Si Si7 0.765082 0.543393 0.920056
Si Si8 0.431347 0.507254 0.770544
O O1 0.419359 0.281370 0.369915
O O2 0.024907 0.281782 0.417937
O O3 0.958812 0.392562 0.715657
O O4 0.169869 0.091888 0.390300
O O5 0.559928 0.098531 0.726500
O O6 0.835329 0.162480 0.816578
O O7 0.385270 0.119793 0.023767
O O8 0.258889 0.246246 0.640984
O O9 0.580340 0.402716 0.537228
O O10 0.698950 0.106868 0.274842
O O11 0.146776 0.338010 0.146103
O O12 0.379246 0.396380 0.224055
O O13 0.897660 0.855267 0.135856
O O14 0.500000 0.000000 0.500000
O O15 0.174539 0.615184 0.930718
O O16 0.500000 0.500000 0.000000
O O17 0.681459 0.583952 0.117280
#
# Coordination Sequence:
#
# PCOD9102058 Si02
#       8
#     2   2   2   2   2   2   2   2
#     4  11  22  40  63  90 129 176 215 261 332 392
#     4  10  23  41  65  92 132 172 215 270 324 388
#     4  10  21  36  60  90 128 165 213 269 325 382
#     4  10  23  40  62  92 127 176 217 259 327 395
#     4   9  21  35  57  95 126 161 211 267 323 382
#     4  10  20  38  61  94 125 166 208 268 329 378
#     4  10  22  39  59  94 124 161 219 270 317 384
#     4  10  21  39  60  90 126 166 212 270 324 378
#
# _framework density 28.132425999999999
#
# number of rings (size 3 to 8) (size 9 to 14) (size 15 to 20)
#    0.000    2.000    1.250    1.125    3.500    7.000 
#    0.000    0.000    0.000   20.250    0.000    0.000 
#    0.000    0.000    0.000    0.000    0.000    0.000 
#
# Total GULP energy -89366.930880 kJ/mol
# GULP energy per Si atom -5585.433180 kJ/mol
# Density = 2.806839 g / cm^3
# Si number density = 28.132426 Si / 1000 Ang^3
#
#
#
# Elastic Constant Matrix: (Units=GPa)
#
#
# Indices 1 2 3 4 5 6 
#
# 1 143.5075 37.4915 26.8034 13.7198 21.1192 -27.7967
# 2 37.4915 107.1745 40.3784 19.6301 -5.8114 -39.1352
# 3 26.8034 40.3784 82.5161 10.4406 15.3307 -10.0469
# 4 13.7198 19.6301 10.4406 44.6469 -4.3515 -3.4748
# 5 21.1192 -5.8114 15.3307 -4.3515 48.3289 7.8655
# 6 -27.7967 -39.1352 -10.0469 -3.4748 7.8655 56.5849
#
#
#
# Elastic Compliance Matrix: (Units=1/GPa)
#
#
# Indices 1 2 3 4 5 6 
#
# 1 0.009128 -0.001356 -0.000649 -0.002215 -0.004790 0.003960
# 2 -0.001356 0.016447 -0.006494 -0.004331 0.002792 0.008902
# 3 -0.000649 -0.006494 0.016615 -0.001477 -0.005713 -0.001157
# 4 -0.002215 -0.004331 -0.001477 0.025436 0.003744 -0.003304
# 5 -0.004790 0.002792 -0.005713 0.003744 0.026056 -0.004828
# 6 0.003960 0.008902 -0.001157 -0.003304 -0.004828 0.026037
#
#
# Mechanical properties :
#
#
# Convention : Reuss Voigt Hill
#
# Bulk Modulus (GPa) = 39.69760 60.28275 49.99017
# Shear Modulus (GPa) = 34.45551 45.14712 39.80131
#
# Velocity S-wave (km/s) = 3.50346 4.01035 3.76544
# Velocity P-wave (km/s) = 5.52333 6.55123 6.05912
#
# Compressibility (1/GPa) = 0.02519044
#
# Stress axis : x y z
#
# Youngs Moduli (GPa) = 109.55752 60.80146 60.18651
#
# Poissons Ratio (x) = 0.08247 0.03904
# Poissons Ratio (y) = 0.14861 0.39088
# Poissons Ratio (z) = 0.07107 0.39487
#
# Static dielectric constant tensor:
#      x y z
#    x 2.506000 -0.404900 -0.264820 
#    y -0.404900 2.881150 0.345750 
#    z -0.264820 0.345750 2.473480 
# 
# From -- ./inp_files/392789.got.cif
#   From: 2010.05.17/outbox.cif.g08.bks.cpg/sg2_197_cif.got.tgz:392789.got - 2010.06.03 11:33:40.
