data_PCOD9102859
_publ_section_title
;
Structure prediction by ZEFSAII (Michael W. Deem and Ramdas Pophale) SiO2 
 PCOD9102859
Probable space group: P -1
;
_chemical_formula_sum "Si O2"
_cell_formula_units_Z 15
_cell_length_a 11.965218
_cell_length_b 9.085049
_cell_length_c 17.809192
_cell_angle_alpha 63.348780
_cell_angle_beta 29.106912
_cell_angle_gamma 51.519509
_cell_volume 713.833950
_symmetry_space_group_name_H-M "P -1"
_symmetry_group_IT_number 2
_symmetry_cell_setting 'triclinic'
loop_
_space_group_symop_operation_xyz
x,y,z
-x,-y,-z
loop_
_atom_site_type_symbol
_atom_site_label
_atom_site_fract_x
_atom_site_fract_y
_atom_site_fract_z
Si Si1 0.000000 0.500000 0.500000
Si Si2 0.637337 0.514626 0.572603
Si Si3 0.187590 0.267881 0.667211
Si Si4 0.928426 0.178700 0.704738
Si Si5 0.732634 0.294983 0.123781
Si Si6 0.202705 0.897664 0.473201
Si Si7 0.627004 0.556308 0.980686
Si Si8 0.335090 0.036252 0.788603
O O1 0.882234 0.469034 0.495781
O O2 0.919545 0.354245 0.623342
O O3 0.598039 0.689394 0.503920
O O4 0.381379 0.585863 0.761094
O O5 0.695167 0.327433 0.536731
O O6 0.281381 0.138058 0.715943
O O7 0.093196 0.167543 0.685155
O O8 0.927072 0.482930 0.791871
O O9 0.625700 0.236321 0.893042
O O10 0.069667 0.998220 0.607286
O O11 0.687897 0.422962 0.048451
O O12 0.564758 0.188689 0.232139
O O13 0.051302 0.134444 0.976783
O O14 0.446453 0.933174 0.308144
O O15 0.000000 0.000000 0.500000
O O16 0.500000 0.500000 0.000000
#
# Coordination Sequence:
#
# PCOD9102859 Si02
#       8
#     1   2   2   2   2   2   2   2
#     4  10  16  32  58  86 108 150 198 240 274 348
#     4  11  22  36  61  88 118 163 196 241 303 357
#     4   9  21  38  60  87 115 160 206 245 291 350
#     4  10  19  34  60  86 120 153 199 249 292 350
#     4  10  20  39  64  86 117 157 206 246 295 354
#     4  12  24  36  56  91 127 155 195 250 307 357
#     4   9  17  33  59  89 115 148 200 249 293 342
#     4  10  23  40  61  90 119 154 205 255 293 356
#
# _framework density 21.013290000000001
#
# number of rings (size 3 to 8) (size 9 to 14) (size 15 to 20)
#    0.000    1.867    2.667    1.600    0.000    3.200 
#    0.000    0.667    0.000    8.000    0.000    0.000 
#    0.000    0.000    0.000    0.000    0.000    0.000 
#
# Total GULP energy -83508.272700 kJ/mol
# GULP energy per Si atom -5567.218180 kJ/mol
# Density = 2.096546 g / cm^3
# Si number density = 21.013290 Si / 1000 Ang^3
#
#
#
# Elastic Constant Matrix: (Units=GPa)
#
#
# Indices 1 2 3 4 5 6 
#
# 1 70.8276 29.4225 37.3210 1.3793 2.6588 12.5866
# 2 29.4225 65.5201 22.8179 17.4770 7.9330 25.3721
# 3 37.3210 22.8179 81.4539 14.2266 18.6844 17.4473
# 4 1.3793 17.4770 14.2266 27.1325 4.9361 14.6910
# 5 2.6588 7.9330 18.6844 4.9361 29.3232 -3.0867
# 6 12.5866 25.3721 17.4473 14.6910 -3.0867 30.7979
#
#
#
# Elastic Compliance Matrix: (Units=1/GPa)
#
#
# Indices 1 2 3 4 5 6 
#
# 1 0.023914 -0.010750 -0.011505 0.009632 0.006626 0.001671
# 2 -0.010750 0.029633 0.004808 -0.008359 -0.010786 -0.019836
# 3 -0.011505 0.004808 0.023061 -0.005877 -0.015124 -0.011035
# 4 0.009632 -0.008359 -0.005877 0.058081 -0.006973 -0.022124
# 5 0.006626 -0.010786 -0.015124 -0.006973 0.049657 0.023049
# 6 0.001671 -0.019836 -0.011035 -0.022124 0.023049 0.067244
#
#
# Mechanical properties :
#
#
# Convention : Reuss Voigt Hill
#
# Bulk Modulus (GPa) = 23.97419 44.10272 34.03845
# Shear Modulus (GPa) = 16.64509 26.00006 21.32258
#
# Velocity S-wave (km/s) = 2.81752 3.52137 3.18892
# Velocity P-wave (km/s) = 4.69238 6.12919 5.45826
#
# Compressibility (1/GPa) = 0.04171152
#
# Stress axis : x y z
#
# Youngs Moduli (GPa) = 41.81675 33.74640 43.36296
#
# Poissons Ratio (x) = 0.36278 0.49891
# Poissons Ratio (y) = 0.44954 -0.20847
# Poissons Ratio (z) = 0.48112 -0.16224
#
# Static dielectric constant tensor:
#      x y z
#    x 1.732480 -0.032410 -0.048550 
#    y -0.032410 1.784420 0.069720 
#    z -0.048550 0.069720 1.876520 
# 
# From -- ./inp_files/559292.got.cif
#   From: 2010.05.17/outbox.cif.g08.bks.cpg/sg2_280_cif.got.tgz:559292.got - 2010.06.03 11:33:40.
