data_PCOD9102007
_publ_section_title
;
Structure prediction by ZEFSAII (Michael W. Deem and Ramdas Pophale) SiO2 
 PCOD9102007
Probable space group: P -1
;
_chemical_formula_sum "Si O2"
_cell_formula_units_Z 16
_cell_length_a 6.810503
_cell_length_b 14.456378
_cell_length_c 16.829491
_cell_angle_alpha 147.132329
_cell_angle_beta 115.948031
_cell_angle_gamma 67.971082
_cell_volume 808.481237
_symmetry_space_group_name_H-M "P -1"
_symmetry_group_IT_number 2
_symmetry_cell_setting 'triclinic'
loop_
_space_group_symop_operation_xyz
x,y,z
-x,-y,-z
loop_
_atom_site_type_symbol
_atom_site_label
_atom_site_fract_x
_atom_site_fract_y
_atom_site_fract_z
Si Si1 0.138896 0.487932 0.730764
Si Si2 0.313699 0.942142 0.831603
Si Si3 0.780334 0.967369 0.887137
Si Si4 0.955877 0.334083 0.321438
Si Si5 0.194649 0.821744 0.547853
Si Si6 0.817339 0.080782 0.667828
Si Si7 0.480700 0.773376 0.411725
Si Si8 0.924359 0.203758 0.949241
O O1 0.118707 0.608750 0.737611
O O2 0.373197 0.392949 0.701968
O O3 0.959629 0.340975 0.586059
O O4 0.091447 0.605011 0.883348
O O5 0.567616 0.978870 0.911328
O O6 0.216055 0.790036 0.756817
O O7 0.286887 0.878347 0.689751
O O8 0.160009 0.109916 0.934726
O O9 0.821289 0.776728 0.725199
O O10 0.771472 0.093642 0.901732
O O11 0.000000 0.000000 0.000000
O O12 0.000000 0.500000 0.500000
O O13 0.376136 0.776654 0.482635
O O14 0.037094 0.979955 0.607197
O O15 0.711543 0.197032 0.664863
O O16 0.861189 0.178665 0.828463
O O17 0.643313 0.933018 0.549119
#
# Coordination Sequence:
#
# PCOD9102007 Si02
#       8
#     2   2   2   2   2   2   2   2
#     4  11  23  39  56  91 124 155 195 254 293 350
#     4  10  23  38  65  85 115 169 197 239 299 350
#     4  11  23  41  59  88 119 158 202 241 292 356
#     4  11  23  40  57  87 126 155 199 249 288 355
#     4  10  20  38  61  91 117 149 205 242 296 355
#     4   9  20  40  62  86 118 153 201 247 295 355
#     4  10  21  37  64  88 114 158 197 250 300 348
#     4  10  22  41  58  86 125 155 198 247 295 359
#
# _framework density 19.790195000000001
#
# number of rings (size 3 to 8) (size 9 to 14) (size 15 to 20)
#    0.000    1.750    2.500    1.125    3.500    5.000 
#    0.000    0.625    0.000    0.000    0.000    0.000 
#    0.000    0.000    0.000    0.000    0.000    0.000 
#
# Total GULP energy -89402.734361 kJ/mol
# GULP energy per Si atom -5587.670898 kJ/mol
# Density = 1.974515 g / cm^3
# Si number density = 19.790195 Si / 1000 Ang^3
#
#
#
# Elastic Constant Matrix: (Units=GPa)
#
#
# Indices 1 2 3 4 5 6 
#
# 1 116.0425 14.3146 36.9670 7.5822 -16.7544 -5.5859
# 2 14.3146 53.9872 29.4728 2.8391 -2.8777 -1.0703
# 3 36.9670 29.4728 110.0226 -5.8853 -31.5523 -16.2327
# 4 7.5822 2.8391 -5.8853 24.8278 -0.5859 -2.5457
# 5 -16.7544 -2.8777 -31.5523 -0.5859 23.0701 -7.2844
# 6 -5.5859 -1.0703 -16.2327 -2.5457 -7.2844 21.3451
#
#
#
# Elastic Compliance Matrix: (Units=1/GPa)
#
#
# Indices 1 2 3 4 5 6 
#
# 1 0.010681 -0.003107 0.002211 -0.001187 0.013094 0.008648
# 2 -0.003107 0.032595 -0.029334 -0.015144 -0.051611 -0.040906
# 3 0.002211 -0.029334 0.064349 0.029990 0.115457 0.091023
# 4 -0.001187 -0.015144 0.029990 0.055583 0.054508 0.046968
# 5 0.013094 -0.051611 0.115457 0.054508 0.264223 0.185315
# 6 0.008648 -0.040906 0.091023 0.046968 0.185315 0.185127
#
#
# Mechanical properties :
#
#
# Convention : Reuss Voigt Hill
#
# Bulk Modulus (GPa) = 21.20237 49.06233 35.13235
# Shear Modulus (GPa) = 7.25964 27.13513 17.19738
#
# Velocity S-wave (km/s) = 1.91736 3.70691 2.95105
# Velocity P-wave (km/s) = 3.95456 6.57013 5.42241
#
# Compressibility (1/GPa) = 0.04716454
#
# Stress axis : x y z
#
# Youngs Moduli (GPa) = 93.62623 30.67931 15.54036
#
# Poissons Ratio (x) = 0.09533 -0.03436
# Poissons Ratio (y) = 0.29093 0.45586
# Poissons Ratio (z) = -0.20703 0.89995
#
# Static dielectric constant tensor:
#      x y z
#    x 1.697890 -0.014410 -0.008420 
#    y -0.014410 1.694310 -0.022480 
#    z -0.008420 -0.022480 1.716630 
# 
# From -- ./inp_files/37431.got.cif
#   From: 2010.05.17/outbox.cif.g08.bks.cpg/sg2_19_cif.got.tgz:37431.got - 2010.06.03 11:33:40.
