data_PCOD9102747
_publ_section_title
;
Structure prediction by ZEFSAII (Michael W. Deem and Ramdas Pophale) SiO2 
 PCOD9102747
Probable space group: P -1
;
_chemical_formula_sum "Si O2"
_cell_formula_units_Z 16
_cell_length_a 6.205013
_cell_length_b 21.558324
_cell_length_c 9.422478
_cell_angle_alpha 51.152235
_cell_angle_beta 92.001483
_cell_angle_gamma 65.050672
_cell_volume 806.015668
_symmetry_space_group_name_H-M "P -1"
_symmetry_group_IT_number 2
_symmetry_cell_setting 'triclinic'
loop_
_space_group_symop_operation_xyz
x,y,z
-x,-y,-z
loop_
_atom_site_type_symbol
_atom_site_label
_atom_site_fract_x
_atom_site_fract_y
_atom_site_fract_z
Si Si1 0.414348 0.451339 0.680774
Si Si2 0.476358 0.459755 0.205487
Si Si3 0.886316 0.606482 0.092889
Si Si4 0.669428 0.949282 0.719420
Si Si5 0.590131 0.292492 0.279321
Si Si6 0.757469 0.093880 0.690930
Si Si7 0.932212 0.260236 0.071913
Si Si8 0.366306 0.960029 0.958930
O O1 0.500000 0.500000 0.500000
O O2 0.358303 0.521434 0.711314
O O3 0.188145 0.432343 0.718001
O O4 0.673597 0.342496 0.864144
O O5 0.574167 0.350784 0.333960
O O6 0.177957 0.525044 0.161595
O O7 0.500000 0.500000 0.000000
O O8 0.672018 0.638099 0.919149
O O9 0.881796 0.701781 0.986931
O O10 0.521985 0.923945 0.867018
O O11 0.931782 0.847694 0.826002
O O12 0.500000 0.000000 0.500000
O O13 0.720043 0.021374 0.700948
O O14 0.623659 0.194477 0.462881
O O15 0.831064 0.268180 0.218968
O O16 0.647273 0.108016 0.828809
O O17 0.067446 0.043220 0.791332
O O18 0.500000 0.000000 0.000000
#
# Coordination Sequence:
#
# PCOD9102747 Si02
#       8
#     2   2   2   2   2   2   2   2
#     4  10  23  42  57  87 124 160 200 254 306 364
#     4  11  20  39  60  90 119 155 204 255 298 364
#     4  10  20  38  64  83 128 156 200 253 309 356
#     4  11  22  39  63  93 122 162 211 256 314 370
#     4  11  21  36  61  94 114 158 208 248 307 363
#     4  10  22  41  63  86 126 163 201 263 310 366
#     4  10  22  37  59  90 122 157 202 255 299 373
#     4   9  21  43  59  83 125 159 204 255 312 367
#
# _framework density 19.850729999999999
#
# number of rings (size 3 to 8) (size 9 to 14) (size 15 to 20)
#    0.000    1.750    3.750    1.875    0.000    7.000 
#   11.250    0.000    0.000    0.000    0.000    0.000 
#    0.000    0.000    0.000    0.000    0.000    0.000 
#
# Total GULP energy -89157.469677 kJ/mol
# GULP energy per Si atom -5572.341855 kJ/mol
# Density = 1.980555 g / cm^3
# Si number density = 19.850730 Si / 1000 Ang^3
#
#
#
# Elastic Constant Matrix: (Units=GPa)
#
#
# Indices 1 2 3 4 5 6 
#
# 1 71.7117 14.7356 18.4728 -3.4094 -15.7760 -1.4879
# 2 14.7356 99.2223 41.6818 -16.2013 -12.2159 4.3928
# 3 18.4728 41.6818 99.9350 -7.3927 -14.8882 -7.0261
# 4 -3.4094 -16.2013 -7.3927 34.0497 5.6760 -6.1817
# 5 -15.7760 -12.2159 -14.8882 5.6760 29.2158 3.2058
# 6 -1.4879 4.3928 -7.0261 -6.1817 3.2058 24.8378
#
#
#
# Elastic Compliance Matrix: (Units=1/GPa)
#
#
# Indices 1 2 3 4 5 6 
#
# 1 0.016190 -0.000863 -0.001547 -0.000495 0.007737 -0.000437
# 2 -0.000863 0.013408 -0.005018 0.004305 0.002080 -0.003040
# 3 -0.001547 -0.005018 0.013206 0.000560 0.003220 0.004254
# 4 -0.000495 0.004305 0.000560 0.034000 -0.005727 0.008569
# 5 0.007737 0.002080 0.003220 -0.005727 0.042680 -0.005927
# 6 -0.000437 -0.003040 0.004254 0.008569 -0.005927 0.044874
#
#
# Mechanical properties :
#
#
# Convention : Reuss Voigt Hill
#
# Bulk Modulus (GPa) = 35.78244 46.73884 41.26064
# Shear Modulus (GPa) = 26.52091 30.68592 28.60341
#
# Velocity S-wave (km/s) = 3.65912 3.93597 3.80007
# Velocity P-wave (km/s) = 5.99309 6.65223 6.33124
#
# Compressibility (1/GPa) = 0.02794667
#
# Stress axis : x y z
#
# Youngs Moduli (GPa) = 61.76585 74.58066 75.72408
#
# Poissons Ratio (x) = 0.06438 0.11717
# Poissons Ratio (y) = 0.05332 0.38000
# Poissons Ratio (z) = 0.09557 0.37426
#
# Static dielectric constant tensor:
#      x y z
#    x 1.768860 0.007290 -0.022750 
#    y 0.007290 1.700500 0.030160 
#    z -0.022750 0.030160 1.731060 
# 
# From -- ./inp_files/38097.got.cif
#   From: 2010.05.17/outbox.cif.g08.bks.cpg/sg2_20_cif.got.tgz:38097.got - 2010.06.03 11:33:40.
