data_PCOD9102005
_publ_section_title
;
Structure prediction by ZEFSAII (Michael W. Deem and Ramdas Pophale) SiO2 
 PCOD9102005
Probable space group: P -1
;
_chemical_formula_sum "Si O2"
_cell_formula_units_Z 14
_cell_length_a 12.816387
_cell_length_b 17.142063
_cell_length_c 6.625999
_cell_angle_alpha 50.939918
_cell_angle_beta 129.236642
_cell_angle_gamma 148.452701
_cell_volume 574.823688
_symmetry_space_group_name_H-M "P -1"
_symmetry_group_IT_number 2
_symmetry_cell_setting 'triclinic'
loop_
_space_group_symop_operation_xyz
x,y,z
-x,-y,-z
loop_
_atom_site_type_symbol
_atom_site_label
_atom_site_fract_x
_atom_site_fract_y
_atom_site_fract_z
Si Si1 0.845963 0.162492 0.694202
Si Si2 0.611491 0.481990 0.402211
Si Si3 0.567074 0.053543 0.220818
Si Si4 0.173492 0.276789 0.402911
Si Si5 0.879894 0.957092 0.125724
Si Si6 0.819992 0.547738 0.169350
Si Si7 0.389991 0.696937 0.003151
O O1 0.757194 0.095467 0.469214
O O2 0.006311 0.341860 0.628443
O O3 0.642033 0.082195 0.691633
O O4 0.923747 0.100111 0.980693
O O5 0.384146 0.378479 0.370139
O O6 0.758329 0.649471 0.408498
O O7 0.630441 0.476551 0.195595
O O8 0.660410 0.407494 0.706484
O O9 0.630276 0.203079 0.101783
O O10 0.500000 0.000000 0.000000
O O11 0.066464 0.108689 0.560298
O O12 0.093432 0.329072 0.100671
O O13 0.629944 0.815120 0.043525
O O14 0.000000 0.000000 0.000000
O O15 0.746964 0.409811 0.183468
#
# Coordination Sequence:
#
# PCOD9102005 Si02
#       7
#     2   2   2   2   2   2   2
#     4  10  24  40  62  95 121 160 213 253 310 381
#     4   9  18  34  56  87 127 169 204 247 303 360
#     4  10  23  47  67  83 119 163 209 267 314 363
#     4   9  19  34  54  88 131 171 210 239 291 377
#     4  10  20  38  61  90 132 170 205 249 299 366
#     4  11  21  37  61  92 130 161 201 262 316 366
#     4   9  22  40  63  95 122 161 217 256 307 378
#
# _framework density 24.355291999999999
#
# number of rings (size 3 to 8) (size 9 to 14) (size 15 to 20)
#    0.000    2.286    0.000    2.143    0.000    9.143 
#    0.000    7.143    0.000    0.000    0.000    0.000 
#    0.000    0.000    0.000    0.000    0.000    0.000 
#
# Total GULP energy -78117.982194 kJ/mol
# GULP energy per Si atom -5579.855871 kJ/mol
# Density = 2.429986 g / cm^3
# Si number density = 24.355292 Si / 1000 Ang^3
#
#
#
# Elastic Constant Matrix: (Units=GPa)
#
#
# Indices 1 2 3 4 5 6 
#
# 1 63.8751 33.8105 31.4079 -0.2368 -3.1633 -26.3982
# 2 33.8105 113.9557 24.3787 -2.2379 -10.8214 -36.7500
# 3 31.4079 24.3787 100.7820 -3.3362 -16.9601 -18.2953
# 4 -0.2368 -2.2379 -3.3362 33.7282 -6.2791 -6.2600
# 5 -3.1633 -10.8214 -16.9601 -6.2791 34.2617 3.4124
# 6 -26.3982 -36.7500 -18.2953 -6.2600 3.4124 37.8386
#
#
#
# Elastic Compliance Matrix: (Units=1/GPa)
#
#
# Indices 1 2 3 4 5 6 
#
# 1 0.024581 -0.002155 -0.005038 0.001599 -0.001912 0.013057
# 2 -0.002155 0.013756 0.000355 0.003932 0.003814 0.012336
# 3 -0.005038 0.000355 0.013152 0.003061 0.006408 0.003118
# 4 0.001599 0.003932 0.003061 0.033803 0.007976 0.011288
# 5 -0.001912 0.003814 0.006408 0.007976 0.034483 0.003678
# 6 0.013057 0.012336 0.003118 0.011288 0.003678 0.050562
#
#
# Mechanical properties :
#
#
# Convention : Reuss Voigt Hill
#
# Bulk Modulus (GPa) = 26.44472 50.86745 38.65608
# Shear Modulus (GPa) = 25.43031 33.76673 29.59852
#
# Velocity S-wave (km/s) = 3.23482 3.72751 3.48987
# Velocity P-wave (km/s) = 4.98333 6.28146 5.66967
#
# Compressibility (1/GPa) = 0.03781474
#
# Stress axis : x y z
#
# Youngs Moduli (GPa) = 40.68242 72.69469 76.03294
#
# Poissons Ratio (x) = 0.15663 0.38303
# Poissons Ratio (y) = 0.08765 -0.02701
# Poissons Ratio (z) = 0.20495 -0.02582
#
# Static dielectric constant tensor:
#      x y z
#    x 1.980870 0.022470 0.029520 
#    y 0.022470 1.936690 0.015560 
#    z 0.029520 0.015560 2.070440 
# 
# From -- ./inp_files/99320.got.cif
#   From: 2010.05.17/outbox.cif.g08.bks.cpg/sg2_50_cif.got.tgz:99320.got - 2010.06.03 11:33:40.
