data_PCOD9102360
_publ_section_title
;
Structure prediction by ZEFSAII (Michael W. Deem and Ramdas Pophale) SiO2 
 PCOD9102360
Probable space group: P -1
;
_chemical_formula_sum "Si O2"
_cell_formula_units_Z 14
_cell_length_a 11.461605
_cell_length_b 8.284652
_cell_length_c 21.398376
_cell_angle_alpha 69.340572
_cell_angle_beta 149.771249
_cell_angle_gamma 88.480059
_cell_volume 680.346409
_symmetry_space_group_name_H-M "P -1"
_symmetry_group_IT_number 2
_symmetry_cell_setting 'triclinic'
loop_
_space_group_symop_operation_xyz
x,y,z
-x,-y,-z
loop_
_atom_site_type_symbol
_atom_site_label
_atom_site_fract_x
_atom_site_fract_y
_atom_site_fract_z
Si Si1 0.570553 0.357623 0.801507
Si Si2 0.496086 0.821848 0.557286
Si Si3 0.364797 0.283042 0.222616
Si Si4 0.352676 0.912883 0.244696
Si Si5 0.261329 0.434374 0.417785
Si Si6 0.634689 0.722167 0.160276
Si Si7 0.901813 0.938925 0.229906
O O1 0.477945 0.608918 0.725469
O O2 0.392158 0.354660 0.775740
O O3 0.515246 0.290198 0.718755
O O4 0.961277 0.132688 0.025638
O O5 0.643756 0.749575 0.703334
O O6 0.710365 0.601483 0.637782
O O7 0.123633 0.948673 0.371536
O O8 0.500000 0.000000 0.500000
O O9 0.488574 0.038055 0.283349
O O10 0.000000 0.500000 0.000000
O O11 0.448544 0.789246 0.374080
O O12 0.946106 0.504326 0.292940
O O13 0.170816 0.678538 0.356295
O O14 0.680646 0.906841 0.164749
O O15 0.320385 0.856967 0.953015
#
# Coordination Sequence:
#
# PCOD9102360 Si02
#       7
#     2   2   2   2   2   2   2
#     4  10  21  39  65  87 125 173 203 258 326 367
#     4  12  22  38  67  89 125 161 211 265 306 365
#     4  10  23  40  59  97 126 158 212 267 309 369
#     4  10  20  38  62  93 120 163 222 253 305 382
#     4  10  20  38  63  92 114 162 215 253 313 363
#     4   9  21  40  63  92 126 161 207 264 311 385
#     4   9  21  39  62  92 121 160 213 256 313 374
#
# _framework density 20.577750000000002
#
# number of rings (size 3 to 8) (size 9 to 14) (size 15 to 20)
#    0.857    1.143    1.429    2.143    2.000    4.000 
#    0.000    2.857    0.000    0.000    0.000    0.000 
#    0.000    0.000    0.000    0.000    0.000    0.000 
#
# Total GULP energy -77973.943262 kJ/mol
# GULP energy per Si atom -5569.567376 kJ/mol
# Density = 2.053091 g / cm^3
# Si number density = 20.577750 Si / 1000 Ang^3
#
#
#
# Elastic Constant Matrix: (Units=GPa)
#
#
# Indices 1 2 3 4 5 6 
#
# 1 85.9964 14.8567 21.8770 18.2847 -12.1228 11.6450
# 2 14.8567 83.0670 19.8489 16.7795 -2.6243 12.7896
# 3 21.8770 19.8489 82.8086 11.5261 -22.9506 -0.7027
# 4 18.2847 16.7795 11.5261 21.2327 -3.0183 -6.6250
# 5 -12.1228 -2.6243 -22.9506 -3.0183 28.1993 -4.8007
# 6 11.6450 12.7896 -0.7027 -6.6250 -4.8007 23.4404
#
#
#
# Elastic Compliance Matrix: (Units=1/GPa)
#
#
# Indices 1 2 3 4 5 6 
#
# 1 0.019760 0.005578 -0.003011 -0.026062 0.000326 -0.020250
# 2 0.005578 0.021015 -0.004702 -0.027035 -0.006336 -0.023317
# 3 -0.003011 -0.004702 0.017866 0.001077 0.014255 0.007821
# 4 -0.026062 -0.027035 0.001077 0.110665 0.009374 0.060928
# 5 0.000326 -0.006336 0.014255 0.009374 0.050462 0.016707
# 6 -0.020250 -0.023317 0.007821 0.060928 0.016707 0.086320
#
#
# Mechanical properties :
#
#
# Convention : Reuss Voigt Hill
#
# Bulk Modulus (GPa) = 18.39206 40.55968 29.47587
# Shear Modulus (GPa) = 15.22153 27.59377 21.40765
#
# Velocity S-wave (km/s) = 2.72271 3.66587 3.22891
# Velocity P-wave (km/s) = 4.34067 6.13770 5.31568
#
# Compressibility (1/GPa) = 0.05437129
#
# Stress axis : x y z
#
# Youngs Moduli (GPa) = 50.60666 47.58422 55.97252
#
# Poissons Ratio (x) = -0.26543 0.16855
# Poissons Ratio (y) = -0.28229 0.26318
# Poissons Ratio (z) = 0.15239 0.22374
#
# Static dielectric constant tensor:
#      x y z
#    x 1.695930 0.064700 0.057060 
#    y 0.064700 1.929480 0.034160 
#    z 0.057060 0.034160 1.738220 
# 
# From -- ./inp_files/528134.got.cif
#   From: 2010.05.17/outbox.cif.g08.bks.cpg/sg2_265_cif.got.tgz:528134.got - 2010.06.03 11:33:40.
