data_PCOD9102213
_publ_section_title
;
Structure prediction by ZEFSAII (Michael W. Deem and Ramdas Pophale) SiO2 
 PCOD9102213
Probable space group: P -1
;
_chemical_formula_sum "Si O2"
_cell_formula_units_Z 16
_cell_length_a 11.933581
_cell_length_b 8.645596
_cell_length_c 9.141604
_cell_angle_alpha 52.207133
_cell_angle_beta 114.929345
_cell_angle_gamma 100.798748
_cell_volume 672.556732
_symmetry_space_group_name_H-M "P -1"
_symmetry_group_IT_number 2
_symmetry_cell_setting 'triclinic'
loop_
_space_group_symop_operation_xyz
x,y,z
-x,-y,-z
loop_
_atom_site_type_symbol
_atom_site_label
_atom_site_fract_x
_atom_site_fract_y
_atom_site_fract_z
Si Si1 0.043837 0.600594 0.324433
Si Si2 0.673783 0.912206 0.536320
Si Si3 0.770220 0.752255 0.060390
Si Si4 0.882047 0.601824 0.792885
Si Si5 0.710178 0.179199 0.638179
Si Si6 0.357033 0.075595 0.835981
Si Si7 0.417215 0.424146 0.127895
Si Si8 0.663822 0.320588 0.826364
O O1 0.917966 0.731590 0.134709
O O2 0.000000 0.500000 0.500000
O O3 0.078595 0.418563 0.340839
O O4 0.159981 0.725198 0.340810
O O5 0.816295 0.810734 0.685025
O O6 0.645878 0.898509 0.355741
O O7 0.586576 0.779439 0.660959
O O8 0.670181 0.129152 0.480499
O O9 0.710142 0.758408 0.188152
O O10 0.712546 0.587433 0.026376
O O11 0.722842 0.962746 0.843174
O O12 0.772014 0.461118 0.819469
O O13 0.000000 0.500000 0.000000
O O14 0.629721 0.300226 0.649687
O O15 0.500000 0.000000 0.000000
O O16 0.287866 0.886307 0.954320
O O17 0.436388 0.579597 0.176213
O O18 0.500000 0.500000 0.000000
#
# Coordination Sequence:
#
# PCOD9102213 Si02
#       8
#     2   2   2   2   2   2   2   2
#     4  11  21  35  57  90 122 155 195 247 306 364
#     4  10  22  40  63  93 121 161 209 249 306 375
#     4  10  21  39  60  85 121 162 204 248 300 365
#     4  10  20  38  62  88 123 161 198 248 307 368
#     4   9  20  38  60  85 121 159 195 243 304 371
#     4  11  23  42  62  86 122 163 208 260 304 355
#     4  10  20  40  64  88 119 159 206 261 307 353
#     4   9  20  38  60  87 119 160 203 248 304 365
#
# _framework density 23.789812000000001
#
# number of rings (size 3 to 8) (size 9 to 14) (size 15 to 20)
#    0.000    2.000    0.000    4.125    0.000    4.000 
#    0.000   21.250    0.000    0.000    0.000    0.000 
#    0.000    0.000    0.000    0.000    0.000    0.000 
#
# Total GULP energy -89151.036872 kJ/mol
# GULP energy per Si atom -5571.939804 kJ/mol
# Density = 2.373567 g / cm^3
# Si number density = 23.789812 Si / 1000 Ang^3
#
#
#
# Elastic Constant Matrix: (Units=GPa)
#
#
# Indices 1 2 3 4 5 6 
#
# 1 129.4164 42.1134 38.4042 30.9321 -26.2490 -27.4642
# 2 42.1134 108.7331 23.6562 31.2649 -15.8041 -28.5897
# 3 38.4042 23.6562 99.5221 29.9534 -22.4011 -12.5295
# 4 30.9321 31.2649 29.9534 29.0315 -7.5683 -14.8426
# 5 -26.2490 -15.8041 -22.4011 -7.5683 49.1740 5.1685
# 6 -27.4642 -28.5897 -12.5295 -14.8426 5.1685 35.2979
#
#
#
# Elastic Compliance Matrix: (Units=1/GPa)
#
#
# Indices 1 2 3 4 5 6 
#
# 1 0.011783 -0.000208 -0.000429 -0.008377 0.004244 0.004703
# 2 -0.000208 0.014964 0.002247 -0.014213 0.002866 0.006360
# 3 -0.000429 0.002247 0.016040 -0.017678 0.005186 -0.001013
# 4 -0.008377 -0.014213 -0.017678 0.080787 -0.005763 0.010510
# 5 0.004244 0.002866 0.005186 -0.005763 0.024850 0.001402
# 6 0.004703 0.006360 -0.001013 0.010510 0.001402 0.040995
#
#
# Mechanical properties :
#
#
# Convention : Reuss Voigt Hill
#
# Bulk Modulus (GPa) = 21.73611 60.66880 41.20245
# Shear Modulus (GPa) = 24.80956 38.26723 31.53840
#
# Velocity S-wave (km/s) = 3.23285 4.01503 3.64498
# Velocity P-wave (km/s) = 4.80537 6.85940 5.92212
#
# Compressibility (1/GPa) = 0.04600639
#
# Stress axis : x y z
#
# Youngs Moduli (GPa) = 84.86765 66.82626 62.34538
#
# Poissons Ratio (x) = 0.01392 0.02674
# Poissons Ratio (y) = 0.01768 -0.14008
# Poissons Ratio (z) = 0.03640 -0.15015
#
# Static dielectric constant tensor:
#      x y z
#    x 1.931560 -0.120070 -0.075090 
#    y -0.120070 2.062800 0.014480 
#    z -0.075090 0.014480 1.890690 
# 
# From -- ./inp_files/242707.got.cif
#   From: 2010.05.17/outbox.cif.g08.bks.cpg/sg2_122_cif.got.tgz:242707.got - 2010.06.03 11:33:40.
