data_PCOD9102602
_publ_section_title
;
Structure prediction by ZEFSAII (Michael W. Deem and Ramdas Pophale) SiO2 
 PCOD9102602
Probable space group: P -1
;
_chemical_formula_sum "Si O2"
_cell_formula_units_Z 14
_cell_length_a 17.964198
_cell_length_b 8.289891
_cell_length_c 11.227878
_cell_angle_alpha 83.691698
_cell_angle_beta 142.920287
_cell_angle_gamma 67.347947
_cell_volume 615.711473
_symmetry_space_group_name_H-M "P -1"
_symmetry_group_IT_number 2
_symmetry_cell_setting 'triclinic'
loop_
_space_group_symop_operation_xyz
x,y,z
-x,-y,-z
loop_
_atom_site_type_symbol
_atom_site_label
_atom_site_fract_x
_atom_site_fract_y
_atom_site_fract_z
Si Si1 0.332914 0.150183 0.458348
Si Si2 0.757396 0.201743 0.708801
Si Si3 0.988174 0.337810 0.845286
Si Si4 0.896429 0.932445 0.224733
Si Si5 0.500544 0.715026 0.438156
Si Si6 0.192786 0.893671 0.650934
Si Si7 0.448731 0.712893 0.776854
O O1 0.477655 0.119391 0.573733
O O2 0.218455 0.373969 0.395966
O O3 0.444054 0.889235 0.689419
O O4 0.160023 0.267300 0.136445
O O5 0.712251 0.412814 0.703842
O O6 0.590945 0.254423 0.558737
O O7 0.687399 0.265791 0.479204
O O8 0.962532 0.893808 0.021709
O O9 0.013733 0.287564 0.739637
O O10 0.010553 0.985067 0.350225
O O11 0.892722 0.913572 0.363830
O O12 0.663387 0.182349 0.872051
O O13 0.330119 0.850019 0.738780
O O14 0.339205 0.595476 0.908172
#
# Coordination Sequence:
#
# PCOD9102602 Si02
#       7
#     2   2   2   2   2   2   2
#     4  10  22  41  61  94 128 154 191 254 318 364
#     4   9  19  37  60  95 114 157 201 242 306 355
#     4   9  21  40  59  94 122 152 200 244 314 363
#     4  10  21  40  61  89 118 161 203 257 288 348
#     4  10  20  38  63  92 124 150 201 249 308 369
#     4  10  22  41  64  88 120 159 222 247 278 360
#     4  10  21  41  64  88 119 166 200 254 298 350
#
# _framework density 22.737922000000001
#
# number of rings (size 3 to 8) (size 9 to 14) (size 15 to 20)
#    0.000    2.286    1.429    0.000    2.000    5.714 
#   20.571   10.000    0.000    0.000    0.000    0.000 
#    0.000    0.000    0.000    0.000    0.000    0.000 
#
# Total GULP energy -78083.927923 kJ/mol
# GULP energy per Si atom -5577.423423 kJ/mol
# Density = 2.268617 g / cm^3
# Si number density = 22.737922 Si / 1000 Ang^3
#
#
#
# Elastic Constant Matrix: (Units=GPa)
#
#
# Indices 1 2 3 4 5 6 
#
# 1 84.4961 36.4886 0.5679 4.7761 -10.5027 -9.5869
# 2 36.4886 100.1133 14.6101 -1.6455 -12.7475 -25.5617
# 3 0.5679 14.6101 63.1940 11.7935 0.9904 7.8217
# 4 4.7761 -1.6455 11.7935 29.6749 -3.3552 -2.5391
# 5 -10.5027 -12.7475 0.9904 -3.3552 21.2850 -3.8314
# 6 -9.5869 -25.5617 7.8217 -2.5391 -3.8314 59.1303
#
#
#
# Elastic Compliance Matrix: (Units=1/GPa)
#
#
# Indices 1 2 3 4 5 6 
#
# 1 0.014662 -0.005125 0.001513 -0.002824 0.003664 0.000078
# 2 -0.005125 0.016005 -0.005842 0.005785 0.009633 0.007733
# 3 0.001513 -0.005842 0.019759 -0.009611 -0.006214 -0.005709
# 4 -0.002824 0.005785 -0.009611 0.039889 0.009825 0.005664
# 5 0.003664 0.009633 -0.006214 0.009825 0.058155 0.009770
# 6 0.000078 0.007733 -0.005709 0.005664 0.009770 0.021899
#
#
# Mechanical properties :
#
#
# Convention : Reuss Voigt Hill
#
# Bulk Modulus (GPa) = 31.72720 39.01519 35.37119
# Shear Modulus (GPa) = 25.02724 35.09381 30.06052
#
# Velocity S-wave (km/s) = 3.32125 3.93288 3.63994
# Velocity P-wave (km/s) = 5.35643 6.14974 5.76674
#
# Compressibility (1/GPa) = 0.03151869
#
# Stress axis : x y z
#
# Youngs Moduli (GPa) = 68.20557 62.47969 50.60967
#
# Poissons Ratio (x) = 0.32018 -0.07658
# Poissons Ratio (y) = 0.34953 0.29566
# Poissons Ratio (z) = -0.10320 0.36501
#
# Static dielectric constant tensor:
#      x y z
#    x 1.953510 0.000070 0.046770 
#    y 0.000070 1.903670 -0.010100 
#    z 0.046770 -0.010100 1.858340 
# 
# From -- ./inp_files/460559.got.cif
#   From: 2010.05.17/outbox.cif.g08.bks.cpg/sg2_231_cif.got.tgz:460559.got - 2010.06.03 11:33:40.
