data_PCOD9102649
_publ_section_title
;
Structure prediction by ZEFSAII (Michael W. Deem and Ramdas Pophale) SiO2 
 PCOD9102649
Probable space group: P -1
;
_chemical_formula_sum "Si O2"
_cell_formula_units_Z 16
_cell_length_a 9.315569
_cell_length_b 15.317221
_cell_length_c 8.856269
_cell_angle_alpha 96.813848
_cell_angle_beta 130.269508
_cell_angle_gamma 117.211866
_cell_volume 679.186808
_symmetry_space_group_name_H-M "P -1"
_symmetry_group_IT_number 2
_symmetry_cell_setting 'triclinic'
loop_
_space_group_symop_operation_xyz
x,y,z
-x,-y,-z
loop_
_atom_site_type_symbol
_atom_site_label
_atom_site_fract_x
_atom_site_fract_y
_atom_site_fract_z
Si Si1 0.048564 0.453267 0.381022
Si Si2 0.872477 0.799374 0.115769
Si Si3 0.684640 0.918725 0.124604
Si Si4 0.491330 0.518344 0.821346
Si Si5 0.279414 0.893209 0.678231
Si Si6 0.560152 0.245415 0.799632
Si Si7 0.290666 0.560875 0.253626
Si Si8 0.303339 0.897640 0.219514
O O1 0.187253 0.413579 0.538786
O O2 0.260649 0.545654 0.409930
O O3 0.000000 0.500000 0.500000
O O4 0.774181 0.352877 0.086286
O O5 0.826554 0.887846 0.124735
O O6 0.064496 0.820344 0.382004
O O7 0.014858 0.832885 0.059021
O O8 0.607907 0.655166 0.917940
O O9 0.659980 0.868003 0.264951
O O10 0.811457 0.056294 0.266248
O O11 0.396674 0.847258 0.836734
O O12 0.654999 0.510078 0.817473
O O13 0.500000 0.500000 0.000000
O O14 0.553463 0.020331 0.814980
O O15 0.505186 0.301533 0.650657
O O16 0.689827 0.204998 0.797181
O O17 0.000000 0.500000 0.000000
O O18 0.500000 0.000000 0.500000
#
# Coordination Sequence:
#
# PCOD9102649 Si02
#       8
#     2   2   2   2   2   2   2   2
#     4  11  23  40  63  93 129 172 223 272 318 394
#     4  11  21  38  63  89 128 166 213 267 323 381
#     4  10  20  38  63  94 121 164 219 260 329 395
#     4  12  25  40  61  97 133 172 225 267 324 401
#     4   9  21  39  62  89 126 164 212 270 326 388
#     4  10  21  42  65  89 130 172 208 265 336 390
#     4  10  21  41  62  87 127 170 212 269 327 382
#     4   9  20  40  64  92 125 166 211 265 334 397
#
# _framework density 23.557583000000001
#
# number of rings (size 3 to 8) (size 9 to 14) (size 15 to 20)
#    0.000    1.750    0.000    5.250    1.750    0.500 
#   11.250    0.000    5.500    0.000    0.000    0.000 
#    0.000    0.000    0.000    0.000    0.000    0.000 
#
# Total GULP energy -89225.944690 kJ/mol
# GULP energy per Si atom -5576.621543 kJ/mol
# Density = 2.350396 g / cm^3
# Si number density = 23.557583 Si / 1000 Ang^3
#
#
#
# Elastic Constant Matrix: (Units=GPa)
#
#
# Indices 1 2 3 4 5 6 
#
# 1 130.4433 20.6220 17.8732 -1.8082 -16.2060 -27.8542
# 2 20.6220 62.8752 5.8054 -9.0959 -14.3298 4.3306
# 3 17.8732 5.8054 84.4606 -18.4271 -12.8049 4.8804
# 4 -1.8082 -9.0959 -18.4271 32.5839 -1.5114 -1.4785
# 5 -16.2060 -14.3298 -12.8049 -1.5114 38.8361 0.0963
# 6 -27.8542 4.3306 4.8804 -1.4785 0.0963 30.2794
#
#
#
# Elastic Compliance Matrix: (Units=1/GPa)
#
#
# Indices 1 2 3 4 5 6 
#
# 1 0.011361 -0.003935 -0.002748 -0.001399 0.002301 0.011382
# 2 -0.003935 0.019937 0.002321 0.006676 0.006756 -0.006540
# 3 -0.002748 0.002321 0.015325 0.009178 0.005132 -0.004898
# 4 -0.001399 0.006676 0.009178 0.037877 0.006385 -0.001892
# 5 0.002301 0.006756 0.005132 0.006385 0.031141 0.000536
# 6 0.011382 -0.006540 -0.004898 -0.001892 0.000536 0.045127
#
#
# Mechanical properties :
#
#
# Convention : Reuss Voigt Hill
#
# Bulk Modulus (GPa) = 26.38484 40.70896 33.54690
# Shear Modulus (GPa) = 27.45371 35.90510 31.67941
#
# Velocity S-wave (km/s) = 3.41748 3.90826 3.67108
# Velocity P-wave (km/s) = 5.17655 6.13874 5.67806
#
# Compressibility (1/GPa) = 0.03790056
#
# Stress axis : x y z
#
# Youngs Moduli (GPa) = 88.01655 50.15878 65.25151
#
# Poissons Ratio (x) = 0.19735 0.17930
# Poissons Ratio (y) = 0.34631 -0.15145
# Poissons Ratio (z) = 0.24186 -0.11642
#
# Static dielectric constant tensor:
#      x y z
#    x 1.951370 0.051220 0.024290 
#    y 0.051220 1.985390 -0.014660 
#    z 0.024290 -0.014660 1.924010 
# 
# From -- ./inp_files/208041.got.cif
#   From: 2010.05.17/outbox.cif.g08.bks.cpg/sg2_105_cif.got.tgz:208041.got - 2010.06.03 11:33:40.
