data_PCOD9102611
_publ_section_title
;
Structure prediction by ZEFSAII (Michael W. Deem and Ramdas Pophale) SiO2 
 PCOD9102611
Probable space group: P -1
;
_chemical_formula_sum "Si O2"
_cell_formula_units_Z 14
_cell_length_a 10.505814
_cell_length_b 9.504767
_cell_length_c 7.758991
_cell_angle_alpha 109.231009
_cell_angle_beta 130.047493
_cell_angle_gamma 61.103028
_cell_volume 519.056482
_symmetry_space_group_name_H-M "P -1"
_symmetry_group_IT_number 2
_symmetry_cell_setting 'triclinic'
loop_
_space_group_symop_operation_xyz
x,y,z
-x,-y,-z
loop_
_atom_site_type_symbol
_atom_site_label
_atom_site_fract_x
_atom_site_fract_y
_atom_site_fract_z
Si Si1 0.325435 0.822356 0.548142
Si Si2 0.371380 0.563772 0.074122
Si Si3 0.988132 0.153559 0.941132
Si Si4 0.392973 0.106519 0.611511
Si Si5 0.282703 0.882261 0.919353
Si Si6 0.656499 0.606837 0.557258
Si Si7 0.008145 0.544539 0.729733
O O1 0.201304 0.769310 0.290161
O O2 0.275906 0.814951 0.698508
O O3 0.536464 0.732254 0.646555
O O4 0.272108 0.012756 0.534651
O O5 0.277318 0.751482 0.005202
O O6 0.222838 0.484872 0.929840
O O7 0.500000 0.500000 0.000000
O O8 0.514449 0.532076 0.339574
O O9 0.037404 0.276215 0.153232
O O10 0.137932 0.060975 0.892473
O O11 0.000000 0.000000 0.000000
O O12 0.329090 0.284328 0.550618
O O13 0.500000 0.000000 0.500000
O O14 0.527168 0.103870 0.878966
O O15 0.866902 0.493398 0.698910
O O16 0.000000 0.500000 0.500000
#
# Coordination Sequence:
#
# PCOD9102611 Si02
#       7
#     2   2   2   2   2   2   2
#     4  11  21  37  61  99 142 170 209 279 343 394
#     4  11  22  43  67  93 127 172 232 274 323 399
#     4  12  21  39  65  99 132 170 223 273 325 403
#     4   9  18  34  57  90 125 168 211 257 320 394
#     4  11  23  38  64 100 134 175 214 280 345 386
#     4  10  20  38  63  92 127 174 218 266 325 398
#     4  12  23  38  71  96 124 172 231 275 321 389
#
# _framework density 26.972016
#
# number of rings (size 3 to 8) (size 9 to 14) (size 15 to 20)
#    0.000    1.143    4.286    5.143    0.000    0.000 
#    0.000    0.714    0.000    1.714    0.000    0.000 
#    0.000    0.000    0.000    0.000    0.000    0.000 
#
# Total GULP energy -78143.185508 kJ/mol
# GULP energy per Si atom -5581.656108 kJ/mol
# Density = 2.691063 g / cm^3
# Si number density = 26.972016 Si / 1000 Ang^3
#
#
#
# Elastic Constant Matrix: (Units=GPa)
#
#
# Indices 1 2 3 4 5 6 
#
# 1 112.2379 54.3861 66.3848 -7.5579 3.2308 -2.3089
# 2 54.3861 104.2802 18.1706 17.9535 -1.8056 -28.9605
# 3 66.3848 18.1706 195.4728 10.4148 12.8444 -10.8732
# 4 -7.5579 17.9535 10.4148 31.7772 -16.2240 1.6207
# 5 3.2308 -1.8056 12.8444 -16.2240 57.9813 0.9554
# 6 -2.3089 -28.9605 -10.8732 1.6207 0.9554 64.5359
#
#
#
# Elastic Compliance Matrix: (Units=1/GPa)
#
#
# Indices 1 2 3 4 5 6 
#
# 1 0.022585 -0.016147 -0.008127 0.020624 0.005949 -0.008413
# 2 -0.016147 0.024226 0.005537 -0.023137 -0.006242 0.011900
# 3 -0.008127 0.005537 0.008390 -0.010119 -0.004129 0.003923
# 4 0.020624 -0.023137 -0.010119 0.062693 0.018132 -0.013192
# 5 0.005949 -0.006242 -0.004129 0.018132 0.022776 -0.004077
# 6 -0.008413 0.011900 0.003923 -0.013192 -0.004077 0.021587
#
#
# Mechanical properties :
#
#
# Convention : Reuss Voigt Hill
#
# Bulk Modulus (GPa) = 56.41372 76.65264 66.53318
# Shear Modulus (GPa) = 24.31413 49.06217 36.68815
#
# Velocity S-wave (km/s) = 3.00569 4.26960 3.69213
# Velocity P-wave (km/s) = 5.74514 7.26547 6.54957
#
# Compressibility (1/GPa) = 0.01772618
#
# Stress axis : x y z
#
# Youngs Moduli (GPa) = 44.27647 41.27727 119.19203
#
# Poissons Ratio (x) = 0.66652 0.96867
# Poissons Ratio (y) = 0.71495 -0.65993
# Poissons Ratio (z) = 0.35983 -0.22854
#
# Static dielectric constant tensor:
#      x y z
#    x 2.144050 -0.075100 0.085020 
#    y -0.075100 2.445100 0.017150 
#    z 0.085020 0.017150 2.221710 
# 
# From -- ./inp_files/274504.got.cif
#   From: 2010.05.17/outbox.cif.g08.bks.cpg/sg2_138_cif.got.tgz:274504.got - 2010.06.03 11:33:40.
