data_PCOD9102622
_publ_section_title
;
Structure prediction by ZEFSAII (Michael W. Deem and Ramdas Pophale) SiO2 
 PCOD9102622
Probable space group: P -1
;
_chemical_formula_sum "Si O2"
_cell_formula_units_Z 14
_cell_length_a 12.684707
_cell_length_b 20.972631
_cell_length_c 15.520761
_cell_angle_alpha 21.541504
_cell_angle_beta 27.971497
_cell_angle_gamma 31.114201
_cell_volume 696.547675
_symmetry_space_group_name_H-M "P -1"
_symmetry_group_IT_number 2
_symmetry_cell_setting 'triclinic'
loop_
_space_group_symop_operation_xyz
x,y,z
-x,-y,-z
loop_
_atom_site_type_symbol
_atom_site_label
_atom_site_fract_x
_atom_site_fract_y
_atom_site_fract_z
Si Si1 0.490047 0.270639 0.889147
Si Si2 0.172975 0.473180 0.091815
Si Si3 0.018588 0.180278 0.298708
Si Si4 0.698945 0.355808 0.883428
Si Si5 0.205669 0.663415 0.568439
Si Si6 0.730087 0.030136 0.172964
Si Si7 0.163143 0.374675 0.419427
O O1 0.370659 0.480388 0.711852
O O2 0.668693 0.255223 0.700925
O O3 0.607700 0.170784 0.013546
O O4 0.278222 0.181534 0.132865
O O5 0.121841 0.426320 0.284965
O O6 0.033497 0.371874 0.254036
O O7 0.064980 0.672903 0.897030
O O8 0.445847 0.440376 0.925460
O O9 0.861613 0.221216 0.444443
O O10 0.000000 0.000000 0.500000
O O11 0.730323 0.473945 0.797387
O O12 0.920034 0.373657 0.643548
O O13 0.693628 0.142684 0.148421
O O14 0.688024 0.829747 0.437824
O O15 0.000000 0.000000 0.000000
#
# Coordination Sequence:
#
# PCOD9102622 Si02
#       7
#     2   2   2   2   2   2   2
#     4  10  21  41  66  90 123 162 209 256 305 377
#     4  11  22  41  64  88 121 161 208 254 308 370
#     4  11  25  41  59  96 125 159 209 258 312 371
#     4  10  21  40  60  89 130 164 200 258 307 363
#     4  10  21  41  67  88 119 166 207 254 318 363
#     4  10  20  38  63  93 122 161 209 246 306 374
#     4  10  23  40  60  93 126 164 208 250 312 374
#
# _framework density 20.099128
#
# number of rings (size 3 to 8) (size 9 to 14) (size 15 to 20)
#    0.000    1.714    0.000    5.571    2.000    3.429 
#   10.286    0.000    0.000    0.000    0.000    0.000 
#    0.000    0.000    0.000    0.000    0.000    0.000 
#
# Total GULP energy -78012.343262 kJ/mol
# GULP energy per Si atom -5572.310233 kJ/mol
# Density = 2.005338 g / cm^3
# Si number density = 20.099128 Si / 1000 Ang^3
#
#
#
# Elastic Constant Matrix: (Units=GPa)
#
#
# Indices 1 2 3 4 5 6 
#
# 1 40.7442 107.5685 21.7508 -42.6671 39.0472 35.5504
# 2 107.5685 144.2401 -81.2450 48.5338 -64.8421 78.5362
# 3 21.7508 -81.2450 264.4697 -90.7497 55.6899 -95.5575
# 4 -42.6671 48.5338 -90.7497 53.1955 -6.9528 37.6184
# 5 39.0472 -64.8421 55.6899 -6.9528 23.3781 -41.4406
# 6 35.5504 78.5362 -95.5575 37.6184 -41.4406 119.2135
#
#
#
# Elastic Compliance Matrix: (Units=1/GPa)
#
#
# Indices 1 2 3 4 5 6 
#
# 1 0.002339 0.003004 -0.003313 -0.005164 0.010991 0.000118
# 2 0.003004 0.004698 0.002025 0.005089 -0.006096 -0.006093
# 3 -0.003313 0.002025 0.009322 0.008429 -0.001647 0.003894
# 4 -0.005164 0.005089 0.008429 0.025020 0.012686 0.001459
# 5 0.010991 -0.006096 -0.001647 0.012686 0.018443 0.001826
# 6 0.000118 -0.006093 0.003894 0.001459 0.001826 0.015662
#
#
# Mechanical properties :
#
#
# Convention : Reuss Voigt Hill
#
# Bulk Modulus (GPa) = 50.53474 60.62251 55.57863
# Shear Modulus (GPa) = 63.57248 65.91609 64.74428
#
# Velocity S-wave (km/s) = 5.63011 5.73295 5.68176
# Velocity P-wave (km/s) = 8.21350 8.60520 8.41163
#
# Compressibility (1/GPa) = 0.01978837
#
# Stress axis : x y z
#
# Youngs Moduli (GPa) = 427.57964 212.86413 107.27727
#
# Poissons Ratio (x) = -0.63937 0.35543
# Poissons Ratio (y) = -1.28431 -0.21719
# Poissons Ratio (z) = 1.41664 -0.43096
#
# Static dielectric constant tensor:
#      x y z
#    x 1.712020 0.027530 -0.020620 
#    y 0.027530 1.722770 -0.009980 
#    z -0.020620 -0.009980 1.731510 
# 
# From -- ./inp_files/254418.got.cif
#   From: 2010.05.17/outbox.cif.g08.bks.cpg/sg2_128_cif.got.tgz:254418.got - 2010.06.03 11:33:40.
