data_PCOD9102154
_publ_section_title
;
Structure prediction by ZEFSAII (Michael W. Deem and Ramdas Pophale) SiO2 
 PCOD9102154
Probable space group: P -1
;
_chemical_formula_sum "Si O2"
_cell_formula_units_Z 16
_cell_length_a 9.549543
_cell_length_b 11.729134
_cell_length_c 14.649525
_cell_angle_alpha 151.505369
_cell_angle_beta 90.994713
_cell_angle_gamma 81.660987
_cell_volume 753.175952
_symmetry_space_group_name_H-M "P -1"
_symmetry_group_IT_number 2
_symmetry_cell_setting 'triclinic'
loop_
_space_group_symop_operation_xyz
x,y,z
-x,-y,-z
loop_
_atom_site_type_symbol
_atom_site_label
_atom_site_fract_x
_atom_site_fract_y
_atom_site_fract_z
Si Si1 0.449603 0.545082 0.425333
Si Si2 0.849489 0.455089 0.858682
Si Si3 0.720301 0.109567 0.104969
Si Si4 0.401459 0.084153 0.850519
Si Si5 0.953408 0.185403 0.852508
Si Si6 0.862736 0.350503 0.578661
Si Si7 0.730811 0.985279 0.818142
Si Si8 0.094083 0.520349 0.603862
O O1 0.500000 0.500000 0.500000
O O2 0.578176 0.334182 0.233544
O O3 0.290613 0.520457 0.380846
O O4 0.428320 0.836704 0.615157
O O5 0.883732 0.264009 0.807679
O O6 0.841096 0.335877 0.676175
O O7 0.700814 0.671288 0.022597
O O8 0.973263 0.603394 0.965968
O O9 0.845243 0.241436 0.224937
O O10 0.675960 0.971562 0.095015
O O11 0.762469 0.953339 0.903749
O O12 0.560702 0.106587 0.889482
O O13 0.832113 0.144391 0.890681
O O14 0.073565 0.921375 0.656291
O O15 0.988522 0.489891 0.662708
O O16 0.772117 0.725840 0.580441
O O17 0.000000 0.500000 0.500000
#
# Coordination Sequence:
#
# PCOD9102154 Si02
#       8
#     2   2   2   2   2   2   2   2
#     4  10  20  38  62  86 127 161 198 247 298 365
#     4  11  23  42  68  89 117 166 211 255 306 357
#     4  11  23  39  61  89 126 162 201 244 302 382
#     4  11  22  39  63  88 123 162 202 249 302 365
#     4  10  24  44  63  90 125 156 209 267 299 355
#     4  11  22  40  65  92 122 163 208 245 312 366
#     4  11  24  40  61  90 122 160 205 249 310 362
#     4  11  24  36  58  89 129 161 190 252 303 362
#
# _framework density 21.243376000000001
#
# number of rings (size 3 to 8) (size 9 to 14) (size 15 to 20)
#    0.000    1.250    2.500    3.750    5.250    1.000 
#    0.000    0.000    0.000    1.500    0.000    0.000 
#    0.000    0.000    0.000    0.000    0.000    0.000 
#
# Total GULP energy -89473.222093 kJ/mol
# GULP energy per Si atom -5592.076381 kJ/mol
# Density = 2.119503 g / cm^3
# Si number density = 21.243376 Si / 1000 Ang^3
#
#
#
# Elastic Constant Matrix: (Units=GPa)
#
#
# Indices 1 2 3 4 5 6 
#
# 1 109.3093 34.8391 21.0579 0.2911 0.0822 -14.5609
# 2 34.8391 78.2152 18.5584 -2.3937 -6.8284 -10.9798
# 3 21.0579 18.5584 52.5851 -6.2564 0.7939 1.7081
# 4 0.2911 -2.3937 -6.2564 27.3313 -1.5347 2.0210
# 5 0.0822 -6.8284 0.7939 -1.5347 20.1649 1.2842
# 6 -14.5609 -10.9798 1.7081 2.0210 1.2842 24.9110
#
#
#
# Elastic Compliance Matrix: (Units=1/GPa)
#
#
# Indices 1 2 3 4 5 6 
#
# 1 0.011857 -0.003775 -0.003798 -0.001847 -0.001685 0.005764
# 2 -0.003775 0.016791 -0.004622 0.000382 0.005582 0.005193
# 3 -0.003798 -0.004622 0.023021 0.005269 -0.001661 -0.006177
# 4 -0.001847 0.000382 0.005269 0.038360 0.003139 -0.004546
# 5 -0.001685 0.005582 -0.001661 0.003139 0.051878 -0.001340
# 6 0.005764 0.005193 -0.006177 -0.004546 -0.001340 0.046662
#
#
# Mechanical properties :
#
#
# Convention : Reuss Voigt Hill
#
# Bulk Modulus (GPa) = 36.65526 43.22450 39.93988
# Shear Modulus (GPa) = 22.51731 25.52503 24.02117
#
# Velocity S-wave (km/s) = 3.25925 3.47010 3.36633
# Velocity P-wave (km/s) = 5.60856 6.03713 5.82679
#
# Compressibility (1/GPa) = 0.02728121
#
# Stress axis : x y z
#
# Youngs Moduli (GPa) = 84.33809 59.55493 43.43811
#
# Poissons Ratio (x) = 0.22481 0.16496
# Poissons Ratio (y) = 0.31837 0.20076
# Poissons Ratio (z) = 0.32027 0.27525
#
# Static dielectric constant tensor:
#      x y z
#    x 1.795040 -0.005990 -0.008910 
#    y -0.005990 1.748800 0.000280 
#    z -0.008910 0.000280 1.816820 
# 
# From -- ./inp_files/331981.got.cif
#   From: 2010.05.17/outbox.cif.g08.bks.cpg/sg2_166_cif.got.tgz:331981.got - 2010.06.03 11:33:40.
