data_PCOD9102786
_publ_section_title
;
Structure prediction by ZEFSAII (Michael W. Deem and Ramdas Pophale) SiO2 
 PCOD9102786
Probable space group: P -1
;
_chemical_formula_sum "Si O2"
_cell_formula_units_Z 14
_cell_length_a 18.024452
_cell_length_b 19.860664
_cell_length_c 9.147708
_cell_angle_alpha 48.824209
_cell_angle_beta 34.140108
_cell_angle_gamma 22.225043
_cell_volume 598.828593
_symmetry_space_group_name_H-M "P -1"
_symmetry_group_IT_number 2
_symmetry_cell_setting 'triclinic'
loop_
_space_group_symop_operation_xyz
x,y,z
-x,-y,-z
loop_
_atom_site_type_symbol
_atom_site_label
_atom_site_fract_x
_atom_site_fract_y
_atom_site_fract_z
Si Si1 0.184304 0.297030 0.984329
Si Si2 0.137571 0.156451 0.453706
Si Si3 0.735030 0.233442 0.071704
Si Si4 0.585117 0.300072 0.904274
Si Si5 0.304441 0.642258 0.759353
Si Si6 0.456038 0.024966 0.706084
Si Si7 0.822235 0.992747 0.816245
O O1 0.535434 0.090407 0.765685
O O2 0.220577 0.243362 0.834422
O O3 0.062060 0.284654 0.287665
O O4 0.000000 0.500000 0.000000
O O5 0.242473 0.136093 0.464724
O O6 0.883844 0.236138 0.769371
O O7 0.563562 0.300330 0.113245
O O8 0.994754 0.867074 0.869472
O O9 0.000000 0.000000 0.000000
O O10 0.341844 0.523691 0.943158
O O11 0.598034 0.344951 0.294176
O O12 0.572718 0.219226 0.941036
O O13 0.500000 0.500000 0.500000
O O14 0.076168 0.870424 0.459087
O O15 0.500000 0.000000 0.500000
O O16 0.325960 0.008770 0.987481
#
# Coordination Sequence:
#
# PCOD9102786 Si02
#       7
#     2   2   2   2   2   2   2
#     4   9  20  44  65  90 123 161 210 251 308 367
#     4   9  22  42  64  90 127 159 207 256 307 366
#     4  12  22  41  67  90 128 166 206 258 314 368
#     4  10  22  37  63  90 119 165 207 253 307 363
#     4  10  22  42  57  92 125 158 209 255 304 369
#     4  10  20  38  64  87 124 162 195 255 310 365
#     4  10  20  41  60  87 126 160 201 253 317 363
#
# _framework density 23.378978
#
# number of rings (size 3 to 8) (size 9 to 14) (size 15 to 20)
#    0.857    1.143    1.429    2.143    0.000    0.000 
#   15.429    0.714    0.000    0.000    0.000    0.000 
#    0.000    0.000    0.000    0.000    0.000    0.000 
#
# Total GULP energy -78087.810754 kJ/mol
# GULP energy per Si atom -5577.700768 kJ/mol
# Density = 2.332577 g / cm^3
# Si number density = 23.378978 Si / 1000 Ang^3
#
#
#
# Elastic Constant Matrix: (Units=GPa)
#
#
# Indices 1 2 3 4 5 6 
#
# 1 142.1712 42.0115 32.5938 5.6670 44.0910 24.7186
# 2 42.0115 127.0172 11.8707 -8.8418 29.0975 27.5348
# 3 32.5938 11.8707 60.3962 7.3649 18.5224 15.3413
# 4 5.6670 -8.8418 7.3649 20.6754 -2.9600 5.9938
# 5 44.0910 29.0975 18.5224 -2.9600 44.1146 -3.7150
# 6 24.7186 27.5348 15.3413 5.9938 -3.7150 54.8568
#
#
#
# Elastic Compliance Matrix: (Units=1/GPa)
#
#
# Indices 1 2 3 4 5 6 
#
# 1 0.012280 -0.000087 -0.000922 -0.003207 -0.012526 -0.005730
# 2 -0.000087 0.011709 0.001615 0.005390 -0.008580 -0.007459
# 3 -0.000922 0.001615 0.022494 -0.006651 -0.010597 -0.006677
# 4 -0.003207 0.005390 -0.006651 0.056242 0.005782 -0.005154
# 5 -0.012526 -0.008580 -0.010597 0.005782 0.046987 0.015465
# 6 -0.005730 -0.007459 -0.006677 -0.005154 0.015465 0.028033
#
#
# Mechanical properties :
#
#
# Convention : Reuss Voigt Hill
#
# Bulk Modulus (GPa) = 20.96686 55.83741 38.40213
# Shear Modulus (GPa) = 25.98338 40.13660 33.05999
#
# Velocity S-wave (km/s) = 3.33738 4.14790 3.76452
# Velocity P-wave (km/s) = 4.88247 6.84657 5.94618
#
# Compressibility (1/GPa) = 0.04769432
#
# Stress axis : x y z
#
# Youngs Moduli (GPa) = 81.43630 85.40657 44.45570
#
# Poissons Ratio (x) = 0.00743 0.04098
# Poissons Ratio (y) = 0.00708 -0.07178
# Poissons Ratio (z) = 0.07506 -0.13790
#
# Static dielectric constant tensor:
#      x y z
#    x 1.907240 -0.008490 0.046190 
#    y -0.008490 1.875940 0.025460 
#    z 0.046190 0.025460 2.061060 
# 
# From -- ./inp_files/337557.got.cif
#   From: 2010.05.17/outbox.cif.g08.bks.cpg/sg2_169_cif.got.tgz:337557.got - 2010.06.03 11:33:40.
