data_PCOD9102196
_publ_section_title
;
Structure prediction by ZEFSAII (Michael W. Deem and Ramdas Pophale) SiO2 
 PCOD9102196
Probable space group: P -1
;
_chemical_formula_sum "Si O2"
_cell_formula_units_Z 12
_cell_length_a 7.385911
_cell_length_b 18.335659
_cell_length_c 12.200792
_cell_angle_alpha 25.181520
_cell_angle_beta 132.187858
_cell_angle_gamma 137.769607
_cell_volume 472.511185
_symmetry_space_group_name_H-M "P -1"
_symmetry_group_IT_number 2
_symmetry_cell_setting 'triclinic'
loop_
_space_group_symop_operation_xyz
x,y,z
-x,-y,-z
loop_
_atom_site_type_symbol
_atom_site_label
_atom_site_fract_x
_atom_site_fract_y
_atom_site_fract_z
Si Si1 0.791194 0.402430 0.451270
Si Si2 0.665497 0.416488 0.910573
Si Si3 0.875004 0.819639 0.081469
Si Si4 0.453693 0.950001 0.760360
Si Si5 0.298455 0.058151 0.768213
Si Si6 0.190985 0.622496 0.740421
O O1 0.481373 0.278952 0.525057
O O2 0.805791 0.486419 0.222318
O O3 0.000000 0.500000 0.500000
O O4 0.920478 0.248508 0.685206
O O5 0.353563 0.355293 0.839728
O O6 0.690607 0.219224 0.154519
O O7 0.728245 0.451200 0.015893
O O8 0.879133 0.574640 0.705130
O O9 0.686774 0.886861 0.985977
O O10 0.027803 0.977002 0.837989
O O11 0.270659 0.961724 0.769312
O O12 0.601685 0.157744 0.485943
O O13 0.500000 0.000000 0.000000
#
# Coordination Sequence:
#
# PCOD9102196 Si02
#       6
#     2   2   2   2   2   2
#     4  10  22  36  58  88 123 154 195 247 294 347
#     4   9  21  38  62  89 116 155 199 242 293 354
#     4   9  21  38  60  89 115 155 201 236 300 352
#     4   9  20  38  63  82 119 156 191 247 291 346
#     4   9  19  35  57  85 116 152 190 241 296 340
#     4  10  20  38  62  88 117 159 196 239 303 344
#
# _framework density 25.396222000000002
#
# number of rings (size 3 to 8) (size 9 to 14) (size 15 to 20)
#    1.000    1.667    0.000    0.500    4.667    8.000 
#    0.000    4.167    0.000    0.000    0.000    0.000 
#    0.000    0.000    0.000    0.000    0.000    0.000 
#
# Total GULP energy -66928.247728 kJ/mol
# GULP energy per Si atom -5577.353977 kJ/mol
# Density = 2.533842 g / cm^3
# Si number density = 25.396222 Si / 1000 Ang^3
#
#
#
# Elastic Constant Matrix: (Units=GPa)
#
#
# Indices 1 2 3 4 5 6 
#
# 1 83.2869 36.2429 15.0537 6.3907 -31.0519 2.7621
# 2 36.2429 115.6194 21.5669 -11.0996 -19.9430 -14.0023
# 3 15.0537 21.5669 61.0755 -13.0221 -33.7552 -2.8374
# 4 6.3907 -11.0996 -13.0221 25.1841 -3.0668 -8.9840
# 5 -31.0519 -19.9430 -33.7552 -3.0668 40.3925 3.7115
# 6 2.7621 -14.0023 -2.8374 -8.9840 3.7115 41.6036
#
#
#
# Elastic Compliance Matrix: (Units=1/GPa)
#
#
# Indices 1 2 3 4 5 6 
#
# 1 0.020600 -0.005493 0.005542 -0.004534 0.017909 -0.005415
# 2 -0.005493 0.012454 0.001079 0.010143 0.002996 0.006553
# 3 0.005542 0.001079 0.046664 0.030806 0.045599 0.005762
# 4 -0.004534 0.010143 0.030806 0.071640 0.031005 0.018520
# 5 0.017909 0.002996 0.045599 0.031005 0.080237 0.002466
# 6 -0.005415 0.006553 0.005762 0.018520 0.002466 0.030774
#
#
# Mechanical properties :
#
#
# Convention : Reuss Voigt Hill
#
# Bulk Modulus (GPa) = 12.19920 45.07875 28.63898
# Shear Modulus (GPa) = 17.39513 33.91058 25.65286
#
# Velocity S-wave (km/s) = 2.61999 3.65809 3.18166
# Velocity P-wave (km/s) = 3.73717 5.96916 4.97982
#
# Compressibility (1/GPa) = 0.08197259
#
# Stress axis : x y z
#
# Youngs Moduli (GPa) = 48.54433 80.29685 21.42993
#
# Poissons Ratio (x) = 0.44108 -0.11876
# Poissons Ratio (y) = 0.26666 -0.02312
# Poissons Ratio (z) = -0.26902 -0.08664
#
# Static dielectric constant tensor:
#      x y z
#    x 2.210490 -0.146920 0.142120 
#    y -0.146920 2.141050 -0.119190 
#    z 0.142120 -0.119190 2.021980 
# 
# From -- ./inp_files/200208.got.cif
#   From: 2010.05.17/outbox.cif.g08.bks.cpg/sg2_101_cif.got.tgz:200208.got - 2010.06.03 11:33:40.
