data_PCOD9102416
_publ_section_title
;
Structure prediction by ZEFSAII (Michael W. Deem and Ramdas Pophale) SiO2 
 PCOD9102416
Probable space group: P -1
;
_chemical_formula_sum "Si O2"
_cell_formula_units_Z 14
_cell_length_a 30.112999
_cell_length_b 24.217081
_cell_length_c 15.544672
_cell_angle_alpha 16.373775
_cell_angle_beta 18.087497
_cell_angle_gamma 9.804753
_cell_volume 541.041508
_symmetry_space_group_name_H-M "P -1"
_symmetry_group_IT_number 2
_symmetry_cell_setting 'triclinic'
loop_
_space_group_symop_operation_xyz
x,y,z
-x,-y,-z
loop_
_atom_site_type_symbol
_atom_site_label
_atom_site_fract_x
_atom_site_fract_y
_atom_site_fract_z
Si Si1 0.167578 0.186652 0.591654
Si Si2 0.073938 0.115385 0.423133
Si Si3 0.642511 0.294167 0.335250
Si Si4 0.221604 0.875489 0.113354
Si Si5 0.024241 0.598423 0.560468
Si Si6 0.679754 0.817202 0.210998
Si Si7 0.161099 0.617409 0.801391
O O1 0.994128 0.336140 0.604446
O O2 0.000000 0.500000 0.500000
O O3 0.423434 0.013847 0.350173
O O4 0.275167 0.888475 0.899650
O O5 0.849525 0.271235 0.547439
O O6 0.926755 0.428186 0.292410
O O7 0.216563 0.796856 0.700666
O O8 0.274150 0.007433 0.156688
O O9 0.452160 0.644108 0.103740
O O10 0.455793 0.338239 0.653580
O O11 0.847576 0.965083 0.383461
O O12 0.955276 0.265763 0.062345
O O13 0.296691 0.264622 0.609299
O O14 0.905095 0.516758 0.916156
O O15 0.000000 0.000000 0.500000
#
# Coordination Sequence:
#
# PCOD9102416 Si02
#       7
#     2   2   2   2   2   2   2
#     4  12  26  45  64  96 138 183 214 261 342 402
#     4  10  22  42  69 103 126 172 223 275 330 379
#     4  10  22  39  68  95 130 171 221 276 327 381
#     4  11  24  43  63 100 137 172 220 272 326 396
#     4  11  22  42  66  95 128 179 222 267 327 389
#     4  10  23  42  69  98 134 169 226 273 319 396
#     4  10  20  38  62  96 133 168 214 271 330 381
#
# _framework density 25.876017999999998
#
# number of rings (size 3 to 8) (size 9 to 14) (size 15 to 20)
#    0.000    1.429    1.429    3.857    0.000    6.857 
#    5.143    2.857    0.000    0.000    0.000    0.000 
#    0.000    0.000    0.000    0.000    0.000    0.000 
#
# Total GULP energy -78197.447675 kJ/mol
# GULP energy per Si atom -5585.531977 kJ/mol
# Density = 2.581712 g / cm^3
# Si number density = 25.876018 Si / 1000 Ang^3
#
#
#
# Elastic Constant Matrix: (Units=GPa)
#
#
# Indices 1 2 3 4 5 6 
#
# 1 153.6885 -16.9044 14.5801 -6.6631 23.4464 -6.7782
# 2 -16.9044 149.9522 -5.7555 -9.2607 55.9720 -30.5326
# 3 14.5801 -5.7555 91.3087 4.5240 24.7449 -8.2698
# 4 -6.6631 -9.2607 4.5240 17.4135 -11.1196 4.4231
# 5 23.4464 55.9720 24.7449 -11.1196 59.6603 -16.1411
# 6 -6.7782 -30.5326 -8.2698 4.4231 -16.1411 52.1889
#
#
#
# Elastic Compliance Matrix: (Units=1/GPa)
#
#
# Indices 1 2 3 4 5 6 
#
# 1 0.007864 0.003566 0.000792 0.000318 -0.006371 0.001236
# 2 0.003566 0.014113 0.005401 -0.004210 -0.016347 0.004876
# 3 0.000792 0.005401 0.015362 -0.009676 -0.012866 0.002537
# 4 0.000318 -0.004210 -0.009676 0.071666 0.020170 -0.003791
# 5 -0.006371 -0.016347 -0.012866 0.020170 0.043514 -0.000682
# 6 0.001236 0.004876 0.002537 -0.003791 -0.000682 0.022687
#
#
# Mechanical properties :
#
#
# Convention : Reuss Voigt Hill
#
# Bulk Modulus (GPa) = 17.58805 42.08774 29.83790
# Shear Modulus (GPa) = 28.63032 52.72115 40.67573
#
# Velocity S-wave (km/s) = 3.32993 4.51871 3.96908
# Velocity P-wave (km/s) = 4.64719 6.59738 5.70622
#
# Compressibility (1/GPa) = 0.05685678
#
# Stress axis : x y z
#
# Youngs Moduli (GPa) = 127.16022 70.85689 65.09612
#
# Poissons Ratio (x) = -0.25270 -0.05155
# Poissons Ratio (y) = -0.45351 -0.35156
# Poissons Ratio (z) = -0.10070 -0.38267
#
# Static dielectric constant tensor:
#      x y z
#    x 2.060400 -0.044910 0.075050 
#    y -0.044910 2.007080 -0.087010 
#    z 0.075050 -0.087010 2.204840 
# 
# From -- ./inp_files/545148.got.cif
#   From: 2010.05.17/outbox.cif.g08.bks.cpg/sg2_273_cif.got.tgz:545148.got - 2010.06.03 11:33:40.
