data_PCOD9102278
_publ_section_title
;
Structure prediction by ZEFSAII (Michael W. Deem and Ramdas Pophale) SiO2 
 PCOD9102278
Probable space group: P -1
;
_chemical_formula_sum "Si O2"
_cell_formula_units_Z 15
_cell_length_a 11.589133
_cell_length_b 12.355719
_cell_length_c 9.962401
_cell_angle_alpha 98.048453
_cell_angle_beta 49.571053
_cell_angle_gamma 56.782417
_cell_volume 571.061877
_symmetry_space_group_name_H-M "P -1"
_symmetry_group_IT_number 2
_symmetry_cell_setting 'triclinic'
loop_
_space_group_symop_operation_xyz
x,y,z
-x,-y,-z
loop_
_atom_site_type_symbol
_atom_site_label
_atom_site_fract_x
_atom_site_fract_y
_atom_site_fract_z
Si Si1 0.127607 0.280813 0.110419
Si Si2 0.576451 0.210936 0.117720
Si Si3 0.785416 0.128468 0.508268
Si Si4 0.845496 0.782092 0.206881
Si Si5 0.244500 0.929964 0.756928
Si Si6 0.222534 0.634045 0.422105
Si Si7 0.000000 0.500000 0.500000
Si Si8 0.198008 0.129897 0.457747
O O1 0.954136 0.279649 0.291843
O O2 0.024006 0.437011 0.316683
O O3 0.071014 0.340253 0.006265
O O4 0.464779 0.052706 0.836885
O O5 0.561848 0.181249 0.278105
O O6 0.352979 0.280899 0.210530
O O7 0.482930 0.393812 0.202962
O O8 0.897807 0.019290 0.787973
O O9 0.811234 0.997090 0.539903
O O10 0.664551 0.314673 0.691930
O O11 0.627324 0.195744 0.499419
O O12 0.919268 0.733810 0.299215
O O13 0.500000 0.000000 0.500000
O O14 0.917034 0.861333 0.123781
O O15 0.000000 0.000000 0.000000
O O16 0.005668 0.717019 0.486999
#
# Coordination Sequence:
#
# PCOD9102278 Si02
#       8
#     2   2   2   2   2   2   1   2
#     4  10  20  38  62  90 121 168 222 257 309 380
#     4  10  22  38  60  94 129 163 216 263 316 385
#     4  10  21  40  64  91 129 169 209 266 323 376
#     4   9  19  35  62  91 120 164 212 258 314 376
#     4   9  18  36  61  88 124 164 206 262 309 368
#     4  11  22  36  64  94 125 171 212 262 320 380
#     4  10  22  36  58  90 128 160 200 270 310 360
#     4  10  21  38  63  95 129 166 209 265 327 382
#
# _framework density 26.266857000000002
#
# number of rings (size 3 to 8) (size 9 to 14) (size 15 to 20)
#    0.000    2.133    0.000    3.200    0.000    6.400 
#    0.000    4.000    0.000   52.800    0.000    0.000 
#    0.000    0.000    0.000    0.000    0.000    0.000 
#
# Total GULP energy -83614.815067 kJ/mol
# GULP energy per Si atom -5574.321004 kJ/mol
# Density = 2.620707 g / cm^3
# Si number density = 26.266857 Si / 1000 Ang^3
#
#
#
# Elastic Constant Matrix: (Units=GPa)
#
#
# Indices 1 2 3 4 5 6 
#
# 1 118.2598 9.7445 20.8200 -0.9655 31.0330 -12.9887
# 2 9.7445 85.3872 7.7551 -2.8698 6.7309 -10.0625
# 3 20.8200 7.7551 56.0353 -5.4173 15.1032 4.1343
# 4 -0.9655 -2.8698 -5.4173 22.8502 -1.7784 -1.7661
# 5 31.0330 6.7309 15.1032 -1.7784 63.2334 -6.2284
# 6 -12.9887 -10.0625 4.1343 -1.7661 -6.2284 39.2616
#
#
#
# Elastic Compliance Matrix: (Units=1/GPa)
#
#
# Indices 1 2 3 4 5 6 
#
# 1 0.010403 -0.000250 -0.002992 -0.000384 -0.004076 0.003028
# 2 -0.000250 0.012349 -0.001601 0.001376 -0.000452 0.003241
# 3 -0.002992 -0.001601 0.020837 0.004023 -0.003618 -0.003987
# 4 -0.000384 0.001376 0.004023 0.045063 0.000537 0.001914
# 5 -0.004076 -0.000452 -0.003618 0.000537 0.018934 0.001944
# 6 0.003028 0.003241 -0.003987 0.001914 0.001944 0.028117
#
#
# Mechanical properties :
#
#
# Convention : Reuss Voigt Hill
#
# Bulk Modulus (GPa) = 29.49584 37.36907 33.43245
# Shear Modulus (GPa) = 31.91004 39.82653 35.86829
#
# Velocity S-wave (km/s) = 3.48924 3.89810 3.69932
# Velocity P-wave (km/s) = 5.24278 5.87519 5.56797
#
# Compressibility (1/GPa) = 0.03390309
#
# Stress axis : x y z
#
# Youngs Moduli (GPa) = 96.12995 80.97787 47.99065
#
# Poissons Ratio (x) = 0.02025 0.14361
# Poissons Ratio (y) = 0.02404 0.07681
# Poissons Ratio (z) = 0.28766 0.12961
#
# Static dielectric constant tensor:
#      x y z
#    x 2.195300 0.154140 0.059260 
#    y 0.154140 2.232750 0.027630 
#    z 0.059260 0.027630 2.081180 
# 
# From -- ./inp_files/430127.got.cif
#   From: 2010.05.17/outbox.cif.g08.bks.cpg/sg2_216_cif.got.tgz:430127.got - 2010.06.03 11:33:40.
