data_PCOD9102445
_publ_section_title
;
Structure prediction by ZEFSAII (Michael W. Deem and Ramdas Pophale) SiO2 
 PCOD9102445
Probable space group: P -1
;
_chemical_formula_sum "Si O2"
_cell_formula_units_Z 15
_cell_length_a 16.219780
_cell_length_b 5.511007
_cell_length_c 8.038234
_cell_angle_alpha 74.158955
_cell_angle_beta 53.780485
_cell_angle_gamma 89.693779
_cell_volume 546.281881
_symmetry_space_group_name_H-M "P -1"
_symmetry_group_IT_number 2
_symmetry_cell_setting 'triclinic'
loop_
_space_group_symop_operation_xyz
x,y,z
-x,-y,-z
loop_
_atom_site_type_symbol
_atom_site_label
_atom_site_fract_x
_atom_site_fract_y
_atom_site_fract_z
Si Si1 0.792546 0.828751 0.463283
Si Si2 0.467589 0.048104 0.716090
Si Si3 0.837240 0.312581 0.163450
Si Si4 0.366090 0.498805 0.085902
Si Si5 0.727447 0.700026 0.099300
Si Si6 0.962011 0.535097 0.282700
Si Si7 0.885737 0.069592 0.642198
Si Si8 0.500000 0.000000 0.000000
O O1 0.705813 0.578870 0.654043
O O2 0.905277 0.771848 0.294500
O O3 0.770865 0.027558 0.313882
O O4 0.809832 0.959776 0.600506
O O5 0.500000 0.000000 0.500000
O O6 0.379759 0.210242 0.761396
O O7 0.417257 0.810875 0.957841
O O8 0.557107 0.130891 0.729488
O O9 0.765609 0.520326 0.220625
O O10 0.917168 0.352192 0.215791
O O11 0.915232 0.385727 0.902053
O O12 0.434115 0.274563 0.031780
O O13 0.298433 0.477789 0.001546
O O14 0.821980 0.933177 0.898416
O O15 0.913206 0.374894 0.530727
O O16 0.000000 0.000000 0.500000
#
# Coordination Sequence:
#
# PCOD9102445 Si02
#       8
#     2   2   2   2   2   2   2   1
#     4  10  21  39  65  99 139 200 249 283 370 458
#     4  10  23  48  80 113 142 191 260 325 400 454
#     4  10  22  38  61 102 151 193 243 301 359 441
#     4   9  22  46  74 107 140 189 248 313 390 456
#     4  11  22  42  72 109 151 191 255 318 369 460
#     4  10  20  39  61  95 148 203 243 291 359 432
#     4  10  20  38  63 101 143 197 244 296 365 438
#     4   8  22  50  74 110 146 184 246 332 392 474
#
# _framework density 27.458351
#
# number of rings (size 3 to 8) (size 9 to 14) (size 15 to 20)
#    0.800    1.333    1.333    1.200    0.000    2.667 
#    4.800    2.667    0.000    1.600    0.000    0.000 
#    0.000    0.000    0.000    0.000    0.000    0.000 
#
# Total GULP energy -83600.579345 kJ/mol
# GULP energy per Si atom -5573.371956 kJ/mol
# Density = 2.739586 g / cm^3
# Si number density = 27.458351 Si / 1000 Ang^3
#
#
#
# Elastic Constant Matrix: (Units=GPa)
#
#
# Indices 1 2 3 4 5 6 
#
# 1 71.5081 44.0683 18.5066 -12.5271 12.0020 -1.7883
# 2 44.0683 120.0682 59.4169 -16.1755 -7.6826 -17.1947
# 3 18.5066 59.4169 150.5404 -1.1138 16.4693 -15.1060
# 4 -12.5271 -16.1755 -1.1138 44.9520 5.6878 -2.1465
# 5 12.0020 -7.6826 16.4693 5.6878 31.6976 0.0052
# 6 -1.7883 -17.1947 -15.1060 -2.1465 0.0052 57.7272
#
#
#
# Elastic Compliance Matrix: (Units=1/GPa)
#
#
# Indices 1 2 3 4 5 6 
#
# 1 0.022291 -0.009839 0.002437 0.004290 -0.012861 -0.001442
# 2 -0.009839 0.016276 -0.006045 0.001782 0.010491 0.003027
# 3 0.002437 -0.006045 0.009607 -0.000294 -0.007327 0.000778
# 4 0.004290 0.001782 -0.000294 0.024843 -0.005498 0.001511
# 5 -0.012861 0.010491 -0.007327 -0.005498 0.043754 0.000601
# 6 -0.001442 0.003027 0.000778 0.001511 0.000601 0.018440
#
#
# Mechanical properties :
#
#
# Convention : Reuss Voigt Hill
#
# Bulk Modulus (GPa) = 46.99303 65.12223 56.05763
# Shear Modulus (GPa) = 29.55111 41.55036 35.55073
#
# Velocity S-wave (km/s) = 3.28413 3.89423 3.60212
# Velocity P-wave (km/s) = 5.61535 6.63236 6.14493
#
# Compressibility (1/GPa) = 0.02127975
#
# Stress axis : x y z
#
# Youngs Moduli (GPa) = 44.86060 61.43972 104.09435
#
# Poissons Ratio (x) = 0.60449 -0.25368
# Poissons Ratio (y) = 0.44138 0.62928
# Poissons Ratio (z) = -0.10933 0.37142
#
# Static dielectric constant tensor:
#      x y z
#    x 2.394340 0.190600 0.016780 
#    y 0.190600 2.386390 -0.034280 
#    z 0.016780 -0.034280 2.195610 
# 
# From -- ./inp_files/36267.got.cif
#   From: 2010.05.17/outbox.cif.g08.bks.cpg/sg2_19_cif.got.tgz:36267.got - 2010.06.03 11:33:40.
