data_PCOD9102715
_publ_section_title
;
Structure prediction by ZEFSAII (Michael W. Deem and Ramdas Pophale) SiO2 
 PCOD9102715
Probable space group: P -1
;
_chemical_formula_sum "Si O2"
_cell_formula_units_Z 12
_cell_length_a 7.567198
_cell_length_b 16.261821
_cell_length_c 7.965887
_cell_angle_alpha 76.806494
_cell_angle_beta 125.812961
_cell_angle_gamma 139.694996
_cell_volume 467.692278
_symmetry_space_group_name_H-M "P -1"
_symmetry_group_IT_number 2
_symmetry_cell_setting 'triclinic'
loop_
_space_group_symop_operation_xyz
x,y,z
-x,-y,-z
loop_
_atom_site_type_symbol
_atom_site_label
_atom_site_fract_x
_atom_site_fract_y
_atom_site_fract_z
Si Si1 0.099839 0.954966 0.334768
Si Si2 0.363915 0.596703 0.760080
Si Si3 0.331335 0.777980 0.679257
Si Si4 0.237312 0.315595 0.372051
Si Si5 0.662971 0.644352 0.236360
Si Si6 0.758460 0.016410 0.233145
O O1 0.888248 0.802189 0.276924
O O2 0.337278 0.026310 0.605303
O O3 0.637773 0.938016 0.719771
O O4 0.829843 0.949568 0.217389
O O5 0.484364 0.731595 0.793632
O O6 0.616913 0.623800 0.758951
O O7 0.000000 0.500000 0.500000
O O8 0.384632 0.559945 0.969906
O O9 0.115282 0.741483 0.741221
O O10 0.997654 0.681877 0.404484
O O11 0.491266 0.407823 0.633715
O O12 0.133460 0.184560 0.372610
O O13 0.500000 0.000000 0.000000
#
# Coordination Sequence:
#
# PCOD9102715 Si02
#       6
#     2   2   2   2   2   2
#     4  10  20  38  63  98 136 168 202 258 328 390
#     4  12  26  46  68  90 125 178 224 267 322 372
#     4  10  23  43  64  96 134 162 216 266 316 395
#     4   9  23  44  59 100 127 160 224 258 316 387
#     4   9  24  42  64  98 131 164 210 270 323 379
#     4  10  21  33  64  99 135 173 202 252 324 396
#
# _framework density 25.657896000000001
#
# number of rings (size 3 to 8) (size 9 to 14) (size 15 to 20)
#    1.000    1.000    1.667    0.500    4.667    2.667 
#    3.000    0.000    0.000    0.000    0.000    0.000 
#    0.000    0.000    0.000    0.000    0.000    0.000 
#
# Total GULP energy -67045.955604 kJ/mol
# GULP energy per Si atom -5587.162967 kJ/mol
# Density = 2.559950 g / cm^3
# Si number density = 25.657896 Si / 1000 Ang^3
#
#
#
# Elastic Constant Matrix: (Units=GPa)
#
#
# Indices 1 2 3 4 5 6 
#
# 1 146.6172 20.7273 50.3521 -18.8992 -2.0299 -6.4203
# 2 20.7273 64.4886 -4.9007 -14.3448 3.0578 -10.4001
# 3 50.3521 -4.9007 185.8012 -17.8883 -2.7410 -1.2080
# 4 -18.8992 -14.3448 -17.8883 31.2135 -5.6953 0.2327
# 5 -2.0299 3.0578 -2.7410 -5.6953 30.9886 -13.9637
# 6 -6.4203 -10.4001 -1.2080 0.2327 -13.9637 35.4972
#
#
#
# Elastic Compliance Matrix: (Units=1/GPa)
#
#
# Indices 1 2 3 4 5 6 
#
# 1 0.008282 -0.001889 -0.001931 0.003375 0.001901 0.001605
# 2 -0.001889 0.019230 0.001995 0.009289 0.002735 0.006375
# 3 -0.001931 0.001995 0.006332 0.003612 0.001328 0.000950
# 4 0.003375 0.009289 0.003612 0.042324 0.010738 0.007401
# 5 0.001901 0.002735 0.001328 0.010738 0.042201 0.017721
# 6 0.001605 0.006375 0.000950 0.007401 0.017721 0.037284
#
#
# Mechanical properties :
#
#
# Convention : Reuss Voigt Hill
#
# Bulk Modulus (GPa) = 33.11931 58.80714 45.96322
# Shear Modulus (GPa) = 29.52168 41.58840 35.55504
#
# Velocity S-wave (km/s) = 3.39571 4.03038 3.72658
# Velocity P-wave (km/s) = 5.32077 6.68043 6.03898
#
# Compressibility (1/GPa) = 0.03019386
#
# Stress axis : x y z
#
# Youngs Moduli (GPa) = 120.73878 52.00165 157.94030
#
# Poissons Ratio (x) = 0.09826 0.30497
# Poissons Ratio (y) = 0.22813 -0.31514
# Poissons Ratio (z) = 0.23314 -0.10376
#
# Static dielectric constant tensor:
#      x y z
#    x 1.999310 -0.028690 -0.036780 
#    y -0.028690 2.091210 0.043680 
#    z -0.036780 0.043680 2.064700 
# 
# From -- ./inp_files/219532.got.cif
#   From: 2010.05.17/outbox.cif.g08.bks.cpg/sg2_110_cif.got.tgz:219532.got - 2010.06.03 11:33:40.
