data_PCOD9102806
_publ_section_title
;
Structure prediction by ZEFSAII (Michael W. Deem and Ramdas Pophale) SiO2 
 PCOD9102806
Probable space group: P -1
;
_chemical_formula_sum "Si O2"
_cell_formula_units_Z 15
_cell_length_a 8.429736
_cell_length_b 13.352696
_cell_length_c 8.418540
_cell_angle_alpha 114.588803
_cell_angle_beta 50.266343
_cell_angle_gamma 107.856069
_cell_volume 661.516040
_symmetry_space_group_name_H-M "P -1"
_symmetry_group_IT_number 2
_symmetry_cell_setting 'triclinic'
loop_
_space_group_symop_operation_xyz
x,y,z
-x,-y,-z
loop_
_atom_site_type_symbol
_atom_site_label
_atom_site_fract_x
_atom_site_fract_y
_atom_site_fract_z
Si Si1 0.869300 0.604298 0.129378
Si Si2 0.986411 0.780295 0.385204
Si Si3 0.095351 0.381339 0.378532
Si Si4 0.592808 0.670224 0.070367
Si Si5 0.500000 0.500000 0.500000
Si Si6 0.559339 0.122390 0.845190
Si Si7 0.541138 0.868481 0.713994
Si Si8 0.298365 0.676051 0.549087
O O1 0.001755 0.713724 0.167398
O O2 0.768229 0.623603 0.037702
O O3 0.668627 0.581633 0.353254
O O4 0.000000 0.500000 0.000000
O O5 0.935353 0.681963 0.478377
O O6 0.786616 0.851262 0.547181
O O7 0.200969 0.846059 0.327854
O O8 0.000000 0.500000 0.500000
O O9 0.940697 0.304462 0.316240
O O10 0.339456 0.384476 0.176301
O O11 0.579672 0.797640 0.114503
O O12 0.391573 0.648900 0.295540
O O13 0.317707 0.573577 0.587495
O O14 0.505684 0.993628 0.770611
O O15 0.530080 0.147461 0.067950
O O16 0.423881 0.781357 0.614459
#
# Coordination Sequence:
#
# PCOD9102806 Si02
#       8
#     2   2   2   2   1   2   2   2
#     4  11  24  41  66  99 130 178 221 273 330 411
#     4  12  23  45  67  97 137 175 223 280 337 402
#     4  12  26  43  65 101 141 173 218 279 335 403
#     4  11  23  45  66  98 135 171 232 267 335 398
#     4  10  20  38  64  88 134 170 206 262 336 380
#     4  11  26  45  71  98 131 180 223 291 337 394
#     4  11  25  48  69  97 135 174 230 279 348 395
#     4  11  24  43  68  99 131 179 219 278 329 410
#
# _framework density 22.675187999999999
#
# number of rings (size 3 to 8) (size 9 to 14) (size 15 to 20)
#    0.000    0.800    5.333    2.800    3.733    1.067 
#    2.400    0.667    0.000    0.000    0.000    0.000 
#    0.000    0.000    0.000    0.000    0.000    0.000 
#
# Total GULP energy -83502.276776 kJ/mol
# GULP energy per Si atom -5566.818452 kJ/mol
# Density = 2.262358 g / cm^3
# Si number density = 22.675188 Si / 1000 Ang^3
#
#
#
# Elastic Constant Matrix: (Units=GPa)
#
#
# Indices 1 2 3 4 5 6 
#
# 1 53.4973 7.8933 -2.7169 7.9077 -23.1120 -2.1844
# 2 7.8933 113.1840 23.8254 6.3085 -5.2367 -20.2025
# 3 -2.7169 23.8254 83.1627 -5.9491 -18.2700 13.0999
# 4 7.9077 6.3085 -5.9491 38.6387 -5.0814 -10.6390
# 5 -23.1120 -5.2367 -18.2700 -5.0814 20.1678 5.8827
# 6 -2.1844 -20.2025 13.0999 -10.6390 5.8827 39.5390
#
#
#
# Elastic Compliance Matrix: (Units=1/GPa)
#
#
# Indices 1 2 3 4 5 6 
#
# 1 0.085695 -0.016222 0.046458 0.000494 0.148120 -0.040851
# 2 -0.016222 0.014373 -0.014440 -0.001223 -0.032853 0.015791
# 3 0.046458 -0.014440 0.045681 0.003896 0.101784 -0.034042
# 4 0.000494 -0.001223 0.003896 0.029103 0.009803 0.004484
# 5 0.148120 -0.032853 0.101784 0.009803 0.331433 -0.089000
# 6 -0.040851 0.015791 -0.034042 0.004484 -0.089000 0.056830
#
#
# Mechanical properties :
#
#
# Convention : Reuss Voigt Hill
#
# Bulk Modulus (GPa) = 5.63884 34.20530 19.92207
# Shear Modulus (GPa) = 8.46543 34.39190 21.42867
#
# Velocity S-wave (km/s) = 1.93428 3.89873 3.07746
# Velocity P-wave (km/s) = 2.73510 5.94849 4.62954
#
# Compressibility (1/GPa) = 0.17734133
#
# Stress axis : x y z
#
# Youngs Moduli (GPa) = 11.66925 69.57612 21.89080
#
# Poissons Ratio (x) = 1.12865 -1.01700
# Poissons Ratio (y) = 0.18930 0.31610
# Poissons Ratio (z) = -0.54213 1.00468
#
# Static dielectric constant tensor:
#      x y z
#    x 1.925100 0.020070 0.010340 
#    y 0.020070 1.759250 0.013980 
#    z 0.010340 0.013980 1.902630 
# 
# From -- ./inp_files/181053.got.cif
#   From: 2010.05.17/outbox.cif.g08.bks.cpg/sg2_91_cif.got.tgz:181053.got - 2010.06.03 11:33:40.
