data_PCOD9102262
_publ_section_title
;
Structure prediction by ZEFSAII (Michael W. Deem and Ramdas Pophale) SiO2 
 PCOD9102262
Probable space group: P -1
;
_chemical_formula_sum "Si O2"
_cell_formula_units_Z 16
_cell_length_a 13.911723
_cell_length_b 8.865047
_cell_length_c 10.676359
_cell_angle_alpha 126.406388
_cell_angle_beta 59.509472
_cell_angle_gamma 88.770951
_cell_volume 808.367182
_symmetry_space_group_name_H-M "P -1"
_symmetry_group_IT_number 2
_symmetry_cell_setting 'triclinic'
loop_
_space_group_symop_operation_xyz
x,y,z
-x,-y,-z
loop_
_atom_site_type_symbol
_atom_site_label
_atom_site_fract_x
_atom_site_fract_y
_atom_site_fract_z
Si Si1 0.903058 0.075571 0.985942
Si Si2 0.278013 0.499060 0.787232
Si Si3 0.212492 0.218488 0.021746
Si Si4 0.309269 0.524070 0.189787
Si Si5 0.046460 0.568337 0.131143
Si Si6 0.107617 0.986143 0.597529
Si Si7 0.513664 0.574891 0.217463
Si Si8 0.329157 0.053907 0.602263
O O1 0.992404 0.014894 0.775477
O O2 0.820276 0.952701 0.979967
O O3 0.805887 0.327301 0.173390
O O4 0.000000 0.000000 0.000000
O O5 0.399737 0.516482 0.762749
O O6 0.320764 0.249346 0.620970
O O7 0.178895 0.556454 0.996311
O O8 0.309135 0.115214 0.791544
O O9 0.266206 0.343069 0.132232
O O10 0.083480 0.394408 0.127840
O O11 0.186090 0.752283 0.377460
O O12 0.400444 0.518330 0.239905
O O13 0.393305 0.498182 0.998694
O O14 0.950851 0.806636 0.349999
O O15 0.000000 0.500000 0.000000
O O16 0.208781 0.021334 0.630715
O O17 0.449235 0.830281 0.391556
#
# Coordination Sequence:
#
# PCOD9102262 Si02
#       8
#     2   2   2   2   2   2   2   2
#     4  11  22  36  59  85 119 147 186 233 281 340
#     4  10  19  33  59  89 109 144 190 237 280 328
#     4  11  20  35  56  86 112 154 185 227 287 336
#     4  10  22  36  58  83 117 147 189 232 289 330
#     4  10  16  32  56  83 111 138 189 242 276 323
#     4  10  20  35  57  86 115 148 181 235 289 333
#     4  10  20  38  59  86 113 146 191 244 275 325
#     4  10  18  34  63  84 112 142 194 242 279 314
#
# _framework density 19.792985000000002
#
# number of rings (size 3 to 8) (size 9 to 14) (size 15 to 20)
#    0.000    1.750    6.250    1.125    0.000    1.000 
#    0.000    1.250    0.000    0.000    0.000    0.000 
#    0.000    0.000    0.000    0.000    0.000    0.000 
#
# Total GULP energy -89185.684457 kJ/mol
# GULP energy per Si atom -5574.105279 kJ/mol
# Density = 1.974794 g / cm^3
# Si number density = 19.792985 Si / 1000 Ang^3
#
#
#
# Elastic Constant Matrix: (Units=GPa)
#
#
# Indices 1 2 3 4 5 6 
#
# 1 114.9003 30.5886 17.6096 16.8607 1.6313 8.1283
# 2 30.5886 74.9181 20.8956 19.8073 0.8900 6.2418
# 3 17.6096 20.8956 95.8072 24.3107 -4.2146 -3.3840
# 4 16.8607 19.8073 24.3107 20.7902 2.9215 -2.3595
# 5 1.6313 0.8900 -4.2146 2.9215 23.2805 11.9228
# 6 8.1283 6.2418 -3.3840 -2.3595 11.9228 29.8588
#
#
#
# Elastic Compliance Matrix: (Units=1/GPa)
#
#
# Indices 1 2 3 4 5 6 
#
# 1 0.010600 -0.002029 0.000510 -0.008072 0.002511 -0.004044
# 2 -0.002029 0.019740 0.001204 -0.020245 0.005941 -0.007410
# 3 0.000510 0.001204 0.015661 -0.021207 0.006995 -0.003085
# 4 -0.008072 -0.020245 -0.021207 0.105281 -0.027699 0.023406
# 5 0.002511 0.005941 0.006995 -0.027699 0.061590 -0.027915
# 6 -0.004044 -0.007410 -0.003085 0.023406 -0.027915 0.048788
#
#
# Mechanical properties :
#
#
# Convention : Reuss Voigt Hill
#
# Bulk Modulus (GPa) = 22.04004 47.09037 34.56520
# Shear Modulus (GPa) = 18.02370 29.22136 23.62253
#
# Velocity S-wave (km/s) = 3.02091 3.84650 3.45843
# Velocity P-wave (km/s) = 4.82983 6.60079 5.78350
#
# Compressibility (1/GPa) = 0.04537198
#
# Stress axis : x y z
#
# Youngs Moduli (GPa) = 94.33868 50.65928 63.85199
#
# Poissons Ratio (x) = 0.10279 -0.03257
# Poissons Ratio (y) = 0.19142 -0.07691
# Poissons Ratio (z) = -0.04811 -0.06102
#
# Static dielectric constant tensor:
#      x y z
#    x 1.778380 -0.008000 0.017570 
#    y -0.008000 1.705810 0.031810 
#    z 0.017570 0.031810 1.717230 
# 
# From -- ./inp_files/196905.got.cif
#   From: 2010.05.17/outbox.cif.g08.bks.cpg/sg2_99_cif.got.tgz:196905.got - 2010.06.03 11:33:40.
