data_PCOD9102039
_publ_section_title
;
Structure prediction by ZEFSAII (Michael W. Deem and Ramdas Pophale) SiO2 
 PCOD9102039
Probable space group: P -1
;
_chemical_formula_sum "Si O2"
_cell_formula_units_Z 14
_cell_length_a 7.717459
_cell_length_b 11.873996
_cell_length_c 7.310096
_cell_angle_alpha 89.330611
_cell_angle_beta 73.480505
_cell_angle_gamma 96.298834
_cell_volume 637.701839
_symmetry_space_group_name_H-M "P -1"
_symmetry_group_IT_number 2
_symmetry_cell_setting 'triclinic'
loop_
_space_group_symop_operation_xyz
x,y,z
-x,-y,-z
loop_
_atom_site_type_symbol
_atom_site_label
_atom_site_fract_x
_atom_site_fract_y
_atom_site_fract_z
Si Si1 0.920654 0.525657 0.824876
Si Si2 0.532962 0.179121 0.496071
Si Si3 0.868901 0.067136 0.233064
Si Si4 0.810853 0.748162 0.977973
Si Si5 0.158671 0.660929 0.439647
Si Si6 0.129701 0.179217 0.617808
Si Si7 0.610828 0.929865 0.093070
O O1 0.068874 0.584797 0.635067
O O2 0.795125 0.623189 0.907529
O O3 0.836295 0.414913 0.742880
O O4 0.000000 0.500000 0.000000
O O5 0.687781 0.125303 0.338882
O O6 0.642531 0.288874 0.554228
O O7 0.335983 0.199142 0.472617
O O8 0.477311 0.094842 0.683101
O O9 0.025495 0.170472 0.166661
O O10 0.907794 0.958222 0.346157
O O11 0.805573 0.003487 0.064179
O O12 0.848165 0.763675 0.185760
O O13 0.633684 0.809920 0.000845
O O14 0.028757 0.759987 0.431577
O O15 0.500000 0.000000 0.000000
#
# Coordination Sequence:
#
# PCOD9102039 Si02
#       7
#     2   2   2   2   2   2   2
#     4  11  23  43  67  92 127 167 228 275 310 384
#     4  10  22  40  60  96 130 163 212 264 317 386
#     4  10  20  38  61  92 133 166 201 267 326 377
#     4  10  20  39  63  90 128 173 204 267 325 365
#     4  11  24  41  72  92 120 182 218 260 337 375
#     4  10  21  39  64  95 135 160 214 267 314 401
#     4  10  22  35  60  95 134 161 209 257 320 399
#
# _framework density 21.953835000000002
#
# number of rings (size 3 to 8) (size 9 to 14) (size 15 to 20)
#    0.000    2.000    2.857    3.429    4.000    2.857 
#    0.000    5.714    3.143    0.000    0.000    0.000 
#    0.000    0.000    0.000    0.000    0.000    0.000 
#
# Total GULP energy -78077.076382 kJ/mol
# GULP energy per Si atom -5576.934027 kJ/mol
# Density = 2.190387 g / cm^3
# Si number density = 21.953835 Si / 1000 Ang^3
#
#
#
# Elastic Constant Matrix: (Units=GPa)
#
#
# Indices 1 2 3 4 5 6 
#
# 1 49.7830 13.0615 1.8344 -7.9459 2.1036 -15.5094
# 2 13.0615 84.0078 8.7923 22.7414 5.7052 -17.1735
# 3 1.8344 8.7923 68.9962 20.4545 2.0990 -9.7013
# 4 -7.9459 22.7414 20.4545 38.6349 0.5198 -3.3006
# 5 2.1036 5.7052 2.0990 0.5198 33.7811 3.6183
# 6 -15.5094 -17.1735 -9.7013 -3.3006 3.6183 32.9728
#
#
#
# Elastic Compliance Matrix: (Units=1/GPa)
#
#
# Indices 1 2 3 4 5 6 
#
# 1 0.026256 -0.004123 -0.001386 0.009529 -0.002176 0.010987
# 2 -0.004123 0.017041 0.002422 -0.011530 -0.003329 0.006860
# 3 -0.001386 0.002422 0.018223 -0.010900 -0.001832 0.005081
# 4 0.009529 -0.011530 -0.010900 0.040307 0.001503 -0.000861
# 5 -0.002176 -0.003329 -0.001832 0.001503 0.031093 -0.006558
# 6 0.010987 0.006860 0.005081 -0.000861 -0.006558 0.041198
#
#
# Mechanical properties :
#
#
# Convention : Reuss Voigt Hill
#
# Bulk Modulus (GPa) = 18.06816 27.79592 22.93204
# Shear Modulus (GPa) = 25.15844 33.01768 29.08806
#
# Velocity S-wave (km/s) = 3.38889 3.88230 3.64396
# Velocity P-wave (km/s) = 4.85394 5.72581 5.30781
#
# Compressibility (1/GPa) = 0.05534598
#
# Stress axis : x y z
#
# Youngs Moduli (GPa) = 38.08693 58.68236 54.87471
#
# Poissons Ratio (x) = 0.24193 0.07608
# Poissons Ratio (y) = 0.15702 -0.13291
# Poissons Ratio (z) = 0.05280 -0.14213
#
# Static dielectric constant tensor:
#      x y z
#    x 1.853970 -0.006300 -0.026060 
#    y -0.006300 1.849690 0.033890 
#    z -0.026060 0.033890 1.883210 
# 
# From -- ./inp_files/178699.got.cif
#   From: 2010.05.17/outbox.cif.g08.bks.cpg/sg2_90_cif.got.tgz:178699.got - 2010.06.03 11:33:40.
