data_PCOD9102857
_publ_section_title
;
Structure prediction by ZEFSAII (Michael W. Deem and Ramdas Pophale) SiO2 
 PCOD9102857
Probable space group: P -1
;
_chemical_formula_sum "Si O2"
_cell_formula_units_Z 16
_cell_length_a 14.351254
_cell_length_b 29.385543
_cell_length_c 18.240927
_cell_angle_alpha 160.771094
_cell_angle_beta 20.245273
_cell_angle_gamma 160.761764
_cell_volume 753.385709
_symmetry_space_group_name_H-M "P -1"
_symmetry_group_IT_number 2
_symmetry_cell_setting 'triclinic'
loop_
_space_group_symop_operation_xyz
x,y,z
-x,-y,-z
loop_
_atom_site_type_symbol
_atom_site_label
_atom_site_fract_x
_atom_site_fract_y
_atom_site_fract_z
Si Si1 0.852010 0.142406 0.975411
Si Si2 0.804775 0.708605 0.540358
Si Si3 0.137216 0.552957 0.628531
Si Si4 0.698131 0.943607 0.315394
Si Si5 0.052321 0.779293 0.803855
Si Si6 0.669139 0.970955 0.546086
Si Si7 0.147122 0.340725 0.729721
Si Si8 0.933091 0.516516 0.258722
O O1 0.936544 0.310432 0.131490
O O2 0.885778 0.173435 0.084875
O O3 0.098888 0.089322 0.690152
O O4 0.500000 0.000000 0.000000
O O5 0.881398 0.637701 0.303507
O O6 0.951422 0.673961 0.450434
O O7 0.433783 0.619209 0.687391
O O8 0.956892 0.895176 0.694870
O O9 0.514927 0.642278 0.487686
O O10 0.004740 0.482352 0.699661
O O11 0.022855 0.400997 0.428687
O O12 0.582638 0.914893 0.440350
O O13 0.500000 0.000000 0.500000
O O14 0.765922 0.805114 0.029707
O O15 0.361302 0.897026 0.709159
O O16 0.871992 0.164043 0.687237
O O17 0.128999 0.465507 0.986163
#
# Coordination Sequence:
#
# PCOD9102857 Si02
#       8
#     2   2   2   2   2   2   2   2
#     4  11  24  46  71  91 130 166 217 271 324 381
#     4   9  20  38  56  93 123 171 215 263 305 376
#     4  11  25  41  63  99 127 167 212 270 320 377
#     4  10  23  41  64  90 137 170 209 256 321 379
#     4  11  26  43  66  98 133 162 219 266 323 382
#     4  10  23  42  67  98 123 171 218 263 316 388
#     4  10  20  38  64  90 129 169 213 259 321 373
#     4  10  21  36  63  88 131 161 220 261 313 373
#
# _framework density 21.237463000000002
#
# number of rings (size 3 to 8) (size 9 to 14) (size 15 to 20)
#    0.000    1.750    1.250    1.500    7.000    3.500 
#    4.500    0.000    0.000    0.000    0.000    0.000 
#    0.000    0.000    0.000    0.000    0.000    0.000 
#
# Total GULP energy -89415.236925 kJ/mol
# GULP energy per Si atom -5588.452308 kJ/mol
# Density = 2.118913 g / cm^3
# Si number density = 21.237463 Si / 1000 Ang^3
#
#
#
# Elastic Constant Matrix: (Units=GPa)
#
#
# Indices 1 2 3 4 5 6 
#
# 1 87.7396 22.4850 39.9581 -1.6069 -12.1261 -12.2148
# 2 22.4850 88.1891 15.5290 -1.1690 5.6706 -9.6913
# 3 39.9581 15.5290 101.0953 -0.1077 -4.6698 -6.5425
# 4 -1.6069 -1.1690 -0.1077 19.7936 -3.0145 3.4508
# 5 -12.1261 5.6706 -4.6698 -3.0145 25.6315 0.5731
# 6 -12.2148 -9.6913 -6.5425 3.4508 0.5731 32.8102
#
#
#
# Elastic Compliance Matrix: (Units=1/GPa)
#
#
# Indices 1 2 3 4 5 6 
#
# 1 0.016251 -0.003259 -0.005331 0.001597 0.007542 0.003724
# 2 -0.003259 0.012876 -0.000738 -0.000670 -0.004662 0.002595
# 3 -0.005331 -0.000738 0.012119 -0.000490 -0.000215 0.000269
# 4 0.001597 -0.000670 -0.000490 0.052628 0.007124 -0.005361
# 5 0.007542 -0.004662 -0.000215 0.007124 0.044416 -0.000137
# 6 0.003724 0.002595 0.000269 -0.005361 -0.000137 0.033251
#
#
# Mechanical properties :
#
#
# Convention : Reuss Voigt Hill
#
# Bulk Modulus (GPa) = 44.26834 48.10757 46.18795
# Shear Modulus (GPa) = 25.28726 28.91718 27.10222
#
# Velocity S-wave (km/s) = 3.45438 3.69401 3.57620
# Velocity P-wave (km/s) = 6.06631 6.39497 6.23280
#
# Compressibility (1/GPa) = 0.02258951
#
# Stress axis : x y z
#
# Youngs Moduli (GPa) = 61.53572 77.66296 82.51363
#
# Poissons Ratio (x) = 0.25311 0.43991
# Poissons Ratio (y) = 0.20055 0.06088
# Poissons Ratio (z) = 0.32807 0.05730
#
# Static dielectric constant tensor:
#      x y z
#    x 1.774880 0.024940 -0.015380 
#    y 0.024940 1.762340 0.016520 
#    z -0.015380 0.016520 1.743230 
# 
# From -- ./inp_files/106720.got.cif
#   From: 2010.05.17/outbox.cif.g08.bks.cpg/sg2_54_cif.got.tgz:106720.got - 2010.06.03 11:33:40.
