data_PCOD9102973
_publ_section_title
;
Structure prediction by ZEFSAII (Michael W. Deem and Ramdas Pophale) SiO2 
 PCOD9102973
Probable space group: P -1
;
_chemical_formula_sum "Si O2"
_cell_formula_units_Z 16
_cell_length_a 9.950684
_cell_length_b 12.049372
_cell_length_c 15.244236
_cell_angle_alpha 51.090829
_cell_angle_beta 143.023413
_cell_angle_gamma 113.505683
_cell_volume 834.537585
_symmetry_space_group_name_H-M "P -1"
_symmetry_group_IT_number 2
_symmetry_cell_setting 'triclinic'
loop_
_space_group_symop_operation_xyz
x,y,z
-x,-y,-z
loop_
_atom_site_type_symbol
_atom_site_label
_atom_site_fract_x
_atom_site_fract_y
_atom_site_fract_z
Si Si1 0.952169 0.149673 0.775703
Si Si2 0.110493 0.392011 0.033739
Si Si3 0.168202 0.812754 0.104073
Si Si4 0.672846 0.402941 0.072325
Si Si5 0.600817 0.874764 0.232919
Si Si6 0.577306 0.799309 0.059089
Si Si7 0.574647 0.147280 0.434981
Si Si8 0.093004 0.862206 0.553330
O O1 0.894553 0.196829 0.822212
O O2 0.743103 0.180534 0.583069
O O3 0.154982 0.222385 0.811099
O O4 0.051761 0.973559 0.923796
O O5 0.346179 0.275322 0.239962
O O6 0.175512 0.497050 0.941556
O O7 0.000000 0.500000 0.000000
O O8 0.930792 0.302450 0.947081
O O9 0.439826 0.802607 0.245894
O O10 0.809841 0.270007 0.266202
O O11 0.500000 0.500000 0.000000
O O12 0.533047 0.332208 0.962474
O O13 0.533449 0.837276 0.118761
O O14 0.870503 0.828446 0.406754
O O15 0.536083 0.050241 0.125212
O O16 0.720537 0.121721 0.432177
O O17 0.500000 0.000000 0.500000
O O18 0.000000 0.000000 0.500000
#
# Coordination Sequence:
#
# PCOD9102973 Si02
#       8
#     2   2   2   2   2   2   2   2
#     4  10  21  39  69  98 133 167 230 291 327 392
#     4  12  27  46  68 101 145 186 220 275 354 413
#     4  10  22  40  66 100 132 179 220 277 345 396
#     4  12  25  44  66  97 145 182 219 272 345 418
#     4  10  21  39  66  98 128 165 234 281 323 390
#     4  10  20  38  64  94 132 174 217 276 338 394
#     4  12  26  44  70 104 136 174 237 285 335 398
#     4  12  26  43  70 105 134 177 236 284 332 400
#
# _framework density 19.172294000000001
#
# number of rings (size 3 to 8) (size 9 to 14) (size 15 to 20)
#    0.000    1.000    5.000    1.500    3.500    0.000 
#    0.000    7.500    0.000    0.000    0.000    0.000 
#    0.000    0.000    0.000    0.000    0.000    0.000 
#
# Total GULP energy -89356.769521 kJ/mol
# GULP energy per Si atom -5584.798095 kJ/mol
# Density = 1.912866 g / cm^3
# Si number density = 19.172294 Si / 1000 Ang^3
#
#
#
# Elastic Constant Matrix: (Units=GPa)
#
#
# Indices 1 2 3 4 5 6 
#
# 1 104.4451 15.7967 19.0964 -18.9899 14.5089 0.3822
# 2 15.7967 91.2278 18.5575 -4.4739 7.6234 -4.4279
# 3 19.0964 18.5575 93.8472 -9.9285 6.2586 0.3928
# 4 -18.9899 -4.4739 -9.9285 28.1466 1.8059 2.0645
# 5 14.5089 7.6234 6.2586 1.8059 28.8217 0.0650
# 6 0.3822 -4.4279 0.3928 2.0645 0.0650 32.8426
#
#
#
# Elastic Compliance Matrix: (Units=1/GPa)
#
#
# Indices 1 2 3 4 5 6 
#
# 1 0.012273 -0.001037 -0.001007 0.008215 -0.006198 -0.000775
# 2 -0.001037 0.011823 -0.001930 0.000524 -0.002222 0.001601
# 3 -0.001007 -0.001930 0.011709 0.003299 -0.001731 -0.000592
# 4 0.008215 0.000524 0.003299 0.043012 -0.007679 -0.002753
# 5 -0.006198 -0.002222 -0.001731 -0.007679 0.039261 0.000198
# 6 -0.000775 0.001601 -0.000592 -0.002753 0.000198 0.030853
#
#
# Mechanical properties :
#
#
# Convention : Reuss Voigt Hill
#
# Bulk Modulus (GPa) = 35.89709 44.04679 39.97194
# Shear Modulus (GPa) = 30.09092 33.70015 31.89554
#
# Velocity S-wave (km/s) = 3.96599 4.19710 4.08318
# Velocity P-wave (km/s) = 6.30366 6.81994 6.56688
#
# Compressibility (1/GPa) = 0.02785741
#
# Stress axis : x y z
#
# Youngs Moduli (GPa) = 81.48147 84.58213 85.40465
#
# Poissons Ratio (x) = 0.08772 0.08596
# Poissons Ratio (y) = 0.08451 0.16482
# Poissons Ratio (z) = 0.08201 0.16323
#
# Static dielectric constant tensor:
#      x y z
#    x 1.672270 -0.022320 0.031610 
#    y -0.022320 1.656000 0.005790 
#    z 0.031610 0.005790 1.692710 
# 
# From -- ./inp_files/186056.got.cif
#   From: 2010.05.17/outbox.cif.g08.bks.cpg/sg2_94_cif.got.tgz:186056.got - 2010.06.03 11:33:40.
