data_PCOD9102793
_publ_section_title
;
Structure prediction by ZEFSAII (Michael W. Deem and Ramdas Pophale) SiO2 
 PCOD9102793
Probable space group: P -1
;
_chemical_formula_sum "Si O2"
_cell_formula_units_Z 15
_cell_length_a 22.474083
_cell_length_b 7.385254
_cell_length_c 8.687293
_cell_angle_alpha 121.347323
_cell_angle_beta 122.894295
_cell_angle_gamma 30.571235
_cell_volume 611.088768
_symmetry_space_group_name_H-M "P -1"
_symmetry_group_IT_number 2
_symmetry_cell_setting 'triclinic'
loop_
_space_group_symop_operation_xyz
x,y,z
-x,-y,-z
loop_
_atom_site_type_symbol
_atom_site_label
_atom_site_fract_x
_atom_site_fract_y
_atom_site_fract_z
Si Si1 0.591322 0.209901 0.866608
Si Si2 0.619949 0.007239 0.504940
Si Si3 0.609960 0.709402 0.757522
Si Si4 0.718050 0.610991 0.173296
Si Si5 0.799720 0.976774 0.171281
Si Si6 0.018460 0.966061 0.828472
Si Si7 0.000000 0.500000 0.000000
Si Si8 0.202507 0.768785 0.432622
O O1 0.600929 0.236557 0.708544
O O2 0.565390 0.024074 0.743916
O O3 0.500000 0.500000 0.000000
O O4 0.719793 0.971473 0.005710
O O5 0.670961 0.899589 0.355060
O O6 0.716671 0.611086 0.542188
O O7 0.490896 0.216151 0.384656
O O8 0.738023 0.338205 0.698512
O O9 0.629135 0.752906 0.974967
O O10 0.741258 0.329605 0.167413
O O11 0.842595 0.387079 0.176827
O O12 0.793295 0.036361 0.368536
O O13 0.929462 0.652347 0.134985
O O14 0.931012 0.998796 0.654821
O O15 0.982291 0.285262 0.857419
O O16 0.000000 0.000000 0.000000
#
# Coordination Sequence:
#
# PCOD9102793 Si02
#       8
#     2   2   2   2   2   2   1   2
#     4  11  21  37  60  86 121 157 207 259 304 371
#     4  10  21  36  61  92 116 165 210 246 320 386
#     4  11  20  38  64  87 122 159 209 255 312 382
#     4  10  22  39  61  88 121 162 204 255 316 378
#     4  10  22  38  60  88 122 161 208 254 315 374
#     4  11  22  41  68  93 128 168 214 260 322 376
#     4  10  22  38  64  92 126 162 210 262 312 368
#     4  10  20  38  64  88 119 167 209 252 313 382
#
# _framework density 24.54635
#
# number of rings (size 3 to 8) (size 9 to 14) (size 15 to 20)
#    0.000    1.600    1.333    6.000    0.000    5.867 
#    0.000    4.667    5.867    0.000    0.000    0.000 
#    0.000    0.000    0.000    0.000    0.000    0.000 
#
# Total GULP energy -83509.881513 kJ/mol
# GULP energy per Si atom -5567.325434 kJ/mol
# Density = 2.449048 g / cm^3
# Si number density = 24.546350 Si / 1000 Ang^3
#
#
#
# Elastic Constant Matrix: (Units=GPa)
#
#
# Indices 1 2 3 4 5 6 
#
# 1 59.9189 10.4934 36.1877 3.0392 -1.0412 -22.5001
# 2 10.4934 34.0889 34.1475 4.9113 -3.0777 -15.3932
# 3 36.1877 34.1475 179.8578 4.8440 -25.0481 -35.4203
# 4 3.0392 4.9113 4.8440 37.8136 -20.1134 -8.5878
# 5 -1.0412 -3.0777 -25.0481 -20.1134 40.6911 7.0629
# 6 -22.5001 -15.3932 -35.4203 -8.5878 7.0629 47.5771
#
#
#
# Elastic Compliance Matrix: (Units=1/GPa)
#
#
# Indices 1 2 3 4 5 6 
#
# 1 0.021696 0.000129 -0.003234 -0.001361 -0.003517 0.008171
# 2 0.000129 0.039713 -0.006579 -0.005193 -0.004965 0.007812
# 3 -0.003234 -0.006579 0.008749 0.003940 0.006296 0.002632
# 4 -0.001361 -0.005193 0.003940 0.038533 0.020253 0.004558
# 5 -0.003517 -0.004965 0.006296 0.020253 0.038098 -0.000582
# 6 0.008171 0.007812 0.002632 0.004558 -0.000582 0.030279
#
#
# Mechanical properties :
#
#
# Convention : Reuss Voigt Hill
#
# Bulk Modulus (GPa) = 19.68887 48.39142 34.04015
# Shear Modulus (GPa) = 23.43413 38.08550 30.75981
#
# Velocity S-wave (km/s) = 3.09316 3.94328 3.54380
# Velocity P-wave (km/s) = 4.56019 6.36315 5.53557
#
# Compressibility (1/GPa) = 0.05079012
#
# Stress axis : x y z
#
# Youngs Moduli (GPa) = 46.09178 25.18069 114.30316
#
# Poissons Ratio (x) = -0.00325 0.36962
# Poissons Ratio (y) = -0.00595 0.75201
# Poissons Ratio (z) = 0.14905 0.16567
#
# Static dielectric constant tensor:
#      x y z
#    x 2.012200 0.052520 -0.081220 
#    y 0.052520 2.013580 0.030630 
#    z -0.081220 0.030630 1.954530 
# 
# From -- ./inp_files/202224.got.cif
#   From: 2010.05.17/outbox.cif.g08.bks.cpg/sg2_102_cif.got.tgz:202224.got - 2010.06.03 11:33:40.
