data_PCOD9102920
_publ_section_title
;
Structure prediction by ZEFSAII (Michael W. Deem and Ramdas Pophale) SiO2 
 PCOD9102920
Probable space group: P -1
;
_chemical_formula_sum "Si O2"
_cell_formula_units_Z 15
_cell_length_a 8.118352
_cell_length_b 14.788303
_cell_length_c 6.738580
_cell_angle_alpha 113.302491
_cell_angle_beta 126.368052
_cell_angle_gamma 81.883245
_cell_volume 593.509066
_symmetry_space_group_name_H-M "P -1"
_symmetry_group_IT_number 2
_symmetry_cell_setting 'triclinic'
loop_
_space_group_symop_operation_xyz
x,y,z
-x,-y,-z
loop_
_atom_site_type_symbol
_atom_site_label
_atom_site_fract_x
_atom_site_fract_y
_atom_site_fract_z
Si Si1 0.000000 0.500000 0.000000
Si Si2 0.635429 0.455405 0.848511
Si Si3 0.192806 0.291255 0.959310
Si Si4 0.432850 0.892648 0.448481
Si Si5 0.619831 0.384076 0.354532
Si Si6 0.312327 0.274104 0.565979
Si Si7 0.870296 0.228180 0.185391
Si Si8 0.912222 0.103623 0.497965
O O1 0.859817 0.491513 0.116931
O O2 0.066393 0.383157 0.973000
O O3 0.729059 0.443381 0.674284
O O4 0.473288 0.533754 0.774378
O O5 0.507305 0.355934 0.739117
O O6 0.267203 0.282077 0.774632
O O7 0.057166 0.186593 0.798796
O O8 0.415892 0.319500 0.244533
O O9 0.624960 0.831626 0.541738
O O10 0.315805 0.901814 0.578915
O O11 0.500000 0.000000 0.500000
O O12 0.274945 0.827752 0.131399
O O13 0.756216 0.311797 0.285057
O O14 0.091572 0.280506 0.314996
O O15 0.907840 0.146001 0.308506
O O16 0.000000 0.000000 0.500000
#
# Coordination Sequence:
#
# PCOD9102920 Si02
#       8
#     1   2   2   2   2   2   2   2
#     4  10  20  38  64  92 134 182 212 282 342 404
#     4  10  22  39  65  99 134 183 230 280 343 416
#     4  10  21  41  65  95 140 172 230 281 341 411
#     4  12  26  46  71 105 137 180 238 287 347 419
#     4  10  21  41  63  96 136 182 225 276 350 412
#     4  11  23  43  67 101 134 178 233 283 341 415
#     4  11  25  46  70 100 143 181 225 295 344 412
#     4  11  26  47  73 102 136 186 231 286 357 415
#
# _framework density 25.273413999999999
#
# number of rings (size 3 to 8) (size 9 to 14) (size 15 to 20)
#    0.000    1.333    1.333    4.800    1.867    5.333 
#    4.800    0.000    0.000    0.000    0.000    0.000 
#    0.000    0.000    0.000    0.000    0.000    0.000 
#
# Total GULP energy -83824.708383 kJ/mol
# GULP energy per Si atom -5588.313892 kJ/mol
# Density = 2.521589 g / cm^3
# Si number density = 25.273414 Si / 1000 Ang^3
#
#
#
# Elastic Constant Matrix: (Units=GPa)
#
#
# Indices 1 2 3 4 5 6 
#
# 1 129.1642 72.2764 8.1349 15.7787 33.0028 -19.8730
# 2 72.2764 189.1638 13.0631 25.1417 17.7367 -31.2622
# 3 8.1349 13.0631 78.6527 10.5022 10.7841 -7.4411
# 4 15.7787 25.1417 10.5022 40.0223 5.4910 6.8313
# 5 33.0028 17.7367 10.7841 5.4910 48.3938 2.8140
# 6 -19.8730 -31.2622 -7.4411 6.8313 2.8140 54.2684
#
#
#
# Elastic Compliance Matrix: (Units=1/GPa)
#
#
# Indices 1 2 3 4 5 6 
#
# 1 0.012129 -0.003080 0.000944 -0.002699 -0.007251 0.003512
# 2 -0.003080 0.007709 0.000036 -0.004233 -0.000478 0.003875
# 3 0.000944 0.000036 0.013911 -0.004076 -0.003467 0.002966
# 4 -0.002699 -0.004233 -0.004076 0.030964 0.001249 -0.007949
# 5 -0.007251 -0.000478 -0.003467 0.001249 0.026702 -0.004948
# 6 0.003512 0.003875 0.002966 -0.007949 -0.004948 0.023609
#
#
# Mechanical properties :
#
#
# Convention : Reuss Voigt Hill
#
# Bulk Modulus (GPa) = 33.84418 64.88105 49.36261
# Shear Modulus (GPa) = 38.73703 48.77067 43.75385
#
# Velocity S-wave (km/s) = 3.91924 4.39763 4.16531
# Velocity P-wave (km/s) = 5.82245 7.17725 6.53505
#
# Compressibility (1/GPa) = 0.02954718
#
# Stress axis : x y z
#
# Youngs Moduli (GPa) = 82.44565 129.72100 71.88695
#
# Poissons Ratio (x) = 0.39960 -0.06786
# Poissons Ratio (y) = 0.25397 -0.00256
# Poissons Ratio (z) = -0.07783 -0.00463
#
# Static dielectric constant tensor:
#      x y z
#    x 2.124700 0.057300 -0.007440 
#    y 0.057300 1.947820 -0.072520 
#    z -0.007440 -0.072520 2.254610 
# 
# From -- ./inp_files/198144.got.cif
#   From: 2010.05.17/outbox.cif.g08.bks.cpg/sg2_100_cif.got.tgz:198144.got - 2010.06.03 11:33:40.
