data_PCOD9102354
_publ_section_title
;
Structure prediction by ZEFSAII (Michael W. Deem and Ramdas Pophale) SiO2 
 PCOD9102354
Probable space group: P -1
;
_chemical_formula_sum "Si O2"
_cell_formula_units_Z 16
_cell_length_a 12.439833
_cell_length_b 27.592285
_cell_length_c 27.705916
_cell_angle_alpha 10.561887
_cell_angle_beta 153.890679
_cell_angle_gamma 154.379024
_cell_volume 745.701960
_symmetry_space_group_name_H-M "P -1"
_symmetry_group_IT_number 2
_symmetry_cell_setting 'triclinic'
loop_
_space_group_symop_operation_xyz
x,y,z
-x,-y,-z
loop_
_atom_site_type_symbol
_atom_site_label
_atom_site_fract_x
_atom_site_fract_y
_atom_site_fract_z
Si Si1 0.833812 0.197537 0.219343
Si Si2 0.293125 0.017257 0.227652
Si Si3 0.528113 0.786713 0.789213
Si Si4 0.313509 0.982875 0.772256
Si Si5 0.498242 0.572154 0.306220
Si Si6 0.665236 0.306319 0.776306
Si Si7 0.224214 0.212888 0.211053
Si Si8 0.984788 0.427917 0.693749
O O1 0.563567 0.130433 0.202168
O O2 0.767223 0.130512 0.202191
O O3 0.000000 0.000000 0.500000
O O4 0.000000 0.500000 0.000000
O O5 0.324412 0.106929 0.207909
O O6 0.204769 0.692098 0.512322
O O7 0.083892 0.162626 0.978969
O O8 0.712288 0.750916 0.855248
O O9 0.372168 0.999718 0.500176
O O10 0.334761 0.499737 0.000217
O O11 0.065296 0.893463 0.791897
O O12 0.387242 0.308043 0.487577
O O13 0.517605 0.837500 0.020942
O O14 0.324670 0.620638 0.234371
O O15 0.746162 0.500023 0.499994
O O16 0.500000 0.500000 0.500000
O O17 0.904643 0.379339 0.765676
O O18 0.500000 0.000000 0.000000
#
# Coordination Sequence:
#
# PCOD9102354 Si02
#       8
#     2   2   2   2   2   2   2   2
#     4  12  26  48  73  98 129 170 230 286 330 398
#     4  12  24  41  68  95 128 176 226 263 341 386
#     4  10  21  37  58  88 125 159 204 267 332 391
#     4  12  24  41  68  95 128 176 226 263 341 386
#     4  11  24  41  64  97 138 173 222 269 322 395
#     4  10  20  38  62  92 132 180 216 262 318 378
#     4  10  21  37  58  88 125 159 204 267 332 391
#     4  11  24  41  64  97 138 173 222 269 322 395
#
# _framework density 21.456292000000001
#
# number of rings (size 3 to 8) (size 9 to 14) (size 15 to 20)
#    0.000    1.000    0.000    8.250    3.500    0.000 
#    0.000    3.750    0.000    0.000    0.000    0.000 
#    0.000    0.000    0.000    0.000    0.000    0.000 
#
# Total GULP energy -89398.054513 kJ/mol
# GULP energy per Si atom -5587.378407 kJ/mol
# Density = 2.140746 g / cm^3
# Si number density = 21.456292 Si / 1000 Ang^3
#
#
#
# Elastic Constant Matrix: (Units=GPa)
#
#
# Indices 1 2 3 4 5 6 
#
# 1 67.8205 37.6210 24.0647 7.6204 -0.8459 0.8511
# 2 37.6210 65.8482 20.6517 0.9005 1.3347 -0.6467
# 3 24.0647 20.6517 135.2536 -10.4049 0.3234 0.1083
# 4 7.6204 0.9005 -10.4049 55.9653 1.5016 0.4116
# 5 -0.8459 1.3347 0.3234 1.5016 -5.3917 -20.1271
# 6 0.8511 -0.6467 0.1083 0.4116 -20.1271 32.4162
#
#
#
# Elastic Compliance Matrix: (Units=1/GPa)
#
#
# Indices 1 2 3 4 5 6 
#
# 1 0.022732 -0.012166 -0.002436 -0.003302 -0.001416 -0.001668
# 2 -0.012166 0.022485 -0.001195 0.001021 0.001463 0.001667
# 3 -0.002436 -0.001195 0.008151 0.001856 0.000341 0.000201
# 4 -0.003302 0.001021 0.001856 0.018585 0.001978 0.001093
# 5 -0.001416 0.001463 0.000341 0.001978 -0.055598 -0.034481
# 6 -0.001668 0.001667 0.000201 0.001093 -0.034481 0.009502
#
#
# Mechanical properties :
#
#
# Convention : Reuss Voigt Hill
#
# Bulk Modulus (GPa) = 45.92655 48.17744 47.05200
# Shear Modulus (GPa) = 77.26793 29.03694 53.15244
#
# Velocity S-wave (km/s) = 6.00749 3.68272 4.98259
# Velocity P-wave (km/s) = 8.34093 6.37070 7.42149
#
# Compressibility (1/GPa) = 0.02177390
#
# Stress axis : x y z
#
# Youngs Moduli (GPa) = 43.99026 44.47452 122.68116
#
# Poissons Ratio (x) = 0.54108 0.29889
# Poissons Ratio (y) = 0.53519 0.14658
# Poissons Ratio (z) = 0.10717 0.05314
#
# Static dielectric constant tensor:
#      x y z
#    x 1.801430 -0.003900 0.001660 
#    y -0.003900 1.638700 0.073110 
#    z 0.001660 0.073110 1.721400 
# 
# From -- ./inp_files/618858.got.cif
#   From: 2010.05.17/outbox.cif.g08.bks.cpg/sg2_310_cif.got.tgz:618858.got - 2010.06.03 11:33:40.
