data_PCOD9102958
_publ_section_title
;
Structure prediction by ZEFSAII (Michael W. Deem and Ramdas Pophale) SiO2 
 PCOD9102958
Probable space group: P -1
;
_chemical_formula_sum "Si O2"
_cell_formula_units_Z 16
_cell_length_a 19.876994
_cell_length_b 8.237318
_cell_length_c 20.649072
_cell_angle_alpha 116.346322
_cell_angle_beta 166.212207
_cell_angle_gamma 61.744466
_cell_volume 707.699741
_symmetry_space_group_name_H-M "P -1"
_symmetry_group_IT_number 2
_symmetry_cell_setting 'triclinic'
loop_
_space_group_symop_operation_xyz
x,y,z
-x,-y,-z
loop_
_atom_site_type_symbol
_atom_site_label
_atom_site_fract_x
_atom_site_fract_y
_atom_site_fract_z
Si Si1 0.297949 0.558417 0.061090
Si Si2 0.386128 0.288518 0.722204
Si Si3 0.921119 0.287972 0.469055
Si Si4 0.264669 0.877519 0.261226
Si Si5 0.132935 0.853163 0.749657
Si Si6 0.817371 0.388743 0.763856
Si Si7 0.703509 0.543647 0.549932
Si Si8 0.356258 0.201935 0.967058
O O1 0.432777 0.707474 0.173560
O O2 0.544785 0.470211 0.328054
O O3 0.257737 0.394875 0.946145
O O4 0.976663 0.631508 0.800398
O O5 0.195917 0.495387 0.588361
O O6 0.170234 0.145998 0.497599
O O7 0.612407 0.254771 0.986448
O O8 0.907700 0.247471 0.373820
O O9 0.228067 0.227269 0.779206
O O10 0.699798 0.177481 0.277859
O O11 0.163598 0.813098 0.224449
O O12 0.431945 0.691589 0.349655
O O13 0.500000 0.000000 0.500000
O O14 0.000000 0.000000 0.000000
O O15 0.227483 0.044673 0.854373
O O16 0.500000 0.500000 0.500000
O O17 0.842807 0.405653 0.713377
O O18 0.000000 0.500000 0.000000
#
# Coordination Sequence:
#
# PCOD9102958 Si02
#       8
#     2   2   2   2   2   2   2   2
#     4  11  23  42  61  85 119 173 215 236 293 376
#     4  11  23  38  60  87 124 161 204 258 309 374
#     4  11  21  39  61  88 119 162 207 255 324 385
#     4  11  22  39  65 101 131 148 186 255 309 341
#     4  12  22  38  61  92 120 155 205 274 327 351
#     4  10  20  38  64  94 122 157 199 237 286 351
#     4  11  22  41  68  88 121 171 206 236 290 376
#     4  11  23  39  61  87 121 159 209 265 303 362
#
# _framework density 22.608459
#
# number of rings (size 3 to 8) (size 9 to 14) (size 15 to 20)
#    0.000    1.000    0.000   10.500    0.000    0.000 
#    0.000    5.000    0.000    3.000    0.000    0.000 
#    0.000    0.000    0.000    0.000    0.000    0.000 
#
# Total GULP energy -89420.920352 kJ/mol
# GULP energy per Si atom -5588.807522 kJ/mol
# Density = 2.255700 g / cm^3
# Si number density = 22.608459 Si / 1000 Ang^3
#
#
#
# Elastic Constant Matrix: (Units=GPa)
#
#
# Indices 1 2 3 4 5 6 
#
# 1 75.7255 29.1157 27.4611 4.4167 5.5469 31.8157
# 2 29.1157 59.7301 28.4643 2.5311 -6.5430 35.3035
# 3 27.4611 28.4643 141.8850 10.8205 -3.3093 19.7445
# 4 4.4167 2.5311 10.8205 33.2256 7.4523 3.6992
# 5 5.5469 -6.5430 -3.3093 7.4523 47.6546 2.4607
# 6 31.8157 35.3035 19.7445 3.6992 2.4607 33.2165
#
#
#
# Elastic Compliance Matrix: (Units=1/GPa)
#
#
# Indices 1 2 3 4 5 6 
#
# 1 0.023039 0.005199 -0.001858 0.000266 -0.000772 -0.026461
# 2 0.005199 0.050919 -0.002992 0.000842 0.009046 -0.058083
# 3 -0.001858 -0.002992 0.008162 -0.002382 0.000728 0.000319
# 4 0.000266 0.000842 -0.002382 0.032216 -0.004966 -0.002954
# 5 -0.000772 0.009046 0.000728 -0.004966 0.023686 -0.010509
# 6 -0.026461 -0.058083 0.000319 -0.002954 -0.010509 0.118101
#
#
# Mechanical properties :
#
#
# Convention : Reuss Voigt Hill
#
# Bulk Modulus (GPa) = 12.07471 49.71366 30.89419
# Shear Modulus (GPa) = 17.66593 35.63931 26.65262
#
# Velocity S-wave (km/s) = 2.79836 3.97466 3.43720
# Velocity P-wave (km/s) = 3.97410 6.56510 5.42651
#
# Compressibility (1/GPa) = 0.08281769
#
# Stress axis : x y z
#
# Youngs Moduli (GPa) = 43.40486 19.63910 122.51869
#
# Poissons Ratio (x) = -0.10210 0.22765
# Poissons Ratio (y) = -0.22565 0.36655
# Poissons Ratio (z) = 0.08065 0.05876
#
# Static dielectric constant tensor:
#      x y z
#    x 1.969880 -0.014660 0.002330 
#    y -0.014660 1.773920 0.014190 
#    z 0.002330 0.014190 1.812230 
# 
# From -- ./inp_files/614041.got.cif
#   From: 2010.05.17/outbox.cif.g08.bks.cpg/sg2_308_cif.got.tgz:614041.got - 2010.06.03 11:33:40.
