data_PCOD9102741
_publ_section_title
;
Structure prediction by ZEFSAII (Michael W. Deem and Ramdas Pophale) SiO2 
 PCOD9102741
Probable space group: P -1
;
_chemical_formula_sum "Si O2"
_cell_formula_units_Z 16
_cell_length_a 10.256112
_cell_length_b 14.489857
_cell_length_c 11.677852
_cell_angle_alpha 136.735235
_cell_angle_beta 140.660637
_cell_angle_gamma 70.035598
_cell_volume 648.380449
_symmetry_space_group_name_H-M "P -1"
_symmetry_group_IT_number 2
_symmetry_cell_setting 'triclinic'
loop_
_space_group_symop_operation_xyz
x,y,z
-x,-y,-z
loop_
_atom_site_type_symbol
_atom_site_label
_atom_site_fract_x
_atom_site_fract_y
_atom_site_fract_z
Si Si1 0.555824 0.698416 0.621567
Si Si2 0.845361 0.640265 0.926811
Si Si3 0.368260 0.078305 0.691845
Si Si4 0.909546 0.315354 0.259789
Si Si5 0.312913 0.879160 0.677509
Si Si6 0.392366 0.344549 0.645102
Si Si7 0.712140 0.204142 0.771175
Si Si8 0.191073 0.314525 0.788365
O O1 0.776052 0.745605 0.898007
O O2 0.337565 0.541299 0.385908
O O3 0.461604 0.816174 0.655018
O O4 0.614546 0.664784 0.506242
O O5 0.803412 0.661698 0.048856
O O6 0.104629 0.680162 0.098040
O O7 0.246880 0.179468 0.674216
O O8 0.242892 0.966803 0.615002
O O9 0.359956 0.966076 0.481894
O O10 0.643395 0.202664 0.025801
O O11 0.000000 0.500000 0.500000
O O12 0.121463 0.298401 0.446204
O O13 0.857556 0.260919 0.040913
O O14 0.087044 0.747795 0.475612
O O15 0.500000 0.000000 0.000000
O O16 0.492131 0.234807 0.655549
O O17 0.601884 0.522608 0.975149
#
# Coordination Sequence:
#
# PCOD9102741 Si02
#       8
#     2   2   2   2   2   2   2   2
#     4  10  20  38  64 106 133 182 229 284 347 422
#     4  10  20  38  73  98 142 181 227 283 360 416
#     4  12  26  47  68 104 146 188 229 296 357 415
#     4  12  28  51  73  99 142 191 247 288 351 419
#     4  12  25  39  66 107 145 179 231 290 361 420
#     4  11  23  46  75 100 133 187 237 289 345 424
#     4  12  25  45  75 105 138 185 239 297 351 414
#     4  11  23  43  69 101 143 183 229 288 360 423
#
# _framework density 24.676867999999999
#
# number of rings (size 3 to 8) (size 9 to 14) (size 15 to 20)
#    0.000    0.750    5.000    2.250    1.750    5.000 
#    2.250    0.000    0.000    0.000    0.000    0.000 
#    0.000    0.000    0.000    0.000    0.000    0.000 
#
# Total GULP energy -89543.779526 kJ/mol
# GULP energy per Si atom -5596.486220 kJ/mol
# Density = 2.462070 g / cm^3
# Si number density = 24.676868 Si / 1000 Ang^3
#
#
#
# Elastic Constant Matrix: (Units=GPa)
#
#
# Indices 1 2 3 4 5 6 
#
# 1 93.0757 4.5090 16.9761 -3.9943 4.0986 -0.4953
# 2 4.5090 96.3859 26.8045 -0.5487 -8.2108 -21.1839
# 3 16.9761 26.8045 132.6716 -4.3573 -6.9879 -8.0660
# 4 -3.9943 -0.5487 -4.3573 42.1725 -0.9716 0.4318
# 5 4.0986 -8.2108 -6.9879 -0.9716 37.5182 -4.8703
# 6 -0.4953 -21.1839 -8.0660 0.4318 -4.8703 36.7352
#
#
#
# Elastic Compliance Matrix: (Units=1/GPa)
#
#
# Indices 1 2 3 4 5 6 
#
# 1 0.011131 -0.000389 -0.001440 0.000869 -0.001627 -0.000617
# 2 -0.000389 0.012858 -0.001915 -0.000064 0.003465 0.007449
# 3 -0.001440 -0.001915 0.008259 0.000716 0.001408 0.000868
# 4 0.000869 -0.000064 0.000716 0.023883 0.000634 -0.000065
# 5 -0.001627 0.003465 0.001408 0.000634 0.028657 0.006077
# 6 -0.000617 0.007449 0.000868 -0.000065 0.006077 0.032506
#
#
# Mechanical properties :
#
#
# Convention : Reuss Voigt Hill
#
# Bulk Modulus (GPa) = 40.38889 46.52360 43.45625
# Shear Modulus (GPa) = 37.58390 41.54143 39.56266
#
# Velocity S-wave (km/s) = 3.90685 4.10740 4.00838
# Velocity P-wave (km/s) = 6.06250 6.43338 6.25069
#
# Compressibility (1/GPa) = 0.02475928
#
# Stress axis : x y z
#
# Youngs Moduli (GPa) = 89.83785 77.77499 121.08084
#
# Poissons Ratio (x) = 0.03028 0.17439
# Poissons Ratio (y) = 0.03498 0.23182
# Poissons Ratio (z) = 0.12939 0.14891
#
# Static dielectric constant tensor:
#      x y z
#    x 1.978370 0.024680 0.010840 
#    y 0.024680 1.966540 -0.037980 
#    z 0.010840 -0.037980 1.968940 
# 
# From -- ./inp_files/523500.got.cif
#   From: 2010.05.17/outbox.cif.g08.bks.cpg/sg2_262_cif.got.tgz:523500.got - 2010.06.03 11:33:40.
