data_PCOD9102083
_publ_section_title
;
Structure prediction by ZEFSAII (Michael W. Deem and Ramdas Pophale) SiO2 
 PCOD9102083
Probable space group: P -1
;
_chemical_formula_sum "Si O2"
_cell_formula_units_Z 16
_cell_length_a 16.591779
_cell_length_b 10.514853
_cell_length_c 5.002791
_cell_angle_alpha 63.838120
_cell_angle_beta 120.443932
_cell_angle_gamma 113.556876
_cell_volume 657.612177
_symmetry_space_group_name_H-M "P -1"
_symmetry_group_IT_number 2
_symmetry_cell_setting 'triclinic'
loop_
_space_group_symop_operation_xyz
x,y,z
-x,-y,-z
loop_
_atom_site_type_symbol
_atom_site_label
_atom_site_fract_x
_atom_site_fract_y
_atom_site_fract_z
Si Si1 0.379042 0.202703 0.205935
Si Si2 0.559431 0.377008 0.653154
Si Si3 0.209736 0.334133 0.912795
Si Si4 0.537548 0.174358 0.310049
Si Si5 0.027387 0.104412 0.698759
Si Si6 0.151077 0.778953 0.696210
Si Si7 0.225611 0.507296 0.278650
Si Si8 0.735296 0.105769 0.739667
O O1 0.494522 0.262836 0.432069
O O2 0.418278 0.182714 0.998806
O O3 0.317092 0.049276 0.331333
O O4 0.318455 0.317221 0.065318
O O5 0.500000 0.500000 0.500000
O O6 0.659871 0.452856 0.620104
O O7 0.576359 0.280129 0.018350
O O8 0.201464 0.464279 0.581759
O O9 0.137021 0.189915 0.824666
O O10 0.190508 0.369167 0.151566
O O11 0.649121 0.181928 0.595775
O O12 0.500000 0.000000 0.500000
O O13 0.960262 0.219990 0.483795
O O14 0.000000 0.000000 0.500000
O O15 0.000000 0.000000 0.000000
O O16 0.193440 0.812649 0.441643
O O17 0.176390 0.633074 0.982164
O O18 0.205806 0.901593 0.884209
#
# Coordination Sequence:
#
# PCOD9102083 Si02
#       8
#     2   2   2   2   2   2   2   2
#     4  10  26  38  65  99 140 181 231 273 349 381
#     4  10  22  40  62  95 135 182 225 273 327 387
#     4  12  28  44  70  99 138 182 224 281 326 405
#     4  10  20  38  61  97 130 177 225 270 337 385
#     4  12  27  52  76 107 136 165 220 283 350 410
#     4  12  25  44  75  98 134 183 219 282 347 386
#     4  12  25  46  67  98 139 179 236 266 323 409
#     4  12  22  41  71 103 135 175 229 287 337 407
#
# _framework density 24.330451
#
# number of rings (size 3 to 8) (size 9 to 14) (size 15 to 20)
#    0.750    0.000    2.500    4.875    3.500    2.500 
#    0.000    0.000    0.000    0.000    0.000    0.000 
#    0.000    0.000    0.000    0.000    0.000    0.000 
#
# Total GULP energy -89265.534132 kJ/mol
# GULP energy per Si atom -5579.095883 kJ/mol
# Density = 2.427507 g / cm^3
# Si number density = 24.330451 Si / 1000 Ang^3
#
#
#
# Elastic Constant Matrix: (Units=GPa)
#
#
# Indices 1 2 3 4 5 6 
#
# 1 88.7257 10.7651 28.9754 5.0081 17.9085 -5.3608
# 2 10.7651 108.4732 19.4476 12.6062 -1.9837 -11.5174
# 3 28.9754 19.4476 70.0686 9.6661 4.3220 -4.5693
# 4 5.0081 12.6062 9.6661 32.7893 1.3524 2.0269
# 5 17.9085 -1.9837 4.3220 1.3524 52.5716 -2.7310
# 6 -5.3608 -11.5174 -4.5693 2.0269 -2.7310 36.4499
#
#
#
# Elastic Compliance Matrix: (Units=1/GPa)
#
#
# Indices 1 2 3 4 5 6 
#
# 1 0.013992 -0.000376 -0.005311 -0.000310 -0.004286 0.000969
# 2 -0.000376 0.010407 -0.002088 -0.003568 0.000952 0.003241
# 3 -0.005311 -0.002088 0.017590 -0.003651 0.000430 0.000999
# 4 -0.000310 -0.003568 -0.003651 0.033243 -0.000768 -0.003537
# 5 -0.004286 0.000952 0.000430 -0.000768 0.020570 0.001309
# 6 0.000969 0.003241 0.000999 -0.003537 0.001309 0.029022
#
#
# Mechanical properties :
#
#
# Convention : Reuss Voigt Hill
#
# Bulk Modulus (GPa) = 37.82468 42.84929 40.33698
# Shear Modulus (GPa) = 33.51503 38.23411 35.87457
#
# Velocity S-wave (km/s) = 3.71549 3.96845 3.84405
# Velocity P-wave (km/s) = 5.82979 6.21673 6.02637
#
# Compressibility (1/GPa) = 0.02643777
#
# Stress axis : x y z
#
# Youngs Moduli (GPa) = 71.46973 96.09194 56.85036
#
# Poissons Ratio (x) = 0.03610 0.30196
# Poissons Ratio (y) = 0.02685 0.11872
# Poissons Ratio (z) = 0.37961 0.20066
#
# Static dielectric constant tensor:
#      x y z
#    x 1.953700 -0.037320 0.057480 
#    y -0.037320 2.032830 0.019580 
#    z 0.057480 0.019580 1.969470 
# 
# From -- ./inp_files/109546.got.cif
#   From: 2010.05.17/outbox.cif.g08.bks.cpg/sg2_55_cif.got.tgz:109546.got - 2010.06.03 11:33:40.
