data_PCOD9102378
_publ_section_title
;
Structure prediction by ZEFSAII (Michael W. Deem and Ramdas Pophale) SiO2 
 PCOD9102378
Probable space group: P -1
;
_chemical_formula_sum "Si O2"
_cell_formula_units_Z 14
_cell_length_a 9.099599
_cell_length_b 15.225907
_cell_length_c 11.489820
_cell_angle_alpha 55.351678
_cell_angle_beta 55.069114
_cell_angle_gamma 30.992161
_cell_volume 660.552710
_symmetry_space_group_name_H-M "P -1"
_symmetry_group_IT_number 2
_symmetry_cell_setting 'triclinic'
loop_
_space_group_symop_operation_xyz
x,y,z
-x,-y,-z
loop_
_atom_site_type_symbol
_atom_site_label
_atom_site_fract_x
_atom_site_fract_y
_atom_site_fract_z
Si Si1 0.733814 0.609683 0.194725
Si Si2 0.522863 0.073923 0.827439
Si Si3 0.291379 0.486688 0.959314
Si Si4 0.402925 0.673845 0.845534
Si Si5 0.998778 0.384650 0.655507
Si Si6 0.341400 0.498733 0.481596
Si Si7 0.894858 0.144675 0.360864
O O1 0.476804 0.811637 0.193115
O O2 0.664451 0.558922 0.161833
O O3 0.105983 0.643072 0.382563
O O4 0.806646 0.515946 0.351983
O O5 0.269943 0.212129 0.738989
O O6 0.823677 0.913533 0.743462
O O7 0.500000 0.000000 0.000000
O O8 0.274459 0.617567 0.910872
O O9 0.000625 0.558710 0.070610
O O10 0.565145 0.318830 0.039069
O O11 0.216520 0.840170 0.726674
O O12 0.730987 0.516919 0.766749
O O13 0.000000 0.500000 0.500000
O O14 0.500000 0.500000 0.500000
O O15 0.610739 0.325329 0.415746
O O16 0.000000 0.000000 0.500000
#
# Coordination Sequence:
#
# PCOD9102378 Si02
#       7
#     2   2   2   2   2   2   2
#     4  11  20  39  60  94 126 167 209 271 323 377
#     4  12  24  39  63  98 134 172 214 269 333 392
#     4  10  21  35  64  91 127 158 218 272 311 373
#     4  10  20  38  62  94 119 169 223 258 314 399
#     4  11  20  41  67  91 125 176 221 258 319 398
#     4  11  23  42  69  95 122 168 231 270 309 393
#     4  11  22  40  62  90 131 169 208 264 333 381
#
# _framework density 21.194369999999999
#
# number of rings (size 3 to 8) (size 9 to 14) (size 15 to 20)
#    0.000    1.143    4.286    3.429    2.000    1.143 
#    0.000    2.857    0.000    0.000    0.000    0.000 
#    0.000    0.000    0.000    0.000    0.000    0.000 
#
# Total GULP energy -77956.348135 kJ/mol
# GULP energy per Si atom -5568.310581 kJ/mol
# Density = 2.114613 g / cm^3
# Si number density = 21.194370 Si / 1000 Ang^3
#
#
#
# Elastic Constant Matrix: (Units=GPa)
#
#
# Indices 1 2 3 4 5 6 
#
# 1 115.6570 31.9607 49.5485 3.7870 34.2299 -9.5230
# 2 31.9607 54.2380 27.9967 5.1720 20.6133 -24.7429
# 3 49.5485 27.9967 144.3335 6.2855 30.4534 -19.9698
# 4 3.7870 5.1720 6.2855 32.3673 -10.9436 6.8758
# 5 34.2299 20.6133 30.4534 -10.9436 56.4722 -0.6425
# 6 -9.5230 -24.7429 -19.9698 6.8758 -0.6425 36.2385
#
#
#
# Elastic Compliance Matrix: (Units=1/GPa)
#
#
# Indices 1 2 3 4 5 6 
#
# 1 0.012325 -0.004327 -0.002370 -0.001809 -0.004973 -0.000766
# 2 -0.004327 0.044092 0.002360 -0.020369 -0.018307 0.033809
# 3 -0.002370 0.002360 0.009717 -0.005438 -0.005636 0.007275
# 4 -0.001809 -0.020369 -0.005438 0.047875 0.020445 -0.026101
# 5 -0.004973 -0.018307 -0.005636 0.020445 0.034176 -0.020185
# 6 -0.000766 0.033809 0.007275 -0.026101 -0.020185 0.059081
#
#
# Mechanical properties :
#
#
# Convention : Reuss Voigt Hill
#
# Bulk Modulus (GPa) = 17.40309 59.24893 38.32601
# Shear Modulus (GPa) = 21.26831 38.66376 29.96604
#
# Velocity S-wave (km/s) = 3.17123 4.27575 3.76422
# Velocity P-wave (km/s) = 4.65166 7.23822 6.08398
#
# Compressibility (1/GPa) = 0.05746107
#
# Stress axis : x y z
#
# Youngs Moduli (GPa) = 81.13594 22.67994 102.91618
#
# Poissons Ratio (x) = 0.09813 0.24390
# Poissons Ratio (y) = 0.35104 -0.24290
# Poissons Ratio (z) = 0.19228 -0.05353
#
# Static dielectric constant tensor:
#      x y z
#    x 1.905510 0.003330 -0.019810 
#    y 0.003330 1.757450 -0.014300 
#    z -0.019810 -0.014300 1.925220 
# 
# From -- ./inp_files/395422.got.cif
#   From: 2010.05.17/outbox.cif.g08.bks.cpg/sg2_198_cif.got.tgz:395422.got - 2010.06.03 11:33:40.
