data_PCOD9102855
_publ_section_title
;
Structure prediction by ZEFSAII (Michael W. Deem and Ramdas Pophale) SiO2 
 PCOD9102855
Probable space group: P -1
;
_chemical_formula_sum "Si O2"
_cell_formula_units_Z 14
_cell_length_a 8.315030
_cell_length_b 12.070500
_cell_length_c 13.347121
_cell_angle_alpha 36.518343
_cell_angle_beta 55.660577
_cell_angle_gamma 54.180391
_cell_volume 634.077545
_symmetry_space_group_name_H-M "P -1"
_symmetry_group_IT_number 2
_symmetry_cell_setting 'triclinic'
loop_
_space_group_symop_operation_xyz
x,y,z
-x,-y,-z
loop_
_atom_site_type_symbol
_atom_site_label
_atom_site_fract_x
_atom_site_fract_y
_atom_site_fract_z
Si Si1 0.960304 0.560354 0.643189
Si Si2 0.900516 0.006489 0.918528
Si Si3 0.346076 0.661633 0.503808
Si Si4 0.846535 0.755245 0.353990
Si Si5 0.903357 0.366120 0.995707
Si Si6 0.309283 0.462524 0.864777
Si Si7 0.525175 0.016812 0.152203
O O1 0.113174 0.671121 0.555614
O O2 0.110245 0.382335 0.658123
O O3 0.805289 0.663885 0.537787
O O4 0.845758 0.487324 0.826010
O O5 0.933372 0.208657 0.726973
O O6 0.024034 0.851285 0.911040
O O7 0.681233 0.977196 0.032289
O O8 0.000000 0.000000 0.000000
O O9 0.500000 0.500000 0.500000
O O10 0.385632 0.576482 0.665422
O O11 0.384610 0.870134 0.314116
O O12 0.670580 0.942669 0.250871
O O13 0.744605 0.410829 0.108071
O O14 0.102109 0.423665 0.923449
O O15 0.434854 0.246353 0.010234
#
# Coordination Sequence:
#
# PCOD9102855 Si02
#       7
#     2   2   2   2   2   2   2
#     4  10  20  38  64  90 128 166 208 269 315 377
#     4  10  20  38  65  90 122 163 221 255 308 383
#     4  11  22  40  64 101 126 161 217 274 322 365
#     4  10  21  38  62  95 124 166 214 263 316 377
#     4  10  20  45  59  93 129 173 210 254 333 381
#     4  10  25  40  66  90 138 168 206 268 322 387
#     4  11  22  41  63  99 126 160 220 267 314 377
#
# _framework density 22.079318000000001
#
# number of rings (size 3 to 8) (size 9 to 14) (size 15 to 20)
#    0.000    1.714    4.286    0.857    4.000    1.143 
#    2.571    5.714    0.000    0.000    0.000    0.000 
#    0.000    0.000    0.000    0.000    0.000    0.000 
#
# Total GULP energy -78011.622308 kJ/mol
# GULP energy per Si atom -5572.258736 kJ/mol
# Density = 2.202906 g / cm^3
# Si number density = 22.079318 Si / 1000 Ang^3
#
#
#
# Elastic Constant Matrix: (Units=GPa)
#
#
# Indices 1 2 3 4 5 6 
#
# 1 46.8310 18.3705 40.1769 1.9506 -1.0202 9.7282
# 2 18.3705 129.4256 60.9930 15.5384 8.6864 12.1992
# 3 40.1769 60.9930 118.3061 13.1443 15.9935 3.3457
# 4 1.9506 15.5384 13.1443 34.7578 11.2328 3.3953
# 5 -1.0202 8.6864 15.9935 11.2328 49.7717 -9.9632
# 6 9.7282 12.1992 3.3457 3.3953 -9.9632 22.7260
#
#
#
# Elastic Compliance Matrix: (Units=1/GPa)
#
#
# Indices 1 2 3 4 5 6 
#
# 1 0.034300 0.002032 -0.012772 0.003039 0.000981 -0.013917
# 2 0.002032 0.011076 -0.005909 -0.002011 -0.000733 -0.005966
# 3 -0.012772 -0.005909 0.016342 -0.002416 -0.002868 0.005337
# 4 0.003039 -0.002011 -0.002416 0.033880 -0.008159 -0.008504
# 5 0.000981 -0.000733 -0.002868 -0.008159 0.025570 0.012825
# 6 -0.013917 -0.005966 0.005337 -0.008504 0.012825 0.059270
#
#
# Mechanical properties :
#
#
# Convention : Reuss Voigt Hill
#
# Bulk Modulus (GPa) = 35.18890 59.29373 47.24131
# Shear Modulus (GPa) = 22.40057 33.11927 27.75992
#
# Velocity S-wave (km/s) = 3.18866 3.87720 3.54966
# Velocity P-wave (km/s) = 5.43404 6.85250 6.18407
#
# Compressibility (1/GPa) = 0.02841805
#
# Stress axis : x y z
#
# Youngs Moduli (GPa) = 29.15476 90.28847 61.19320
#
# Poissons Ratio (x) = -0.18344 0.78158
# Poissons Ratio (y) = -0.05923 0.36158
# Poissons Ratio (z) = 0.37238 0.53349
#
# Static dielectric constant tensor:
#      x y z
#    x 1.910860 -0.010690 -0.018650 
#    y -0.010690 1.831920 -0.016060 
#    z -0.018650 -0.016060 1.962030 
# 
# From -- ./inp_files/388718.got.cif
#   From: 2010.05.17/outbox.cif.g08.bks.cpg/sg2_195_cif.got.tgz:388718.got - 2010.06.03 11:33:40.
