data_PCOD9102073
_publ_section_title
;
Structure prediction by ZEFSAII (Michael W. Deem and Ramdas Pophale) SiO2 
 PCOD9102073
Probable space group: P -1
;
_chemical_formula_sum "Si O2"
_cell_formula_units_Z 16
_cell_length_a 24.015602
_cell_length_b 9.482864
_cell_length_c 9.134928
_cell_angle_alpha 132.846801
_cell_angle_beta 33.506976
_cell_angle_gamma 132.257488
_cell_volume 812.935279
_symmetry_space_group_name_H-M "P -1"
_symmetry_group_IT_number 2
_symmetry_cell_setting 'triclinic'
loop_
_space_group_symop_operation_xyz
x,y,z
-x,-y,-z
loop_
_atom_site_type_symbol
_atom_site_label
_atom_site_fract_x
_atom_site_fract_y
_atom_site_fract_z
Si Si1 0.105642 0.498074 0.848315
Si Si2 0.234750 0.325854 0.789655
Si Si3 0.975634 0.769573 0.922159
Si Si4 0.408018 0.977305 0.569804
Si Si5 0.315804 0.662824 0.316624
Si Si6 0.766207 0.273221 0.034169
Si Si7 0.210901 0.864805 0.441427
Si Si8 0.398071 0.383596 0.730599
O O1 0.208560 0.555291 0.562544
O O2 0.129461 0.649164 0.042189
O O3 0.081181 0.287837 0.838142
O O4 0.000000 0.500000 0.000000
O O5 0.278513 0.527922 0.740734
O O6 0.299905 0.345660 0.808525
O O7 0.230217 0.105566 0.581325
O O8 0.112647 0.329718 0.073300
O O9 0.091242 0.741313 0.651819
O O10 0.000000 0.000000 0.000000
O O11 0.414346 0.179455 0.612980
O O12 0.500000 0.000000 0.500000
O O13 0.394376 0.803872 0.356719
O O14 0.304470 0.903733 0.842001
O O15 0.283345 0.795147 0.352314
O O16 0.370836 0.510899 0.013110
O O17 0.771765 0.197495 0.805201
O O18 0.500000 0.500000 0.500000
#
# Coordination Sequence:
#
# PCOD9102073 Si02
#       8
#     2   2   2   2   2   2   2   2
#     4  10  20  38  61  95 135 172 209 259 316 382
#     4  10  21  40  62  96 129 165 215 266 307 383
#     4   9  20  34  62  94 132 166 213 255 310 377
#     4  11  26  46  65  93 131 165 213 278 329 379
#     4  11  24  42  70  95 130 173 214 263 328 381
#     4  10  23  38  64  95 128 165 219 261 318 377
#     4  11  20  39  68  96 129 175 212 259 322 376
#     4  12  26  43  69  97 125 168 224 269 320 391
#
# _framework density 19.681763
#
# number of rings (size 3 to 8) (size 9 to 14) (size 15 to 20)
#    0.000    1.500    3.750    0.750    0.000    9.000 
#    0.000    0.000    0.000   10.500    0.000    0.000 
#    0.000    0.000    0.000    0.000    0.000    0.000 
#
# Total GULP energy -89151.827212 kJ/mol
# GULP energy per Si atom -5571.989201 kJ/mol
# Density = 1.963697 g / cm^3
# Si number density = 19.681763 Si / 1000 Ang^3
#
#
#
# Elastic Constant Matrix: (Units=GPa)
#
#
# Indices 1 2 3 4 5 6 
#
# 1 165.9657 49.7698 34.0906 -2.8381 3.5385 21.0267
# 2 49.7698 137.1625 44.8643 -9.3372 12.9176 -6.7141
# 3 34.0906 44.8643 62.9341 1.9913 23.1892 16.6629
# 4 -2.8381 -9.3372 1.9913 22.0240 0.9007 5.6988
# 5 3.5385 12.9176 23.1892 0.9007 35.1008 -1.6746
# 6 21.0267 -6.7141 16.6629 5.6988 -1.6746 35.5612
#
#
#
# Elastic Compliance Matrix: (Units=1/GPa)
#
#
# Indices 1 2 3 4 5 6 
#
# 1 0.007653 -0.002473 -0.001618 0.001177 0.000968 -0.004377
# 2 -0.002473 0.012055 -0.010780 0.003464 0.003246 0.008388
# 3 -0.001618 -0.010780 0.037592 -0.002291 -0.021568 -0.019342
# 4 0.001177 0.003464 -0.002291 0.049078 -0.001468 -0.006903
# 5 0.000968 0.003246 -0.021568 -0.001468 0.042074 0.012363
# 6 -0.004377 0.008388 -0.019342 -0.006903 0.012363 0.043044
#
#
# Mechanical properties :
#
#
# Convention : Reuss Voigt Hill
#
# Bulk Modulus (GPa) = 36.28790 69.27906 52.78348
# Shear Modulus (GPa) = 21.69913 34.35971 28.02942
#
# Velocity S-wave (km/s) = 3.32399 4.18277 3.77786
# Velocity P-wave (km/s) = 5.76275 7.65529 6.77542
#
# Compressibility (1/GPa) = 0.02755740
#
# Stress axis : x y z
#
# Youngs Moduli (GPa) = 130.66170 82.95453 26.60159
#
# Poissons Ratio (x) = 0.20517 0.04303
# Poissons Ratio (y) = 0.32316 0.28677
# Poissons Ratio (z) = 0.21137 0.89428
#
# Static dielectric constant tensor:
#      x y z
#    x 1.730060 0.044470 -0.031570 
#    y 0.044470 1.825170 -0.045070 
#    z -0.031570 -0.045070 1.710450 
# 
# From -- ./inp_files/208503.got.cif
#   From: 2010.05.17/outbox.cif.g08.bks.cpg/sg2_105_cif.got.tgz:208503.got - 2010.06.03 11:33:40.
