data_PCOD9102258
_publ_section_title
;
Structure prediction by ZEFSAII (Michael W. Deem and Ramdas Pophale) SiO2 
 PCOD9102258
Probable space group: P -1
;
_chemical_formula_sum "Si O2"
_cell_formula_units_Z 16
_cell_length_a 16.796493
_cell_length_b 8.793580
_cell_length_c 6.756303
_cell_angle_alpha 55.011586
_cell_angle_beta 59.907311
_cell_angle_gamma 65.063663
_cell_volume 694.591206
_symmetry_space_group_name_H-M "P -1"
_symmetry_group_IT_number 2
_symmetry_cell_setting 'triclinic'
loop_
_space_group_symop_operation_xyz
x,y,z
-x,-y,-z
loop_
_atom_site_type_symbol
_atom_site_label
_atom_site_fract_x
_atom_site_fract_y
_atom_site_fract_z
Si Si1 0.108623 0.431710 0.057374
Si Si2 0.246674 0.909321 0.404787
Si Si3 0.654563 0.240322 0.991554
Si Si4 0.713488 0.456702 0.095096
Si Si5 0.043623 0.129899 0.593323
Si Si6 0.956906 0.792808 0.001924
Si Si7 0.490194 0.297825 0.888062
Si Si8 0.588596 0.043988 0.602616
O O1 0.036283 0.326383 0.343863
O O2 0.055229 0.647422 0.950078
O O3 0.206248 0.424092 0.052038
O O4 0.117969 0.312880 0.930690
O O5 0.283309 0.890145 0.149710
O O6 0.267660 0.704338 0.638716
O O7 0.311974 0.022194 0.364601
O O8 0.140875 0.006494 0.490999
O O9 0.571583 0.363297 0.868992
O O10 0.719233 0.357101 0.947282
O O11 0.609940 0.125897 0.303025
O O12 0.605698 0.563224 0.149049
O O13 0.053651 0.176060 0.775881
O O14 0.965847 0.000745 0.758566
O O15 0.533420 0.205152 0.698126
O O16 0.464000 0.129728 0.181617
#
# Coordination Sequence:
#
# PCOD9102258 Si02
#       8
#     2   2   2   2   2   2   2   2
#     4  11  23  43  66 100 129 166 214 265 327 387
#     4  10  22  40  59  92 129 167 216 265 318 383
#     4  10  22  38  61  89 127 175 211 264 322 380
#     4  11  23  39  60  92 131 164 217 267 315 385
#     4  11  22  44  70  95 129 170 213 266 326 385
#     4  10  24  44  69  96 129 166 212 269 328 388
#     4  10  20  38  62  89 124 168 216 268 319 377
#     4   9  20  38  61  88 125 165 218 269 316 382
#
# _framework density 23.035129000000001
#
# number of rings (size 3 to 8) (size 9 to 14) (size 15 to 20)
#    0.000    1.750    1.250    2.250    0.000    8.500 
#    2.250    2.500    0.000    0.000    0.000    0.000 
#    0.000    0.000    0.000    0.000    0.000    0.000 
#
# Total GULP energy -89359.235504 kJ/mol
# GULP energy per Si atom -5584.952219 kJ/mol
# Density = 2.298270 g / cm^3
# Si number density = 23.035129 Si / 1000 Ang^3
#
#
#
# Elastic Constant Matrix: (Units=GPa)
#
#
# Indices 1 2 3 4 5 6 
#
# 1 137.6721 47.5567 41.5691 15.1345 12.4098 20.8223
# 2 47.5567 57.0042 43.0344 9.0671 8.0551 22.5027
# 3 41.5691 43.0344 82.9311 13.4617 19.2419 20.0886
# 4 15.1345 9.0671 13.4617 33.7157 9.4739 -4.6551
# 5 12.4098 8.0551 19.2419 9.4739 26.3168 1.6187
# 6 20.8223 22.5027 20.0886 -4.6551 1.6187 21.9404
#
#
#
# Elastic Compliance Matrix: (Units=1/GPa)
#
#
# Indices 1 2 3 4 5 6 
#
# 1 0.010614 -0.006569 -0.000162 -0.003006 -0.001566 -0.003710
# 2 -0.006569 0.045824 -0.011779 -0.010066 0.003298 -0.032358
# 3 -0.000162 -0.011779 0.024094 -0.004453 -0.011723 -0.009906
# 4 -0.003006 -0.010066 -0.004453 0.041689 -0.008899 0.026756
# 5 -0.001566 0.003298 -0.011723 -0.008899 0.049299 0.003311
# 6 -0.003710 -0.032358 -0.009906 0.026756 0.003311 0.096789
#
#
# Mechanical properties :
#
#
# Convention : Reuss Voigt Hill
#
# Bulk Modulus (GPa) = 22.98205 60.21421 41.59813
# Shear Modulus (GPa) = 15.63313 26.09104 20.86208
#
# Velocity S-wave (km/s) = 2.60795 3.36916 3.01269
# Velocity P-wave (km/s) = 4.36659 6.42899 5.49541
#
# Compressibility (1/GPa) = 0.04351222
#
# Stress axis : x y z
#
# Youngs Moduli (GPa) = 94.21147 21.82247 41.50410
#
# Poissons Ratio (x) = 0.14336 0.00670
# Poissons Ratio (y) = 0.61891 0.48889
# Poissons Ratio (z) = 0.01522 0.25706
#
# Static dielectric constant tensor:
#      x y z
#    x 1.888230 0.024930 -0.007060 
#    y 0.024930 1.882570 -0.035090 
#    z -0.007060 -0.035090 1.886200 
# 
# From -- ./inp_files/106199.got.cif
#   From: 2010.05.17/outbox.cif.g08.bks.cpg/sg2_54_cif.got.tgz:106199.got - 2010.06.03 11:33:40.
