data_PCOD9102017
_publ_section_title
;
Structure prediction by ZEFSAII (Michael W. Deem and Ramdas Pophale) SiO2 
 PCOD9102017
Probable space group: P -1
;
_chemical_formula_sum "Si O2"
_cell_formula_units_Z 16
_cell_length_a 14.380222
_cell_length_b 8.410220
_cell_length_c 8.650031
_cell_angle_alpha 128.107686
_cell_angle_beta 106.757233
_cell_angle_gamma 51.657815
_cell_volume 638.001176
_symmetry_space_group_name_H-M "P -1"
_symmetry_group_IT_number 2
_symmetry_cell_setting 'triclinic'
loop_
_space_group_symop_operation_xyz
x,y,z
-x,-y,-z
loop_
_atom_site_type_symbol
_atom_site_label
_atom_site_fract_x
_atom_site_fract_y
_atom_site_fract_z
Si Si1 0.214011 0.316772 0.316577
Si Si2 0.690790 0.017097 0.254394
Si Si3 0.239235 0.828842 0.892455
Si Si4 0.995140 0.972580 0.797742
Si Si5 0.617674 0.408609 0.900058
Si Si6 0.561851 0.751999 0.778806
Si Si7 0.192445 0.112772 0.450521
Si Si8 0.889979 0.485914 0.903685
O O1 0.335888 0.280117 0.301820
O O2 0.189098 0.333206 0.496435
O O3 0.115086 0.542888 0.298986
O O4 0.205595 0.091508 0.110399
O O5 0.762111 0.738426 0.045978
O O6 0.675453 0.202063 0.223219
O O7 0.553626 0.166044 0.332053
O O8 0.783254 0.945321 0.393139
O O9 0.293362 0.630597 0.939227
O O10 0.132891 0.855457 0.761281
O O11 0.925652 0.859215 0.644929
O O12 0.914326 0.248716 0.855584
O O13 0.000000 0.000000 0.000000
O O14 0.602457 0.551909 0.818520
O O15 0.684662 0.127421 0.705599
O O16 0.500000 0.500000 0.000000
O O17 0.500000 0.000000 0.000000
O O18 0.000000 0.500000 0.000000
#
# Coordination Sequence:
#
# PCOD9102017 Si02
#       8
#     2   2   2   2   2   2   2   2
#     4  10  20  38  61  91 127 169 216 258 305 392
#     4  11  24  42  66  97 136 166 208 283 327 366
#     4  10  20  40  64  95 126 163 222 264 312 389
#     4  12  21  40  72  94 123 175 224 258 316 396
#     4  11  21  40  69  95 122 172 219 262 313 393
#     4  12  21  38  70  94 126 175 222 257 317 390
#     4  11  25  42  64  97 138 164 213 276 326 371
#     4  11  20  40  69  92 125 171 220 260 316 393
#
# _framework density 25.078320999999999
#
# number of rings (size 3 to 8) (size 9 to 14) (size 15 to 20)
#    0.000    1.000    8.750    1.500    0.000    1.500 
#    0.000    2.500    5.500    0.000    0.000    0.000 
#    0.000    0.000    0.000    0.000    0.000    0.000 
#
# Total GULP energy -89196.853895 kJ/mol
# GULP energy per Si atom -5574.803368 kJ/mol
# Density = 2.502124 g / cm^3
# Si number density = 25.078321 Si / 1000 Ang^3
#
#
#
# Elastic Constant Matrix: (Units=GPa)
#
#
# Indices 1 2 3 4 5 6 
#
# 1 145.2661 40.5978 18.4857 -13.7782 7.6107 -13.1128
# 2 40.5978 135.4101 20.1817 -36.9955 1.4920 9.4802
# 3 18.4857 20.1817 69.4917 -33.3013 4.7782 1.1644
# 4 -13.7782 -36.9955 -33.3013 51.7982 -8.0407 -6.3865
# 5 7.6107 1.4920 4.7782 -8.0407 24.3084 -12.8628
# 6 -13.1128 9.4802 1.1644 -6.3865 -12.8628 43.0994
#
#
#
# Elastic Compliance Matrix: (Units=1/GPa)
#
#
# Indices 1 2 3 4 5 6 
#
# 1 0.008025 -0.002471 -0.001630 -0.000456 -0.000741 0.002741
# 2 -0.002471 0.010038 0.001173 0.007339 0.001600 -0.001427
# 3 -0.001630 0.001173 0.021310 0.014548 0.001780 0.001357
# 4 -0.000456 0.007339 0.014548 0.036619 0.012684 0.007066
# 5 -0.000741 0.001600 0.001780 0.012684 0.054367 0.017480
# 6 0.002741 -0.001427 0.001357 0.007066 0.017480 0.030577
#
#
# Mechanical properties :
#
#
# Convention : Reuss Voigt Hill
#
# Bulk Modulus (GPa) = 29.83721 56.52201 43.17961
# Shear Modulus (GPa) = 28.09532 41.90138 34.99835
#
# Velocity S-wave (km/s) = 3.35072 4.09200 3.73977
# Velocity P-wave (km/s) = 5.18587 6.70172 5.99193
#
# Compressibility (1/GPa) = 0.03351519
#
# Stress axis : x y z
#
# Youngs Moduli (GPa) = 124.61049 99.61805 46.92723
#
# Poissons Ratio (x) = 0.24618 0.07651
# Poissons Ratio (y) = 0.30794 -0.05503
# Poissons Ratio (z) = 0.20317 -0.11683
#
# Static dielectric constant tensor:
#      x y z
#    x 2.288320 0.044800 0.056870 
#    y 0.044800 2.086230 -0.003540 
#    z 0.056870 -0.003540 2.187980 
# 
# From -- ./inp_files/296201.got.cif
#   From: 2010.05.17/outbox.cif.g08.bks.cpg/sg2_149_cif.got.tgz:296201.got - 2010.06.03 11:33:40.
