data_PCOD9102605
_publ_section_title
;
Structure prediction by ZEFSAII (Michael W. Deem and Ramdas Pophale) SiO2 
 PCOD9102605
Probable space group: P -1
;
_chemical_formula_sum "Si O2"
_cell_formula_units_Z 14
_cell_length_a 9.272786
_cell_length_b 10.954982
_cell_length_c 12.833914
_cell_angle_alpha 117.649858
_cell_angle_beta 39.895808
_cell_angle_gamma 121.371560
_cell_volume 708.952578
_symmetry_space_group_name_H-M "P -1"
_symmetry_group_IT_number 2
_symmetry_cell_setting 'triclinic'
loop_
_space_group_symop_operation_xyz
x,y,z
-x,-y,-z
loop_
_atom_site_type_symbol
_atom_site_label
_atom_site_fract_x
_atom_site_fract_y
_atom_site_fract_z
Si Si1 0.780859 0.061620 0.368607
Si Si2 0.945341 0.142294 0.541734
Si Si3 0.772939 0.238094 0.246036
Si Si4 0.970759 0.459629 0.880003
Si Si5 0.181399 0.944862 0.053448
Si Si6 0.670044 0.661316 0.470356
Si Si7 0.385756 0.802579 0.075916
O O1 0.871117 0.120780 0.455498
O O2 0.847969 0.181662 0.289044
O O3 0.500000 0.000000 0.500000
O O4 0.915282 0.943892 0.219462
O O5 0.738890 0.166515 0.737575
O O6 0.178624 0.274967 0.485888
O O7 0.000000 0.000000 0.500000
O O8 0.504275 0.242582 0.412490
O O9 0.928409 0.396788 0.187205
O O10 0.785389 0.131264 0.102455
O O11 0.706888 0.367814 0.960962
O O12 0.130459 0.352473 0.725898
O O13 0.000000 0.500000 0.000000
O O14 0.284284 0.870568 0.060506
O O15 0.342320 0.111048 0.031938
O O16 0.500000 0.500000 0.500000
#
# Coordination Sequence:
#
# PCOD9102605 Si02
#       7
#     2   2   2   2   2   2   2
#     4  12  26  39  62  96 134 168 207 265 326 373
#     4  11  20  38  62  88 123 164 213 256 306 372
#     4  11  23  40  62  95 129 166 207 261 322 373
#     4  10  20  38  63  92 125 163 210 257 307 377
#     4  11  22  38  64  93 125 160 212 267 312 375
#     4   9  21  38  62  92 123 164 217 253 302 377
#     4  10  21  37  63  94 119 157 221 264 306 363
#
# _framework density 19.747444000000002
#
# number of rings (size 3 to 8) (size 9 to 14) (size 15 to 20)
#    0.000    1.429    2.857    3.000    4.000    0.000 
#    0.000    7.143    0.000    1.714    0.000    0.000 
#    0.000    0.000    0.000    0.000    0.000    0.000 
#
# Total GULP energy -78131.104339 kJ/mol
# GULP energy per Si atom -5580.793167 kJ/mol
# Density = 1.970250 g / cm^3
# Si number density = 19.747444 Si / 1000 Ang^3
#
#
#
# Elastic Constant Matrix: (Units=GPa)
#
#
# Indices 1 2 3 4 5 6 
#
# 1 132.1632 53.8554 64.0596 6.9321 20.9509 -0.0835
# 2 53.8554 113.1484 29.8539 -14.3638 9.8301 22.2453
# 3 64.0596 29.8539 89.1425 14.4525 16.6521 8.3237
# 4 6.9321 -14.3638 14.4525 31.6702 5.7610 5.5126
# 5 20.9509 9.8301 16.6521 5.7610 43.1304 -9.2133
# 6 -0.0835 22.2453 8.3237 5.5126 -9.2133 33.3248
#
#
#
# Elastic Compliance Matrix: (Units=1/GPa)
#
#
# Indices 1 2 3 4 5 6 
#
# 1 0.014424 -0.006441 -0.008203 -0.003441 -0.000453 0.006829
# 2 -0.006441 0.017230 -0.000871 0.013218 -0.005429 -0.014987
# 3 -0.008203 -0.000871 0.019425 -0.006111 -0.003402 -0.004221
# 4 -0.003441 0.013218 -0.006111 0.045721 -0.008784 -0.017297
# 5 -0.000453 -0.005429 -0.003402 -0.008784 0.030178 0.014269
# 6 0.006829 -0.014987 -0.004221 -0.017297 0.014269 0.047890
#
#
# Mechanical properties :
#
#
# Convention : Reuss Voigt Hill
#
# Bulk Modulus (GPa) = 49.88044 69.99910 59.93977
# Shear Modulus (GPa) = 23.52060 34.07074 28.79567
#
# Velocity S-wave (km/s) = 3.45493 4.15821 3.82278
# Velocity P-wave (km/s) = 6.42102 7.65365 7.06427
#
# Compressibility (1/GPa) = 0.02004794
#
# Stress axis : x y z
#
# Youngs Moduli (GPa) = 69.33017 58.03951 51.48002
#
# Poissons Ratio (x) = 0.37382 0.42230
# Poissons Ratio (y) = 0.44655 0.04484
# Poissons Ratio (z) = 0.56873 0.05056
#
# Static dielectric constant tensor:
#      x y z
#    x 1.665590 0.009510 -0.025400 
#    y 0.009510 1.725710 -0.013840 
#    z -0.025400 -0.013840 1.708730 
# 
# From -- ./inp_files/154258.got.cif
#   From: 2010.05.17/outbox.cif.g08.bks.cpg/sg2_78_cif.got.tgz:154258.got - 2010.06.03 11:33:40.
