data_PCOD9102457
_publ_section_title
;
Structure prediction by ZEFSAII (Michael W. Deem and Ramdas Pophale) SiO2 
 PCOD9102457
Probable space group: P -1
;
_chemical_formula_sum "Si O2"
_cell_formula_units_Z 16
_cell_length_a 8.562317
_cell_length_b 8.215069
_cell_length_c 17.293426
_cell_angle_alpha 49.822979
_cell_angle_beta 74.693289
_cell_angle_gamma 58.869677
_cell_volume 791.059440
_symmetry_space_group_name_H-M "P -1"
_symmetry_group_IT_number 2
_symmetry_cell_setting 'triclinic'
loop_
_space_group_symop_operation_xyz
x,y,z
-x,-y,-z
loop_
_atom_site_type_symbol
_atom_site_label
_atom_site_fract_x
_atom_site_fract_y
_atom_site_fract_z
Si Si1 0.109732 0.471806 0.170467
Si Si2 0.714217 0.370916 0.031065
Si Si3 0.502725 0.539456 0.308540
Si Si4 0.133762 0.501749 0.341428
Si Si5 0.247369 0.533327 0.834952
Si Si6 0.578196 0.042847 0.688706
Si Si7 0.668373 0.031549 0.504615
Si Si8 0.210942 0.010665 0.744264
O O1 0.130219 0.510702 0.245972
O O2 0.905606 0.522257 0.163366
O O3 0.253952 0.189851 0.224186
O O4 0.171782 0.617829 0.059593
O O5 0.732270 0.511142 0.061829
O O6 0.781853 0.100061 0.137104
O O7 0.500000 0.500000 0.000000
O O8 0.309035 0.535623 0.332109
O O9 0.567185 0.589018 0.201873
O O10 0.489106 0.731831 0.314728
O O11 0.655470 0.270429 0.395353
O O12 0.946616 0.720667 0.327891
O O13 0.163934 0.237638 0.443741
O O14 0.181358 0.821308 0.753720
O O15 0.639306 0.083143 0.584060
O O16 0.410633 0.984712 0.712656
O O17 0.500000 0.000000 0.500000
#
# Coordination Sequence:
#
# PCOD9102457 Si02
#       8
#     2   2   2   2   2   2   2   2
#     4  11  20  39  60  86 120 155 195 246 290 346
#     4  10  20  38  63  84 119 155 196 235 300 343
#     4  11  21  40  59  86 120 156 199 238 293 349
#     4  10  21  38  60  88 117 157 194 246 294 342
#     4  10  22  37  60  86 119 157 194 243 290 344
#     4  11  21  37  62  87 120 154 196 242 294 342
#     4   9  20  38  62  85 117 156 194 241 292 348
#     4  10  21  37  59  85 120 151 196 237 297 340
#
# _framework density 20.226040000000001
#
# number of rings (size 3 to 8) (size 9 to 14) (size 15 to 20)
#    0.750    1.000    1.250    5.250    0.000    0.500 
#    0.000   13.125    0.000    0.000    0.000    0.000 
#    0.000    0.000    0.000    0.000    0.000    0.000 
#
# Total GULP energy -89249.364685 kJ/mol
# GULP energy per Si atom -5578.085293 kJ/mol
# Density = 2.018000 g / cm^3
# Si number density = 20.226040 Si / 1000 Ang^3
#
#
#
# Elastic Constant Matrix: (Units=GPa)
#
#
# Indices 1 2 3 4 5 6 
#
# 1 48.5893 -17.0598 -10.7845 -3.8769 -0.0901 -3.3858
# 2 -17.0598 45.7865 -12.6701 -7.0148 7.2592 3.3959
# 3 -10.7845 -12.6701 37.9892 -1.4762 10.7857 -1.4277
# 4 -3.8769 -7.0148 -1.4762 19.2617 -2.3797 5.5066
# 5 -0.0901 7.2592 10.7857 -2.3797 21.5826 -1.4334
# 6 -3.3858 3.3959 -1.4277 5.5066 -1.4334 23.9924
#
#
#
# Elastic Compliance Matrix: (Units=1/GPa)
#
#
# Indices 1 2 3 4 5 6 
#
# 1 0.036890 0.026832 0.025671 0.017340 -0.019936 -0.002235
# 2 0.026832 0.050954 0.034338 0.025232 -0.032007 -0.009086
# 3 0.025671 0.034338 0.056367 0.018575 -0.037856 -0.004408
# 4 0.017340 0.025232 0.018575 0.069390 -0.011149 -0.016611
# 5 -0.019936 -0.032007 -0.037856 -0.011149 0.075137 0.006512
# 6 -0.002235 -0.009086 -0.004408 -0.016611 0.006512 0.046590
#
#
# Mechanical properties :
#
#
# Convention : Reuss Voigt Hill
#
# Bulk Modulus (GPa) = 3.14571 5.70404 4.42488
# Shear Modulus (GPa) = 18.68386 24.49263 21.58825
#
# Velocity S-wave (km/s) = 3.04263 3.48364 3.27058
# Velocity P-wave (km/s) = 3.72855 4.35973 4.05644
#
# Compressibility (1/GPa) = 0.31789299
#
# Stress axis : x y z
#
# Youngs Moduli (GPa) = 27.10756 19.62556 17.74089
#
# Poissons Ratio (x) = -0.52659 -0.45543
# Poissons Ratio (y) = -0.72735 -0.60918
# Poissons Ratio (z) = -0.69589 -0.67389
#
# Static dielectric constant tensor:
#      x y z
#    x 1.673910 0.008600 0.005110 
#    y 0.008600 1.718000 -0.008970 
#    z 0.005110 -0.008970 1.733080 
# 
# From -- ./inp_files/325307.got.cif
#   From: 2010.05.17/outbox.cif.g08.bks.cpg/sg2_163_cif.got.tgz:325307.got - 2010.06.03 11:33:40.
