data_PCOD9102143
_publ_section_title
;
Structure prediction by ZEFSAII (Michael W. Deem and Ramdas Pophale) SiO2 
 PCOD9102143
Probable space group: P -1
;
_chemical_formula_sum "Si O2"
_cell_formula_units_Z 16
_cell_length_a 8.941260
_cell_length_b 19.642340
_cell_length_c 8.937577
_cell_angle_alpha 128.615369
_cell_angle_beta 104.379656
_cell_angle_gamma 116.827507
_cell_volume 711.161280
_symmetry_space_group_name_H-M "P -1"
_symmetry_group_IT_number 2
_symmetry_cell_setting 'triclinic'
loop_
_space_group_symop_operation_xyz
x,y,z
-x,-y,-z
loop_
_atom_site_type_symbol
_atom_site_label
_atom_site_fract_x
_atom_site_fract_y
_atom_site_fract_z
Si Si1 0.307842 0.044084 0.599343
Si Si2 0.644105 0.349776 0.060030
Si Si3 0.993015 0.573321 0.978558
Si Si4 0.225813 0.821436 0.592787
Si Si5 0.357419 0.963684 0.219245
Si Si6 0.856217 0.785709 0.316353
Si Si7 0.429703 0.494683 0.305889
Si Si8 0.062255 0.345611 0.416103
O O1 0.421298 0.001907 0.621227
O O2 0.309110 0.026636 0.396228
O O3 0.491195 0.206556 0.916675
O O4 0.036707 0.927805 0.454937
O O5 0.805810 0.502180 0.382761
O O6 0.843923 0.386042 0.063433
O O7 0.414219 0.288713 0.817358
O O8 0.715558 0.480973 0.726041
O O9 0.000000 0.500000 0.000000
O O10 0.133029 0.716469 0.291480
O O11 0.044773 0.826054 0.539144
O O12 0.127676 0.730268 0.594010
O O13 0.530187 0.967628 0.826357
O O14 0.106198 0.788165 0.922146
O O15 0.760089 0.665550 0.019487
O O16 0.500000 0.500000 0.500000
O O17 0.687895 0.601317 0.418160
#
# Coordination Sequence:
#
# PCOD9102143 Si02
#       8
#     2   2   2   2   2   2   2   2
#     4  10  20  38  62  86 118 164 206 250 307 373
#     4  11  22  36  61  92 118 156 199 267 301 355
#     4  11  22  39  65  91 125 163 209 256 309 370
#     4  10  20  39  61  87 118 166 209 247 304 380
#     4  10  21  37  62  86 119 164 207 248 306 375
#     4   9  21  37  61  88 119 159 213 251 303 369
#     4  10  23  40  61  90 126 168 204 251 315 375
#     4  11  23  37  61  90 125 156 202 259 314 363
#
# _framework density 22.498411000000001
#
# number of rings (size 3 to 8) (size 9 to 14) (size 15 to 20)
#    0.000    1.750    2.500    1.500    5.250    2.000 
#    2.250    0.000    2.750    1.500    0.000    0.000 
#    0.000    0.000    0.000    0.000    0.000    0.000 
#
# Total GULP energy -89153.111706 kJ/mol
# GULP energy per Si atom -5572.069482 kJ/mol
# Density = 2.244720 g / cm^3
# Si number density = 22.498411 Si / 1000 Ang^3
#
#
#
# Elastic Constant Matrix: (Units=GPa)
#
#
# Indices 1 2 3 4 5 6 
#
# 1 89.9830 15.6372 20.0015 8.6921 4.7978 -9.5065
# 2 15.6372 70.7092 25.4487 20.4040 5.0814 3.1683
# 3 20.0015 25.4487 87.8673 24.5780 1.1566 0.9858
# 4 8.6921 20.4040 24.5780 36.2906 -1.3843 5.0908
# 5 4.7978 5.0814 1.1566 -1.3843 27.1052 0.1422
# 6 -9.5065 3.1683 0.9858 5.0908 0.1422 32.0036
#
#
#
# Elastic Compliance Matrix: (Units=1/GPa)
#
#
# Indices 1 2 3 4 5 6 
#
# 1 0.012528 -0.001714 -0.002003 -0.001339 -0.001901 0.004174
# 2 -0.001714 0.018029 -0.002537 -0.008006 -0.003372 -0.000927
# 3 -0.002003 -0.002537 0.014876 -0.008249 -0.000229 0.000511
# 4 -0.001339 -0.008006 -0.008249 0.038900 0.004106 -0.005557
# 5 -0.001901 -0.003372 -0.000229 0.004106 0.038087 -0.001046
# 6 0.004174 -0.000927 0.000511 -0.005557 -0.001046 0.033451
#
#
# Mechanical properties :
#
#
# Convention : Reuss Voigt Hill
#
# Bulk Modulus (GPa) = 30.37181 41.19272 35.78226
# Shear Modulus (GPa) = 27.87786 31.57802 29.72794
#
# Velocity S-wave (km/s) = 3.52391 3.75048 3.63896
# Velocity P-wave (km/s) = 5.48508 6.09129 5.79611
#
# Compressibility (1/GPa) = 0.03292527
#
# Stress axis : x y z
#
# Youngs Moduli (GPa) = 79.82209 55.46691 67.22123
#
# Poissons Ratio (x) = 0.09506 0.13463
# Poissons Ratio (y) = 0.13680 0.17056
# Poissons Ratio (z) = 0.15986 0.14073
#
# Static dielectric constant tensor:
#      x y z
#    x 1.864920 -0.005340 0.013010 
#    y -0.005340 1.965390 -0.006610 
#    z 0.013010 -0.006610 1.882390 
# 
# From -- ./inp_files/224100.got.cif
#   From: 2010.05.17/outbox.cif.g08.bks.cpg/sg2_113_cif.got.tgz:224100.got - 2010.06.03 11:33:40.
