data_PCOD9102529
_publ_section_title
;
Structure prediction by ZEFSAII (Michael W. Deem and Ramdas Pophale) SiO2 
 PCOD9102529
Probable space group: P -1
;
_chemical_formula_sum "Si O2"
_cell_formula_units_Z 15
_cell_length_a 7.997091
_cell_length_b 16.972912
_cell_length_c 5.865160
_cell_angle_alpha 91.535992
_cell_angle_beta 85.780471
_cell_angle_gamma 130.905062
_cell_volume 599.817549
_symmetry_space_group_name_H-M "P -1"
_symmetry_group_IT_number 2
_symmetry_cell_setting 'triclinic'
loop_
_space_group_symop_operation_xyz
x,y,z
-x,-y,-z
loop_
_atom_site_type_symbol
_atom_site_label
_atom_site_fract_x
_atom_site_fract_y
_atom_site_fract_z
Si Si1 0.775861 0.158880 0.485885
Si Si2 0.620586 0.813490 0.043711
Si Si3 0.803756 0.329587 0.587858
Si Si4 0.529174 0.347665 0.335499
Si Si5 0.500000 0.500000 0.000000
Si Si6 0.188038 0.273479 0.750950
Si Si7 0.142744 0.464288 0.946303
Si Si8 0.636518 0.991780 0.170379
O O1 0.812703 0.259209 0.407587
O O2 0.529026 0.079794 0.608508
O O3 0.935845 0.200702 0.689855
O O4 0.808974 0.103393 0.285824
O O5 0.411494 0.744554 0.231884
O O6 0.790453 0.801804 0.121212
O O7 0.702676 0.928695 0.047844
O O8 0.535354 0.748553 0.813462
O O9 0.747839 0.390411 0.457599
O O10 0.002893 0.385699 0.748985
O O11 0.326741 0.307154 0.507422
O O12 0.602736 0.443569 0.176757
O O13 0.318409 0.381991 0.878824
O O14 0.258721 0.463657 0.156061
O O15 0.000000 0.500000 0.000000
O O16 0.500000 0.000000 0.000000
#
# Coordination Sequence:
#
# PCOD9102529 Si02
#       8
#     2   2   2   2   1   2   2   2
#     4  10  22  42  64  93 127 164 212 274 338 386
#     4  10  21  41  63  90 130 163 215 274 323 394
#     4  10  20  38  63  89 123 173 216 265 326 386
#     4  11  22  39  62  94 127 174 225 259 323 403
#     4  12  24  44  66  96 144 170 226 266 320 396
#     4  11  24  43  62  94 134 176 208 274 327 385
#     4  12  22  42  64  94 133 179 221 273 326 378
#     4  10  22  42  68  96 119 161 222 275 331 407
#
# _framework density 25.007605000000002
#
# number of rings (size 3 to 8) (size 9 to 14) (size 15 to 20)
#    0.000    1.333    4.000    2.000    0.000    3.200 
#    2.400    1.333    0.000    0.000    0.000    0.000 
#    0.000    0.000    0.000    0.000    0.000    0.000 
#
# Total GULP energy -83528.263469 kJ/mol
# GULP energy per Si atom -5568.550898 kJ/mol
# Density = 2.495069 g / cm^3
# Si number density = 25.007605 Si / 1000 Ang^3
#
#
#
# Elastic Constant Matrix: (Units=GPa)
#
#
# Indices 1 2 3 4 5 6 
#
# 1 97.4517 23.5452 5.2520 21.8604 22.7711 -6.4565
# 2 23.5452 78.2437 26.5532 38.4141 -7.0694 -24.1294
# 3 5.2520 26.5532 53.7053 31.8550 1.9062 -10.1153
# 4 21.8604 38.4141 31.8550 55.1689 0.0547 -11.1508
# 5 22.7711 -7.0694 1.9062 0.0547 42.8902 4.9071
# 6 -6.4565 -24.1294 -10.1153 -11.1508 4.9071 43.3821
#
#
#
# Elastic Compliance Matrix: (Units=1/GPa)
#
#
# Indices 1 2 3 4 5 6 
#
# 1 0.014053 -0.003546 0.003877 -0.005204 -0.008282 0.000622
# 2 -0.003546 0.023589 -0.003056 -0.011574 0.004967 0.008343
# 3 0.003877 -0.003056 0.029949 -0.016263 -0.004118 0.002146
# 4 -0.005204 -0.011574 -0.016263 0.037311 0.001714 -0.001608
# 5 -0.008282 0.004967 -0.004118 0.001714 0.028971 -0.002267
# 6 0.000622 0.008343 0.002146 -0.001608 -0.002267 0.028128
#
#
# Mechanical properties :
#
#
# Convention : Reuss Voigt Hill
#
# Bulk Modulus (GPa) = 16.09273 37.78906 26.94090
# Shear Modulus (GPa) = 26.57253 39.89158 33.23206
#
# Velocity S-wave (km/s) = 3.26326 3.99830 3.64933
# Velocity P-wave (km/s) = 4.54396 6.03813 5.34353
#
# Compressibility (1/GPa) = 0.06213985
#
# Stress axis : x y z
#
# Youngs Moduli (GPa) = 71.15806 42.39337 33.39046
#
# Poissons Ratio (x) = 0.15033 -0.12945
# Poissons Ratio (y) = 0.25233 0.10204
# Poissons Ratio (z) = -0.27587 0.12956
#
# Static dielectric constant tensor:
#      x y z
#    x 2.373920 -0.229060 0.179680 
#    y -0.229060 2.139150 -0.066030 
#    z 0.179680 -0.066030 2.167770 
# 
# From -- ./inp_files/38034.got.cif
#   From: 2010.05.17/outbox.cif.g08.bks.cpg/sg2_20_cif.got.tgz:38034.got - 2010.06.03 11:33:40.
