data_PCOD9102953
_publ_section_title
;
Structure prediction by ZEFSAII (Michael W. Deem and Ramdas Pophale) SiO2 
 PCOD9102953
Probable space group: P -1
;
_chemical_formula_sum "Si O2"
_cell_formula_units_Z 16
_cell_length_a 7.468553
_cell_length_b 13.881660
_cell_length_c 11.352025
_cell_angle_alpha 128.093671
_cell_angle_beta 53.420276
_cell_angle_gamma 96.248169
_cell_volume 678.563340
_symmetry_space_group_name_H-M "P -1"
_symmetry_group_IT_number 2
_symmetry_cell_setting 'triclinic'
loop_
_space_group_symop_operation_xyz
x,y,z
-x,-y,-z
loop_
_atom_site_type_symbol
_atom_site_label
_atom_site_fract_x
_atom_site_fract_y
_atom_site_fract_z
Si Si1 0.763594 0.322110 0.418802
Si Si2 0.445614 0.447670 0.856314
Si Si3 0.916079 0.519192 0.412746
Si Si4 0.908600 0.953868 0.884137
Si Si5 0.778669 0.932338 0.295329
Si Si6 0.667179 0.718160 0.057619
Si Si7 0.515934 0.225544 0.250523
Si Si8 0.746464 0.270972 0.950670
O O1 0.664285 0.385981 0.631612
O O2 0.745194 0.438303 0.423732
O O3 0.608871 0.253429 0.361396
O O4 0.030775 0.202024 0.241985
O O5 0.380699 0.324688 0.825628
O O6 0.500000 0.500000 0.000000
O O7 0.263315 0.582617 0.965409
O O8 0.767343 0.673704 0.559001
O O9 0.000000 0.500000 0.500000
O O10 0.135565 0.422429 0.175031
O O11 0.090305 0.972394 0.728625
O O12 0.631875 0.065110 0.065705
O O13 0.000000 0.000000 0.000000
O O14 0.767495 0.832308 0.120158
O O15 0.976470 0.837720 0.239896
O O16 0.500000 0.000000 0.500000
O O17 0.430907 0.757687 0.095547
O O18 0.633960 0.269526 0.123734
#
# Coordination Sequence:
#
# PCOD9102953 Si02
#       8
#     2   2   2   2   2   2   2   2
#     4  11  21  38  70  87 121 176 200 258 326 364
#     4  10  21  39  59  93 132 162 207 261 319 367
#     4  12  21  37  64  97 124 156 216 258 305 380
#     4   9  20  40  62  88 128 156 204 260 313 370
#     4  11  24  42  64  89 123 170 219 251 306 387
#     4  11  23  39  65  94 128 164 208 265 316 366
#     4  10  20  38  64  94 118 161 213 251 311 374
#     4  10  21  42  63  91 131 162 207 268 312 371
#
# _framework density 23.579228000000001
#
# number of rings (size 3 to 8) (size 9 to 14) (size 15 to 20)
#    0.000    1.500    2.500    4.125    1.750    1.000 
#    4.500    1.875    8.250    0.000    0.000    0.000 
#    0.000    0.000    0.000    0.000    0.000    0.000 
#
# Total GULP energy -89237.329463 kJ/mol
# GULP energy per Si atom -5577.333091 kJ/mol
# Density = 2.352556 g / cm^3
# Si number density = 23.579228 Si / 1000 Ang^3
#
#
#
# Elastic Constant Matrix: (Units=GPa)
#
#
# Indices 1 2 3 4 5 6 
#
# 1 94.1038 16.0958 47.2904 29.0144 -5.7453 -9.5830
# 2 16.0958 55.7532 17.1825 10.3516 -1.4447 -17.8561
# 3 47.2904 17.1825 91.1534 3.7238 -27.8157 -24.3757
# 4 29.0144 10.3516 3.7238 40.0213 -13.8435 -10.7926
# 5 -5.7453 -1.4447 -27.8157 -13.8435 37.2336 12.4510
# 6 -9.5830 -17.8561 -24.3757 -10.7926 12.4510 35.1452
#
#
#
# Elastic Compliance Matrix: (Units=1/GPa)
#
#
# Indices 1 2 3 4 5 6 
#
# 1 0.027531 0.000330 -0.021294 -0.026893 -0.018731 -0.008717
# 2 0.000330 0.023116 -0.003885 -0.005728 -0.007433 0.010015
# 3 -0.021294 -0.003885 0.033625 0.026389 0.026758 0.014166
# 4 -0.026893 -0.005728 0.026389 0.058608 0.032239 0.014636
# 5 -0.018731 -0.007433 0.026758 0.032239 0.055709 -0.000161
# 6 -0.008717 0.010015 0.014166 0.014636 -0.000161 0.045541
#
#
# Mechanical properties :
#
#
# Convention : Reuss Voigt Hill
#
# Bulk Modulus (GPa) = 28.92114 44.68310 36.80212
# Shear Modulus (GPa) = 16.37445 33.17614 24.77529
#
# Velocity S-wave (km/s) = 2.63809 3.75508 3.24501
# Velocity P-wave (km/s) = 4.64451 6.14753 5.44810
#
# Compressibility (1/GPa) = 0.03457678
#
# Stress axis : x y z
#
# Youngs Moduli (GPa) = 36.32208 43.25946 29.73946
#
# Poissons Ratio (x) = -0.01430 0.63326
# Poissons Ratio (y) = -0.01200 0.11554
# Poissons Ratio (z) = 0.77343 0.16806
#
# Static dielectric constant tensor:
#      x y z
#    x 2.008710 0.121330 -0.101430 
#    y 0.121330 2.063000 -0.052140 
#    z -0.101430 -0.052140 2.023470 
# 
# From -- ./inp_files/397604.got.cif
#   From: 2010.05.17/outbox.cif.g08.bks.cpg/sg2_199_cif.got.tgz:397604.got - 2010.06.03 11:33:40.
