data_PCOD9102410
_publ_section_title
;
Structure prediction by ZEFSAII (Michael W. Deem and Ramdas Pophale) SiO2 
 PCOD9102410
Probable space group: P -1
;
_chemical_formula_sum "Si O2"
_cell_formula_units_Z 16
_cell_length_a 9.425048
_cell_length_b 11.601651
_cell_length_c 18.203893
_cell_angle_alpha 40.696387
_cell_angle_beta 102.508100
_cell_angle_gamma 133.049977
_cell_volume 735.296487
_symmetry_space_group_name_H-M "P -1"
_symmetry_group_IT_number 2
_symmetry_cell_setting 'triclinic'
loop_
_space_group_symop_operation_xyz
x,y,z
-x,-y,-z
loop_
_atom_site_type_symbol
_atom_site_label
_atom_site_fract_x
_atom_site_fract_y
_atom_site_fract_z
Si Si1 0.342424 0.371889 0.791664
Si Si2 0.102707 0.753717 0.457770
Si Si3 0.115151 0.108995 0.380690
Si Si4 0.414392 0.871904 0.766645
Si Si5 0.277736 0.134943 0.656702
Si Si6 0.027799 0.303547 0.893645
Si Si7 0.897138 0.793633 0.286936
Si Si8 0.224525 0.878113 0.197787
O O1 0.603948 0.543609 0.756616
O O2 0.343850 0.470171 0.665017
O O3 0.246707 0.417338 0.818399
O O4 0.142587 0.017346 0.935803
O O5 0.943949 0.707005 0.401784
O O6 0.945802 0.439959 0.627404
O O7 0.146526 0.940666 0.435547
O O8 0.355070 0.938995 0.355787
O O9 0.000000 0.000000 0.500000
O O10 0.927831 0.029956 0.347531
O O11 0.167017 0.558573 0.847365
O O12 0.380767 0.042539 0.701955
O O13 0.503829 0.872575 0.854143
O O14 0.500000 0.500000 0.500000
O O15 0.135895 0.047000 0.758482
O O16 0.849752 0.209587 0.854112
O O17 0.122007 0.965301 0.173969
#
# Coordination Sequence:
#
# PCOD9102410 Si02
#       8
#     2   2   2   2   2   2   2   2
#     4  10  21  45  64  92 132 166 224 273 309 387
#     4  10  20  38  62  96 127 159 218 268 326 384
#     4  11  23  37  63  94 126 170 207 265 332 381
#     4  11  21  40  64  95 128 171 221 265 329 380
#     4  11  22  38  60  91 131 167 209 262 331 394
#     4  10  23  42  67  97 126 175 224 265 317 387
#     4   9  19  38  60  87 123 170 201 263 329 369
#     4  10  21  38  64  95 131 162 212 281 320 381
#
# _framework density 21.759931999999999
#
# number of rings (size 3 to 8) (size 9 to 14) (size 15 to 20)
#    0.000    1.750    1.250    4.500    1.750    1.500 
#    4.500    3.750    0.000    0.000    0.000    0.000 
#    0.000    0.000    0.000    0.000    0.000    0.000 
#
# Total GULP energy -89211.760326 kJ/mol
# GULP energy per Si atom -5575.735020 kJ/mol
# Density = 2.171041 g / cm^3
# Si number density = 21.759932 Si / 1000 Ang^3
#
#
#
# Elastic Constant Matrix: (Units=GPa)
#
#
# Indices 1 2 3 4 5 6 
#
# 1 142.3338 53.8952 22.9474 -12.9741 11.2623 4.6153
# 2 53.8952 168.1556 41.3809 -12.5967 2.2408 16.5504
# 3 22.9474 41.3809 42.0409 -11.2011 10.3856 -3.6450
# 4 -12.9741 -12.5967 -11.2011 28.4772 -0.8807 0.9370
# 5 11.2623 2.2408 10.3856 -0.8807 20.7107 -8.7443
# 6 4.6153 16.5504 -3.6450 0.9370 -8.7443 20.5097
#
#
#
# Elastic Compliance Matrix: (Units=1/GPa)
#
#
# Indices 1 2 3 4 5 6 
#
# 1 0.008675 -0.001968 -0.001112 0.002582 -0.005029 -0.002824
# 2 -0.001968 0.009771 -0.009588 -0.000026 0.001170 -0.008646
# 3 -0.001112 -0.009588 0.041102 0.010679 -0.014956 0.008428
# 4 0.002582 -0.000026 0.010679 0.040389 -0.006406 -0.003239
# 5 -0.005029 0.001170 -0.014956 -0.006406 0.069758 0.027563
# 6 -0.002824 -0.008646 0.008428 -0.003239 0.027563 0.069767
#
#
# Mechanical properties :
#
#
# Convention : Reuss Voigt Hill
#
# Bulk Modulus (GPa) = 29.23147 65.44195 47.33671
# Shear Modulus (GPa) = 18.10259 29.55995 23.83127
#
# Velocity S-wave (km/s) = 2.88744 3.68973 3.31296
# Velocity P-wave (km/s) = 4.95774 6.94924 6.03619
#
# Compressibility (1/GPa) = 0.03420971
#
# Stress axis : x y z
#
# Youngs Moduli (GPa) = 115.27066 102.34588 24.32963
#
# Poissons Ratio (x) = 0.20146 0.02706
# Poissons Ratio (y) = 0.22690 0.23328
# Poissons Ratio (z) = 0.12822 0.98134
#
# Static dielectric constant tensor:
#      x y z
#    x 1.800160 0.000090 -0.005100 
#    y 0.000090 1.897550 0.012160 
#    z -0.005100 0.012160 1.823510 
# 
# From -- ./inp_files/589484.got.cif
#   From: 2010.05.17/outbox.cif.g08.bks.cpg/sg2_295_cif.got.tgz:589484.got - 2010.06.03 11:33:40.
