data_PCOD9102797
_publ_section_title
;
Structure prediction by ZEFSAII (Michael W. Deem and Ramdas Pophale) SiO2 
 PCOD9102797
Probable space group: P -1
;
_chemical_formula_sum "Si O2"
_cell_formula_units_Z 11
_cell_length_a 6.818529
_cell_length_b 8.625385
_cell_length_c 11.717205
_cell_angle_alpha 126.845331
_cell_angle_beta 67.747722
_cell_angle_gamma 78.056173
_cell_volume 413.579179
_symmetry_space_group_name_H-M "P -1"
_symmetry_group_IT_number 2
_symmetry_cell_setting 'triclinic'
loop_
_space_group_symop_operation_xyz
x,y,z
-x,-y,-z
loop_
_atom_site_type_symbol
_atom_site_label
_atom_site_fract_x
_atom_site_fract_y
_atom_site_fract_z
Si Si1 0.267291 0.133671 0.357686
Si Si2 0.500000 0.000000 0.500000
Si Si3 0.546852 0.756330 0.838668
Si Si4 0.256628 0.406432 0.044436
Si Si5 0.258270 0.561148 0.874724
Si Si6 0.173380 0.891887 0.526963
O O1 0.327871 0.283583 0.329926
O O2 0.988132 0.185582 0.408286
O O3 0.323180 0.138807 0.480305
O O4 0.485372 0.857848 0.155042
O O5 0.226442 0.065819 0.653474
O O6 0.298194 0.748158 0.891552
O O7 0.720836 0.556399 0.809899
O O8 0.500000 0.000000 0.000000
O O9 0.271979 0.555587 0.006307
O O10 0.005314 0.404439 0.085165
O O11 0.513126 0.293644 0.659342
O O12 0.000000 0.000000 0.500000
#
# Coordination Sequence:
#
# PCOD9102797 Si02
#       6
#     2   1   2   2   2   2
#     4  10  22  42  64  94 125 169 210 253 320 371
#     4  10  20  38  64  88 122 166 210 252 308 368
#     4  10  24  42  64  95 132 167 203 266 319 371
#     4  10  22  41  65  98 124 166 212 264 308 374
#     4  11  22  41  66  98 127 163 218 255 316 373
#     4  10  21  40  63  93 125 166 210 260 308 377
#
# _framework density 26.597086000000001
#
# number of rings (size 3 to 8) (size 9 to 14) (size 15 to 20)
#    0.000    1.818    3.636    0.545    0.000   10.909 
#    0.000    1.818    0.000    0.000    0.000    0.000 
#    0.000    0.000    0.000    0.000    0.000    0.000 
#
# Total GULP energy -61267.186943 kJ/mol
# GULP energy per Si atom -5569.744268 kJ/mol
# Density = 2.653655 g / cm^3
# Si number density = 26.597086 Si / 1000 Ang^3
#
#
#
# Elastic Constant Matrix: (Units=GPa)
#
#
# Indices 1 2 3 4 5 6 
#
# 1 196.2042 42.7100 48.4459 -34.2604 -36.8495 27.9289
# 2 42.7100 141.3966 53.0436 -45.8927 -16.2440 32.4235
# 3 48.4459 53.0436 110.7677 1.1698 -28.1778 0.9200
# 4 -34.2604 -45.8927 1.1698 65.5388 -1.0067 -9.4632
# 5 -36.8495 -16.2440 -28.1778 -1.0067 45.2729 -17.2041
# 6 27.9289 32.4235 0.9200 -9.4632 -17.2041 44.8583
#
#
#
# Elastic Compliance Matrix: (Units=1/GPa)
#
#
# Indices 1 2 3 4 5 6 
#
# 1 0.007495 0.001657 -0.003206 0.004687 0.003484 -0.003473
# 2 0.001657 0.015299 -0.008680 0.010154 -0.002402 -0.010691
# 3 -0.003206 -0.008680 0.016656 -0.006527 0.008179 0.009689
# 4 0.004687 0.010154 -0.006527 0.024385 0.002395 -0.004061
# 5 0.003484 -0.002402 0.008179 0.002395 0.034147 0.013000
# 6 -0.003473 -0.010691 0.009689 -0.004061 0.013000 0.036113
#
#
# Mechanical properties :
#
#
# Convention : Reuss Voigt Hill
#
# Bulk Modulus (GPa) = 52.65552 81.86303 67.25928
# Shear Modulus (GPa) = 31.07826 51.41194 41.24510
#
# Velocity S-wave (km/s) = 3.42202 4.40135 3.94221
# Velocity P-wave (km/s) = 5.95433 7.52828 6.78708
#
# Compressibility (1/GPa) = 0.01899136
#
# Stress axis : x y z
#
# Youngs Moduli (GPa) = 133.42568 65.36201 60.03857
#
# Poissons Ratio (x) = -0.10828 0.19246
# Poissons Ratio (y) = -0.22104 0.52116
# Poissons Ratio (z) = 0.42772 0.56737
#
# Static dielectric constant tensor:
#      x y z
#    x 1.788520 -0.312570 -0.304450 
#    y -0.312570 1.822370 -0.243660 
#    z -0.304450 -0.243660 1.964540 
# 
# From -- ./inp_files/344484.got.cif
#   From: 2010.05.17/outbox.cif.g08.bks.cpg/sg2_173_cif.got.tgz:344484.got - 2010.06.03 11:33:40.
