data_PCOD9102659
_publ_section_title
;
Structure prediction by ZEFSAII (Michael W. Deem and Ramdas Pophale) SiO2 
 PCOD9102659
Probable space group: P -1
;
_chemical_formula_sum "Si O2"
_cell_formula_units_Z 14
_cell_length_a 9.334227
_cell_length_b 7.950636
_cell_length_c 15.454896
_cell_angle_alpha 82.944565
_cell_angle_beta 47.994800
_cell_angle_gamma 48.311161
_cell_volume 518.146083
_symmetry_space_group_name_H-M "P -1"
_symmetry_group_IT_number 2
_symmetry_cell_setting 'triclinic'
loop_
_space_group_symop_operation_xyz
x,y,z
-x,-y,-z
loop_
_atom_site_type_symbol
_atom_site_label
_atom_site_fract_x
_atom_site_fract_y
_atom_site_fract_z
Si Si1 0.040310 0.408406 0.352777
Si Si2 0.744755 0.937439 0.465851
Si Si3 0.621447 0.627098 0.262701
Si Si4 0.756516 0.672905 0.916716
Si Si5 0.370509 0.745845 0.648457
Si Si6 0.654612 0.083142 0.162322
Si Si7 0.624324 0.471727 0.098059
O O1 0.070624 0.440531 0.238400
O O2 0.398721 0.114499 0.249059
O O3 0.978851 0.625703 0.416967
O O4 0.739230 0.500840 0.485531
O O5 0.500000 0.000000 0.500000
O O6 0.602630 0.121705 0.595543
O O7 0.837239 0.021310 0.356550
O O8 0.712831 0.387598 0.289528
O O9 0.471980 0.669188 0.230200
O O10 0.949793 0.496822 0.127915
O O11 0.601786 0.604644 0.014715
O O12 0.500000 0.000000 0.000000
O O13 0.333907 0.875219 0.744022
O O14 0.549320 0.324378 0.135774
O O15 0.003836 0.797508 0.011395
#
# Coordination Sequence:
#
# PCOD9102659 Si02
#       7
#     2   2   2   2   2   2   2
#     4  11  23  40  65  98 126 167 217 266 320 379
#     4  10  20  38  63  94 127 169 208 261 327 376
#     4  11  22  42  66  94 130 172 212 262 325 382
#     4  12  25  42  65  95 128 168 220 264 317 379
#     4  10  21  40  65  95 130 170 212 262 323 384
#     4  10  22  43  68  96 130 169 215 265 320 380
#     4  10  24  44  66  93 130 176 214 260 323 381
#
# _framework density 27.019407000000001
#
# number of rings (size 3 to 8) (size 9 to 14) (size 15 to 20)
#    0.000    1.429    2.857    3.000    2.000    1.714 
#    2.571    1.429    0.000    0.000    0.000    0.000 
#    0.000    0.000    0.000    0.000    0.000    0.000 
#
# Total GULP energy -78416.813882 kJ/mol
# GULP energy per Si atom -5601.200992 kJ/mol
# Density = 2.695791 g / cm^3
# Si number density = 27.019407 Si / 1000 Ang^3
#
#
#
# Elastic Constant Matrix: (Units=GPa)
#
#
# Indices 1 2 3 4 5 6 
#
# 1 63.6756 4.6115 18.6874 -5.2190 14.1851 -1.5470
# 2 4.6115 107.0720 23.9769 -34.8122 5.4924 8.6311
# 3 18.6874 23.9769 106.0036 -12.8899 17.8873 5.1638
# 4 -5.2190 -34.8122 -12.8899 58.6453 -1.6023 -0.7707
# 5 14.1851 5.4924 17.8873 -1.6023 57.4841 -0.2736
# 6 -1.5470 8.6311 5.1638 -0.7707 -0.2736 33.5319
#
#
#
# Elastic Compliance Matrix: (Units=1/GPa)
#
#
# Indices 1 2 3 4 5 6 
#
# 1 0.017296 0.000237 -0.002437 0.001063 -0.003497 0.001108
# 2 0.000237 0.012182 -0.001752 0.006818 -0.000500 -0.002702
# 3 -0.002437 -0.001752 0.010890 0.001048 -0.002597 -0.001336
# 4 0.001063 0.006818 0.001048 0.021388 -0.000650 -0.001381
# 5 -0.003497 -0.000500 -0.002597 -0.000650 0.019099 0.000508
# 6 0.001108 -0.002702 -0.001336 -0.001381 0.000508 0.030747
#
#
# Mechanical properties :
#
#
# Convention : Reuss Voigt Hill
#
# Bulk Modulus (GPa) = 30.80461 41.25586 36.03023
# Shear Modulus (GPa) = 38.36451 45.23063 41.79757
#
# Velocity S-wave (km/s) = 3.77223 4.09590 3.93739
# Velocity P-wave (km/s) = 5.51349 6.13764 5.83392
#
# Compressibility (1/GPa) = 0.03246268
#
# Stress axis : x y z
#
# Youngs Moduli (GPa) = 57.81728 82.08914 91.82447
#
# Poissons Ratio (x) = -0.01941 0.22379
# Poissons Ratio (y) = -0.01367 0.16088
# Poissons Ratio (z) = 0.14091 0.14382
#
# Static dielectric constant tensor:
#      x y z
#    x 2.083450 -0.047190 -0.007620 
#    y -0.047190 2.207000 0.028170 
#    z -0.007620 0.028170 2.080780 
# 
# From -- ./inp_files/238746.got.cif
#   From: 2010.05.17/outbox.cif.g08.bks.cpg/sg2_120_cif.got.tgz:238746.got - 2010.06.03 11:33:40.
