data_PCOD9102507
_publ_section_title
;
Structure prediction by ZEFSAII (Michael W. Deem and Ramdas Pophale) SiO2 
 PCOD9102507
Probable space group: P -1
;
_chemical_formula_sum "Si O2"
_cell_formula_units_Z 14
_cell_length_a 13.426195
_cell_length_b 17.701229
_cell_length_c 22.029091
_cell_angle_alpha 13.235841
_cell_angle_beta 34.672463
_cell_angle_gamma 30.936161
_cell_volume 612.727358
_symmetry_space_group_name_H-M "P -1"
_symmetry_group_IT_number 2
_symmetry_cell_setting 'triclinic'
loop_
_space_group_symop_operation_xyz
x,y,z
-x,-y,-z
loop_
_atom_site_type_symbol
_atom_site_label
_atom_site_fract_x
_atom_site_fract_y
_atom_site_fract_z
Si Si1 0.654776 0.352237 0.983574
Si Si2 0.415928 0.908526 0.053741
Si Si3 0.938543 0.124685 0.783959
Si Si4 0.058191 0.952204 0.579241
Si Si5 0.413578 0.972669 0.348270
Si Si6 0.287527 0.116648 0.162964
Si Si7 0.864285 0.414267 0.723321
O O1 0.579033 0.085417 0.197181
O O2 0.500000 0.500000 0.000000
O O3 0.692316 0.570272 0.737289
O O4 0.861345 0.160670 0.063410
O O5 0.186159 0.047828 0.052410
O O6 0.496701 0.466419 0.358270
O O7 0.508167 0.047375 0.845126
O O8 0.500000 0.000000 0.000000
O O9 0.815102 0.368116 0.713679
O O10 0.006639 0.363625 0.519182
O O11 0.223840 0.093513 0.392746
O O12 0.852778 0.087163 0.611425
O O13 0.168947 0.519876 0.878066
O O14 0.000000 0.000000 0.500000
O O15 0.331828 0.144441 0.189375
O O16 0.000000 0.000000 0.000000
#
# Coordination Sequence:
#
# PCOD9102507 Si02
#       7
#     2   2   2   2   2   2   2
#     4  11  24  42  62  99 127 165 215 267 322 382
#     4  11  23  39  60  93 123 163 217 261 311 375
#     4  10  21  41  63  90 128 168 212 267 316 381
#     4   8  16  34  59  89 118 160 205 244 303 376
#     4  10  20  38  63  88 125 164 209 259 318 380
#     4   9  18  36  59  88 123 165 204 253 311 368
#     4   9  18  37  68  90 120 163 212 257 323 374
#
# _framework density 22.848662000000001
#
# number of rings (size 3 to 8) (size 9 to 14) (size 15 to 20)
#    0.000    2.286    0.000    3.429    0.000    3.429 
#   18.000    0.000    0.000    0.000    0.000    0.000 
#    0.000    0.000    0.000    0.000    0.000    0.000 
#
# Total GULP energy -78070.999061 kJ/mol
# GULP energy per Si atom -5576.499933 kJ/mol
# Density = 2.279666 g / cm^3
# Si number density = 22.848662 Si / 1000 Ang^3
#
#
#
# Elastic Constant Matrix: (Units=GPa)
#
#
# Indices 1 2 3 4 5 6 
#
# 1 140.5591 46.2855 54.0258 20.0785 -22.5174 -28.3817
# 2 46.2855 108.6920 49.1562 41.6806 -6.1783 -1.5852
# 3 54.0258 49.1562 99.1228 44.4592 -5.1329 -1.3315
# 4 20.0785 41.6806 44.4592 44.7356 -9.1979 2.3981
# 5 -22.5174 -6.1783 -5.1329 -9.1979 44.9036 7.5152
# 6 -28.3817 -1.5852 -1.3315 2.3981 7.5152 30.8218
#
#
#
# Elastic Compliance Matrix: (Units=1/GPa)
#
#
# Indices 1 2 3 4 5 6 
#
# 1 0.013265 -0.004034 -0.007317 0.005499 0.004693 0.010119
# 2 -0.004034 0.015883 0.000360 -0.013776 -0.002414 -0.001222
# 3 -0.007317 0.000360 0.022832 -0.020553 -0.004720 -0.002983
# 4 0.005499 -0.013776 -0.020553 0.055476 0.010445 -0.003396
# 5 0.004693 -0.002414 -0.004720 0.010445 0.026438 -0.003265
# 6 0.010119 -0.001222 -0.002983 -0.003396 -0.003265 0.042631
#
#
# Mechanical properties :
#
#
# Convention : Reuss Voigt Hill
#
# Bulk Modulus (GPa) = 33.33601 71.92323 52.62962
# Shear Modulus (GPa) = 23.98009 37.35264 30.66637
#
# Velocity S-wave (km/s) = 3.24314 4.04763 3.66751
# Velocity P-wave (km/s) = 5.35215 7.30691 6.40455
#
# Compressibility (1/GPa) = 0.02999759
#
# Stress axis : x y z
#
# Youngs Moduli (GPa) = 75.38863 62.95892 43.79812
#
# Poissons Ratio (x) = 0.25398 0.32046
# Poissons Ratio (y) = 0.30412 -0.01575
# Poissons Ratio (z) = 0.55160 -0.02264
#
# Static dielectric constant tensor:
#      x y z
#    x 1.842740 -0.014580 0.002160 
#    y -0.014580 2.017010 0.014480 
#    z 0.002160 0.014480 1.857380 
# 
# From -- ./inp_files/510420.got.cif
#   From: 2010.05.17/outbox.cif.g08.bks.cpg/sg2_256_cif.got.tgz:510420.got - 2010.06.03 11:33:40.
