data_PCOD9102437
_publ_section_title
;
Structure prediction by ZEFSAII (Michael W. Deem and Ramdas Pophale) SiO2 
 PCOD9102437
Probable space group: P -1
;
_chemical_formula_sum "Si O2"
_cell_formula_units_Z 14
_cell_length_a 12.085504
_cell_length_b 13.874787
_cell_length_c 9.583892
_cell_angle_alpha 38.150422
_cell_angle_beta 136.435439
_cell_angle_gamma 141.741192
_cell_volume 590.121281
_symmetry_space_group_name_H-M "P -1"
_symmetry_group_IT_number 2
_symmetry_cell_setting 'triclinic'
loop_
_space_group_symop_operation_xyz
x,y,z
-x,-y,-z
loop_
_atom_site_type_symbol
_atom_site_label
_atom_site_fract_x
_atom_site_fract_y
_atom_site_fract_z
Si Si1 0.332813 0.042606 0.524361
Si Si2 0.546117 0.714057 0.182869
Si Si3 0.463603 0.435166 0.202178
Si Si4 0.254082 0.877603 0.144049
Si Si5 0.800033 0.581940 0.537958
Si Si6 0.081781 0.871535 0.252958
Si Si7 0.192554 0.711070 0.980327
O O1 0.315817 0.221768 0.325522
O O2 0.546499 0.102786 0.672481
O O3 0.278376 0.984987 0.380659
O O4 0.212971 0.866388 0.713511
O O5 0.436715 0.578188 0.108630
O O6 0.678689 0.644720 0.446848
O O7 0.400158 0.732452 0.124383
O O8 0.693363 0.913815 0.038618
O O9 0.647941 0.458783 0.422209
O O10 0.500000 0.500000 0.000000
O O11 0.107597 0.780006 0.244228
O O12 0.177805 0.791944 0.022476
O O13 0.900133 0.504541 0.813913
O O14 0.949259 0.734339 0.403039
O O15 0.000000 0.000000 0.000000
#
# Coordination Sequence:
#
# PCOD9102437 Si02
#       7
#     2   2   2   2   2   2   2
#     4  11  23  41  71  98 127 168 223 268 319 387
#     4   9  19  36  68  92 126 166 216 262 313 381
#     4  10  20  38  63 100 126 164 223 264 312 384
#     4  11  21  41  71  96 131 168 223 263 324 382
#     4  10  22  39  66  93 134 169 212 265 329 379
#     4  12  24  44  66  95 135 172 212 270 329 384
#     4  11  23  41  66  99 129 173 215 271 324 378
#
# _framework density 23.723935000000001
#
# number of rings (size 3 to 8) (size 9 to 14) (size 15 to 20)
#    0.857    0.571    2.857    4.286    0.000    2.286 
#    0.000    0.714    9.429    0.000    0.000    0.000 
#    0.000    0.000    0.000    0.000    0.000    0.000 
#
# Total GULP energy -77961.325265 kJ/mol
# GULP energy per Si atom -5568.666090 kJ/mol
# Density = 2.366994 g / cm^3
# Si number density = 23.723935 Si / 1000 Ang^3
#
#
#
# Elastic Constant Matrix: (Units=GPa)
#
#
# Indices 1 2 3 4 5 6 
#
# 1 152.6413 80.9866 59.3666 17.4997 -32.6148 -6.7210
# 2 80.9866 115.9452 72.0788 12.2907 4.0184 8.0178
# 3 59.3666 72.0788 176.4931 5.8281 -27.9069 -2.2703
# 4 17.4997 12.2907 5.8281 56.3317 -17.8017 -11.3558
# 5 -32.6148 4.0184 -27.9069 -17.8017 4.5281 -18.6559
# 6 -6.7210 8.0178 -2.2703 -11.3558 -18.6559 29.9612
#
#
#
# Elastic Compliance Matrix: (Units=1/GPa)
#
#
# Indices 1 2 3 4 5 6 
#
# 1 0.007214 -0.001956 -0.002915 -0.005434 -0.008817 -0.005628
# 2 -0.001956 0.009413 -0.001202 0.004055 0.012867 0.006500
# 3 -0.002915 -0.001202 0.006295 -0.002000 -0.005419 -0.003987
# 4 -0.005434 0.004055 -0.002000 0.014821 -0.010370 -0.003295
# 5 -0.008817 0.012867 -0.005419 -0.010370 -0.020144 -0.022305
# 6 -0.005628 0.006500 -0.003987 -0.003295 -0.022305 0.014935
#
#
# Mechanical properties :
#
#
# Convention : Reuss Voigt Hill
#
# Bulk Modulus (GPa) = 92.79485 96.66041 94.72763
# Shear Modulus (GPa) = 103.58002 33.67404 68.62703
#
# Velocity S-wave (km/s) = 6.61478 3.77160 5.38425
# Velocity P-wave (km/s) = 9.87622 7.73297 8.86957
#
# Compressibility (1/GPa) = 0.01077646
#
# Stress axis : x y z
#
# Youngs Moduli (GPa) = 138.61776 106.23330 158.85041
#
# Poissons Ratio (x) = 0.20782 0.46301
# Poissons Ratio (y) = 0.27117 0.19095
# Poissons Ratio (z) = 0.40403 0.12770
#
# Static dielectric constant tensor:
#      x y z
#    x 1.906440 0.083800 -0.013020 
#    y 0.083800 2.380340 -0.246280 
#    z -0.013020 -0.246280 2.050850 
# 
# From -- ./inp_files/271649.got.cif
#   From: 2010.05.17/outbox.cif.g08.bks.cpg/sg2_136_cif.got.tgz:271649.got - 2010.06.03 11:33:40.
