data_PCOD9102769
_publ_section_title
;
Structure prediction by ZEFSAII (Michael W. Deem and Ramdas Pophale) SiO2 
 PCOD9102769
Probable space group: P -1
;
_chemical_formula_sum "Si O2"
_cell_formula_units_Z 16
_cell_length_a 7.769548
_cell_length_b 11.072944
_cell_length_c 20.674159
_cell_angle_alpha 39.294662
_cell_angle_beta 41.791214
_cell_angle_gamma 39.684050
_cell_volume 667.970883
_symmetry_space_group_name_H-M "P -1"
_symmetry_group_IT_number 2
_symmetry_cell_setting 'triclinic'
loop_
_space_group_symop_operation_xyz
x,y,z
-x,-y,-z
loop_
_atom_site_type_symbol
_atom_site_label
_atom_site_fract_x
_atom_site_fract_y
_atom_site_fract_z
Si Si1 0.818223 0.696508 0.582658
Si Si2 0.221735 0.514164 0.186758
Si Si3 0.826197 0.304794 0.077413
Si Si4 0.771507 0.146885 0.398159
Si Si5 0.595657 0.497709 0.547945
Si Si6 0.589221 0.738602 0.204431
Si Si7 0.224729 0.944084 0.019414
Si Si8 0.906994 0.392640 0.163537
O O1 0.814896 0.603751 0.691855
O O2 0.508385 0.778582 0.601570
O O3 0.083322 0.522534 0.539004
O O4 0.882007 0.900402 0.484494
O O5 0.497234 0.353807 0.134554
O O6 0.916982 0.625529 0.189204
O O7 0.313157 0.697295 0.106822
O O8 0.858285 0.302237 0.146972
O O9 0.052817 0.090665 0.067371
O O10 0.886590 0.498003 0.954656
O O11 0.640117 0.291153 0.438214
O O12 0.986070 0.213798 0.271126
O O13 0.500000 0.500000 0.500000
O O14 0.600708 0.305421 0.670926
O O15 0.624868 0.594551 0.190742
O O16 0.539765 0.974921 0.100617
O O17 0.000000 0.000000 0.000000
#
# Coordination Sequence:
#
# PCOD9102769 Si02
#       8
#     2   2   2   2   2   2   2   2
#     4  11  23  41  62  90 118 165 205 246 302 354
#     4  11  21  39  63  89 120 160 199 244 296 358
#     4  10  20  38  64  86 119 159 196 243 304 351
#     4  10  23  43  62  88 123 157 210 248 293 366
#     4  11  22  41  64  89 123 160 200 254 305 349
#     4   9  20  40  60  88 124 152 202 248 292 364
#     4   9  21  38  59  90 120 151 197 244 291 359
#     4   9  19  39  60  86 121 154 194 252 293 352
#
# _framework density 23.953139
#
# number of rings (size 3 to 8) (size 9 to 14) (size 15 to 20)
#    0.000    2.000    2.500    0.375    0.000    7.000 
#    2.250    5.625    0.000    0.000    0.000    0.000 
#    0.000    0.000    0.000    0.000    0.000    0.000 
#
# Total GULP energy -89474.835400 kJ/mol
# GULP energy per Si atom -5592.177212 kJ/mol
# Density = 2.389862 g / cm^3
# Si number density = 23.953139 Si / 1000 Ang^3
#
#
#
# Elastic Constant Matrix: (Units=GPa)
#
#
# Indices 1 2 3 4 5 6 
#
# 1 53.9220 23.6646 10.6040 -2.0181 24.8499 5.2823
# 2 23.6646 65.4679 36.7142 7.1017 12.2407 15.4291
# 3 10.6040 36.7142 149.5799 8.8237 10.5170 10.3049
# 4 -2.0181 7.1017 8.8237 42.2757 2.9064 -6.7564
# 5 24.8499 12.2407 10.5170 2.9064 36.6030 9.7666
# 6 5.2823 15.4291 10.3049 -6.7564 9.7666 40.8245
#
#
#
# Elastic Compliance Matrix: (Units=1/GPa)
#
#
# Indices 1 2 3 4 5 6 
#
# 1 0.031802 -0.010023 0.000971 0.005218 -0.020306 0.005150
# 2 -0.010023 0.023200 -0.004349 -0.004914 0.002781 -0.007852
# 3 0.000971 -0.004349 0.007844 -0.000815 -0.001319 -0.000281
# 4 0.005218 -0.004914 -0.000815 0.026425 -0.005662 0.007116
# 5 -0.020306 0.002781 -0.001319 -0.005662 0.043523 -0.009440
# 6 0.005150 -0.007852 -0.000281 0.007116 -0.009440 0.030303
#
#
# Mechanical properties :
#
#
# Convention : Reuss Voigt Hill
#
# Bulk Modulus (GPa) = 27.74340 45.65949 36.70144
# Shear Modulus (GPa) = 24.76301 37.13978 30.95139
#
# Velocity S-wave (km/s) = 3.21878 3.94193 3.59857
# Velocity P-wave (km/s) = 5.04198 6.31046 5.71154
#
# Compressibility (1/GPa) = 0.03604461
#
# Stress axis : x y z
#
# Youngs Moduli (GPa) = 31.44473 43.10357 127.48446
#
# Poissons Ratio (x) = 0.43202 -0.12375
# Poissons Ratio (y) = 0.31516 0.55437
# Poissons Ratio (z) = -0.03052 0.18744
#
# Static dielectric constant tensor:
#      x y z
#    x 1.954250 -0.011500 -0.024780 
#    y -0.011500 1.937670 -0.018840 
#    z -0.024780 -0.018840 1.912850 
# 
# From -- ./inp_files/589440.got.cif
#   From: 2010.05.17/outbox.cif.g08.bks.cpg/sg2_295_cif.got.tgz:589440.got - 2010.06.03 11:33:40.
