data_PCOD9102989
_publ_section_title
;
Structure prediction by ZEFSAII (Michael W. Deem and Ramdas Pophale) SiO2 
 PCOD9102989
Probable space group: P -1
;
_chemical_formula_sum "Si O2"
_cell_formula_units_Z 16
_cell_length_a 24.282012
_cell_length_b 7.925140
_cell_length_c 15.044334
_cell_angle_alpha 49.319524
_cell_angle_beta 19.079662
_cell_angle_gamma 50.041590
_cell_volume 713.658225
_symmetry_space_group_name_H-M "P -1"
_symmetry_group_IT_number 2
_symmetry_cell_setting 'triclinic'
loop_
_space_group_symop_operation_xyz
x,y,z
-x,-y,-z
loop_
_atom_site_type_symbol
_atom_site_label
_atom_site_fract_x
_atom_site_fract_y
_atom_site_fract_z
Si Si1 0.408174 0.690334 0.916333
Si Si2 0.393480 0.894674 0.504803
Si Si3 0.508714 0.731984 0.557133
Si Si4 0.681947 0.044470 0.593690
Si Si5 0.602662 0.265745 0.827249
Si Si6 0.034681 0.138266 0.028243
Si Si7 0.903299 0.608712 0.979083
Si Si8 0.897455 0.217168 0.537619
O O1 0.427405 0.636298 0.801374
O O2 0.547476 0.529587 0.813330
O O3 0.457387 0.941519 0.770409
O O4 0.221015 0.664573 0.245412
O O5 0.419580 0.713117 0.605021
O O6 0.381871 0.830511 0.442197
O O7 0.215984 0.035928 0.752663
O O8 0.500000 0.000000 0.500000
O O9 0.702441 0.638967 0.282917
O O10 0.655290 0.189127 0.673877
O O11 0.883471 0.983988 0.297925
O O12 0.566066 0.845331 0.851476
O O13 0.752319 0.188427 0.693869
O O14 0.043812 0.207326 0.093985
O O15 0.979977 0.368421 0.980389
O O16 0.970911 0.652404 0.763089
O O17 0.000000 0.000000 0.500000
#
# Coordination Sequence:
#
# PCOD9102989 Si02
#       8
#     2   2   2   2   2   2   2   2
#     4  11  22  41  68  95 122 166 214 260 303 372
#     4  11  22  39  68  94 121 161 216 255 316 368
#     4  10  20  38  64  95 123 157 205 269 311 355
#     4  11  24  40  63  93 130 167 204 257 322 373
#     4  11  24  42  65  90 129 169 209 252 317 381
#     4  11  22  39  64  90 123 162 212 261 304 365
#     4  11  22  38  65  95 120 158 216 262 303 361
#     4  12  24  38  68  99 126 159 212 267 311 363
#
# _framework density 22.419695000000001
#
# number of rings (size 3 to 8) (size 9 to 14) (size 15 to 20)
#    0.000    1.000    5.000    3.750    1.750    0.000 
#    0.000    2.500    0.000    3.750    0.000    0.000 
#    0.000    0.000    0.000    0.000    0.000    0.000 
#
# Total GULP energy -89447.345891 kJ/mol
# GULP energy per Si atom -5590.459118 kJ/mol
# Density = 2.236867 g / cm^3
# Si number density = 22.419695 Si / 1000 Ang^3
#
#
#
# Elastic Constant Matrix: (Units=GPa)
#
#
# Indices 1 2 3 4 5 6 
#
# 1 146.0340 34.1745 55.3833 12.2845 29.0807 -29.8648
# 2 34.1745 52.8398 22.8038 17.4956 3.3024 -17.3524
# 3 55.3833 22.8038 119.8392 16.7632 42.6241 -2.9623
# 4 12.2845 17.4956 16.7632 23.3410 -3.0021 -8.7577
# 5 29.0807 3.3024 42.6241 -3.0021 38.6040 -2.9142
# 6 -29.8648 -17.3524 -2.9623 -8.7577 -2.9142 32.5159
#
#
#
# Elastic Compliance Matrix: (Units=1/GPa)
#
#
# Indices 1 2 3 4 5 6 
#
# 1 0.011167 -0.003442 -0.003107 0.001497 -0.003953 0.008185
# 2 -0.003442 0.030056 -0.002641 -0.015225 0.002415 0.008754
# 3 -0.003107 -0.002641 0.020153 -0.017006 -0.021683 -0.008951
# 4 0.001497 -0.015225 -0.017006 0.074254 0.025784 0.014010
# 5 -0.003953 0.002415 -0.021683 0.025784 0.055193 0.007574
# 6 0.008185 0.008754 -0.008951 0.014010 0.007574 0.046580
#
#
# Mechanical properties :
#
#
# Convention : Reuss Voigt Hill
#
# Bulk Modulus (GPa) = 23.25840 60.38179 41.82010
# Shear Modulus (GPa) = 18.51069 32.64894 25.57981
#
# Velocity S-wave (km/s) = 2.87652 3.82024 3.38146
# Velocity P-wave (km/s) = 4.62916 6.81542 5.82576
#
# Compressibility (1/GPa) = 0.04299521
#
# Stress axis : x y z
#
# Youngs Moduli (GPa) = 89.55301 33.27115 49.62151
#
# Poissons Ratio (x) = 0.11451 0.15416
# Poissons Ratio (y) = 0.30823 0.13107
# Poissons Ratio (z) = 0.27822 0.08788
#
# Static dielectric constant tensor:
#      x y z
#    x 1.871880 0.015190 0.007220 
#    y 0.015190 1.834000 -0.018310 
#    z 0.007220 -0.018310 1.835800 
# 
# From -- ./inp_files/297794.got.cif
#   From: 2010.05.17/outbox.cif.g08.bks.cpg/sg2_149_cif.got.tgz:297794.got - 2010.06.03 11:33:40.
