data_PCOD9102641
_publ_section_title
;
Structure prediction by ZEFSAII (Michael W. Deem and Ramdas Pophale) SiO2 
 PCOD9102641
Probable space group: P -1
;
_chemical_formula_sum "Si O2"
_cell_formula_units_Z 14
_cell_length_a 17.364487
_cell_length_b 10.910729
_cell_length_c 8.620376
_cell_angle_alpha 105.477767
_cell_angle_beta 125.756390
_cell_angle_gamma 30.258845
_cell_volume 543.249352
_symmetry_space_group_name_H-M "P -1"
_symmetry_group_IT_number 2
_symmetry_cell_setting 'triclinic'
loop_
_space_group_symop_operation_xyz
x,y,z
-x,-y,-z
loop_
_atom_site_type_symbol
_atom_site_label
_atom_site_fract_x
_atom_site_fract_y
_atom_site_fract_z
Si Si1 0.213818 0.833504 0.202542
Si Si2 0.298448 0.634521 0.899424
Si Si3 0.396374 0.273960 0.538232
Si Si4 0.510152 0.135427 0.113532
Si Si5 0.251452 0.321418 0.105724
Si Si6 0.800153 0.853295 0.639313
Si Si7 0.775280 0.244829 0.473559
O O1 0.323668 0.659764 0.438492
O O2 0.167648 0.036912 0.249860
O O3 0.313176 0.693051 0.099398
O O4 0.000000 0.000000 0.000000
O O5 0.307653 0.706159 0.774298
O O6 0.454071 0.320917 0.998382
O O7 0.038958 0.900020 0.679202
O O8 0.220058 0.410399 0.272896
O O9 0.276105 0.544520 0.542495
O O10 0.525023 0.034865 0.735238
O O11 0.599812 0.058376 0.587192
O O12 0.310805 0.369696 0.084671
O O13 0.725021 0.910738 0.395832
O O14 0.500000 0.000000 0.000000
O O15 0.040547 0.505260 0.850363
#
# Coordination Sequence:
#
# PCOD9102641 Si02
#       7
#     2   2   2   2   2   2   2
#     4  10  20  40  67  93 129 170 215 269 327 394
#     4  10  21  39  65  95 129 171 218 271 334 394
#     4  10  21  37  63  95 131 172 223 275 326 401
#     4  11  24  42  64  93 131 175 226 279 333 402
#     4  10  20  39  63  93 131 176 224 274 333 396
#     4  11  23  41  67  95 129 178 225 274 340 397
#     4  10  20  38  63  93 129 172 215 270 336 391
#
# _framework density 25.770855000000001
#
# number of rings (size 3 to 8) (size 9 to 14) (size 15 to 20)
#    0.000    1.714    0.000    6.429    0.000    2.857 
#    0.000    8.571    0.000    0.000    0.000    0.000 
#    0.000    0.000    0.000    0.000    0.000    0.000 
#
# Total GULP energy -78143.393751 kJ/mol
# GULP energy per Si atom -5581.670982 kJ/mol
# Density = 2.571220 g / cm^3
# Si number density = 25.770855 Si / 1000 Ang^3
#
#
#
# Elastic Constant Matrix: (Units=GPa)
#
#
# Indices 1 2 3 4 5 6 
#
# 1 109.6380 11.1343 45.0646 14.1010 -30.6565 0.1349
# 2 11.1343 81.9311 44.8112 16.5716 -11.3663 19.4156
# 3 45.0646 44.8112 253.2000 11.3212 -17.1811 -2.8158
# 4 14.1010 16.5716 11.3212 42.2082 -3.4649 -0.8388
# 5 -30.6565 -11.3663 -17.1811 -3.4649 51.5405 9.8480
# 6 0.1349 19.4156 -2.8158 -0.8388 9.8480 43.4638
#
#
#
# Elastic Compliance Matrix: (Units=1/GPa)
#
#
# Indices 1 2 3 4 5 6 
#
# 1 0.012230 0.001751 -0.001854 -0.003730 0.007301 -0.002667
# 2 0.001751 0.017910 -0.002927 -0.006578 0.005397 -0.009545
# 3 -0.001854 -0.002927 0.004764 0.000488 -0.000459 0.001735
# 4 -0.003730 -0.006578 0.000488 0.027270 -0.002450 0.004063
# 5 0.007301 0.005397 -0.000459 -0.002450 0.026233 -0.008454
# 6 -0.002667 -0.009545 0.001735 0.004063 -0.008454 0.029386
#
#
# Mechanical properties :
#
#
# Convention : Reuss Voigt Hill
#
# Bulk Modulus (GPa) = 34.67021 71.86548 53.26784
# Shear Modulus (GPa) = 37.46271 50.35977 43.91124
#
# Velocity S-wave (km/s) = 3.81686 4.42536 4.13232
# Velocity P-wave (km/s) = 5.73646 7.35246 6.59415
#
# Compressibility (1/GPa) = 0.02884321
#
# Stress axis : x y z
#
# Youngs Moduli (GPa) = 81.76861 55.83607 209.91602
#
# Poissons Ratio (x) = -0.09778 0.38919
# Poissons Ratio (y) = -0.14320 0.61445
# Poissons Ratio (z) = 0.15160 0.16344
#
# Static dielectric constant tensor:
#      x y z
#    x 2.382090 -0.134060 -0.118070 
#    y -0.134060 2.125100 0.064800 
#    z -0.118070 0.064800 2.161150 
# 
# From -- ./inp_files/345465.got.cif
#   From: 2010.05.17/outbox.cif.g08.bks.cpg/sg2_173_cif.got.tgz:345465.got - 2010.06.03 11:33:40.
