data_PCOD9102486
_publ_section_title
;
Structure prediction by ZEFSAII (Michael W. Deem and Ramdas Pophale) SiO2 
 PCOD9102486
Probable space group: P -1
;
_chemical_formula_sum "Si O2"
_cell_formula_units_Z 14
_cell_length_a 19.080410
_cell_length_b 12.299520
_cell_length_c 14.720439
_cell_angle_alpha 29.378856
_cell_angle_beta 19.040022
_cell_angle_gamma 37.869583
_cell_volume 540.023700
_symmetry_space_group_name_H-M "P -1"
_symmetry_group_IT_number 2
_symmetry_cell_setting 'triclinic'
loop_
_space_group_symop_operation_xyz
x,y,z
-x,-y,-z
loop_
_atom_site_type_symbol
_atom_site_label
_atom_site_fract_x
_atom_site_fract_y
_atom_site_fract_z
Si Si1 0.092093 0.183257 0.909569
Si Si2 0.197838 0.288742 0.198506
Si Si3 0.414306 0.242938 0.324057
Si Si4 0.509506 0.211325 0.513004
Si Si5 0.775153 0.681429 0.070819
Si Si6 0.893814 0.277193 0.741460
Si Si7 0.205380 0.796282 0.586269
O O1 0.196565 0.265717 0.627197
O O2 0.301282 0.209364 0.702767
O O3 0.909931 0.268459 0.127001
O O4 0.003708 0.917983 0.199335
O O5 0.967899 0.268308 0.551509
O O6 0.295394 0.068092 0.271292
O O7 0.333426 0.541393 0.872109
O O8 0.181033 0.273353 0.121620
O O9 0.387991 0.008048 0.471344
O O10 0.500000 0.500000 0.000000
O O11 0.636738 0.220702 0.121505
O O12 0.398180 0.189618 0.765225
O O13 0.678292 0.415659 0.411938
O O14 0.007824 0.754054 0.785007
O O15 0.000000 0.500000 0.500000
#
# Coordination Sequence:
#
# PCOD9102486 Si02
#       7
#     2   2   2   2   2   2   2
#     4   9  19  39  60  78 122 154 197 246 306 366
#     4  11  21  37  64  89 125 158 204 250 304 360
#     4  11  23  39  61  90 121 158 205 253 312 361
#     4  10  21  41  58  86 121 164 194 251 306 362
#     4  10  21  40  60  87 128 157 205 247 300 368
#     4  10  20  38  63  87 116 163 202 246 309 359
#     4   9  21  38  61  91 117 163 201 249 304 358
#
# _framework density 25.924786000000001
#
# number of rings (size 3 to 8) (size 9 to 14) (size 15 to 20)
#    0.000    2.000    0.000    5.143    2.000    0.571 
#   12.857    1.429    0.000    0.000    0.000    0.000 
#    0.000    0.000    0.000    0.000    0.000    0.000 
#
# Total GULP energy -78171.349692 kJ/mol
# GULP energy per Si atom -5583.667835 kJ/mol
# Density = 2.586578 g / cm^3
# Si number density = 25.924786 Si / 1000 Ang^3
#
#
#
# Elastic Constant Matrix: (Units=GPa)
#
#
# Indices 1 2 3 4 5 6 
#
# 1 69.7996 40.2143 34.9654 2.6757 10.9779 13.8381
# 2 40.2143 143.1846 57.9138 -19.9433 22.0329 4.8462
# 3 34.9654 57.9138 119.5559 -22.2345 25.8749 18.0892
# 4 2.6757 -19.9433 -22.2345 55.2556 6.6547 -1.5345
# 5 10.9779 22.0329 25.8749 6.6547 47.0107 6.7693
# 6 13.8381 4.8462 18.0892 -1.5345 6.7693 39.2246
#
#
#
# Elastic Compliance Matrix: (Units=1/GPa)
#
#
# Indices 1 2 3 4 5 6 
#
# 1 0.019951 -0.004643 -0.003872 -0.004460 0.001003 -0.005027
# 2 -0.004643 0.010210 -0.002669 0.003262 -0.003018 0.002256
# 3 -0.003872 -0.002669 0.013458 0.005209 -0.005506 -0.003357
# 4 -0.004460 0.003262 0.005209 0.022409 -0.006641 0.000791
# 5 0.001003 -0.003018 -0.005506 -0.006641 0.026757 -0.002319
# 6 -0.005027 0.002256 -0.003357 0.000791 -0.002319 0.028968
#
#
# Mechanical properties :
#
#
# Convention : Reuss Voigt Hill
#
# Bulk Modulus (GPa) = 47.05691 66.52523 56.79107
# Shear Modulus (GPa) = 33.06763 41.59461 37.33112
#
# Velocity S-wave (km/s) = 3.57532 4.00988 3.79882
# Velocity P-wave (km/s) = 5.93587 6.86698 6.41834
#
# Compressibility (1/GPa) = 0.02125086
#
# Stress axis : x y z
#
# Youngs Moduli (GPa) = 50.12274 97.94212 74.30425
#
# Poissons Ratio (x) = 0.45473 0.28770
# Poissons Ratio (y) = 0.23271 0.19835
# Poissons Ratio (z) = 0.19407 0.26145
#
# Static dielectric constant tensor:
#      x y z
#    x 2.143020 -0.060960 -0.037800 
#    y -0.060960 2.718650 0.111500 
#    z -0.037800 0.111500 2.102130 
# 
# From -- ./inp_files/175712.got.cif
#   From: 2010.05.17/outbox.cif.g08.bks.cpg/sg2_88_cif.got.tgz:175712.got - 2010.06.03 11:33:40.
