data_PCOD9102368
_publ_section_title
;
Structure prediction by ZEFSAII (Michael W. Deem and Ramdas Pophale) SiO2 
 PCOD9102368
Probable space group: P -1
;
_chemical_formula_sum "Si O2"
_cell_formula_units_Z 12
_cell_length_a 16.500634
_cell_length_b 13.096990
_cell_length_c 16.086338
_cell_angle_alpha 26.227555
_cell_angle_beta 25.062368
_cell_angle_gamma 24.350153
_cell_volume 553.530548
_symmetry_space_group_name_H-M "P -1"
_symmetry_group_IT_number 2
_symmetry_cell_setting 'triclinic'
loop_
_space_group_symop_operation_xyz
x,y,z
-x,-y,-z
loop_
_atom_site_type_symbol
_atom_site_label
_atom_site_fract_x
_atom_site_fract_y
_atom_site_fract_z
Si Si1 0.633536 0.206290 0.168591
Si Si2 0.808451 0.786341 0.685500
Si Si3 0.386572 0.806740 0.989565
Si Si4 0.234779 0.210182 0.087673
Si Si5 0.038135 0.823786 0.781571
Si Si6 0.027697 0.334401 0.678615
O O1 0.569254 0.151205 0.177977
O O2 0.738612 0.950354 0.318805
O O3 0.442024 0.497100 0.169621
O O4 0.834963 0.259642 0.919020
O O5 0.566677 0.823768 0.866664
O O6 0.863186 0.751003 0.757334
O O7 0.982256 0.527820 0.658236
O O8 0.812466 0.045003 0.461641
O O9 0.137555 0.025536 0.090230
O O10 0.112965 0.119988 0.201386
O O11 0.183624 0.502956 0.892590
O O12 0.500000 0.000000 0.000000
O O13 0.000000 0.500000 0.500000
#
# Coordination Sequence:
#
# PCOD9102368 Si02
#       6
#     2   2   2   2   2   2
#     4   9  20  38  61  88 137 169 206 266 312 376
#     4  11  23  41  66  98 126 167 217 261 320 382
#     4  10  20  41  65  96 129 175 213 260 326 378
#     4  11  24  47  67  93 129 168 215 268 328 383
#     4  11  24  44  68  92 132 166 213 272 322 379
#     4  10  20  38  62  93 129 171 215 255 318 381
#
# _framework density 21.679019
#
# number of rings (size 3 to 8) (size 9 to 14) (size 15 to 20)
#    0.000    1.667    1.667    2.500    0.000    3.333 
#    6.000   13.333    0.000    0.000    0.000    0.000 
#    0.000    0.000    0.000    0.000    0.000    0.000 
#
# Total GULP energy -67134.113256 kJ/mol
# GULP energy per Si atom -5594.509438 kJ/mol
# Density = 2.162968 g / cm^3
# Si number density = 21.679019 Si / 1000 Ang^3
#
#
#
# Elastic Constant Matrix: (Units=GPa)
#
#
# Indices 1 2 3 4 5 6 
#
# 1 69.8298 53.3328 25.1756 -3.1121 13.1214 8.9143
# 2 53.3328 96.9896 14.3107 -9.3306 10.1949 -9.0400
# 3 25.1756 14.3107 61.7308 -12.0322 12.6138 2.0443
# 4 -3.1121 -9.3306 -12.0322 27.5907 -0.9394 6.1993
# 5 13.1214 10.1949 12.6138 -0.9394 24.6735 -5.4572
# 6 8.9143 -9.0400 2.0443 6.1993 -5.4572 37.8810
#
#
#
# Elastic Compliance Matrix: (Units=1/GPa)
#
#
# Indices 1 2 3 4 5 6 
#
# 1 0.034516 -0.018290 -0.008067 -0.003238 -0.009653 -0.012912
# 2 -0.018290 0.021005 0.002805 0.004368 0.001703 0.008696
# 3 -0.008067 0.002805 0.022521 0.009906 -0.008330 -0.001469
# 4 -0.003238 0.004368 0.009906 0.042962 -0.004943 -0.006473
# 5 -0.009653 0.001703 -0.008330 -0.004943 0.051542 0.011362
# 6 -0.012912 0.008696 -0.001469 -0.006473 0.011362 0.034288
#
#
# Mechanical properties :
#
#
# Convention : Reuss Voigt Hill
#
# Bulk Modulus (GPa) = 32.32305 46.02095 39.17200
# Shear Modulus (GPa) = 18.92140 27.07778 22.99959
#
# Velocity S-wave (km/s) = 2.95752 3.53800 3.26070
# Velocity P-wave (km/s) = 5.15798 6.16152 5.68195
#
# Compressibility (1/GPa) = 0.03093768
#
# Stress axis : x y z
#
# Youngs Moduli (GPa) = 28.97230 47.60699 44.40335
#
# Poissons Ratio (x) = 0.87071 0.35822
# Poissons Ratio (y) = 0.52989 -0.12455
# Poissons Ratio (z) = 0.23373 -0.13353
#
# Static dielectric constant tensor:
#      x y z
#    x 1.788500 -0.006910 -0.014320 
#    y -0.006910 1.789730 0.022770 
#    z -0.014320 0.022770 1.800490 
# 
# From -- ./inp_files/119519.got.cif
#   From: 2010.05.17/outbox.cif.g08.bks.cpg/sg2_60_cif.got.tgz:119519.got - 2010.06.03 11:33:40.
