data_PCOD9102503
_publ_section_title
;
Structure prediction by ZEFSAII (Michael W. Deem and Ramdas Pophale) SiO2 
 PCOD9102503
Probable space group: P -1
;
_chemical_formula_sum "Si O2"
_cell_formula_units_Z 16
_cell_length_a 18.261413
_cell_length_b 16.257478
_cell_length_c 9.247436
_cell_angle_alpha 113.641967
_cell_angle_beta 52.444314
_cell_angle_gamma 157.150070
_cell_volume 720.902825
_symmetry_space_group_name_H-M "P -1"
_symmetry_group_IT_number 2
_symmetry_cell_setting 'triclinic'
loop_
_space_group_symop_operation_xyz
x,y,z
-x,-y,-z
loop_
_atom_site_type_symbol
_atom_site_label
_atom_site_fract_x
_atom_site_fract_y
_atom_site_fract_z
Si Si1 0.227181 0.263640 0.850151
Si Si2 0.815087 0.373802 0.464086
Si Si3 0.064626 0.726688 0.795915
Si Si4 0.438672 0.758784 0.587216
Si Si5 0.400204 0.537996 0.606162
Si Si6 0.674204 0.994098 0.040349
Si Si7 0.556277 0.368563 0.074644
Si Si8 0.664750 0.066593 0.794350
O O1 0.178652 0.283436 0.780630
O O2 0.443266 0.391488 0.625061
O O3 0.331991 0.432358 0.956415
O O4 0.000000 0.000000 0.000000
O O5 0.872790 0.320714 0.343353
O O6 0.734296 0.339089 0.380028
O O7 0.577695 0.182004 0.719022
O O8 0.072587 0.659534 0.397856
O O9 0.791587 0.513198 0.921615
O O10 0.282098 0.985659 0.643998
O O11 0.106279 0.779748 0.953731
O O12 0.348538 0.576345 0.595742
O O13 0.490778 0.855263 0.743256
O O14 0.556318 0.715688 0.686845
O O15 0.610783 0.831166 0.985847
O O16 0.728503 0.070203 0.864573
O O17 0.500000 0.000000 0.000000
#
# Coordination Sequence:
#
# PCOD9102503 Si02
#       8
#     2   2   2   2   2   2   2   2
#     4   9  18  36  64  93 114 150 192 244 307 362
#     4  11  26  40  56  87 127 164 207 250 290 350
#     4  11  23  39  61  85 125 167 204 244 302 347
#     4  11  22  41  58  87 122 162 201 250 298 350
#     4   9  20  36  60  92 117 149 201 242 298 366
#     4  11  23  40  57  87 121 159 206 250 292 354
#     4  10  20  38  63  88 119 154 198 248 297 358
#     4  12  23  35  60  83 114 161 207 250 298 341
#
# _framework density 22.194393000000002
#
# number of rings (size 3 to 8) (size 9 to 14) (size 15 to 20)
#    0.750    0.750    1.250    5.250    1.750    2.500 
#    0.000    0.000    0.000   11.250    0.000    0.000 
#    0.000    0.000    0.000    0.000    0.000    0.000 
#
# Total GULP energy -89356.967402 kJ/mol
# GULP energy per Si atom -5584.810463 kJ/mol
# Density = 2.214388 g / cm^3
# Si number density = 22.194393 Si / 1000 Ang^3
#
#
#
# Elastic Constant Matrix: (Units=GPa)
#
#
# Indices 1 2 3 4 5 6 
#
# 1 101.8100 49.6100 39.8368 7.3235 13.3848 -19.9465
# 2 49.6100 103.7572 33.1982 13.8513 1.0036 -16.9623
# 3 39.8368 33.1982 69.4540 7.0089 1.2287 -9.8997
# 4 7.3235 13.8513 7.0089 45.2535 -4.6155 4.7379
# 5 13.3848 1.0036 1.2287 -4.6155 36.9420 0.4351
# 6 -19.9465 -16.9623 -9.8997 4.7379 0.4351 39.8327
#
#
#
# Elastic Compliance Matrix: (Units=1/GPa)
#
#
# Indices 1 2 3 4 5 6 
#
# 1 0.016407 -0.004848 -0.006167 -0.001317 -0.005829 0.004839
# 2 -0.004848 0.013869 -0.003106 -0.003194 0.001048 0.003075
# 3 -0.006167 -0.003106 0.019571 -0.000983 0.001539 0.000553
# 4 -0.001317 -0.003194 -0.000983 0.024363 0.003702 -0.005203
# 5 -0.005829 0.001048 0.001539 0.003702 0.029598 -0.002854
# 6 0.004839 0.003075 0.000553 -0.005203 -0.002854 0.029625
#
#
# Mechanical properties :
#
#
# Convention : Reuss Voigt Hill
#
# Bulk Modulus (GPa) = 46.28968 57.81235 52.05102
# Shear Modulus (GPa) = 29.60722 34.56407 32.08565
#
# Velocity S-wave (km/s) = 3.65635 3.95059 3.80631
# Velocity P-wave (km/s) = 6.22310 6.84940 6.54375
#
# Compressibility (1/GPa) = 0.02160309
#
# Stress axis : x y z
#
# Youngs Moduli (GPa) = 60.94956 72.10443 51.09574
#
# Poissons Ratio (x) = 0.34957 0.31513
# Poissons Ratio (y) = 0.29549 0.15872
# Poissons Ratio (z) = 0.37590 0.22398
#
# Static dielectric constant tensor:
#      x y z
#    x 1.847270 -0.013080 0.042130 
#    y -0.013080 1.873580 -0.023800 
#    z 0.042130 -0.023800 1.868170 
# 
# From -- ./inp_files/348516.got.cif
#   From: 2010.05.17/outbox.cif.g08.bks.cpg/sg2_175_cif.got.tgz:348516.got - 2010.06.03 11:33:40.
