data_PCOD9102997
_publ_section_title
;
Structure prediction by ZEFSAII (Michael W. Deem and Ramdas Pophale) SiO2 
 PCOD9102997
Probable space group: P -1
;
_chemical_formula_sum "Si O2"
_cell_formula_units_Z 16
_cell_length_a 14.444297
_cell_length_b 17.624503
_cell_length_c 22.373353
_cell_angle_alpha 160.018236
_cell_angle_beta 20.073368
_cell_angle_gamma 151.518476
_cell_volume 667.684975
_symmetry_space_group_name_H-M "P -1"
_symmetry_group_IT_number 2
_symmetry_cell_setting 'triclinic'
loop_
_space_group_symop_operation_xyz
x,y,z
-x,-y,-z
loop_
_atom_site_type_symbol
_atom_site_label
_atom_site_fract_x
_atom_site_fract_y
_atom_site_fract_z
Si Si1 0.985481 0.730371 0.142935
Si Si2 0.307283 0.793213 0.467977
Si Si3 0.479474 0.797736 0.815661
Si Si4 0.116730 0.093280 0.435535
Si Si5 0.369614 0.741257 0.516674
Si Si6 0.124247 0.411106 0.492827
Si Si7 0.716553 0.779959 0.050645
Si Si8 0.732908 0.485521 0.929639
O O1 0.682587 0.770448 0.333461
O O2 0.038492 0.923957 0.303634
O O3 0.000000 0.500000 0.000000
O O4 0.190131 0.713710 0.949816
O O5 0.191076 0.771605 0.588445
O O6 0.064620 0.781282 0.558631
O O7 0.500000 0.000000 0.500000
O O8 0.505027 0.576682 0.180013
O O9 0.568905 0.865327 0.744536
O O10 0.721795 0.636327 0.574370
O O11 0.500000 0.000000 0.000000
O O12 0.971211 0.336672 0.701349
O O13 0.000000 0.000000 0.500000
O O14 0.346535 0.496058 0.375531
O O15 0.297427 0.960913 0.761804
O O16 0.928674 0.628700 0.773886
O O17 0.421404 0.684144 0.146313
O O18 0.791648 0.702321 0.015011
#
# Coordination Sequence:
#
# PCOD9102997 Si02
#       8
#     2   2   2   2   2   2   2   2
#     4  11  24  44  71 101 138 189 235 283 347 423
#     4  11  25  38  65 102 135 178 225 291 351 408
#     4  10  23  41  69  99 134 184 236 280 345 419
#     4  11  24  43  69  98 138 187 239 288 352 409
#     4  12  23  42  69 101 138 178 235 282 356 422
#     4  11  23  42  66  99 142 175 232 287 351 419
#     4  10  20  38  68  95 128 176 224 283 343 420
#     4  10  20  38  64  95 129 172 224 281 350 408
#
# _framework density 23.963395999999999
#
# number of rings (size 3 to 8) (size 9 to 14) (size 15 to 20)
#    0.000    1.250    5.000    0.750    5.250    0.000 
#    0.000    0.625    2.750    0.000    0.000    0.000 
#    0.000    0.000    0.000    0.000    0.000    0.000 
#
# Total GULP energy -89168.850648 kJ/mol
# GULP energy per Si atom -5573.053165 kJ/mol
# Density = 2.390885 g / cm^3
# Si number density = 23.963396 Si / 1000 Ang^3
#
#
#
# Elastic Constant Matrix: (Units=GPa)
#
#
# Indices 1 2 3 4 5 6 
#
# 1 60.0096 28.5625 7.6322 -10.3618 11.3442 -14.2592
# 2 28.5625 128.1611 29.3919 -9.4834 5.0434 -16.2218
# 3 7.6322 29.3919 92.9796 -5.3244 0.5206 4.3808
# 4 -10.3618 -9.4834 -5.3244 43.6159 -3.7477 5.3699
# 5 11.3442 5.0434 0.5206 -3.7477 21.9196 -1.7482
# 6 -14.2592 -16.2218 4.3808 5.3699 -1.7482 35.9807
#
#
#
# Elastic Compliance Matrix: (Units=1/GPa)
#
#
# Indices 1 2 3 4 5 6 
#
# 1 0.022236 -0.003343 -0.000860 0.002813 -0.009718 0.006518
# 2 -0.003343 0.009676 -0.002909 0.000541 -0.000071 0.003308
# 3 -0.000860 -0.002909 0.011955 0.001086 0.000758 -0.003233
# 4 0.002813 0.000541 0.001086 0.024332 0.002371 -0.002289
# 5 -0.009718 -0.000071 0.000758 0.002371 0.050906 -0.001856
# 6 0.006518 0.003308 -0.003233 -0.002289 -0.001856 0.032512
#
#
# Mechanical properties :
#
#
# Convention : Reuss Voigt Hill
#
# Bulk Modulus (GPa) = 33.73344 45.81372 39.77358
# Shear Modulus (GPa) = 28.45398 34.67416 31.56407
#
# Velocity S-wave (km/s) = 3.44960 3.80802 3.63323
# Velocity P-wave (km/s) = 5.47484 6.20439 5.85100
#
# Compressibility (1/GPa) = 0.02964417
#
# Stress axis : x y z
#
# Youngs Moduli (GPa) = 44.97226 103.34548 83.64398
#
# Poissons Ratio (x) = 0.34546 0.07194
# Poissons Ratio (y) = 0.15033 0.24331
# Poissons Ratio (z) = 0.03868 0.30062
#
# Static dielectric constant tensor:
#      x y z
#    x 2.044160 -0.050400 0.025780 
#    y -0.050400 2.054330 -0.065290 
#    z 0.025780 -0.065290 1.995330 
# 
# From -- ./inp_files/612201.got.cif
#   From: 2010.05.17/outbox.cif.g08.bks.cpg/sg2_307_cif.got.tgz:612201.got - 2010.06.03 11:33:40.
