data_PCOD9102131
_publ_section_title
;
Structure prediction by ZEFSAII (Michael W. Deem and Ramdas Pophale) SiO2 
 PCOD9102131
Probable space group: P -1
;
_chemical_formula_sum "Si O2"
_cell_formula_units_Z 12
_cell_length_a 11.670532
_cell_length_b 14.420051
_cell_length_c 9.904766
_cell_angle_alpha 153.356748
_cell_angle_beta 37.209654
_cell_angle_gamma 144.470362
_cell_volume 418.863463
_symmetry_space_group_name_H-M "P -1"
_symmetry_group_IT_number 2
_symmetry_cell_setting 'triclinic'
loop_
_space_group_symop_operation_xyz
x,y,z
-x,-y,-z
loop_
_atom_site_type_symbol
_atom_site_label
_atom_site_fract_x
_atom_site_fract_y
_atom_site_fract_z
Si Si1 0.173379 0.975918 0.133455
Si Si2 0.412585 0.676587 0.748812
Si Si3 0.854630 0.161787 0.592384
Si Si4 0.759604 0.664276 0.084724
Si Si5 0.274074 0.942714 0.696022
Si Si6 0.303165 0.428801 0.271483
O O1 0.378853 0.105946 0.189950
O O2 0.069748 0.159885 0.440010
O O3 0.240778 0.898045 0.827641
O O4 0.971904 0.769321 0.102325
O O5 0.500000 0.500000 0.500000
O O6 0.288446 0.582312 0.606350
O O7 0.262834 0.724057 0.057635
O O8 0.725162 0.892753 0.374554
O O9 0.858095 0.225641 0.514326
O O10 0.551559 0.503131 0.133493
O O11 0.774235 0.553883 0.783721
O O12 0.500000 0.000000 0.500000
O O13 0.224360 0.166113 0.027712
#
# Coordination Sequence:
#
# PCOD9102131 Si02
#       6
#     2   2   2   2   2   2
#     4  10  21  38  60  88 114 157 198 231 300 347
#     4  12  22  36  60  94 120 149 191 254 294 333
#     4   9  21  37  60  82 122 155 194 235 295 351
#     4   8  21  41  61  80 115 168 191 232 294 348
#     4  11  18  36  64  84 114 158 194 238 289 344
#     4  10  20  38  62  85 121 149 201 243 282 351
#
# _framework density 28.648952000000001
#
# number of rings (size 3 to 8) (size 9 to 14) (size 15 to 20)
#    1.000    1.000    3.333    0.500    0.000    2.000 
#    0.000    2.500    0.000    0.000    0.000    0.000 
#    0.000    0.000    0.000    0.000    0.000    0.000 
#
# Total GULP energy -67167.311799 kJ/mol
# GULP energy per Si atom -5597.275983 kJ/mol
# Density = 2.858375 g / cm^3
# Si number density = 28.648952 Si / 1000 Ang^3
#
#
#
# Elastic Constant Matrix: (Units=GPa)
#
#
# Indices 1 2 3 4 5 6 
#
# 1 112.0979 20.7795 57.1898 -5.1352 6.2400 31.8648
# 2 20.7795 116.4674 22.9008 12.1049 4.4592 40.1846
# 3 57.1898 22.9008 213.5320 -6.7644 16.3336 15.6885
# 4 -5.1352 12.1049 -6.7644 48.7303 8.4202 -0.6218
# 5 6.2400 4.4592 16.3336 8.4202 61.9627 -5.7729
# 6 31.8648 40.1846 15.6885 -0.6218 -5.7729 48.1604
#
#
#
# Elastic Compliance Matrix: (Units=1/GPa)
#
#
# Indices 1 2 3 4 5 6 
#
# 1 0.012697 0.001268 -0.002749 0.000801 -0.001568 -0.008741
# 2 0.001268 0.012882 -0.000858 -0.003076 -0.001484 -0.011525
# 3 -0.002749 -0.000858 0.005590 0.000915 -0.001205 0.000581
# 4 0.000801 -0.003076 0.000915 0.022026 -0.002938 0.001671
# 5 -0.001568 -0.001484 -0.001205 -0.002938 0.017562 0.004736
# 6 -0.008741 -0.011525 0.000581 0.001671 0.004736 0.036564
#
#
# Mechanical properties :
#
#
# Convention : Reuss Voigt Hill
#
# Bulk Modulus (GPa) = 37.75044 71.53749 54.64396
# Shear Modulus (GPa) = 41.38110 54.51918 47.95014
#
# Velocity S-wave (km/s) = 3.80467 4.36708 4.09554
# Velocity P-wave (km/s) = 5.70142 7.10303 6.44047
#
# Compressibility (1/GPa) = 0.02648976
#
# Stress axis : x y z
#
# Youngs Moduli (GPa) = 78.75955 77.62929 178.89416
#
# Poissons Ratio (x) = -0.09842 0.49178
# Poissons Ratio (y) = -0.09986 0.15353
# Poissons Ratio (z) = 0.21651 0.06662
#
# Static dielectric constant tensor:
#      x y z
#    x 2.234090 -0.074760 -0.005180 
#    y -0.074760 2.266210 0.016110 
#    z -0.005180 0.016110 2.180050 
# 
# From -- ./inp_files/219449.got.cif
#   From: 2010.05.17/outbox.cif.g08.bks.cpg/sg2_110_cif.got.tgz:219449.got - 2010.06.03 11:33:40.
