data_PCOD9102078
_publ_section_title
;
Structure prediction by ZEFSAII (Michael W. Deem and Ramdas Pophale) SiO2 
 PCOD9102078
Probable space group: P -1
;
_chemical_formula_sum "Si O2"
_cell_formula_units_Z 11
_cell_length_a 10.546683
_cell_length_b 13.566887
_cell_length_c 7.310932
_cell_angle_alpha 128.134509
_cell_angle_beta 135.481527
_cell_angle_gamma 32.231768
_cell_volume 390.895784
_symmetry_space_group_name_H-M "P -1"
_symmetry_group_IT_number 2
_symmetry_cell_setting 'triclinic'
loop_
_space_group_symop_operation_xyz
x,y,z
-x,-y,-z
loop_
_atom_site_type_symbol
_atom_site_label
_atom_site_fract_x
_atom_site_fract_y
_atom_site_fract_z
Si Si1 0.000000 0.000000 0.000000
Si Si2 0.262000 0.750056 0.352234
Si Si3 0.736601 0.682709 0.700314
Si Si4 0.575918 0.342957 0.188435
Si Si5 0.231025 0.089808 0.202536
Si Si6 0.773758 0.712337 0.171093
O O1 0.287415 0.794959 0.996696
O O2 0.859366 0.930732 0.729962
O O3 0.437900 0.782345 0.528454
O O4 0.438328 0.543147 0.232236
O O5 0.236768 0.746000 0.540098
O O6 0.983459 0.887991 0.113122
O O7 0.806455 0.745115 0.684702
O O8 0.932780 0.462149 0.648228
O O9 0.788016 0.737924 0.001284
O O10 0.338733 0.372952 0.043396
O O11 0.531225 0.908168 0.241314
#
# Coordination Sequence:
#
# PCOD9102078 Si02
#       6
#     1   2   2   2   2   2
#     4  10  24  40  64  90 134 174 208 250 330 384
#     4  10  21  39  71  96 119 164 224 263 311 368
#     4  10  20  38  61  96 127 163 206 275 314 366
#     4   9  19  40  63  95 126 166 208 266 311 384
#     4  11  22  42  63  93 127 175 206 263 317 383
#     4   9  19  36  61  92 127 161 207 259 320 370
#
# _framework density 28.140494
#
# number of rings (size 3 to 8) (size 9 to 14) (size 15 to 20)
#    0.000    2.182    1.818    0.545    2.545    7.273 
#    6.545    1.818    0.000    0.000    0.000    0.000 
#    0.000    0.000    0.000    0.000    0.000    0.000 
#
# Total GULP energy -61377.152509 kJ/mol
# GULP energy per Si atom -5579.741137 kJ/mol
# Density = 2.807645 g / cm^3
# Si number density = 28.140494 Si / 1000 Ang^3
#
#
#
# Elastic Constant Matrix: (Units=GPa)
#
#
# Indices 1 2 3 4 5 6 
#
# 1 95.9422 19.9425 27.8480 -7.8723 14.0542 -7.7452
# 2 19.9425 86.8249 19.1318 -19.5523 -5.8869 4.6178
# 3 27.8480 19.1318 85.0941 -33.4024 30.2307 15.0199
# 4 -7.8723 -19.5523 -33.4024 42.3315 1.8442 -0.2939
# 5 14.0542 -5.8869 30.2307 1.8442 48.8869 8.3460
# 6 -7.7452 4.6178 15.0199 -0.2939 8.3460 45.7813
#
#
#
# Elastic Compliance Matrix: (Units=1/GPa)
#
#
# Indices 1 2 3 4 5 6 
#
# 1 0.012755 -0.002813 -0.004641 -0.002482 -0.001772 0.004271
# 2 -0.002813 0.013833 -0.001110 0.004830 0.003335 -0.002084
# 3 -0.004641 -0.001110 0.029665 0.022712 -0.016771 -0.007202
# 4 -0.002482 0.004830 0.022712 0.043861 -0.013444 -0.005626
# 5 -0.001772 0.003335 -0.016771 -0.013444 0.032438 -0.001134
# 6 0.004271 -0.002084 -0.007202 -0.005626 -0.001134 0.025309
#
#
# Mechanical properties :
#
#
# Convention : Reuss Voigt Hill
#
# Bulk Modulus (GPa) = 25.55949 44.63396 35.09672
# Shear Modulus (GPa) = 26.59141 40.79589 33.69365
#
# Velocity S-wave (km/s) = 3.07734 3.81165 3.46401
# Velocity P-wave (km/s) = 4.66146 5.93861 5.33837
#
# Compressibility (1/GPa) = 0.03912441
#
# Stress axis : x y z
#
# Youngs Moduli (GPa) = 78.39816 72.29134 33.71006
#
# Poissons Ratio (x) = 0.20339 0.15644
# Poissons Ratio (y) = 0.22057 0.03742
# Poissons Ratio (z) = 0.36383 0.08025
#
# Static dielectric constant tensor:
#      x y z
#    x 1.643750 -0.125430 0.174710 
#    y -0.125430 2.031480 0.014760 
#    z 0.174710 0.014760 2.296420 
# 
# From -- ./inp_files/269086.got.cif
#   From: 2010.05.17/outbox.cif.g08.bks.cpg/sg2_135_cif.got.tgz:269086.got - 2010.06.03 11:33:40.
