data_PCOD9102647
_publ_section_title
;
Structure prediction by ZEFSAII (Michael W. Deem and Ramdas Pophale) SiO2 
 PCOD9102647
Probable space group: P -1
;
_chemical_formula_sum "Si O2"
_cell_formula_units_Z 14
_cell_length_a 7.741872
_cell_length_b 18.630719
_cell_length_c 7.982806
_cell_angle_alpha 138.809356
_cell_angle_beta 99.919214
_cell_angle_gamma 55.116165
_cell_volume 546.435002
_symmetry_space_group_name_H-M "P -1"
_symmetry_group_IT_number 2
_symmetry_cell_setting 'triclinic'
loop_
_space_group_symop_operation_xyz
x,y,z
-x,-y,-z
loop_
_atom_site_type_symbol
_atom_site_label
_atom_site_fract_x
_atom_site_fract_y
_atom_site_fract_z
Si Si1 0.009868 0.107896 0.427274
Si Si2 0.360358 0.325833 0.890720
Si Si3 0.086999 0.610959 0.202710
Si Si4 0.259158 0.444829 0.443347
Si Si5 0.959810 0.266168 0.236008
Si Si6 0.317970 0.011367 0.610993
Si Si7 0.308470 0.823227 0.789449
O O1 0.926155 0.267013 0.670657
O O2 0.094107 0.064400 0.554886
O O3 0.805935 0.129641 0.330505
O O4 0.244760 0.965753 0.113865
O O5 0.097607 0.384439 0.922749
O O6 0.538950 0.152216 0.584368
O O7 0.390253 0.348735 0.127565
O O8 0.338699 0.442916 0.978896
O O9 0.002111 0.673201 0.488858
O O10 0.420718 0.331725 0.421533
O O11 0.000000 0.500000 0.500000
O O12 0.210463 0.593802 0.673308
O O13 0.834671 0.210165 0.187474
O O14 0.203175 0.133956 0.950316
O O15 0.500000 0.000000 0.500000
#
# Coordination Sequence:
#
# PCOD9102647 Si02
#       7
#     2   2   2   2   2   2   2
#     4  10  21  40  68  90 136 171 215 265 333 379
#     4  10  20  38  63  93 136 167 213 272 325 381
#     4   9  20  40  61  93 132 176 212 269 330 382
#     4  11  22  40  70  99 127 173 221 273 324 390
#     4  10  24  40  67  95 133 173 222 261 337 391
#     4  12  22  39  69 100 131 171 225 277 319 385
#     4  10  22  44  65  93 134 177 216 268 326 401
#
# _framework density 25.620612000000001
#
# number of rings (size 3 to 8) (size 9 to 14) (size 15 to 20)
#    0.000    1.714    2.857    1.286    0.000    1.143 
#    0.000    6.429    3.143    0.000    0.000    0.000 
#    0.000    0.000    0.000    0.000    0.000    0.000 
#
# Total GULP energy -78321.945588 kJ/mol
# GULP energy per Si atom -5594.424685 kJ/mol
# Density = 2.556230 g / cm^3
# Si number density = 25.620612 Si / 1000 Ang^3
#
#
#
# Elastic Constant Matrix: (Units=GPa)
#
#
# Indices 1 2 3 4 5 6 
#
# 1 84.6494 23.5982 29.6792 6.6066 -7.0284 14.6285
# 2 23.5982 125.8787 44.0700 35.1647 -3.7369 -20.3959
# 3 29.6792 44.0700 150.5565 26.9398 2.4883 7.0298
# 4 6.6066 35.1647 26.9398 61.1893 2.6937 11.4738
# 5 -7.0284 -3.7369 2.4883 2.6937 37.0170 0.7230
# 6 14.6285 -20.3959 7.0298 11.4738 0.7230 31.6055
#
#
#
# Elastic Compliance Matrix: (Units=1/GPa)
#
#
# Indices 1 2 3 4 5 6 
#
# 1 0.015941 -0.005484 -0.001797 0.004393 0.002512 -0.012169
# 2 -0.005484 0.015494 -0.002386 -0.010469 0.001116 0.016843
# 3 -0.001797 -0.002386 0.008085 -0.001594 -0.000972 -0.001905
# 4 0.004393 -0.010469 -0.001594 0.026005 -0.001660 -0.017837
# 5 0.002512 0.001116 -0.000972 -0.001660 0.027795 -0.000259
# 6 -0.012169 0.016843 -0.001905 -0.017837 -0.000259 0.055047
#
#
# Mechanical properties :
#
#
# Convention : Reuss Voigt Hill
#
# Bulk Modulus (GPa) = 49.53558 61.75327 55.64443
# Shear Modulus (GPa) = 28.66502 43.54484 36.10493
#
# Velocity S-wave (km/s) = 3.34852 4.12710 3.75802
# Velocity P-wave (km/s) = 5.85887 6.84586 6.37151
#
# Compressibility (1/GPa) = 0.02018751
#
# Stress axis : x y z
#
# Youngs Moduli (GPa) = 62.73199 64.53998 123.68759
#
# Poissons Ratio (x) = 0.35392 0.22221
# Poissons Ratio (y) = 0.34401 0.29511
# Poissons Ratio (z) = 0.11270 0.15399
#
# Static dielectric constant tensor:
#      x y z
#    x 2.087380 0.028240 -0.027550 
#    y 0.028240 1.996700 0.015160 
#    z -0.027550 0.015160 2.081430 
# 
# From -- ./inp_files/224247.got.cif
#   From: 2010.05.17/outbox.cif.g08.bks.cpg/sg2_113_cif.got.tgz:224247.got - 2010.06.03 11:33:40.
