data_PCOD9102291
_publ_section_title
;
Structure prediction by ZEFSAII (Michael W. Deem and Ramdas Pophale) SiO2 
 PCOD9102291
Probable space group: P -1
;
_chemical_formula_sum "Si O2"
_cell_formula_units_Z 16
_cell_length_a 13.221557
_cell_length_b 13.102383
_cell_length_c 9.529013
_cell_angle_alpha 63.392075
_cell_angle_beta 112.772053
_cell_angle_gamma 148.266451
_cell_volume 776.223712
_symmetry_space_group_name_H-M "P -1"
_symmetry_group_IT_number 2
_symmetry_cell_setting 'triclinic'
loop_
_space_group_symop_operation_xyz
x,y,z
-x,-y,-z
loop_
_atom_site_type_symbol
_atom_site_label
_atom_site_fract_x
_atom_site_fract_y
_atom_site_fract_z
Si Si1 0.163831 0.278098 0.808092
Si Si2 0.291196 0.785245 0.076868
Si Si3 0.753468 0.814060 0.837544
Si Si4 0.575501 0.909988 0.689881
Si Si5 0.055470 0.685693 0.237032
Si Si6 0.231124 0.722564 0.781000
Si Si7 0.488912 0.412190 0.412741
Si Si8 0.524692 0.858880 0.378818
O O1 0.312579 0.421686 0.672573
O O2 0.090660 0.335369 0.799661
O O3 0.256190 0.281187 0.979798
O O4 0.972482 0.046239 0.800009
O O5 0.172943 0.784301 0.091287
O O6 0.350258 0.746668 0.253835
O O7 0.192833 0.656289 0.962337
O O8 0.500000 0.000000 0.000000
O O9 0.629502 0.823467 0.792173
O O10 0.671793 0.692509 0.724679
O O11 0.426335 0.827553 0.773152
O O12 0.483640 0.848026 0.526565
O O13 0.774298 0.150071 0.661450
O O14 0.934851 0.466273 0.292646
O O15 0.286352 0.903051 0.697488
O O16 0.500000 0.500000 0.500000
O O17 0.439266 0.243632 0.545061
#
# Coordination Sequence:
#
# PCOD9102291 Si02
#       8
#     2   2   2   2   2   2   2   2
#     4  10  22  42  66  94 121 162 216 254 300 369
#     4  10  21  40  59  87 128 162 204 251 306 362
#     4   9  21  42  65  94 122 161 213 257 302 358
#     4  10  20  38  62  90 126 158 200 254 303 364
#     4  11  21  37  65  92 120 160 210 250 302 363
#     4  11  22  38  61  89 127 160 207 251 301 368
#     4  11  24  43  64  92 127 163 203 254 317 369
#     4  10  22  41  58  90 125 162 201 249 311 366
#
# _framework density 20.612614000000001
#
# number of rings (size 3 to 8) (size 9 to 14) (size 15 to 20)
#    0.000    1.750    2.500    2.625    0.000    3.000 
#   13.500    0.000    0.000    0.000    0.000    0.000 
#    0.000    0.000    0.000    0.000    0.000    0.000 
#
# Total GULP energy -89257.288733 kJ/mol
# GULP energy per Si atom -5578.580546 kJ/mol
# Density = 2.056570 g / cm^3
# Si number density = 20.612614 Si / 1000 Ang^3
#
#
#
# Elastic Constant Matrix: (Units=GPa)
#
#
# Indices 1 2 3 4 5 6 
#
# 1 94.6833 53.9022 67.9607 6.0938 -9.3806 -6.5230
# 2 53.9022 106.6245 43.0142 -6.7144 -10.9133 -14.1695
# 3 67.9607 43.0142 110.1354 15.4348 -6.3039 -5.6481
# 4 6.0938 -6.7144 15.4348 28.6933 -6.5573 -8.3178
# 5 -9.3806 -10.9133 -6.3039 -6.5573 26.9068 1.5216
# 6 -6.5230 -14.1695 -5.6481 -8.3178 1.5216 35.9790
#
#
#
# Elastic Compliance Matrix: (Units=1/GPa)
#
#
# Indices 1 2 3 4 5 6 
#
# 1 0.022691 -0.006687 -0.011284 0.000180 0.002619 -0.000360
# 2 -0.006687 0.015982 -0.002843 0.009889 0.005517 0.006689
# 3 -0.011284 -0.002843 0.018180 -0.009416 -0.002989 -0.002362
# 4 0.000180 0.009889 -0.009416 0.049012 0.013064 0.013227
# 5 0.002619 0.005517 -0.002989 0.013064 0.042608 0.003397
# 6 -0.000360 0.006689 -0.002362 0.013227 0.003397 0.032906
#
#
# Mechanical properties :
#
#
# Convention : Reuss Voigt Hill
#
# Bulk Modulus (GPa) = 65.67734 71.24415 68.46074
# Shear Modulus (GPa) = 21.92196 28.08689 25.00442
#
# Velocity S-wave (km/s) = 3.26471 3.69535 3.48669
# Velocity P-wave (km/s) = 6.79286 7.26952 7.03523
#
# Compressibility (1/GPa) = 0.01522595
#
# Stress axis : x y z
#
# Youngs Moduli (GPa) = 44.07102 62.56885 55.00536
#
# Poissons Ratio (x) = 0.41842 0.62066
# Poissons Ratio (y) = 0.29472 0.15636
# Poissons Ratio (z) = 0.49728 0.17786
#
# Static dielectric constant tensor:
#      x y z
#    x 1.724170 -0.006670 0.000100 
#    y -0.006670 1.808730 -0.003740 
#    z 0.000100 -0.003740 1.775080 
# 
# From -- ./inp_files/312835.got.cif
#   From: 2010.05.17/outbox.cif.g08.bks.cpg/sg2_157_cif.got.tgz:312835.got - 2010.06.03 11:33:40.
