data_PCOD9102051
_publ_section_title
;
Structure prediction by ZEFSAII (Michael W. Deem and Ramdas Pophale) SiO2 
 PCOD9102051
Probable space group: P -1
;
_chemical_formula_sum "Si O2"
_cell_formula_units_Z 16
_cell_length_a 14.601837
_cell_length_b 19.050843
_cell_length_c 5.152237
_cell_angle_alpha 102.863919
_cell_angle_beta 118.509578
_cell_angle_gamma 31.465407
_cell_volume 601.888756
_symmetry_space_group_name_H-M "P -1"
_symmetry_group_IT_number 2
_symmetry_cell_setting 'triclinic'
loop_
_space_group_symop_operation_xyz
x,y,z
-x,-y,-z
loop_
_atom_site_type_symbol
_atom_site_label
_atom_site_fract_x
_atom_site_fract_y
_atom_site_fract_z
Si Si1 0.416236 0.991935 0.590465
Si Si2 0.479397 0.659958 0.646530
Si Si3 0.082313 0.551198 0.994466
Si Si4 0.047415 0.238454 0.650879
Si Si5 0.674402 0.415044 0.951997
Si Si6 0.039759 0.122870 0.936735
Si Si7 0.666805 0.178912 0.946687
Si Si8 0.705777 0.696560 0.569421
O O1 0.286038 0.104176 0.749891
O O2 0.218627 0.065034 0.265451
O O3 0.500000 0.000000 0.500000
O O4 0.594180 0.821772 0.719310
O O5 0.407305 0.734599 0.337825
O O6 0.696989 0.569987 0.947785
O O7 0.563766 0.528585 0.672079
O O8 0.321718 0.774652 0.758301
O O9 0.889224 0.634595 0.636000
O O10 0.161851 0.447145 0.236563
O O11 0.002865 0.671956 0.125061
O O12 0.853922 0.357785 0.284714
O O13 0.025369 0.170856 0.680099
O O14 0.820245 0.264929 0.906666
O O15 0.500000 0.500000 0.000000
O O16 0.118722 0.994493 0.940428
O O17 0.489634 0.221711 0.778391
#
# Coordination Sequence:
#
# PCOD9102051 Si02
#       8
#     2   2   2   2   2   2   2   2
#     4  10  22  38  58  93 134 181 229 273 333 403
#     4  11  23  45  68  99 135 185 225 290 347 406
#     4  10  20  38  61  93 131 176 227 276 334 395
#     4  11  23  42  69  92 137 179 226 292 342 408
#     4  11  25  45  71 100 132 173 233 294 356 417
#     4  10  23  42  66  98 131 181 227 281 345 411
#     4  10  24  43  69  96 144 182 229 275 347 407
#     4   9  20  37  55  93 132 178 225 270 320 402
#
# _framework density 26.582982999999999
#
# number of rings (size 3 to 8) (size 9 to 14) (size 15 to 20)
#    0.000    1.750    1.250    2.250    8.750    3.000 
#    9.000    1.250    0.000    0.000    0.000    0.000 
#    0.000    0.000    0.000    0.000    0.000    0.000 
#
# Total GULP energy -89531.400996 kJ/mol
# GULP energy per Si atom -5595.712562 kJ/mol
# Density = 2.652248 g / cm^3
# Si number density = 26.582983 Si / 1000 Ang^3
#
#
#
# Elastic Constant Matrix: (Units=GPa)
#
#
# Indices 1 2 3 4 5 6 
#
# 1 110.9055 66.6880 17.1461 -13.1090 -0.1894 -16.8500
# 2 66.6880 194.9693 23.5100 11.3528 -4.7333 -4.4896
# 3 17.1461 23.5100 64.1069 -14.2299 3.6672 -5.3844
# 4 -13.1090 11.3528 -14.2299 38.1234 -10.4323 2.1502
# 5 -0.1894 -4.7333 3.6672 -10.4323 37.0945 -5.6992
# 6 -16.8500 -4.4896 -5.3844 2.1502 -5.6992 50.3250
#
#
#
# Elastic Compliance Matrix: (Units=1/GPa)
#
#
# Indices 1 2 3 4 5 6 
#
# 1 0.013211 -0.004716 -0.000215 0.006143 0.001817 0.003923
# 2 -0.004716 0.007295 -0.002542 -0.004779 -0.000345 -0.001035
# 3 -0.000215 -0.002542 0.018359 0.007508 0.000181 0.001365
# 4 0.006143 -0.004779 0.007508 0.034862 0.008782 0.001939
# 5 0.001817 -0.000345 0.000181 0.008782 0.029930 0.003611
# 6 0.003923 -0.001035 0.001365 0.001939 0.003611 0.021564
#
#
# Mechanical properties :
#
#
# Convention : Reuss Voigt Hill
#
# Bulk Modulus (GPa) = 41.80628 64.96333 53.38480
# Shear Modulus (GPa) = 33.75187 42.61776 38.18481
#
# Velocity S-wave (km/s) = 3.56712 4.00834 3.79415
# Velocity P-wave (km/s) = 5.72072 6.77594 6.27057
#
# Compressibility (1/GPa) = 0.02391985
#
# Stress axis : x y z
#
# Youngs Moduli (GPa) = 75.69521 137.08703 54.46774
#
# Poissons Ratio (x) = 0.64651 0.01170
# Poissons Ratio (y) = 0.35698 0.13844
# Poissons Ratio (z) = 0.01626 0.34844
#
# Static dielectric constant tensor:
#      x y z
#    x 2.154000 -0.001540 0.066990 
#    y -0.001540 2.047400 0.047770 
#    z 0.066990 0.047770 2.141840 
# 
# From -- ./inp_files/99840.got.cif
#   From: 2010.05.17/outbox.cif.g08.bks.cpg/sg2_50_cif.got.tgz:99840.got - 2010.06.03 11:33:40.
