data_PCOD9102719
_publ_section_title
;
Structure prediction by ZEFSAII (Michael W. Deem and Ramdas Pophale) SiO2 
 PCOD9102719
Probable space group: P -1
;
_chemical_formula_sum "Si O2"
_cell_formula_units_Z 16
_cell_length_a 7.630467
_cell_length_b 13.244818
_cell_length_c 8.899360
_cell_angle_alpha 67.306989
_cell_angle_beta 95.239343
_cell_angle_gamma 126.967227
_cell_volume 650.789816
_symmetry_space_group_name_H-M "P -1"
_symmetry_group_IT_number 2
_symmetry_cell_setting 'triclinic'
loop_
_space_group_symop_operation_xyz
x,y,z
-x,-y,-z
loop_
_atom_site_type_symbol
_atom_site_label
_atom_site_fract_x
_atom_site_fract_y
_atom_site_fract_z
Si Si1 0.796679 0.070387 0.411406
Si Si2 0.685090 0.507572 0.658589
Si Si3 0.294730 0.204394 0.862414
Si Si4 0.919642 0.967647 0.759976
Si Si5 0.651640 0.160313 0.876572
Si Si6 0.405113 0.583290 0.633939
Si Si7 0.015549 0.561938 0.124515
Si Si8 0.676649 0.192479 0.538765
O O1 0.822937 0.201118 0.408535
O O2 0.954159 0.081107 0.290352
O O3 0.812429 0.998065 0.601624
O O4 0.548456 0.965578 0.386322
O O5 0.441479 0.369011 0.774196
O O6 0.650357 0.620674 0.642462
O O7 0.689619 0.497286 0.485681
O O8 0.866499 0.488933 0.738321
O O9 0.468926 0.183514 0.825172
O O10 0.235669 0.146047 0.060346
O O11 0.083731 0.108242 0.791647
O O12 0.822638 0.270492 0.950577
O O13 0.782215 0.209809 0.699949
O O14 0.500000 0.000000 0.000000
O O15 0.402318 0.713940 0.544664
O O16 0.226035 0.496348 0.800552
O O17 0.000000 0.500000 0.000000
#
# Coordination Sequence:
#
# PCOD9102719 Si02
#       8
#     2   2   2   2   2   2   2   2
#     4  10  22  39  63 101 138 177 231 290 354 408
#     4  10  23  45  72  98 136 187 236 295 348 420
#     4  10  20  40  64  95 139 178 228 281 359 419
#     4  10  20  38  63  99 133 179 227 284 347 431
#     4  11  23  43  70  98 140 185 227 283 363 423
#     4  11  23  46  72  98 136 187 244 283 348 430
#     4  11  26  47  72 109 142 184 242 294 354 425
#     4  11  22  42  66  96 137 184 226 291 352 422
#
# _framework density 24.585512999999999
#
# number of rings (size 3 to 8) (size 9 to 14) (size 15 to 20)
#    0.000    1.500    3.750    1.125    0.000    7.500 
#    9.000    0.000    0.000    0.000    0.000    0.000 
#    0.000    0.000    0.000    0.000    0.000    0.000 
#
# Total GULP energy -89430.997796 kJ/mol
# GULP energy per Si atom -5589.437362 kJ/mol
# Density = 2.452956 g / cm^3
# Si number density = 24.585513 Si / 1000 Ang^3
#
#
#
# Elastic Constant Matrix: (Units=GPa)
#
#
# Indices 1 2 3 4 5 6 
#
# 1 104.1346 2.4675 -6.5545 6.7803 -18.9900 -37.8665
# 2 2.4675 87.4671 7.7038 -2.1467 -13.7081 -21.0086
# 3 -6.5545 7.7038 52.6910 11.0373 -22.5309 -2.3986
# 4 6.7803 -2.1467 11.0373 35.7684 -4.2808 -1.4240
# 5 -18.9900 -13.7081 -22.5309 -4.2808 39.6021 3.2762
# 6 -37.8665 -21.0086 -2.3986 -1.4240 3.2762 45.0872
#
#
#
# Elastic Compliance Matrix: (Units=1/GPa)
#
#
# Indices 1 2 3 4 5 6 
#
# 1 0.019691 0.005209 0.009672 -0.003904 0.014814 0.018279
# 2 0.005209 0.014998 0.002318 0.000610 0.008172 0.010912
# 3 0.009672 0.002318 0.031228 -0.008391 0.021553 0.009034
# 4 -0.003904 0.000610 -0.008391 0.030886 -0.002910 -0.002254
# 5 0.014814 0.008172 0.021553 -0.002910 0.045976 0.013963
# 6 0.018279 0.010912 0.009034 -0.002254 0.013963 0.042011
#
#
# Mechanical properties :
#
#
# Convention : Reuss Voigt Hill
#
# Bulk Modulus (GPa) = 9.96851 27.94738 18.95794
# Shear Modulus (GPa) = 27.19928 40.13661 33.66794
#
# Velocity S-wave (km/s) = 3.32974 4.04484 3.70458
# Velocity P-wave (km/s) = 4.34123 5.76250 5.10160
#
# Compressibility (1/GPa) = 0.10031590
#
# Stress axis : x y z
#
# Youngs Moduli (GPa) = 50.78487 66.67408 32.02281
#
# Poissons Ratio (x) = -0.34730 -0.30973
# Poissons Ratio (y) = -0.26454 -0.07424
# Poissons Ratio (z) = -0.49120 -0.15457
#
# Static dielectric constant tensor:
#      x y z
#    x 1.989980 0.007500 0.016950 
#    y 0.007500 2.183360 -0.078930 
#    z 0.016950 -0.078930 1.966990 
# 
# From -- ./inp_files/186777.got.cif
#   From: 2010.05.17/outbox.cif.g08.bks.cpg/sg2_94_cif.got.tgz:186777.got - 2010.06.03 11:33:40.
