data_PCOD9102823
_publ_section_title
;
Structure prediction by ZEFSAII (Michael W. Deem and Ramdas Pophale) SiO2 
 PCOD9102823
Probable space group: P -1
;
_chemical_formula_sum "Si O2"
_cell_formula_units_Z 14
_cell_length_a 23.611995
_cell_length_b 4.695759
_cell_length_c 5.160597
_cell_angle_alpha 90.267696
_cell_angle_beta 100.018190
_cell_angle_gamma 56.091789
_cell_volume 464.639688
_symmetry_space_group_name_H-M "P -1"
_symmetry_group_IT_number 2
_symmetry_cell_setting 'triclinic'
loop_
_space_group_symop_operation_xyz
x,y,z
-x,-y,-z
loop_
_atom_site_type_symbol
_atom_site_label
_atom_site_fract_x
_atom_site_fract_y
_atom_site_fract_z
Si Si1 0.485034 0.236547 0.739267
Si Si2 0.899408 0.796447 0.210420
Si Si3 0.197693 0.674254 0.509411
Si Si4 0.772416 0.790187 0.964240
Si Si5 0.627888 0.019551 0.851394
Si Si6 0.000000 0.000000 0.000000
Si Si7 0.000000 0.500000 0.000000
Si Si8 0.657639 0.548346 0.373927
O O1 0.401964 0.528417 0.674905
O O2 0.500000 0.000000 0.500000
O O3 0.544820 0.312033 0.787150
O O4 0.500000 0.000000 0.000000
O O5 0.828621 0.880799 0.031521
O O6 0.966848 0.393513 0.220327
O O7 0.875784 0.992976 0.457973
O O8 0.934879 0.920528 0.026070
O O9 0.207590 0.460503 0.263416
O O10 0.259700 0.738317 0.553363
O O11 0.214294 0.428460 0.767647
O O12 0.689150 0.083631 0.893982
O O13 0.642318 0.786014 0.611371
O O14 0.642937 0.781136 0.111057
O O15 0.956444 0.352989 0.795408
#
# Coordination Sequence:
#
# PCOD9102823 Si02
#       8
#     2   2   2   2   2   1   1   2
#     4   8  12  20  38  65 100 139 186 238 289 348
#     4  10  20  38  64  89 124 158 206 255 318 372
#     4  10  21  37  59  86 119 158 203 253 310 372
#     4  10  21  37  59  86 119 158 203 253 310 372
#     4   8  14  25  43  71 104 144 191 240 295 355
#     4   8  18  36  64  92 126 162 208 258 314 384
#     4   8  18  36  64  92 126 162 208 258 314 384
#     4   8  14  25  43  71 104 144 191 240 295 355
#
# _framework density 30.130876000000001
#
# number of rings (size 3 to 8) (size 9 to 14) (size 15 to 20)
#    0.857    2.286    0.000    0.857    0.000    1.143 
#    0.000    1.429    0.000    0.857    0.000    0.000 
#    0.000   34.286    0.000    0.000    0.000    4.571 
#
# Total GULP energy -78022.621957 kJ/mol
# GULP energy per Si atom -5573.044425 kJ/mol
# Density = 3.006230 g / cm^3
# Si number density = 30.130876 Si / 1000 Ang^3
#
#
#
# Elastic Constant Matrix: (Units=GPa)
#
#
# Indices 1 2 3 4 5 6 
#
# 1 265.9492 82.2583 31.7284 17.4171 -24.3492 0.5650
# 2 82.2583 166.2604 52.9992 7.4038 -6.7519 17.2176
# 3 31.7284 52.9992 211.6892 14.6618 -21.9236 4.6091
# 4 17.4171 7.4038 14.6618 37.2552 -10.3688 -5.3248
# 5 -24.3492 -6.7519 -21.9236 -10.3688 50.0391 15.0299
# 6 0.5650 17.2176 4.6091 -5.3248 15.0299 56.2583
#
#
#
# Elastic Compliance Matrix: (Units=1/GPa)
#
#
# Indices 1 2 3 4 5 6 
#
# 1 0.004681 -0.002231 0.000128 -0.001303 0.001753 0.000034
# 2 -0.002231 0.007862 -0.001577 -0.000246 -0.000090 -0.002254
# 3 0.000128 -0.001577 0.005432 -0.001383 0.002143 -0.000667
# 4 -0.001303 -0.000246 -0.001383 0.029501 0.004285 0.001849
# 5 0.001753 -0.000090 0.002143 0.004285 0.024550 -0.006319
# 6 0.000034 -0.002254 -0.000667 0.001849 -0.006319 0.020382
#
#
# Mechanical properties :
#
#
# Convention : Reuss Voigt Hill
#
# Bulk Modulus (GPa) = 94.21314 108.65228 101.43271
# Shear Modulus (GPa) = 48.40019 60.50471 54.45245
#
# Velocity S-wave (km/s) = 4.01226 4.48600 4.25573
# Velocity P-wave (km/s) = 7.26637 7.93541 7.60825
#
# Compressibility (1/GPa) = 0.01061423
#
# Stress axis : x y z
#
# Youngs Moduli (GPa) = 213.65039 127.19680 184.09944
#
# Poissons Ratio (x) = 0.28376 -0.02356
# Poissons Ratio (y) = 0.47662 0.29035
# Poissons Ratio (z) = -0.02734 0.20061
#
# Static dielectric constant tensor:
#      x y z
#    x 2.460760 -0.061730 -0.010420 
#    y -0.061730 1.918060 -0.325750 
#    z -0.010420 -0.325750 2.051070 
# 
# From -- ./inp_files/120996.got.cif
#   From: 2010.05.17/outbox.cif.g08.bks.cpg/sg2_61_cif.got.tgz:120996.got - 2010.06.03 11:33:40.
