data_PCOD9102690
_publ_section_title
;
Structure prediction by ZEFSAII (Michael W. Deem and Ramdas Pophale) SiO2 
 PCOD9102690
Probable space group: P -1
;
_chemical_formula_sum "Si O2"
_cell_formula_units_Z 14
_cell_length_a 9.184109
_cell_length_b 9.354989
_cell_length_c 8.841324
_cell_angle_alpha 89.861511
_cell_angle_beta 104.290609
_cell_angle_gamma 112.971783
_cell_volume 673.974962
_symmetry_space_group_name_H-M "P -1"
_symmetry_group_IT_number 2
_symmetry_cell_setting 'triclinic'
loop_
_space_group_symop_operation_xyz
x,y,z
-x,-y,-z
loop_
_atom_site_type_symbol
_atom_site_label
_atom_site_fract_x
_atom_site_fract_y
_atom_site_fract_z
Si Si1 0.716136 0.234879 0.039734
Si Si2 0.609964 0.475189 0.167626
Si Si3 0.780648 0.986952 0.463189
Si Si4 0.670762 0.783270 0.724618
Si Si5 0.973147 0.819097 0.984710
Si Si6 0.102748 0.211933 0.691676
Si Si7 0.492294 0.992750 0.226486
O O1 0.712744 0.388835 0.111587
O O2 0.617133 0.097927 0.131851
O O3 0.605819 0.181629 0.859555
O O4 0.887825 0.225930 0.051157
O O5 0.495474 0.361152 0.268973
O O6 0.736770 0.628665 0.283306
O O7 0.500000 0.500000 0.000000
O O8 0.740417 0.847464 0.576287
O O9 0.833077 0.924612 0.323822
O O10 0.612184 0.005393 0.394940
O O11 0.933640 0.144404 0.551814
O O12 0.638557 0.931574 0.780120
O O13 0.808043 0.746541 0.846827
O O14 0.949987 0.772293 0.152758
O O15 0.000000 0.000000 0.000000
#
# Coordination Sequence:
#
# PCOD9102690 Si02
#       7
#     2   2   2   2   2   2   2
#     4  10  22  36  67  97 124 164 215 259 317 363
#     4  11  23  43  63  94 130 168 207 265 308 378
#     4  11  23  39  66  93 125 169 209 264 316 374
#     4  11  23  39  67  94 126 162 214 259 319 367
#     4  12  20  39  66  98 122 161 216 269 298 378
#     4  11  24  39  62  93 131 161 212 256 322 363
#     4  10  20  38  63  96 125 160 212 268 308 375
#
# _framework density 20.772285
#
# number of rings (size 3 to 8) (size 9 to 14) (size 15 to 20)
#    0.000    1.143    4.286    2.143    4.000    1.143 
#    0.000    2.857    0.000    0.000    0.000    0.000 
#    0.000    0.000    0.000    0.000    0.000    0.000 
#
# Total GULP energy -78028.710480 kJ/mol
# GULP energy per Si atom -5573.479320 kJ/mol
# Density = 2.072501 g / cm^3
# Si number density = 20.772285 Si / 1000 Ang^3
#
#
#
# Elastic Constant Matrix: (Units=GPa)
#
#
# Indices 1 2 3 4 5 6 
#
# 1 147.9742 20.9621 42.3294 11.2641 7.3650 -15.4883
# 2 20.9621 81.3310 35.2669 25.7989 14.6368 13.2180
# 3 42.3294 35.2669 64.9662 18.0164 20.5424 -4.8927
# 4 11.2641 25.7989 18.0164 19.2318 9.1629 2.2132
# 5 7.3650 14.6368 20.5424 9.1629 36.7840 2.0669
# 6 -15.4883 13.2180 -4.8927 2.2132 2.0669 23.7844
#
#
#
# Elastic Compliance Matrix: (Units=1/GPa)
#
#
# Indices 1 2 3 4 5 6 
#
# 1 0.008885 -0.001093 -0.005180 -0.000096 0.001279 0.005225
# 2 -0.001093 0.026590 -0.007936 -0.026624 0.001533 -0.014777
# 3 -0.005180 -0.007936 0.029962 -0.010458 -0.010443 0.009081
# 4 -0.000096 -0.026624 -0.010458 0.101416 -0.009030 0.003930
# 5 0.001279 0.001533 -0.010443 -0.009030 0.034645 -0.004338
# 6 0.005225 -0.014777 0.009081 0.003930 -0.004338 0.055539
#
#
# Mechanical properties :
#
#
# Convention : Reuss Voigt Hill
#
# Bulk Modulus (GPa) = 27.01377 54.59869 40.80623
# Shear Modulus (GPa) = 16.79010 29.00756 22.89883
#
# Velocity S-wave (km/s) = 2.84613 3.74097 3.32380
# Velocity P-wave (km/s) = 4.88197 6.70830 5.86664
#
# Compressibility (1/GPa) = 0.03701815
#
# Stress axis : x y z
#
# Youngs Moduli (GPa) = 112.54668 37.60882 33.37513
#
# Poissons Ratio (x) = 0.04109 0.17290
# Poissons Ratio (y) = 0.12298 0.26488
# Poissons Ratio (z) = 0.58303 0.29848
#
# Static dielectric constant tensor:
#      x y z
#    x 1.780810 0.049450 -0.002530 
#    y 0.049450 1.762200 -0.021350 
#    z -0.002530 -0.021350 1.819270 
# 
# From -- ./inp_files/158887.got.cif
#   From: 2010.05.17/outbox.cif.g08.bks.cpg/sg2_80_cif.got.tgz:158887.got - 2010.06.03 11:33:40.
