data_PCOD9102746
_publ_section_title
;
Structure prediction by ZEFSAII (Michael W. Deem and Ramdas Pophale) SiO2 
 PCOD9102746
Probable space group: P -1
;
_chemical_formula_sum "Si O2"
_cell_formula_units_Z 16
_cell_length_a 15.085742
_cell_length_b 17.304152
_cell_length_c 14.709881
_cell_angle_alpha 24.457961
_cell_angle_beta 153.981878
_cell_angle_gamma 144.285533
_cell_volume 697.000857
_symmetry_space_group_name_H-M "P -1"
_symmetry_group_IT_number 2
_symmetry_cell_setting 'triclinic'
loop_
_space_group_symop_operation_xyz
x,y,z
-x,-y,-z
loop_
_atom_site_type_symbol
_atom_site_label
_atom_site_fract_x
_atom_site_fract_y
_atom_site_fract_z
Si Si1 0.076303 0.804467 0.734966
Si Si2 0.447228 0.578905 0.265889
Si Si3 0.699693 0.981019 0.584549
Si Si4 0.959493 0.980080 0.274018
Si Si5 0.277090 0.120993 0.088153
Si Si6 0.659108 0.182354 0.658456
Si Si7 0.200566 0.436199 0.539915
Si Si8 0.098355 0.363889 0.078498
O O1 0.947917 0.816241 0.511618
O O2 0.036494 0.650243 0.938931
O O3 0.000000 0.000000 0.500000
O O4 0.305085 0.764553 0.954743
O O5 0.500000 0.500000 0.500000
O O6 0.632846 0.609616 0.335988
O O7 0.308629 0.433018 0.238365
O O8 0.882869 0.068437 0.608084
O O9 0.522217 0.128612 0.293579
O O10 0.575275 0.844664 0.549869
O O11 0.768561 0.873117 0.854398
O O12 0.065333 0.158426 0.226405
O O13 0.817311 0.726510 0.229042
O O14 0.746735 0.054141 0.958901
O O15 0.239654 0.914749 0.233604
O O16 0.721015 0.386864 0.520941
O O17 0.997598 0.501997 0.230186
#
# Coordination Sequence:
#
# PCOD9102746 Si02
#       8
#     2   2   2   2   2   2   2   2
#     4  10  22  41  60  88 121 160 201 252 308 359
#     4  12  24  38  62  88 119 165 201 249 308 362
#     4   9  19  41  56  91 123 150 207 255 295 366
#     4  10  20  38  64  83 117 162 201 244 309 362
#     4   9  21  39  61  88 123 157 198 258 302 358
#     4   9  21  38  60  86 121 159 198 256 299 357
#     4  11  22  41  62  90 122 162 205 246 313 360
#     4  10  23  41  57  88 127 152 202 262 292 363
#
# _framework density 22.955496
#
# number of rings (size 3 to 8) (size 9 to 14) (size 15 to 20)
#    0.750    1.250    1.250    1.875    1.750    1.000 
#    0.000    3.750    0.000    0.000    0.000    0.000 
#    0.000    0.000    0.000    0.000    0.000    0.000 
#
# Total GULP energy -89192.432168 kJ/mol
# GULP energy per Si atom -5574.527010 kJ/mol
# Density = 2.290325 g / cm^3
# Si number density = 22.955496 Si / 1000 Ang^3
#
#
#
# Elastic Constant Matrix: (Units=GPa)
#
#
# Indices 1 2 3 4 5 6 
#
# 1 90.9444 22.5826 40.0711 19.0331 -35.6980 -16.0580
# 2 22.5826 126.7616 49.2375 14.2372 -14.6083 -14.8524
# 3 40.0711 49.2375 98.4180 11.5048 -30.3745 -11.3010
# 4 19.0331 14.2372 11.5048 35.9400 -5.9105 -3.4977
# 5 -35.6980 -14.6083 -30.3745 -5.9105 37.5766 3.5897
# 6 -16.0580 -14.8524 -11.3010 -3.4977 3.5897 16.4734
#
#
#
# Elastic Compliance Matrix: (Units=1/GPa)
#
#
# Indices 1 2 3 4 5 6 
#
# 1 0.023254 0.001506 -0.001635 -0.007667 0.018502 0.017244
# 2 0.001506 0.010623 -0.004547 -0.002725 0.000771 0.007180
# 3 -0.001635 -0.004547 0.016543 -0.000716 0.009614 0.003409
# 4 -0.007667 -0.002725 -0.000716 0.032336 -0.003570 -0.002778
# 5 0.018502 0.000771 0.009614 -0.003570 0.050401 0.013585
# 6 0.017244 0.007180 0.003409 -0.002778 0.013585 0.082775
#
#
# Mechanical properties :
#
#
# Convention : Reuss Voigt Hill
#
# Bulk Modulus (GPa) = 24.34926 59.98960 42.16943
# Shear Modulus (GPa) = 20.92295 31.61354 26.26824
#
# Velocity S-wave (km/s) = 3.02231 3.71505 3.38644
# Velocity P-wave (km/s) = 4.77591 6.67771 5.80522
#
# Compressibility (1/GPa) = 0.04106901
#
# Stress axis : x y z
#
# Youngs Moduli (GPa) = 43.00329 94.13793 60.44774
#
# Poissons Ratio (x) = -0.14179 0.09882
# Poissons Ratio (y) = -0.06477 0.27485
# Poissons Ratio (z) = 0.07030 0.42803
#
# Static dielectric constant tensor:
#      x y z
#    x 1.853110 -0.035130 0.015220 
#    y -0.035130 2.132470 0.009530 
#    z 0.015220 0.009530 1.886390 
# 
# From -- ./inp_files/578326.got.cif
#   From: 2010.05.17/outbox.cif.g08.bks.cpg/sg2_290_cif.got.tgz:578326.got - 2010.06.03 11:33:40.
