data_PCOD9102138
_publ_section_title
;
Structure prediction by ZEFSAII (Michael W. Deem and Ramdas Pophale) SiO2 
 PCOD9102138
Probable space group: P -1
;
_chemical_formula_sum "Si O2"
_cell_formula_units_Z 12
_cell_length_a 11.902449
_cell_length_b 8.503460
_cell_length_c 4.978292
_cell_angle_alpha 88.050389
_cell_angle_beta 69.521807
_cell_angle_gamma 100.391461
_cell_volume 461.693245
_symmetry_space_group_name_H-M "P -1"
_symmetry_group_IT_number 2
_symmetry_cell_setting 'triclinic'
loop_
_space_group_symop_operation_xyz
x,y,z
-x,-y,-z
loop_
_atom_site_type_symbol
_atom_site_label
_atom_site_fract_x
_atom_site_fract_y
_atom_site_fract_z
Si Si1 0.682164 0.797163 0.924565
Si Si2 0.856667 0.966009 0.192081
Si Si3 0.083406 0.350831 0.716301
Si Si4 0.517142 0.825244 0.555070
Si Si5 0.093820 0.697094 0.631191
Si Si6 0.588100 0.485177 0.173847
O O1 0.783800 0.930603 0.975726
O O2 0.568578 0.783125 0.229531
O O3 0.706988 0.618552 0.986398
O O4 0.622365 0.828948 0.691951
O O5 0.842411 0.793054 0.368868
O O6 0.834126 0.123977 0.358034
O O7 0.000000 0.000000 0.000000
O O8 0.151836 0.536905 0.608746
O O9 0.971296 0.308984 0.601671
O O10 0.018445 0.337924 0.060385
O O11 0.400516 0.698570 0.775534
O O12 0.500000 0.000000 0.500000
O O13 0.500000 0.500000 0.500000
O O14 0.500000 0.500000 0.000000
#
# Coordination Sequence:
#
# PCOD9102138 Si02
#       6
#     2   2   2   2   2   2
#     4  10  21  36  58  88 116 153 198 234 294 371
#     4  10  21  37  59  84 124 163 198 236 293 345
#     4   9  18  33  53  75 104 152 195 236 284 318
#     4  10  20  38  62  86 115 146 192 253 306 347
#     4   9  18  33  53  75 106 148 198 239 273 329
#     4   8  16  33  56  78 108 141 181 239 289 343
#
# _framework density 25.991284
#
# number of rings (size 3 to 8) (size 9 to 14) (size 15 to 20)
#    0.000    2.667    0.000    1.000    0.000    5.333 
#    3.000    0.000    0.000    0.000    0.000    0.000 
#    0.000    0.000    0.000    0.000    0.000    0.000 
#
# Total GULP energy -66930.766899 kJ/mol
# GULP energy per Si atom -5577.563908 kJ/mol
# Density = 2.593213 g / cm^3
# Si number density = 25.991284 Si / 1000 Ang^3
#
#
#
# Elastic Constant Matrix: (Units=GPa)
#
#
# Indices 1 2 3 4 5 6 
#
# 1 45.8918 52.6943 26.8317 -8.9421 12.2947 3.3604
# 2 52.6943 223.5383 30.2680 -22.0778 19.5159 -11.8997
# 3 26.8317 30.2680 102.0676 -2.6625 25.2516 -6.8402
# 4 -8.9421 -22.0778 -2.6625 50.1005 1.2297 13.8530
# 5 12.2947 19.5159 25.2516 1.2297 20.0143 -3.1334
# 6 3.3604 -11.8997 -6.8402 13.8530 -3.1334 42.9812
#
#
#
# Elastic Compliance Matrix: (Units=1/GPa)
#
#
# Indices 1 2 3 4 5 6 
#
# 1 0.037935 -0.007086 -0.005539 0.005991 -0.011113 -0.008550
# 2 -0.007086 0.006495 0.000769 0.001181 -0.002727 0.001895
# 3 -0.005539 0.000769 0.015153 0.000037 -0.016176 0.001866
# 4 0.005991 0.001181 0.000037 0.024078 -0.007682 -0.008456
# 5 -0.011113 -0.002727 -0.016176 -0.007682 0.081262 0.005940
# 6 -0.008550 0.001895 0.001866 -0.008456 0.005940 0.027915
#
#
# Mechanical properties :
#
#
# Convention : Reuss Voigt Hill
#
# Bulk Modulus (GPa) = 27.87570 65.67621 46.77595
# Shear Modulus (GPa) = 21.88116 40.06609 30.97363
#
# Velocity S-wave (km/s) = 2.90464 3.93048 3.45584
# Velocity P-wave (km/s) = 4.69015 6.77655 5.82749
#
# Compressibility (1/GPa) = 0.03587354
#
# Stress axis : x y z
#
# Youngs Moduli (GPa) = 26.36062 153.95687 65.99163
#
# Poissons Ratio (x) = 1.09090 0.36550
# Poissons Ratio (y) = 0.18678 -0.05075
# Poissons Ratio (z) = 0.14600 -0.11839
#
# Static dielectric constant tensor:
#      x y z
#    x 1.985650 -0.114100 -0.030970 
#    y -0.114100 1.927310 0.247470 
#    z -0.030970 0.247470 1.989710 
# 
# From -- ./inp_files/18599.got.cif
#   From: 2010.05.17/outbox.cif.g08.bks.cpg/sg2_10_cif.got.tgz:18599.got - 2010.06.03 11:33:40.
