data_PCOD9102783
_publ_section_title
;
Structure prediction by ZEFSAII (Michael W. Deem and Ramdas Pophale) SiO2 
 PCOD9102783
Probable space group: P -1
;
_chemical_formula_sum "Si O2"
_cell_formula_units_Z 16
_cell_length_a 9.706291
_cell_length_b 27.128823
_cell_length_c 11.829833
_cell_angle_alpha 148.199085
_cell_angle_beta 142.536477
_cell_angle_gamma 28.602537
_cell_volume 771.749638
_symmetry_space_group_name_H-M "P -1"
_symmetry_group_IT_number 2
_symmetry_cell_setting 'triclinic'
loop_
_space_group_symop_operation_xyz
x,y,z
-x,-y,-z
loop_
_atom_site_type_symbol
_atom_site_label
_atom_site_fract_x
_atom_site_fract_y
_atom_site_fract_z
Si Si1 0.438347 0.745571 0.188859
Si Si2 0.837266 0.109294 0.514695
Si Si3 0.142837 0.059321 0.167175
Si Si4 0.906109 0.444025 0.243049
Si Si5 0.761762 0.821839 0.127232
Si Si6 0.698118 0.494606 0.955461
Si Si7 0.837759 0.930614 0.047285
Si Si8 0.191164 0.225033 0.675391
O O1 0.454166 0.788789 0.408004
O O2 0.615014 0.603717 0.035980
O O3 0.570145 0.783028 0.258810
O O4 0.092643 0.821092 0.081022
O O5 0.979809 0.170469 0.697187
O O6 0.842451 0.042330 0.279493
O O7 0.000000 0.000000 0.500000
O O8 0.120689 0.145560 0.414408
O O9 0.479514 0.946487 0.139275
O O10 0.049631 0.123181 0.109227
O O11 0.000000 0.000000 0.000000
O O12 0.846328 0.487425 0.157297
O O13 0.000000 0.500000 0.500000
O O14 0.602874 0.478243 0.154827
O O15 0.144367 0.298147 0.105591
O O16 0.696529 0.820623 0.213849
O O17 0.910684 0.365362 0.781386
O O18 0.500000 0.000000 0.000000
#
# Coordination Sequence:
#
# PCOD9102783 Si02
#       8
#     2   2   2   2   2   2   2   2
#     4  11  21  43  64  90 131 175 215 264 336 396
#     4  10  20  38  64  87 123 169 212 262 323 387
#     4  12  24  38  60  95 130 164 215 271 325 385
#     4  10  23  43  71 101 130 167 229 280 321 392
#     4  11  22  42  66  91 124 177 217 264 335 389
#     4  10  23  44  68  98 131 178 220 266 335 398
#     4  11  23  38  61  97 132 163 222 276 322 387
#     4  11  24  42  65  89 133 177 216 260 337 406
#
# _framework density 20.732111
#
# number of rings (size 3 to 8) (size 9 to 14) (size 15 to 20)
#    0.000    1.250    1.250    6.000    1.750    1.000 
#    2.250    0.625    0.000    0.000    0.000    0.000 
#    0.000    0.000    0.000    0.000    0.000    0.000 
#
# Total GULP energy -89283.739166 kJ/mol
# GULP energy per Si atom -5580.233698 kJ/mol
# Density = 2.068492 g / cm^3
# Si number density = 20.732111 Si / 1000 Ang^3
#
#
#
# Elastic Constant Matrix: (Units=GPa)
#
#
# Indices 1 2 3 4 5 6 
#
# 1 86.5244 -0.7797 20.5483 -4.8083 9.4063 -8.5415
# 2 -0.7797 61.8602 34.3621 15.4989 -5.4740 3.7252
# 3 20.5483 34.3621 150.6985 6.1708 -6.1567 -0.3886
# 4 -4.8083 15.4989 6.1708 20.8663 1.9706 -0.4731
# 5 9.4063 -5.4740 -6.1567 1.9706 29.2936 10.2867
# 6 -8.5415 3.7252 -0.3886 -0.4731 10.2867 22.6679
#
#
#
# Elastic Compliance Matrix: (Units=1/GPa)
#
#
# Indices 1 2 3 4 5 6 
#
# 1 0.014422 -0.001587 -0.002217 0.006266 -0.009335 0.010024
# 2 -0.001587 0.024373 -0.004270 -0.018214 0.008526 -0.008926
# 3 -0.002217 -0.004270 0.007982 0.000103 0.001883 -0.000849
# 4 0.006266 -0.018214 0.000103 0.064525 -0.014380 0.013229
# 5 -0.009335 0.008526 0.001883 -0.014380 0.049858 -0.027812
# 6 0.010024 -0.008926 -0.000849 0.013229 -0.027812 0.062242
#
#
# Mechanical properties :
#
#
# Convention : Reuss Voigt Hill
#
# Bulk Modulus (GPa) = 32.64725 45.26050 38.95388
# Shear Modulus (GPa) = 20.01936 30.89571 25.45753
#
# Velocity S-wave (km/s) = 3.11082 3.86454 3.50798
# Velocity P-wave (km/s) = 5.35577 6.46463 5.93615
#
# Compressibility (1/GPa) = 0.03063045
#
# Stress axis : x y z
#
# Youngs Moduli (GPa) = 69.33712 41.02939 125.27877
#
# Poissons Ratio (x) = 0.06509 0.27773
# Poissons Ratio (y) = 0.11000 0.53494
# Poissons Ratio (z) = 0.15371 0.17520
#
# Static dielectric constant tensor:
#      x y z
#    x 1.764040 -0.008870 -0.009350 
#    y -0.008870 1.801070 -0.041470 
#    z -0.009350 -0.041470 1.790920 
# 
# From -- ./inp_files/407363.got.cif
#   From: 2010.05.17/outbox.cif.g08.bks.cpg/sg2_204_cif.got.tgz:407363.got - 2010.06.03 11:33:40.
