data_PCOD9102697
_publ_section_title
;
Structure prediction by ZEFSAII (Michael W. Deem and Ramdas Pophale) SiO2 
 PCOD9102697
Probable space group: P -1
;
_chemical_formula_sum "Si O2"
_cell_formula_units_Z 16
_cell_length_a 11.203958
_cell_length_b 26.962367
_cell_length_c 5.116360
_cell_angle_alpha 66.338374
_cell_angle_beta 101.413635
_cell_angle_gamma 147.320446
_cell_volume 733.134533
_symmetry_space_group_name_H-M "P -1"
_symmetry_group_IT_number 2
_symmetry_cell_setting 'triclinic'
loop_
_space_group_symop_operation_xyz
x,y,z
-x,-y,-z
loop_
_atom_site_type_symbol
_atom_site_label
_atom_site_fract_x
_atom_site_fract_y
_atom_site_fract_z
Si Si1 0.593418 0.566709 0.148887
Si Si2 0.141396 0.774795 0.920765
Si Si3 0.751639 0.396727 0.486028
Si Si4 0.786620 0.963048 0.197088
Si Si5 0.774493 0.850307 0.723513
Si Si6 0.469791 0.642823 0.014066
Si Si7 0.409514 0.908686 0.267272
Si Si8 0.422936 0.779654 0.046084
O O1 0.500000 0.500000 0.500000
O O2 0.500822 0.592139 0.083182
O O3 0.500000 0.500000 0.000000
O O4 0.868919 0.674740 0.017464
O O5 0.271437 0.861040 0.580444
O O6 0.237106 0.822215 0.151459
O O7 0.226009 0.746184 0.947384
O O8 0.583799 0.363472 0.693486
O O9 0.682110 0.307034 0.635051
O O10 0.000000 0.500000 0.500000
O O11 0.724377 0.409852 0.158139
O O12 0.846703 0.923517 0.394334
O O13 0.612898 0.939955 0.317557
O O14 0.633972 0.893846 0.020654
O O15 0.036102 0.083398 0.105728
O O16 0.698987 0.763316 0.778233
O O17 0.540235 0.789916 0.848189
O O18 0.500000 0.000000 0.000000
#
# Coordination Sequence:
#
# PCOD9102697 Si02
#       8
#     2   2   2   2   2   2   2   2
#     4  12  28  50  73 101 138 187 242 291 355 415
#     4  11  25  45  70  95 137 180 229 289 338 411
#     4  11  24  42  69 100 134 174 222 294 351 411
#     4  10  20  38  63  96 134 178 219 273 341 409
#     4  10  20  39  65  94 137 169 221 278 343 405
#     4  11  25  45  67 102 135 173 236 282 351 419
#     4  11  24  44  67 101 137 183 233 274 342 413
#     4  10  21  39  64  95 135 173 230 270 351 408
#
# _framework density 21.824097999999999
#
# number of rings (size 3 to 8) (size 9 to 14) (size 15 to 20)
#    0.000    1.250    2.500    2.625    5.250    0.000 
#    2.250    0.000    0.000    0.000    0.000    0.000 
#    0.000    0.000    0.000    0.000    0.000    0.000 
#
# Total GULP energy -89275.704851 kJ/mol
# GULP energy per Si atom -5579.731553 kJ/mol
# Density = 2.177443 g / cm^3
# Si number density = 21.824098 Si / 1000 Ang^3
#
#
#
# Elastic Constant Matrix: (Units=GPa)
#
#
# Indices 1 2 3 4 5 6 
#
# 1 47.3993 19.3959 26.8857 -17.5301 10.5002 -1.7829
# 2 19.3959 99.9472 20.3686 -2.1354 9.9275 0.2475
# 3 26.8857 20.3686 88.3900 0.5540 10.8233 -0.3028
# 4 -17.5301 -2.1354 0.5540 29.5993 -9.7175 -0.4376
# 5 10.5002 9.9275 10.8233 -9.7175 31.1219 -5.6786
# 6 -1.7829 0.2475 -0.3028 -0.4376 -5.6786 34.4878
#
#
#
# Elastic Compliance Matrix: (Units=1/GPa)
#
#
# Indices 1 2 3 4 5 6 
#
# 1 0.036975 -0.004594 -0.010283 0.021699 -0.000278 0.002084
# 2 -0.004594 0.011288 -0.000848 -0.002817 -0.002785 -0.000820
# 3 -0.010283 -0.000848 0.015197 -0.007835 -0.004208 -0.001184
# 4 0.021699 -0.002817 -0.007835 0.050866 0.012885 0.003840
# 5 -0.000278 -0.002785 -0.004208 0.012885 0.039821 0.006689
# 6 0.002084 -0.000820 -0.001184 0.003840 0.006689 0.030249
#
#
# Mechanical properties :
#
#
# Convention : Reuss Voigt Hill
#
# Bulk Modulus (GPa) = 31.23984 41.00410 36.12197
# Shear Modulus (GPa) = 22.07352 30.31422 26.19387
#
# Velocity S-wave (km/s) = 3.18375 3.73101 3.46819
# Velocity P-wave (km/s) = 5.27830 6.11472 5.71184
#
# Compressibility (1/GPa) = 0.03201041
#
# Stress axis : x y z
#
# Youngs Moduli (GPa) = 27.04541 88.58907 65.80269
#
# Poissons Ratio (x) = 0.40696 0.67664
# Poissons Ratio (y) = 0.12424 0.05580
# Poissons Ratio (z) = 0.27811 0.07513
#
# Static dielectric constant tensor:
#      x y z
#    x 1.796090 -0.012990 0.005670 
#    y -0.012990 1.812340 -0.053930 
#    z 0.005670 -0.053930 1.941350 
# 
# From -- ./inp_files/84787.got.cif
#   From: 2010.05.17/outbox.cif.g08.bks.cpg/sg2_43_cif.got.tgz:84787.got - 2010.06.03 11:33:40.
