data_PCOD9102537
_publ_section_title
;
Structure prediction by ZEFSAII (Michael W. Deem and Ramdas Pophale) SiO2 
 PCOD9102537
Probable space group: P -1
;
_chemical_formula_sum "Si O2"
_cell_formula_units_Z 16
_cell_length_a 22.792674
_cell_length_b 14.954408
_cell_length_c 6.011986
_cell_angle_alpha 72.468374
_cell_angle_beta 104.800643
_cell_angle_gamma 161.405139
_cell_volume 620.032523
_symmetry_space_group_name_H-M "P -1"
_symmetry_group_IT_number 2
_symmetry_cell_setting 'triclinic'
loop_
_space_group_symop_operation_xyz
x,y,z
-x,-y,-z
loop_
_atom_site_type_symbol
_atom_site_label
_atom_site_fract_x
_atom_site_fract_y
_atom_site_fract_z
Si Si1 0.052971 0.674033 0.688147
Si Si2 0.294177 0.293455 0.217125
Si Si3 0.697152 0.048129 0.903124
Si Si4 0.364510 0.198402 0.292449
Si Si5 0.578350 0.217618 0.408657
Si Si6 0.047527 0.269034 0.399744
Si Si7 0.644616 0.468951 0.588828
Si Si8 0.941534 0.980801 0.162644
O O1 0.871596 0.347262 0.711569
O O2 0.975110 0.655246 0.747973
O O3 0.161755 0.879394 0.434695
O O4 0.200352 0.826494 0.857555
O O5 0.420338 0.386701 0.248093
O O6 0.333481 0.458621 0.197623
O O7 0.198036 0.152093 0.990404
O O8 0.144391 0.046860 0.445813
O O9 0.635808 0.855912 0.900982
O O10 0.530765 0.878973 0.808809
O O11 0.505261 0.344430 0.461783
O O12 0.799555 0.521676 0.414779
O O13 0.551560 0.236396 0.599693
O O14 0.500000 0.000000 0.500000
O O15 0.084006 0.254578 0.231289
O O16 0.823450 0.746789 0.396262
O O17 0.000000 0.000000 0.000000
#
# Coordination Sequence:
#
# PCOD9102537 Si02
#       8
#     2   2   2   2   2   2   2   2
#     4  10  20  38  63  89 127 164 209 255 304 371
#     4  10  21  39  64  91 124 164 205 254 313 373
#     4  10  21  37  61  91 123 168 210 253 307 365
#     4  10  21  37  61  92 124 161 205 256 314 372
#     4  11  21  39  62  86 124 165 203 254 308 357
#     4  10  21  39  64  94 125 165 206 252 312 377
#     4  10  23  38  60  91 124 163 209 255 313 370
#     4  11  22  38  62  89 123 163 208 260 310 372
#
# _framework density 25.805099999999999
#
# number of rings (size 3 to 8) (size 9 to 14) (size 15 to 20)
#    0.000    1.750    1.250    3.000    0.000    4.500 
#    0.000    2.500    2.750    6.750    0.000    0.000 
#    0.000    0.000    0.000    0.000    0.000    0.000 
#
# Total GULP energy -89217.764207 kJ/mol
# GULP energy per Si atom -5576.110263 kJ/mol
# Density = 2.574637 g / cm^3
# Si number density = 25.805100 Si / 1000 Ang^3
#
#
#
# Elastic Constant Matrix: (Units=GPa)
#
#
# Indices 1 2 3 4 5 6 
#
# 1 186.9678 57.6589 34.1558 -0.6399 3.7947 -31.3607
# 2 57.6589 102.4916 34.6885 11.1603 1.0536 -21.4280
# 3 34.1558 34.6885 58.3509 1.7697 -6.0966 -8.1322
# 4 -0.6399 11.1603 1.7697 47.3264 13.2616 8.6278
# 5 3.7947 1.0536 -6.0966 13.2616 38.2986 -1.3534
# 6 -31.3607 -21.4280 -8.1322 8.6278 -1.3534 53.4025
#
#
#
# Elastic Compliance Matrix: (Units=1/GPa)
#
#
# Indices 1 2 3 4 5 6 
#
# 1 0.007063 -0.002720 -0.002298 0.000672 -0.001133 0.002569
# 2 -0.002720 0.014755 -0.006452 -0.004121 0.000405 0.004017
# 3 -0.002298 -0.006452 0.022729 -0.000476 0.004178 -0.000295
# 4 0.000672 -0.004121 -0.000476 0.025733 -0.009142 -0.005721
# 5 -0.001133 0.000405 0.004178 -0.009142 0.030126 0.002374
# 6 0.002569 0.004017 -0.000295 -0.005721 0.002374 0.022786
#
#
# Mechanical properties :
#
#
# Convention : Reuss Voigt Hill
#
# Bulk Modulus (GPa) = 46.28351 66.75743 56.52047
# Shear Modulus (GPa) = 32.60813 42.55932 37.58372
#
# Velocity S-wave (km/s) = 3.55862 4.06551 3.82048
# Velocity P-wave (km/s) = 5.90421 6.92560 6.43520
#
# Compressibility (1/GPa) = 0.02160597
#
# Stress axis : x y z
#
# Youngs Moduli (GPa) = 141.57301 67.77187 43.99740
#
# Poissons Ratio (x) = 0.18436 0.10111
# Poissons Ratio (y) = 0.38512 0.28389
# Poissons Ratio (z) = 0.32535 0.43729
#
# Static dielectric constant tensor:
#      x y z
#    x 2.170530 -0.027680 -0.021180 
#    y -0.027680 2.343400 0.027830 
#    z -0.021180 0.027830 2.081160 
# 
# From -- ./inp_files/124213.got.cif
#   From: 2010.05.17/outbox.cif.g08.bks.cpg/sg2_63_cif.got.tgz:124213.got - 2010.06.03 11:33:40.
