data_PCOD9102206
_publ_section_title
;
Structure prediction by ZEFSAII (Michael W. Deem and Ramdas Pophale) SiO2 
 PCOD9102206
Probable space group: P -1
;
_chemical_formula_sum "Si O2"
_cell_formula_units_Z 16
_cell_length_a 27.685276
_cell_length_b 8.856749
_cell_length_c 13.396418
_cell_angle_alpha 124.400754
_cell_angle_beta 158.734320
_cell_angle_gamma 45.548795
_cell_volume 800.259921
_symmetry_space_group_name_H-M "P -1"
_symmetry_group_IT_number 2
_symmetry_cell_setting 'triclinic'
loop_
_space_group_symop_operation_xyz
x,y,z
-x,-y,-z
loop_
_atom_site_type_symbol
_atom_site_label
_atom_site_fract_x
_atom_site_fract_y
_atom_site_fract_z
Si Si1 0.551968 0.222176 0.748190
Si Si2 0.408124 0.906624 0.653563
Si Si3 0.848129 0.256846 0.316030
Si Si4 0.766771 0.294466 0.663807
Si Si5 0.916838 0.892783 0.670353
Si Si6 0.893670 0.400843 0.245752
Si Si7 0.732592 0.698794 0.329913
Si Si8 0.556353 0.821451 0.688649
O O1 0.376594 0.444868 0.523677
O O2 0.542116 0.175968 0.594898
O O3 0.586635 0.011360 0.797763
O O4 0.692303 0.259251 0.043947
O O5 0.299647 0.815162 0.433269
O O6 0.465889 0.867186 0.636507
O O7 0.312376 0.164351 0.602499
O O8 0.565293 0.771518 0.979612
O O9 0.836842 0.363886 0.226776
O O10 0.850073 0.429021 0.458861
O O11 0.000000 0.000000 0.500000
O O12 0.813644 0.152619 0.599084
O O13 0.932357 0.238569 0.010196
O O14 0.809702 0.797333 0.446816
O O15 0.994349 0.827382 0.686239
O O16 0.000000 0.500000 0.500000
O O17 0.730373 0.581487 0.938554
#
# Coordination Sequence:
#
# PCOD9102206 Si02
#       8
#     2   2   2   2   2   2   2   2
#     4  11  24  40  61  89 124 157 201 259 300 350
#     4  10  20  39  64  87 113 162 205 241 298 362
#     4  12  25  40  61  90 123 155 203 257 303 354
#     4  10  20  38  62  88 121 151 202 248 290 353
#     4  10  21  35  62  90 118 160 194 243 297 358
#     4  12  21  38  62  86 120 161 201 239 301 370
#     4  10  20  38  63  85 122 157 197 248 300 357
#     4  11  23  39  62  87 120 163 200 248 305 360
#
# _framework density 19.993504999999999
#
# number of rings (size 3 to 8) (size 9 to 14) (size 15 to 20)
#    0.000    1.250    5.000    0.750    1.750    1.000 
#    2.250    0.625    0.000    3.000    0.000    0.000 
#    0.000    0.000    0.000    0.000    0.000    0.000 
#
# Total GULP energy -89380.693755 kJ/mol
# GULP energy per Si atom -5586.293360 kJ/mol
# Density = 1.994800 g / cm^3
# Si number density = 19.993505 Si / 1000 Ang^3
#
#
#
# Elastic Constant Matrix: (Units=GPa)
#
#
# Indices 1 2 3 4 5 6 
#
# 1 68.6768 14.0480 -13.8069 -9.5007 12.2747 -20.2963
# 2 14.0480 97.3348 -4.7996 -16.8055 5.0841 -15.2188
# 3 -13.8069 -4.7996 33.3098 -4.7401 10.7158 7.3680
# 4 -9.5007 -16.8055 -4.7401 28.0137 -2.7603 6.2409
# 5 12.2747 5.0841 10.7158 -2.7603 18.0362 -8.0698
# 6 -20.2963 -15.2188 7.3680 6.2409 -8.0698 33.1812
#
#
#
# Elastic Compliance Matrix: (Units=1/GPa)
#
#
# Indices 1 2 3 4 5 6 
#
# 1 0.025228 0.000766 0.019457 0.008976 -0.026031 0.003443
# 2 0.000766 0.012248 0.003606 0.007179 -0.003654 0.003047
# 3 0.019457 0.003606 0.063493 0.017836 -0.057222 -0.017815
# 4 0.008976 0.007179 0.017836 0.046263 -0.015018 -0.007532
# 5 -0.026031 -0.003654 -0.057222 -0.015018 0.117779 0.026577
# 6 0.003443 0.003047 -0.017815 -0.007532 0.026577 0.045477
#
#
# Mechanical properties :
#
#
# Convention : Reuss Voigt Hill
#
# Bulk Modulus (GPa) = 6.72831 21.13381 13.93106
# Shear Modulus (GPa) = 16.00654 29.43821 22.72238
#
# Velocity S-wave (km/s) = 2.83253 3.84133 3.37484
# Velocity P-wave (km/s) = 3.75103 5.50161 4.70840
#
# Compressibility (1/GPa) = 0.14862579
#
# Stress axis : x y z
#
# Youngs Moduli (GPa) = 39.63895 81.64814 15.74979
#
# Poissons Ratio (x) = -0.06255 -0.30645
# Poissons Ratio (y) = -0.03037 -0.05679
# Poissons Ratio (z) = -0.77126 -0.29438
#
# Static dielectric constant tensor:
#      x y z
#    x 1.679100 -0.042070 0.000390 
#    y -0.042070 1.734220 -0.012420 
#    z 0.000390 -0.012420 1.692690 
# 
# From -- ./inp_files/256889.got.cif
#   From: 2010.05.17/outbox.cif.g08.bks.cpg/sg2_129_cif.got.tgz:256889.got - 2010.06.03 11:33:40.
