data_PCOD9102373
_publ_section_title
;
Structure prediction by ZEFSAII (Michael W. Deem and Ramdas Pophale) SiO2 
 PCOD9102373
Probable space group: P -1
;
_chemical_formula_sum "Si O2"
_cell_formula_units_Z 15
_cell_length_a 4.905330
_cell_length_b 16.376024
_cell_length_c 10.934582
_cell_angle_alpha 134.593828
_cell_angle_beta 113.336070
_cell_angle_gamma 63.101210
_cell_volume 553.539802
_symmetry_space_group_name_H-M "P -1"
_symmetry_group_IT_number 2
_symmetry_cell_setting 'triclinic'
loop_
_space_group_symop_operation_xyz
x,y,z
-x,-y,-z
loop_
_atom_site_type_symbol
_atom_site_label
_atom_site_fract_x
_atom_site_fract_y
_atom_site_fract_z
Si Si1 0.698118 0.843807 0.970884
Si Si2 0.483459 0.264103 0.808664
Si Si3 0.910149 0.019235 0.685264
Si Si4 0.257212 0.581908 0.396825
Si Si5 0.767563 0.924999 0.821179
Si Si6 0.312530 0.794098 0.476611
Si Si7 0.000000 0.500000 0.500000
Si Si8 0.053471 0.363228 0.045359
O O1 0.880442 0.846620 0.880806
O O2 0.732203 0.711563 0.885022
O O3 0.850432 0.902177 0.167396
O O4 0.370805 0.941140 0.004219
O O5 0.608492 0.122646 0.710210
O O6 0.501186 0.271956 0.674987
O O7 0.177903 0.312892 0.882873
O O8 0.722096 0.338068 0.977860
O O9 0.893896 0.957080 0.748444
O O10 0.037508 0.906962 0.502847
O O11 0.193784 0.706345 0.448544
O O12 0.629657 0.537639 0.426897
O O13 0.096262 0.585172 0.502707
O O14 0.104289 0.492109 0.201675
O O15 0.520530 0.857567 0.659814
#
# Coordination Sequence:
#
# PCOD9102373 Si02
#       8
#     2   2   2   2   2   2   1   2
#     4   9  20  37  60  97 126 172 229 277 345 406
#     4  11  25  45  70 100 135 189 235 284 333 409
#     4  10  21  41  64  99 136 185 226 286 347 408
#     4  11  26  47  70 108 135 187 224 282 349 410
#     4  10  20  38  62  93 134 174 219 287 340 406
#     4  11  27  40  66 103 139 178 235 283 347 403
#     4  10  26  48  72  98 146 174 230 276 346 422
#     4  11  24  45  70  95 137 186 233 283 341 404
#
# _framework density 27.098320999999999
#
# number of rings (size 3 to 8) (size 9 to 14) (size 15 to 20)
#    0.000    1.600    1.333    1.600    7.467    1.600 
#    0.000    0.000    0.000    0.000    0.000    0.000 
#    0.000    0.000    0.000    0.000    0.000    0.000 
#
# Total GULP energy -83673.312076 kJ/mol
# GULP energy per Si atom -5578.220805 kJ/mol
# Density = 2.703664 g / cm^3
# Si number density = 27.098321 Si / 1000 Ang^3
#
#
#
# Elastic Constant Matrix: (Units=GPa)
#
#
# Indices 1 2 3 4 5 6 
#
# 1 111.0923 27.8928 20.1309 -0.4628 8.0055 30.4201
# 2 27.8928 131.3043 31.5178 10.5313 9.0735 38.0025
# 3 20.1309 31.5178 79.9144 20.5015 20.5268 3.4204
# 4 -0.4628 10.5313 20.5015 38.5133 10.2574 0.5530
# 5 8.0055 9.0735 20.5268 10.2574 29.7371 -2.9726
# 6 30.4201 38.0025 3.4204 0.5530 -2.9726 44.2199
#
#
#
# Elastic Compliance Matrix: (Units=1/GPa)
#
#
# Indices 1 2 3 4 5 6 
#
# 1 0.011997 0.000711 -0.002684 0.002387 -0.003308 -0.008909
# 2 0.000711 0.011463 -0.003608 -0.000516 -0.002040 -0.010192
# 3 -0.002684 -0.003608 0.018293 -0.006642 -0.008207 0.003063
# 4 0.002387 -0.000516 -0.006642 0.031539 -0.006934 -0.001546
# 5 -0.003308 -0.002040 -0.008207 -0.006934 0.043968 0.007706
# 6 -0.008909 -0.010192 0.003063 -0.001546 0.007706 0.037803
#
#
# Mechanical properties :
#
#
# Convention : Reuss Voigt Hill
#
# Bulk Modulus (GPa) = 32.68775 53.48823 43.08799
# Shear Modulus (GPa) = 28.34115 38.67868 33.50992
#
# Velocity S-wave (km/s) = 3.23749 3.78212 3.52035
# Velocity P-wave (km/s) = 5.10529 6.23330 5.69728
#
# Compressibility (1/GPa) = 0.03059250
#
# Stress axis : x y z
#
# Youngs Moduli (GPa) = 83.35266 87.23764 54.66518
#
# Poissons Ratio (x) = -0.06206 0.14673
# Poissons Ratio (y) = -0.05930 0.19721
# Poissons Ratio (z) = 0.22374 0.31472
#
# Static dielectric constant tensor:
#      x y z
#    x 2.243840 -0.143990 -0.060060 
#    y -0.143990 2.104610 -0.012200 
#    z -0.060060 -0.012200 2.159900 
# 
# From -- ./inp_files/368765.got.cif
#   From: 2010.05.17/outbox.cif.g08.bks.cpg/sg2_185_cif.got.tgz:368765.got - 2010.06.03 11:33:40.
