data_PCOD9102394
_publ_section_title
;
Structure prediction by ZEFSAII (Michael W. Deem and Ramdas Pophale) SiO2 
 PCOD9102394
Probable space group: P -1
;
_chemical_formula_sum "Si O2"
_cell_formula_units_Z 16
_cell_length_a 13.748329
_cell_length_b 11.793738
_cell_length_c 12.707777
_cell_angle_alpha 33.932542
_cell_angle_beta 116.595501
_cell_angle_gamma 138.526509
_cell_volume 672.132378
_symmetry_space_group_name_H-M "P -1"
_symmetry_group_IT_number 2
_symmetry_cell_setting 'triclinic'
loop_
_space_group_symop_operation_xyz
x,y,z
-x,-y,-z
loop_
_atom_site_type_symbol
_atom_site_label
_atom_site_fract_x
_atom_site_fract_y
_atom_site_fract_z
Si Si1 0.009372 0.162625 0.539672
Si Si2 0.353898 0.824111 0.648441
Si Si3 0.334327 0.038030 0.847783
Si Si4 0.113454 0.917194 0.668483
Si Si5 0.549771 0.619406 0.639137
Si Si6 0.495227 0.278539 0.071032
Si Si7 0.627198 0.236905 0.748515
Si Si8 0.840877 0.201914 0.584683
O O1 0.003148 0.929857 0.665295
O O2 0.197277 0.442460 0.455719
O O3 0.893905 0.077500 0.641445
O O4 0.977592 0.264743 0.344324
O O5 0.409433 0.085541 0.551866
O O6 0.500000 0.000000 0.500000
O O7 0.356750 0.615036 0.872076
O O8 0.200832 0.686176 0.610627
O O9 0.178632 0.857384 0.835789
O O10 0.385697 0.294583 0.753309
O O11 0.495746 0.228963 0.706433
O O12 0.331565 0.825908 0.075499
O O13 0.290125 0.245877 0.449738
O O14 0.539678 0.527243 0.825848
O O15 0.448490 0.038251 0.150708
O O16 0.327021 0.071134 0.218054
O O17 0.000000 0.500000 0.500000
#
# Coordination Sequence:
#
# PCOD9102394 Si02
#       8
#     2   2   2   2   2   2   2   2
#     4  11  23  39  60  89 131 168 206 250 326 378
#     4  10  23  40  65  93 117 169 211 257 315 368
#     4  10  22  37  65  94 124 165 214 261 313 368
#     4  11  23  39  62  94 126 169 207 260 317 376
#     4  11  21  40  67  96 125 158 214 268 309 367
#     4  10  23  40  68  93 124 164 216 263 308 375
#     4  10  20  38  62  95 124 165 211 262 314 374
#     4  11  22  41  64  88 127 169 204 258 316 375
#
# _framework density 23.804832999999999
#
# number of rings (size 3 to 8) (size 9 to 14) (size 15 to 20)
#    0.000    1.500    3.750    1.125    1.750    2.500 
#    0.000    2.500    2.750    5.250    0.000    0.000 
#    0.000    0.000    0.000    0.000    0.000    0.000 
#
# Total GULP energy -89321.243919 kJ/mol
# GULP energy per Si atom -5582.577745 kJ/mol
# Density = 2.375065 g / cm^3
# Si number density = 23.804833 Si / 1000 Ang^3
#
#
#
# Elastic Constant Matrix: (Units=GPa)
#
#
# Indices 1 2 3 4 5 6 
#
# 1 133.2976 34.6623 42.9474 18.6133 -0.5011 11.2183
# 2 34.6623 103.6242 11.4074 14.9193 8.4861 8.6733
# 3 42.9474 11.4074 84.2490 27.7948 6.3109 -2.3618
# 4 18.6133 14.9193 27.7948 37.3148 5.8681 2.4386
# 5 -0.5011 8.4861 6.3109 5.8681 26.5330 7.6860
# 6 11.2183 8.6733 -2.3618 2.4386 7.6860 29.4725
#
#
#
# Elastic Compliance Matrix: (Units=1/GPa)
#
#
# Indices 1 2 3 4 5 6 
#
# 1 0.010328 -0.002745 -0.005120 -0.000531 0.003699 -0.004455
# 2 -0.002745 0.011269 0.001215 -0.003521 -0.002835 -0.001144
# 3 -0.005120 0.001215 0.018521 -0.011456 -0.003810 0.005017
# 4 -0.000531 -0.003521 -0.011456 0.037749 -0.003998 -0.001761
# 5 0.003699 -0.002835 -0.003810 -0.003998 0.043934 -0.012005
# 6 -0.004455 -0.001144 0.005017 -0.001761 -0.012005 0.039641
#
#
# Mechanical properties :
#
#
# Convention : Reuss Voigt Hill
#
# Bulk Modulus (GPa) = 37.28627 55.46723 46.37675
# Shear Modulus (GPa) = 27.22116 34.14095 30.68106
#
# Velocity S-wave (km/s) = 3.38526 3.79120 3.59396
# Velocity P-wave (km/s) = 5.56572 6.52040 6.06189
#
# Compressibility (1/GPa) = 0.02681952
#
# Stress axis : x y z
#
# Youngs Moduli (GPa) = 96.82066 88.73534 53.99366
#
# Poissons Ratio (x) = 0.24356 0.27645
# Poissons Ratio (y) = 0.26575 -0.06562
# Poissons Ratio (z) = 0.49573 -0.10784
#
# Static dielectric constant tensor:
#      x y z
#    x 1.906210 0.011400 0.016890 
#    y 0.011400 1.961000 0.013180 
#    z 0.016890 0.013180 1.990380 
# 
# From -- ./inp_files/387975.got.cif
#   From: 2010.05.17/outbox.cif.g08.bks.cpg/sg2_194_cif.got.tgz:387975.got - 2010.06.03 11:33:40.
