data_PCOD9102118
_publ_section_title
;
Structure prediction by ZEFSAII (Michael W. Deem and Ramdas Pophale) SiO2 
 PCOD9102118
Probable space group: P -1
;
_chemical_formula_sum "Si O2"
_cell_formula_units_Z 14
_cell_length_a 9.311915
_cell_length_b 12.506062
_cell_length_c 14.631075
_cell_angle_alpha 107.293687
_cell_angle_beta 114.709205
_cell_angle_gamma 127.030487
_cell_volume 807.372858
_symmetry_space_group_name_H-M "P -1"
_symmetry_group_IT_number 2
_symmetry_cell_setting 'triclinic'
loop_
_space_group_symop_operation_xyz
x,y,z
-x,-y,-z
loop_
_atom_site_type_symbol
_atom_site_label
_atom_site_fract_x
_atom_site_fract_y
_atom_site_fract_z
Si Si1 0.732004 0.273364 0.828297
Si Si2 0.345140 0.002991 0.832993
Si Si3 0.762077 0.299262 0.183311
Si Si4 0.943252 0.573976 0.440158
Si Si5 0.422771 0.688100 0.385537
Si Si6 0.724096 0.653136 0.517043
Si Si7 0.453451 0.033680 0.399786
O O1 0.517284 0.125355 0.817157
O O2 0.595516 0.263688 0.705908
O O3 0.780871 0.178700 0.772023
O O4 0.000000 0.500000 0.000000
O O5 0.306027 0.848057 0.808056
O O6 0.532742 0.163289 0.006324
O O7 0.028017 0.864702 0.698701
O O8 0.759302 0.412691 0.267385
O O9 0.088871 0.477731 0.276809
O O10 0.791518 0.582261 0.457914
O O11 0.000000 0.500000 0.500000
O O12 0.249275 0.794296 0.535280
O O13 0.588843 0.669969 0.423387
O O14 0.579862 0.858489 0.547866
O O15 0.500000 0.500000 0.500000
O O16 0.500000 0.000000 0.500000
#
# Coordination Sequence:
#
# PCOD9102118 Si02
#       7
#     2   2   2   2   2   2   2
#     4  11  20  36  60  88 114 155 201 237 283 350
#     4  11  21  36  60  85 117 154 194 235 297 343
#     4  10  20  38  62  85 112 153 199 241 282 354
#     4  11  19  37  61  86 113 154 196 235 288 354
#     4  10  21  37  60  87 119 150 195 247 291 336
#     4  12  22  37  60  91 120 149 193 248 296 342
#     4   9  19  36  57  84 112 152 196 234 278 350
#
# _framework density 17.340191999999998
#
# number of rings (size 3 to 8) (size 9 to 14) (size 15 to 20)
#    0.000    1.429    5.714    0.857    0.000    0.571 
#    0.000    2.143    0.000    1.714    0.000    0.000 
#    0.000    0.000    0.000    0.000    0.000    0.000 
#
# Total GULP energy -78022.516466 kJ/mol
# GULP energy per Si atom -5573.036890 kJ/mol
# Density = 1.730073 g / cm^3
# Si number density = 17.340192 Si / 1000 Ang^3
#
#
#
# Elastic Constant Matrix: (Units=GPa)
#
#
# Indices 1 2 3 4 5 6 
#
# 1 117.9725 42.4655 49.9971 -10.8010 -15.5448 -6.1422
# 2 42.4655 129.7368 32.4806 -2.9198 0.1808 11.4303
# 3 49.9971 32.4806 136.9884 -3.8357 -24.5886 -4.3849
# 4 -10.8010 -2.9198 -3.8357 22.7392 -3.1133 0.2994
# 5 -15.5448 0.1808 -24.5886 -3.1133 29.6688 0.8335
# 6 -6.1422 11.4303 -4.3849 0.2994 0.8335 24.3119
#
#
#
# Elastic Compliance Matrix: (Units=1/GPa)
#
#
# Indices 1 2 3 4 5 6 
#
# 1 0.012164 -0.003618 -0.002426 0.005514 0.004848 0.004103
# 2 -0.003618 0.009839 -0.001847 -0.001163 -0.003448 -0.005741
# 3 -0.002426 -0.001847 0.009990 0.001244 0.007100 0.001799
# 4 0.005514 -0.001163 0.001244 0.047860 0.008914 0.001269
# 5 0.004848 -0.003448 0.007100 0.008914 0.043015 0.002542
# 6 0.004103 -0.005741 0.001799 0.001269 0.002542 0.045089
#
#
# Mechanical properties :
#
#
# Convention : Reuss Voigt Hill
#
# Bulk Modulus (GPa) = 61.68906 70.50932 66.09919
# Shear Modulus (GPa) = 26.43476 32.66095 29.54786
#
# Velocity S-wave (km/s) = 3.90869 4.34469 4.13244
# Velocity P-wave (km/s) = 7.48489 8.11905 7.80841
#
# Compressibility (1/GPa) = 0.01621033
#
# Stress axis : x y z
#
# Youngs Moduli (GPa) = 82.20699 101.63376 100.09970
#
# Poissons Ratio (x) = 0.36776 0.24281
# Poissons Ratio (y) = 0.29747 0.18493
# Poissons Ratio (z) = 0.19941 0.18777
#
# Static dielectric constant tensor:
#      x y z
#    x 1.586760 -0.007840 -0.042630 
#    y -0.007840 1.610780 0.018110 
#    z -0.042630 0.018110 1.623860 
# 
# From -- ./inp_files/180558.got.cif
#   From: 2010.05.17/outbox.cif.g08.bks.cpg/sg2_91_cif.got.tgz:180558.got - 2010.06.03 11:33:40.
