data_PCOD9102625
_publ_section_title
;
Structure prediction by ZEFSAII (Michael W. Deem and Ramdas Pophale) SiO2 
 PCOD9102625
Probable space group: P -1
;
_chemical_formula_sum "Si O2"
_cell_formula_units_Z 16
_cell_length_a 9.965724
_cell_length_b 14.698085
_cell_length_c 15.381316
_cell_angle_alpha 44.510890
_cell_angle_beta 44.581506
_cell_angle_gamma 80.857182
_cell_volume 781.521063
_symmetry_space_group_name_H-M "P -1"
_symmetry_group_IT_number 2
_symmetry_cell_setting 'triclinic'
loop_
_space_group_symop_operation_xyz
x,y,z
-x,-y,-z
loop_
_atom_site_type_symbol
_atom_site_label
_atom_site_fract_x
_atom_site_fract_y
_atom_site_fract_z
Si Si1 0.409462 0.652625 0.468472
Si Si2 0.637258 0.836166 0.827897
Si Si3 0.109900 0.255877 0.920032
Si Si4 0.405024 0.985378 0.801432
Si Si5 0.777160 0.131879 0.837811
Si Si6 0.992470 0.003275 0.721676
Si Si7 0.968730 0.570571 0.610143
Si Si8 0.240765 0.291288 0.286467
O O1 0.266316 0.467664 0.713175
O O2 0.680887 0.730076 0.243881
O O3 0.198188 0.591253 0.531870
O O4 0.472579 0.811120 0.387553
O O5 0.613304 0.966920 0.706875
O O6 0.768188 0.906490 0.814751
O O7 0.799869 0.810976 0.711922
O O8 0.326911 0.635080 0.113004
O O9 0.031739 0.147032 0.119803
O O10 0.834473 0.138902 0.072634
O O11 0.283179 0.900604 0.011389
O O12 0.947773 0.336057 0.586126
O O13 0.929978 0.075180 0.777718
O O14 0.500000 0.000000 0.000000
O O15 0.256587 0.188210 0.424496
O O16 0.959092 0.696470 0.589581
O O17 0.500000 0.500000 0.000000
#
# Coordination Sequence:
#
# PCOD9102625 Si02
#       8
#     2   2   2   2   2   2   2   2
#     4  11  22  39  59  87 134 167 200 249 298 377
#     4  11  22  38  66  93 115 163 210 259 316 353
#     4  11  25  40  58  91 133 172 203 239 312 378
#     4  12  22  39  63  88 129 169 202 248 313 369
#     4  11  19  34  59  91 123 156 206 259 306 357
#     4  11  21  39  61  90 125 157 208 260 300 370
#     4  10  20  38  63  93 123 156 210 265 304 369
#     4   9  21  41  66  92 118 154 209 270 311 354
#
# _framework density 20.472897
#
# number of rings (size 3 to 8) (size 9 to 14) (size 15 to 20)
#    0.000    1.250    5.000    1.500    0.000    2.500 
#    4.500    0.625    0.000    1.500    0.000    0.000 
#    0.000    0.000    0.000    0.000    0.000    0.000 
#
# Total GULP energy -89310.821058 kJ/mol
# GULP energy per Si atom -5581.926316 kJ/mol
# Density = 2.042630 g / cm^3
# Si number density = 20.472897 Si / 1000 Ang^3
#
#
#
# Elastic Constant Matrix: (Units=GPa)
#
#
# Indices 1 2 3 4 5 6 
#
# 1 103.8034 22.2202 44.1814 -4.7724 6.9786 -11.7230
# 2 22.2202 97.3785 33.0695 -19.1856 2.7701 -10.0514
# 3 44.1814 33.0695 127.5617 -28.7822 21.3245 -11.1427
# 4 -4.7724 -19.1856 -28.7822 38.7272 -5.3641 4.1724
# 5 6.9786 2.7701 21.3245 -5.3641 36.0187 -8.3043
# 6 -11.7230 -10.0514 -11.1427 4.1724 -8.3043 22.6602
#
#
#
# Elastic Compliance Matrix: (Units=1/GPa)
#
#
# Indices 1 2 3 4 5 6 
#
# 1 0.012020 -0.001433 -0.004156 -0.002668 0.000845 0.004340
# 2 -0.001433 0.012402 -0.001667 0.004579 0.001864 0.003780
# 3 -0.004156 -0.001667 0.012153 0.006980 -0.005250 -0.000123
# 4 -0.002668 0.004579 0.006980 0.033224 0.000558 -0.001829
# 5 0.000845 0.001864 -0.005250 0.000558 0.033119 0.010716
# 6 0.004340 0.003780 -0.000123 -0.001829 0.010716 0.052256
#
#
# Mechanical properties :
#
#
# Convention : Reuss Voigt Hill
#
# Bulk Modulus (GPa) = 45.32514 58.63176 51.97845
# Shear Modulus (GPa) = 28.24257 34.76606 31.50432
#
# Velocity S-wave (km/s) = 3.71821 4.12533 3.92705
# Velocity P-wave (km/s) = 6.37343 7.16882 6.78279
#
# Compressibility (1/GPa) = 0.02206281
#
# Stress axis : x y z
#
# Youngs Moduli (GPa) = 83.19594 80.63440 82.28619
#
# Poissons Ratio (x) = 0.11556 0.34195
# Poissons Ratio (y) = 0.11923 0.13716
# Poissons Ratio (z) = 0.34574 0.13441
#
# Static dielectric constant tensor:
#      x y z
#    x 1.697530 -0.030050 0.006620 
#    y -0.030050 1.770490 -0.006790 
#    z 0.006620 -0.006790 1.810310 
# 
# From -- ./inp_files/279827.got.cif
#   From: 2010.05.17/outbox.cif.g08.bks.cpg/sg2_140_cif.got.tgz:279827.got - 2010.06.03 11:33:40.
