data_PCOD9102525
_publ_section_title
;
Structure prediction by ZEFSAII (Michael W. Deem and Ramdas Pophale) SiO2 
 PCOD9102525
Probable space group: P -1
;
_chemical_formula_sum "Si O2"
_cell_formula_units_Z 16
_cell_length_a 10.342606
_cell_length_b 21.009753
_cell_length_c 15.867981
_cell_angle_alpha 20.620308
_cell_angle_beta 35.430476
_cell_angle_gamma 35.560806
_cell_volume 681.740702
_symmetry_space_group_name_H-M "P -1"
_symmetry_group_IT_number 2
_symmetry_cell_setting 'triclinic'
loop_
_space_group_symop_operation_xyz
x,y,z
-x,-y,-z
loop_
_atom_site_type_symbol
_atom_site_label
_atom_site_fract_x
_atom_site_fract_y
_atom_site_fract_z
Si Si1 0.419287 0.290459 0.004615
Si Si2 0.415588 0.623809 0.806627
Si Si3 0.681033 0.640382 0.305478
Si Si4 0.660520 0.047611 0.453922
Si Si5 0.867014 0.907847 0.359625
Si Si6 0.725964 0.557748 0.569250
Si Si7 0.975437 0.512010 0.154214
Si Si8 0.306819 0.801429 0.176802
O O1 0.303415 0.169315 0.277125
O O2 0.598955 0.389993 0.828952
O O3 0.564294 0.145455 0.038404
O O4 0.217037 0.423998 0.893510
O O5 0.288025 0.828689 0.652249
O O6 0.617045 0.634986 0.620932
O O7 0.500000 0.500000 0.000000
O O8 0.222573 0.543620 0.962311
O O9 0.681495 0.680617 0.354630
O O10 0.465351 0.779690 0.202513
O O11 0.676549 0.419506 0.578301
O O12 0.890072 0.625301 0.146653
O O13 0.384256 0.112513 0.507794
O O14 0.804539 0.060237 0.277788
O O15 0.999533 0.704110 0.573981
O O16 0.052859 0.932743 0.161725
O O17 0.000000 0.500000 0.500000
#
# Coordination Sequence:
#
# PCOD9102525 Si02
#       8
#     2   2   2   2   2   2   2   2
#     4  10  23  41  65 100 122 162 217 257 312 375
#     4  12  25  42  62  89 130 170 209 260 318 368
#     4   8  16  35  60  94 115 151 213 249 302 366
#     4  11  25  39  57  95 130 161 216 257 310 371
#     4  10  20  38  63  89 121 172 206 253 309 374
#     4  11  23  38  63  95 125 163 212 260 308 377
#     4  10  20  42  72  89 125 170 209 256 310 377
#     4   8  16  34  64  87 119 157 198 259 303 365
#
# _framework density 23.469334
#
# number of rings (size 3 to 8) (size 9 to 14) (size 15 to 20)
#    0.000    2.000    1.250    3.750    5.250    4.000 
#    0.000    0.000    0.000    3.000    0.000    0.000 
#    0.000    0.000    0.000    0.000    0.000    0.000 
#
# Total GULP energy -89256.806458 kJ/mol
# GULP energy per Si atom -5578.550404 kJ/mol
# Density = 2.341592 g / cm^3
# Si number density = 23.469334 Si / 1000 Ang^3
#
#
#
# Elastic Constant Matrix: (Units=GPa)
#
#
# Indices 1 2 3 4 5 6 
#
# 1 81.1234 33.4094 13.8703 1.7384 5.2180 2.1310
# 2 33.4094 105.0461 6.3516 33.2077 7.6289 5.7214
# 3 13.8703 6.3516 34.8697 6.1181 -0.8963 3.1767
# 4 1.7384 33.2077 6.1181 38.0110 0.9698 2.4611
# 5 5.2180 7.6289 -0.8963 0.9698 28.5292 1.9779
# 6 2.1310 5.7214 3.1767 2.4611 1.9779 35.4547
#
#
#
# Elastic Compliance Matrix: (Units=1/GPa)
#
#
# Indices 1 2 3 4 5 6 
#
# 1 0.016062 -0.006524 -0.006326 0.006003 -0.001619 0.000328
# 2 -0.006524 0.016142 0.002166 -0.014005 -0.002489 -0.001296
# 3 -0.006326 0.002166 0.032252 -0.006683 0.001992 -0.002506
# 4 0.006003 -0.014005 -0.006683 0.039335 0.001120 -0.000295
# 5 -0.001619 -0.002489 0.001992 0.001120 0.036161 -0.001775
# 6 0.000328 -0.001296 -0.002506 -0.000295 -0.001775 0.028738
#
#
# Mechanical properties :
#
#
# Convention : Reuss Voigt Hill
#
# Bulk Modulus (GPa) = 23.20752 36.47797 29.84275
# Shear Modulus (GPa) = 24.45927 31.55951 28.00939
#
# Velocity S-wave (km/s) = 3.23178 3.67101 3.45838
# Velocity P-wave (km/s) = 4.88219 5.79180 5.35634
#
# Compressibility (1/GPa) = 0.04308947
#
# Stress axis : x y z
#
# Youngs Moduli (GPa) = 62.25821 61.94845 31.00598
#
# Poissons Ratio (x) = 0.40416 0.19613
# Poissons Ratio (y) = 0.40618 -0.06716
# Poissons Ratio (z) = 0.39381 -0.13419
#
# Static dielectric constant tensor:
#      x y z
#    x 1.919420 0.063600 0.013000 
#    y 0.063600 1.939490 0.028380 
#    z 0.013000 0.028380 1.937790 
# 
# From -- ./inp_files/571005.got.cif
#   From: 2010.05.17/outbox.cif.g08.bks.cpg/sg2_286_cif.got.tgz:571005.got - 2010.06.03 11:33:40.
