data_PCOD9102251
_publ_section_title
;
Structure prediction by ZEFSAII (Michael W. Deem and Ramdas Pophale) SiO2 
 PCOD9102251
Probable space group: P -1
;
_chemical_formula_sum "Si O2"
_cell_formula_units_Z 16
_cell_length_a 11.944340
_cell_length_b 11.186245
_cell_length_c 12.352206
_cell_angle_alpha 56.521862
_cell_angle_beta 34.834298
_cell_angle_gamma 57.230258
_cell_volume 772.637844
_symmetry_space_group_name_H-M "P -1"
_symmetry_group_IT_number 2
_symmetry_cell_setting 'triclinic'
loop_
_space_group_symop_operation_xyz
x,y,z
-x,-y,-z
loop_
_atom_site_type_symbol
_atom_site_label
_atom_site_fract_x
_atom_site_fract_y
_atom_site_fract_z
Si Si1 0.830669 0.883580 0.095782
Si Si2 0.945170 0.350283 0.662410
Si Si3 0.599953 0.449026 0.561587
Si Si4 0.291020 0.044769 0.252077
Si Si5 0.906029 0.220174 0.537659
Si Si6 0.362938 0.256736 0.488404
Si Si7 0.761345 0.203275 0.056799
Si Si8 0.626268 0.805509 0.105831
O O1 0.675688 0.843502 0.328946
O O2 0.810857 0.799447 0.041715
O O3 0.794226 0.058374 0.028137
O O4 0.052891 0.828605 0.992087
O O5 0.160348 0.265999 0.575430
O O6 0.000000 0.500000 0.500000
O O7 0.851772 0.284167 0.666201
O O8 0.795966 0.339342 0.886716
O O9 0.500000 0.500000 0.500000
O O10 0.815864 0.339777 0.458410
O O11 0.618332 0.588288 0.549363
O O12 0.453742 0.342687 0.769698
O O13 0.142400 0.162492 0.378888
O O14 0.179658 0.924692 0.345719
O O15 0.468570 0.936558 0.223173
O O16 0.354804 0.134486 0.057745
O O17 0.556265 0.215858 0.279337
#
# Coordination Sequence:
#
# PCOD9102251 Si02
#       8
#     2   2   2   2   2   2   2   2
#     4  10  21  42  62  89 125 159 205 263 303 363
#     4  11  23  41  63  89 129 162 202 259 303 374
#     4  11  22  40  60  87 126 160 199 250 306 374
#     4   9  21  38  62  91 117 159 207 255 304 360
#     4  10  21  41  60  89 123 159 205 251 309 361
#     4  11  23  42  63  90 124 166 208 249 317 365
#     4  10  24  40  62  93 121 161 211 254 305 372
#     4  10  20  38  62  89 122 157 205 255 302 369
#
# _framework density 20.708279999999998
#
# number of rings (size 3 to 8) (size 9 to 14) (size 15 to 20)
#    0.000    1.750    2.500    1.125    1.750    2.500 
#    2.250    1.250    0.000    0.000    0.000    0.000 
#    0.000    0.000    0.000    0.000    0.000    0.000 
#
# Total GULP energy -89118.506717 kJ/mol
# GULP energy per Si atom -5569.906670 kJ/mol
# Density = 2.066115 g / cm^3
# Si number density = 20.708280 Si / 1000 Ang^3
#
#
#
# Elastic Constant Matrix: (Units=GPa)
#
#
# Indices 1 2 3 4 5 6 
#
# 1 78.2201 -0.1361 2.3067 -8.7188 -6.5468 7.3438
# 2 -0.1361 41.1740 12.6948 -19.3068 1.1727 -1.8228
# 3 2.3067 12.6948 79.7283 -11.1957 5.4741 -19.4869
# 4 -8.7188 -19.3068 -11.1957 31.5037 -9.8690 -0.3427
# 5 -6.5468 1.1727 5.4741 -9.8690 22.1528 -4.9872
# 6 7.3438 -1.8228 -19.4869 -0.3427 -4.9872 19.0200
#
#
#
# Elastic Compliance Matrix: (Units=1/GPa)
#
#
# Indices 1 2 3 4 5 6 
#
# 1 0.014797 0.003907 -0.001628 0.008058 0.007028 -0.005018
# 2 0.003907 0.037623 -0.002249 0.027365 0.012725 0.003622
# 3 -0.001628 -0.002249 0.018478 0.005603 0.002068 0.019988
# 4 0.008058 0.027365 0.005603 0.062486 0.030630 0.014409
# 5 0.007028 0.012725 0.002068 0.030630 0.063704 0.017880
# 6 -0.005018 0.003622 0.019988 0.014409 0.017880 0.080288
#
#
# Mechanical properties :
#
#
# Convention : Reuss Voigt Hill
#
# Bulk Modulus (GPa) = 14.09290 25.42816 19.76053
# Shear Modulus (GPa) = 16.61303 26.81909 21.71606
#
# Velocity S-wave (km/s) = 2.83546 3.60264 3.24182
# Velocity P-wave (km/s) = 4.18808 5.44162 4.85547
#
# Compressibility (1/GPa) = 0.07095770
#
# Stress axis : x y z
#
# Youngs Moduli (GPa) = 67.58195 26.57940 54.11845
#
# Poissons Ratio (x) = -0.10384 0.08809
# Poissons Ratio (y) = -0.26404 0.12173
# Poissons Ratio (z) = 0.11001 0.05978
#
# Static dielectric constant tensor:
#      x y z
#    x 1.753470 -0.052710 -0.019720 
#    y -0.052710 1.775430 0.026910 
#    z -0.019720 0.026910 1.801420 
# 
# From -- ./inp_files/427501.got.cif
#   From: 2010.05.17/outbox.cif.g08.bks.cpg/sg2_214_cif.got.tgz:427501.got - 2010.06.03 11:33:40.
