data_PCOD9102446
_publ_section_title
;
Structure prediction by ZEFSAII (Michael W. Deem and Ramdas Pophale) SiO2 
 PCOD9102446
Probable space group: P -1
;
_chemical_formula_sum "Si O2"
_cell_formula_units_Z 14
_cell_length_a 12.900111
_cell_length_b 8.051965
_cell_length_c 9.914898
_cell_angle_alpha 126.411891
_cell_angle_beta 135.008551
_cell_angle_gamma 54.163104
_cell_volume 560.574910
_symmetry_space_group_name_H-M "P -1"
_symmetry_group_IT_number 2
_symmetry_cell_setting 'triclinic'
loop_
_space_group_symop_operation_xyz
x,y,z
-x,-y,-z
loop_
_atom_site_type_symbol
_atom_site_label
_atom_site_fract_x
_atom_site_fract_y
_atom_site_fract_z
Si Si1 0.264837 0.088142 0.101940
Si Si2 0.900911 0.356167 0.586997
Si Si3 0.194650 0.512833 0.932585
Si Si4 0.727712 0.830203 0.551522
Si Si5 0.317840 0.547879 0.332607
Si Si6 0.526520 0.727028 0.092891
Si Si7 0.031606 0.876933 0.738771
O O1 0.307543 0.051837 0.281604
O O2 0.287992 0.314498 0.197682
O O3 0.363598 0.901177 0.004736
O O4 0.091817 0.078253 0.927151
O O5 0.797752 0.577823 0.531079
O O6 0.793265 0.316590 0.588426
O O7 0.941754 0.184074 0.422241
O O8 0.056549 0.414896 0.799090
O O9 0.343434 0.328782 0.927634
O O10 0.130130 0.678970 0.829951
O O11 0.258549 0.626312 0.167246
O O12 0.593937 0.836813 0.328864
O O13 0.859584 0.898880 0.630121
O O14 0.500000 0.500000 0.500000
O O15 0.500000 0.500000 0.000000
#
# Coordination Sequence:
#
# PCOD9102446 Si02
#       7
#     2   2   2   2   2   2   2
#     4  11  25  39  63  96 136 171 214 268 325 387
#     4  10  20  43  69  94 127 174 217 265 324 389
#     4  11  22  41  70  96 127 174 218 263 324 384
#     4  10  20  38  63 102 128 164 216 275 318 379
#     4  11  28  45  64  94 138 174 213 268 336 386
#     4  12  22  38  67 101 132 168 219 270 322 379
#     4  11  20  42  73  97 123 169 225 271 317 385
#
# _framework density 24.974361999999999
#
# number of rings (size 3 to 8) (size 9 to 14) (size 15 to 20)
#    0.000    1.143    4.286    2.143    6.000    1.714 
#    0.000    2.143    0.000    0.000    0.000    0.000 
#    0.000    0.000    0.000    0.000    0.000    0.000 
#
# Total GULP energy -78422.687504 kJ/mol
# GULP energy per Si atom -5601.620536 kJ/mol
# Density = 2.491752 g / cm^3
# Si number density = 24.974362 Si / 1000 Ang^3
#
#
#
# Elastic Constant Matrix: (Units=GPa)
#
#
# Indices 1 2 3 4 5 6 
#
# 1 142.8637 33.5432 63.7996 -4.9039 -10.0815 -24.7592
# 2 33.5432 47.3807 7.2111 9.1304 -14.9061 1.0974
# 3 63.7996 7.2111 149.1092 -4.7289 3.1689 -4.1329
# 4 -4.9039 9.1304 -4.7289 31.4327 -3.4006 -0.6453
# 5 -10.0815 -14.9061 3.1689 -3.4006 46.2366 4.3212
# 6 -24.7592 1.0974 -4.1329 -0.6453 4.3212 41.2411
#
#
#
# Elastic Compliance Matrix: (Units=1/GPa)
#
#
# Indices 1 2 3 4 5 6 
#
# 1 0.012675 -0.009338 -0.004627 0.004112 -0.000328 0.007493
# 2 -0.009338 0.032063 0.001760 -0.009774 0.008142 -0.007289
# 3 -0.004627 0.001760 0.008565 -0.000076 -0.000859 -0.001877
# 4 0.004112 -0.009774 -0.000076 0.035355 0.000046 0.003270
# 5 -0.000328 0.008142 -0.000859 0.000046 0.024530 -0.003069
# 6 0.007493 -0.007289 -0.001877 0.003270 -0.003069 0.029125
#
#
# Mechanical properties :
#
#
# Convention : Reuss Voigt Hill
#
# Bulk Modulus (GPa) = 34.61087 60.94017 47.77552
# Shear Modulus (GPa) = 28.35218 39.43541 33.89379
#
# Velocity S-wave (km/s) = 3.37300 3.97802 3.68794
# Velocity P-wave (km/s) = 5.39056 6.74934 6.10785
#
# Compressibility (1/GPa) = 0.02889266
#
# Stress axis : x y z
#
# Youngs Moduli (GPa) = 78.89587 31.18894 116.75740
#
# Poissons Ratio (x) = 0.29125 0.54019
# Poissons Ratio (y) = 0.73674 -0.20548
# Poissons Ratio (z) = 0.36502 -0.05489
#
# Static dielectric constant tensor:
#      x y z
#    x 1.986930 0.001280 -0.018320 
#    y 0.001280 2.023670 -0.060350 
#    z -0.018320 -0.060350 1.991700 
# 
# From -- ./inp_files/158254.got.cif
#   From: 2010.05.17/outbox.cif.g08.bks.cpg/sg2_80_cif.got.tgz:158254.got - 2010.06.03 11:33:40.
