data_PCOD9102215
_publ_section_title
;
Structure prediction by ZEFSAII (Michael W. Deem and Ramdas Pophale) SiO2 
 PCOD9102215
Probable space group: P -1
;
_chemical_formula_sum "Si O2"
_cell_formula_units_Z 16
_cell_length_a 5.151520
_cell_length_b 17.925120
_cell_length_c 7.020355
_cell_angle_alpha 86.999379
_cell_angle_beta 100.260745
_cell_angle_gamma 74.657590
_cell_volume 611.780136
_symmetry_space_group_name_H-M "P -1"
_symmetry_group_IT_number 2
_symmetry_cell_setting 'triclinic'
loop_
_space_group_symop_operation_xyz
x,y,z
-x,-y,-z
loop_
_atom_site_type_symbol
_atom_site_label
_atom_site_fract_x
_atom_site_fract_y
_atom_site_fract_z
Si Si1 0.747234 0.027764 0.107464
Si Si2 0.971818 0.740361 0.322535
Si Si3 0.302285 0.401039 0.620056
Si Si4 0.759621 0.325125 0.982032
Si Si5 0.481261 0.144056 0.330603
Si Si6 0.490718 0.306482 0.326504
Si Si7 0.811960 0.471169 0.123954
Si Si8 0.907585 0.899069 0.451031
O O1 0.823800 0.979369 0.319136
O O2 0.613220 0.116753 0.144259
O O3 0.500000 0.000000 0.000000
O O4 0.000000 0.000000 0.000000
O O5 0.837193 0.668240 0.336176
O O6 0.818797 0.829700 0.339541
O O7 0.226747 0.720788 0.508525
O O8 0.049186 0.742367 0.108417
O O9 0.354608 0.388301 0.403484
O O10 0.179485 0.486648 0.679781
O O11 0.587078 0.374603 0.778719
O O12 0.556104 0.308415 0.113252
O O13 0.898160 0.378771 0.118843
O O14 0.351762 0.236291 0.331627
O O15 0.257922 0.100387 0.373016
O O16 0.762612 0.124139 0.492531
O O17 0.500000 0.500000 0.000000
O O18 0.000000 0.500000 0.000000
#
# Coordination Sequence:
#
# PCOD9102215 Si02
#       8
#     2   2   2   2   2   2   2   2
#     4  12  26  42  65 100 128 158 210 262 303 371
#     4  10  21  39  62  89 124 166 207 259 313 374
#     4  10  20  40  61  86 127 163 210 259 314 376
#     4  10  22  38  62  89 123 168 207 263 316 367
#     4  11  23  44  65  89 126 171 204 252 314 380
#     4  10  23  39  61  94 124 160 216 259 310 374
#     4  10  20  38  62  88 124 168 210 256 319 378
#     4  11  23  43  67  88 126 172 205 248 321 371
#
# _framework density 26.153186000000002
#
# number of rings (size 3 to 8) (size 9 to 14) (size 15 to 20)
#    0.000    1.500    2.500    2.250    1.750    2.500 
#    0.000    0.625    0.000    0.000    0.000    0.000 
#    0.000    0.000    0.000    0.000    0.000    0.000 
#
# Total GULP energy -89376.846747 kJ/mol
# GULP energy per Si atom -5586.052922 kJ/mol
# Density = 2.609366 g / cm^3
# Si number density = 26.153186 Si / 1000 Ang^3
#
#
#
# Elastic Constant Matrix: (Units=GPa)
#
#
# Indices 1 2 3 4 5 6 
#
# 1 95.0311 7.3533 16.8539 3.3640 -13.1626 -2.6150
# 2 7.3533 83.8968 17.1683 32.4234 -11.2122 -10.0037
# 3 16.8539 17.1683 119.2461 31.1889 -14.9765 -16.7099
# 4 3.3640 32.4234 31.1889 46.0328 -2.9891 -11.9101
# 5 -13.1626 -11.2122 -14.9765 -2.9891 59.4711 0.6267
# 6 -2.6150 -10.0037 -16.7099 -11.9101 0.6267 32.0923
#
#
#
# Elastic Compliance Matrix: (Units=1/GPa)
#
#
# Indices 1 2 3 4 5 6 
#
# 1 0.011080 -0.000709 -0.001396 0.000823 0.002006 0.000221
# 2 -0.000709 0.016996 0.001420 -0.012355 0.002770 0.001340
# 3 -0.001396 0.001420 0.011069 -0.007391 0.002340 0.003304
# 4 0.000823 -0.012355 -0.007391 0.036799 -0.002223 0.006068
# 5 0.002006 0.002770 0.002340 -0.002223 0.018247 0.001064
# 6 0.000221 0.001340 0.003304 0.006068 0.001064 0.035547
#
#
# Mechanical properties :
#
#
# Convention : Reuss Voigt Hill
#
# Bulk Modulus (GPa) = 26.47283 42.32501 34.39892
# Shear Modulus (GPa) = 34.79475 44.63916 39.71696
#
# Velocity S-wave (km/s) = 3.65145 4.13587 3.90119
# Velocity P-wave (km/s) = 5.28409 6.24707 5.78565
#
# Compressibility (1/GPa) = 0.03777458
#
# Stress axis : x y z
#
# Youngs Moduli (GPa) = 90.25124 58.83870 90.34332
#
# Poissons Ratio (x) = 0.04172 0.12615
# Poissons Ratio (y) = 0.06400 -0.12833
# Poissons Ratio (z) = 0.12602 -0.08358
#
# Static dielectric constant tensor:
#      x y z
#    x 2.111240 0.001580 -0.093980 
#    y 0.001580 2.129710 -0.031790 
#    z -0.093980 -0.031790 2.060390 
# 
# From -- ./inp_files/10558.got.cif
#   From: 2010.05.17/outbox.cif.g08.bks.cpg/sg2_6_cif.got.tgz:10558.got - 2010.06.03 11:33:40.
