data_PCOD9102013
_publ_section_title
;
Structure prediction by ZEFSAII (Michael W. Deem and Ramdas Pophale) SiO2 
 PCOD9102013
Probable space group: P -1
;
_chemical_formula_sum "Si O2"
_cell_formula_units_Z 16
_cell_length_a 22.709512
_cell_length_b 13.765412
_cell_length_c 8.079361
_cell_angle_alpha 57.003763
_cell_angle_beta 135.014554
_cell_angle_gamma 154.262755
_cell_volume 739.259827
_symmetry_space_group_name_H-M "P -1"
_symmetry_group_IT_number 2
_symmetry_cell_setting 'triclinic'
loop_
_space_group_symop_operation_xyz
x,y,z
-x,-y,-z
loop_
_atom_site_type_symbol
_atom_site_label
_atom_site_fract_x
_atom_site_fract_y
_atom_site_fract_z
Si Si1 0.167535 0.268918 0.771884
Si Si2 0.689983 0.225441 0.742656
Si Si3 0.836874 0.483632 0.493217
Si Si4 0.600792 0.807596 0.393382
Si Si5 0.226977 0.927675 0.842808
Si Si6 0.469865 0.040645 0.742795
Si Si7 0.259444 0.259400 0.272960
Si Si8 0.218757 0.175030 0.662454
O O1 0.238086 0.483388 0.741139
O O2 0.264559 0.310305 0.786540
O O3 0.135312 0.169172 0.977458
O O4 0.984320 0.074122 0.511635
O O5 0.825373 0.461730 0.689790
O O6 0.500000 0.000000 0.500000
O O7 0.645932 0.233684 0.818342
O O8 0.742476 0.155228 0.925726
O O9 0.705675 0.225085 0.426443
O O10 0.027485 0.694487 0.619133
O O11 0.430375 0.527773 0.299354
O O12 0.738010 0.874136 0.640047
O O13 0.660741 0.939864 0.221398
O O14 0.564910 0.866209 0.393519
O O15 0.274640 0.108465 0.854178
O O16 0.500000 0.000000 0.000000
O O17 0.260679 0.266810 0.470635
#
# Coordination Sequence:
#
# PCOD9102013 Si02
#       8
#     2   2   2   2   2   2   2   2
#     4  10  20  38  61  91 123 157 206 248 310 363
#     4  10  22  37  59  85 118 156 199 246 301 357
#     4  10  23  38  61  89 120 162 199 247 308 364
#     4  10  22  38  60  90 119 158 205 246 308 363
#     4  10  20  42  61  84 127 155 200 257 300 362
#     4  11  21  39  61  87 120 158 200 250 300 361
#     4  10  21  39  62  88 123 160 202 256 303 361
#     4   9  21  38  63  90 120 162 201 254 306 369
#
# _framework density 21.643270000000001
#
# number of rings (size 3 to 8) (size 9 to 14) (size 15 to 20)
#    0.000    2.000    1.250    1.500    3.500    2.500 
#    0.000    6.875    0.000    0.000    0.000    0.000 
#    0.000    0.000    0.000    0.000    0.000    0.000 
#
# Total GULP energy -89074.173945 kJ/mol
# GULP energy per Si atom -5567.135872 kJ/mol
# Density = 2.159401 g / cm^3
# Si number density = 21.643270 Si / 1000 Ang^3
#
#
#
# Elastic Constant Matrix: (Units=GPa)
#
#
# Indices 1 2 3 4 5 6 
#
# 1 100.6659 16.3034 29.8170 -17.6786 8.4000 5.2470
# 2 16.3034 50.1509 14.1067 -8.6650 5.6144 7.4268
# 3 29.8170 14.1067 80.8583 -35.1714 11.6063 -13.5278
# 4 -17.6786 -8.6650 -35.1714 36.3258 0.8506 2.0104
# 5 8.4000 5.6144 11.6063 0.8506 27.0252 -13.5019
# 6 5.2470 7.4268 -13.5278 2.0104 -13.5019 37.1053
#
#
#
# Elastic Compliance Matrix: (Units=1/GPa)
#
#
# Indices 1 2 3 4 5 6 
#
# 1 0.012186 -0.001460 -0.003016 0.003004 -0.004436 -0.004308
# 2 -0.001460 0.023794 -0.002555 0.003141 -0.007721 -0.008467
# 3 -0.003016 -0.002555 0.026021 0.022919 -0.007138 0.006585
# 4 0.003004 0.003141 0.022919 0.052261 -0.013249 -0.000350
# 5 -0.004436 -0.007721 -0.007138 -0.013249 0.053302 0.019684
# 6 -0.004308 -0.008467 0.006585 -0.000350 0.019684 0.038837
#
#
# Mechanical properties :
#
#
# Convention : Reuss Voigt Hill
#
# Bulk Modulus (GPa) = 20.85957 39.12547 29.99252
# Shear Modulus (GPa) = 21.14688 31.52112 26.33400
#
# Velocity S-wave (km/s) = 3.12919 3.82041 3.49195
# Velocity P-wave (km/s) = 4.76599 6.13004 5.49054
#
# Compressibility (1/GPa) = 0.04793962
#
# Stress axis : x y z
#
# Youngs Moduli (GPa) = 82.06228 42.02736 38.43044
#
# Poissons Ratio (x) = 0.06134 0.11591
# Poissons Ratio (y) = 0.11977 0.09819
# Poissons Ratio (z) = 0.24751 0.10738
#
# Static dielectric constant tensor:
#      x y z
#    x 2.258350 -0.007390 -0.140240 
#    y -0.007390 1.774840 0.026720 
#    z -0.140240 0.026720 1.919190 
# 
# From -- ./inp_files/208736.got.cif
#   From: 2010.05.17/outbox.cif.g08.bks.cpg/sg2_105_cif.got.tgz:208736.got - 2010.06.03 11:33:40.
