data_PCOD9102935
_publ_section_title
;
Structure prediction by ZEFSAII (Michael W. Deem and Ramdas Pophale) SiO2 
 PCOD9102935
Probable space group: P -1
;
_chemical_formula_sum "Si O2"
_cell_formula_units_Z 14
_cell_length_a 18.536972
_cell_length_b 9.174798
_cell_length_c 14.490457
_cell_angle_alpha 53.287282
_cell_angle_beta 160.130345
_cell_angle_gamma 134.738064
_cell_volume 573.589847
_symmetry_space_group_name_H-M "P -1"
_symmetry_group_IT_number 2
_symmetry_cell_setting 'triclinic'
loop_
_space_group_symop_operation_xyz
x,y,z
-x,-y,-z
loop_
_atom_site_type_symbol
_atom_site_label
_atom_site_fract_x
_atom_site_fract_y
_atom_site_fract_z
Si Si1 0.637445 0.472408 0.322230
Si Si2 0.386370 0.981343 0.772493
Si Si3 0.979112 0.935205 0.609358
Si Si4 0.552715 0.317731 0.698450
Si Si5 0.765915 0.463339 0.286969
Si Si6 0.373748 0.989942 0.213385
Si Si7 0.934191 0.652924 0.919803
O O1 0.772790 0.683813 0.465309
O O2 0.817559 0.535098 0.426804
O O3 0.394980 0.459984 0.989720
O O4 0.559866 0.242691 0.356497
O O5 0.118322 0.940901 0.492501
O O6 0.540201 0.196478 0.821045
O O7 0.390179 0.792494 0.797180
O O8 0.500000 0.000000 0.000000
O O9 0.208130 0.965245 0.933321
O O10 0.000000 0.000000 0.500000
O O11 0.823647 0.529488 0.930500
O O12 0.317783 0.349728 0.409899
O O13 0.511536 0.154259 0.625745
O O14 0.000000 0.500000 0.500000
O O15 0.179523 0.880705 0.106610
O O16 0.000000 0.500000 0.000000
#
# Coordination Sequence:
#
# PCOD9102935 Si02
#       7
#     2   2   2   2   2   2   2
#     4  11  23  39  57  89 132 167 211 261 304 385
#     4  12  21  37  59  92 128 166 207 257 309 380
#     4  12  23  38  59  91 132 172 209 254 317 377
#     4  10  20  38  64  93 124 161 216 262 314 379
#     4  11  22  37  55  83 127 174 209 253 315 372
#     4  11  21  39  65  91 124 166 214 259 320 373
#     4   9  20  38  66  94 115 164 217 265 316 376
#
# _framework density 24.407682999999999
#
# number of rings (size 3 to 8) (size 9 to 14) (size 15 to 20)
#    0.000    1.143    4.286    4.286    0.000    0.000 
#    0.000    0.000    0.000    8.571    0.000    0.000 
#    0.000    0.000    0.000    0.000    0.000    0.000 
#
# Total GULP energy -78172.098532 kJ/mol
# GULP energy per Si atom -5583.721324 kJ/mol
# Density = 2.435213 g / cm^3
# Si number density = 24.407683 Si / 1000 Ang^3
#
#
#
# Elastic Constant Matrix: (Units=GPa)
#
#
# Indices 1 2 3 4 5 6 
#
# 1 92.9780 37.8243 18.1600 1.8657 33.3329 24.7869
# 2 37.8243 152.0164 35.4038 13.1687 16.1995 9.2674
# 3 18.1600 35.4038 60.7860 -4.9412 29.6957 8.1794
# 4 1.8657 13.1687 -4.9412 48.5885 -2.4957 12.6947
# 5 33.3329 16.1995 29.6957 -2.4957 44.0691 5.4695
# 6 24.7869 9.2674 8.1794 12.6947 5.4695 52.1855
#
#
#
# Elastic Compliance Matrix: (Units=1/GPa)
#
#
# Indices 1 2 3 4 5 6 
#
# 1 0.018979 -0.004062 0.005513 0.002252 -0.015446 -0.008086
# 2 -0.004062 0.008805 -0.006155 -0.003119 0.003594 0.001713
# 3 0.005513 -0.006155 0.029747 0.004742 -0.021046 -0.005136
# 4 0.002252 -0.003119 0.004742 0.023522 -0.001574 -0.006816
# 5 -0.015446 0.003594 -0.021046 -0.001574 0.046462 0.005510
# 6 -0.008086 0.001713 -0.005136 -0.006816 0.005510 0.024585
#
#
# Mechanical properties :
#
#
# Convention : Reuss Voigt Hill
#
# Bulk Modulus (GPa) = 20.78005 54.28407 37.53206
# Shear Modulus (GPa) = 28.16115 43.26143 35.71129
#
# Velocity S-wave (km/s) = 3.40042 4.21462 3.82922
# Velocity P-wave (km/s) = 4.89381 6.78033 5.91279
#
# Compressibility (1/GPa) = 0.04812308
#
# Stress axis : x y z
#
# Youngs Moduli (GPa) = 52.69005 113.56915 33.61662
#
# Poissons Ratio (x) = 0.46136 -0.18532
# Poissons Ratio (y) = 0.21405 0.20690
# Poissons Ratio (z) = -0.29047 0.69897
#
# Static dielectric constant tensor:
#      x y z
#    x 1.851550 0.039300 0.067010 
#    y 0.039300 2.140650 -0.059830 
#    z 0.067010 -0.059830 2.020470 
# 
# From -- ./inp_files/528911.got.cif
#   From: 2010.05.17/outbox.cif.g08.bks.cpg/sg2_265_cif.got.tgz:528911.got - 2010.06.03 11:33:40.
