data_PCOD9102157
_publ_section_title
;
Structure prediction by ZEFSAII (Michael W. Deem and Ramdas Pophale) SiO2 
 PCOD9102157
Probable space group: P -1
;
_chemical_formula_sum "Si O2"
_cell_formula_units_Z 16
_cell_length_a 14.920983
_cell_length_b 17.273203
_cell_length_c 5.400435
_cell_angle_alpha 110.202860
_cell_angle_beta 93.757969
_cell_angle_gamma 40.433571
_cell_volume 801.427680
_symmetry_space_group_name_H-M "P -1"
_symmetry_group_IT_number 2
_symmetry_cell_setting 'triclinic'
loop_
_space_group_symop_operation_xyz
x,y,z
-x,-y,-z
loop_
_atom_site_type_symbol
_atom_site_label
_atom_site_fract_x
_atom_site_fract_y
_atom_site_fract_z
Si Si1 0.473297 0.422453 0.406750
Si Si2 0.344337 0.861166 0.870279
Si Si3 0.336595 0.280369 0.223578
Si Si4 0.327695 0.459814 0.922326
Si Si5 0.015024 0.313333 0.897898
Si Si6 0.735334 0.998149 0.489378
Si Si7 0.404379 0.206499 0.655495
Si Si8 0.970742 0.430704 0.520451
O O1 0.500000 0.500000 0.500000
O O2 0.620338 0.260819 0.253042
O O3 0.390703 0.455091 0.679316
O O4 0.392098 0.454962 0.174848
O O5 0.504450 0.790946 0.825632
O O6 0.269852 0.942069 0.691418
O O7 0.264043 0.950428 0.200153
O O8 0.332085 0.230255 0.415595
O O9 0.207007 0.440677 0.372231
O O10 0.330260 0.231253 0.920710
O O11 0.375240 0.327886 0.783659
O O12 0.153540 0.592805 0.041704
O O13 0.021896 0.376352 0.748123
O O14 0.131409 0.160264 0.680297
O O15 0.034103 0.327239 0.201693
O O16 0.577069 0.066805 0.536154
O O17 0.000000 0.500000 0.500000
#
# Coordination Sequence:
#
# PCOD9102157 Si02
#       8
#     2   2   2   2   2   2   2   2
#     4  12  22  34  59  92 117 141 190 244 283 329
#     4  10  17  35  56  79 108 148 190 229 282 324
#     4  10  16  32  56  80  97 145 192 227 258 330
#     4  12  19  38  59  85 111 148 198 234 275 328
#     4  12  23  38  60  88 112 147 196 232 275 340
#     4  10  20  32  58  84 108 142 190 242 262 327
#     4  10  16  32  59  77 101 139 190 230 268 311
#     4  12  23  37  57  86 121 148 180 237 296 333
#
# _framework density 19.964369000000001
#
# number of rings (size 3 to 8) (size 9 to 14) (size 15 to 20)
#    0.000    1.000    7.500    2.250    0.000    0.000 
#    0.000    0.000    0.000   22.500    0.000    0.000 
#    0.000    0.000    0.000    0.000    0.000    0.000 
#
# Total GULP energy -89352.573789 kJ/mol
# GULP energy per Si atom -5584.535862 kJ/mol
# Density = 1.991893 g / cm^3
# Si number density = 19.964369 Si / 1000 Ang^3
#
#
#
# Elastic Constant Matrix: (Units=GPa)
#
#
# Indices 1 2 3 4 5 6 
#
# 1 39.1519 14.4328 21.9778 2.5433 -8.5884 3.2925
# 2 14.4328 78.6524 58.1350 9.5831 -14.0058 -0.0858
# 3 21.9778 58.1350 165.0826 -12.9212 -24.3352 4.7491
# 4 2.5433 9.5831 -12.9212 59.3550 3.1885 -6.7704
# 5 -8.5884 -14.0058 -24.3352 3.1885 19.3992 -4.3894
# 6 3.2925 -0.0858 4.7491 -6.7704 -4.3894 14.8937
#
#
#
# Elastic Compliance Matrix: (Units=1/GPa)
#
#
# Indices 1 2 3 4 5 6 
#
# 1 0.029873 -0.002216 -0.001999 -0.002331 0.008473 -0.004542
# 2 -0.002216 0.019214 -0.005884 -0.004369 0.006792 0.002493
# 3 -0.001999 -0.005884 0.009563 0.002832 0.006527 0.000570
# 4 -0.002331 -0.004369 0.002832 0.019262 -0.002048 0.007740
# 5 0.008473 0.006792 0.006527 -0.002048 0.072463 0.016510
# 6 -0.004542 0.002493 0.000570 0.007740 0.016510 0.076363
#
#
# Mechanical properties :
#
#
# Convention : Reuss Voigt Hill
#
# Bulk Modulus (GPa) = 26.00674 52.44200 39.22437
# Shear Modulus (GPa) = 19.24895 31.28568 25.26731
#
# Velocity S-wave (km/s) = 3.10847 3.96293 3.56142
# Velocity P-wave (km/s) = 5.09297 6.87492 6.04991
#
# Compressibility (1/GPa) = 0.03845158
#
# Stress axis : x y z
#
# Youngs Moduli (GPa) = 33.47541 52.04463 104.56796
#
# Poissons Ratio (x) = 0.11534 0.20907
# Poissons Ratio (y) = 0.07418 0.61526
# Poissons Ratio (z) = 0.06693 0.30622
#
# Static dielectric constant tensor:
#      x y z
#    x 1.713380 -0.003550 -0.034340 
#    y -0.003550 1.719490 -0.049590 
#    z -0.034340 -0.049590 1.786140 
# 
# From -- ./inp_files/99445.got.cif
#   From: 2010.05.17/outbox.cif.g08.bks.cpg/sg2_50_cif.got.tgz:99445.got - 2010.06.03 11:33:40.
