data_PCOD9102161
_publ_section_title
;
Structure prediction by ZEFSAII (Michael W. Deem and Ramdas Pophale) SiO2 
 PCOD9102161
Probable space group: P -1
;
_chemical_formula_sum "Si O2"
_cell_formula_units_Z 16
_cell_length_a 7.295979
_cell_length_b 15.390008
_cell_length_c 14.166602
_cell_angle_alpha 149.207009
_cell_angle_beta 128.150772
_cell_angle_gamma 49.011463
_cell_volume 608.599136
_symmetry_space_group_name_H-M "P -1"
_symmetry_group_IT_number 2
_symmetry_cell_setting 'triclinic'
loop_
_space_group_symop_operation_xyz
x,y,z
-x,-y,-z
loop_
_atom_site_type_symbol
_atom_site_label
_atom_site_fract_x
_atom_site_fract_y
_atom_site_fract_z
Si Si1 0.292111 0.823976 0.727358
Si Si2 0.650991 0.414793 0.633948
Si Si3 0.152060 0.665238 0.993601
Si Si4 0.203042 0.019924 0.374234
Si Si5 0.156854 0.164892 0.117510
Si Si6 0.348058 0.156463 0.355538
Si Si7 0.651093 0.748524 0.027237
Si Si8 0.213889 0.312480 0.775165
O O1 0.306144 0.630879 0.507050
O O2 0.574628 0.819505 0.808253
O O3 0.092939 0.931486 0.684566
O O4 0.182911 0.960403 0.906327
O O5 0.500091 0.294674 0.520142
O O6 0.915951 0.366969 0.723483
O O7 0.530740 0.624729 0.812183
O O8 0.052514 0.708608 0.896431
O O9 0.270611 0.457951 0.860131
O O10 0.910965 0.722439 0.036323
O O11 0.293858 0.807060 0.194790
O O12 0.263404 0.128610 0.406764
O O13 0.279196 0.106112 0.570796
O O14 0.129567 0.215473 0.265088
O O15 0.498105 0.955519 0.181131
O O16 0.701993 0.673201 0.078962
#
# Coordination Sequence:
#
# PCOD9102161 Si02
#       8
#     2   2   2   2   2   2   2   2
#     4   8  15  32  56  81 109 142 186 229 273 327
#     4   9  19  37  58  85 112 145 192 239 283 332
#     4  10  20  38  62  87 113 145 194 243 284 335
#     4  10  22  38  57  85 120 157 188 229 286 344
#     4   9  17  35  60  86 115 150 188 235 285 334
#     4  11  23  38  56  86 124 154 188 228 284 350
#     4  11  22  38  63  86 111 150 194 243 288 332
#     4  10  22  40  61  85 111 148 198 243 285 332
#
# _framework density 26.289881999999999
#
# number of rings (size 3 to 8) (size 9 to 14) (size 15 to 20)
#    0.000    2.250    0.000    6.000    0.000    6.500 
#    0.000   28.125    0.000    0.000    0.000    2.625 
#    0.000    0.000    0.000    0.000    0.000    0.000 
#
# Total GULP energy -89370.225014 kJ/mol
# GULP energy per Si atom -5585.639063 kJ/mol
# Density = 2.623005 g / cm^3
# Si number density = 26.289882 Si / 1000 Ang^3
#
#
#
# Elastic Constant Matrix: (Units=GPa)
#
#
# Indices 1 2 3 4 5 6 
#
# 1 58.7555 2.9358 18.1184 7.5985 19.1802 6.6789
# 2 2.9358 121.6380 36.3511 10.3028 9.2817 -1.1777
# 3 18.1184 36.3511 167.9055 -2.7508 27.2938 6.3151
# 4 7.5985 10.3028 -2.7508 44.4798 4.7208 -0.3416
# 5 19.1802 9.2817 27.2938 4.7208 40.6574 1.7458
# 6 6.6789 -1.1777 6.3151 -0.3416 1.7458 35.7671
#
#
#
# Elastic Compliance Matrix: (Units=1/GPa)
#
#
# Indices 1 2 3 4 5 6 
#
# 1 0.020927 0.000646 -0.000862 -0.002852 -0.008967 -0.003324
# 2 0.000646 0.009046 -0.001951 -0.002235 -0.000824 0.000541
# 3 -0.000862 -0.001951 0.007200 0.001473 -0.004111 -0.000960
# 4 -0.002852 -0.002235 0.001473 0.023786 -0.001918 0.000520
# 5 -0.008967 -0.000824 -0.004111 -0.001918 0.031962 0.000795
# 6 -0.003324 0.000541 -0.000960 0.000520 0.000795 0.028733
#
#
# Mechanical properties :
#
#
# Convention : Reuss Voigt Hill
#
# Bulk Modulus (GPa) = 30.45197 51.45663 40.95430
# Shear Modulus (GPa) = 36.51390 43.57378 40.04384
#
# Velocity S-wave (km/s) = 3.73083 4.07558 3.90701
# Velocity P-wave (km/s) = 5.49246 6.46238 5.99706
#
# Compressibility (1/GPa) = 0.03283860
#
# Stress axis : x y z
#
# Youngs Moduli (GPa) = 47.78471 110.54594 138.89508
#
# Poissons Ratio (x) = -0.07143 0.11975
# Poissons Ratio (y) = -0.03088 0.27101
# Poissons Ratio (z) = 0.04120 0.21570
#
# Static dielectric constant tensor:
#      x y z
#    x 2.123790 -0.030280 -0.025530 
#    y -0.030280 2.086480 0.040370 
#    z -0.025530 0.040370 2.104140 
# 
# From -- ./inp_files/504731.got.cif
#   From: 2010.05.17/outbox.cif.g08.bks.cpg/sg2_253_cif.got.tgz:504731.got - 2010.06.03 11:33:40.
