data_PCOD9102512
_publ_section_title
;
Structure prediction by ZEFSAII (Michael W. Deem and Ramdas Pophale) SiO2 
 PCOD9102512
Probable space group: P -1
;
_chemical_formula_sum "Si O2"
_cell_formula_units_Z 16
_cell_length_a 21.894283
_cell_length_b 13.470196
_cell_length_c 8.453211
_cell_angle_alpha 92.302026
_cell_angle_beta 101.716033
_cell_angle_gamma 20.810012
_cell_volume 782.897839
_symmetry_space_group_name_H-M "P -1"
_symmetry_group_IT_number 2
_symmetry_cell_setting 'triclinic'
loop_
_space_group_symop_operation_xyz
x,y,z
-x,-y,-z
loop_
_atom_site_type_symbol
_atom_site_label
_atom_site_fract_x
_atom_site_fract_y
_atom_site_fract_z
Si Si1 0.464982 0.995032 0.323229
Si Si2 0.377600 0.584771 0.907028
Si Si3 0.767349 0.364111 0.935454
Si Si4 0.285467 0.007241 0.166261
Si Si5 0.755802 0.570689 0.179503
Si Si6 0.890146 0.517952 0.993354
Si Si7 0.090176 0.973897 0.517010
Si Si8 0.428591 0.365153 0.481232
O O1 0.565918 0.874966 0.205871
O O2 0.557683 0.747744 0.396658
O O3 0.500000 0.000000 0.500000
O O4 0.233471 0.348251 0.199140
O O5 0.184782 0.881010 0.715523
O O6 0.528429 0.296317 0.859931
O O7 0.500000 0.500000 0.000000
O O8 0.314097 0.613104 0.023264
O O9 0.638707 0.570760 0.721629
O O10 0.741390 0.497065 0.049159
O O11 0.000000 0.000000 0.000000
O O12 0.190052 0.249430 0.055492
O O13 0.360223 0.907028 0.380911
O O14 0.120517 0.172512 0.079054
O O15 0.822531 0.566687 0.119414
O O16 0.925018 0.288641 0.373536
O O17 0.264155 0.691101 0.466890
O O18 0.000000 0.000000 0.500000
#
# Coordination Sequence:
#
# PCOD9102512 Si02
#       8
#     2   2   2   2   2   2   2   2
#     4  11  23  39  61  93 127 166 213 274 318 385
#     4  11  25  40  65  96 137 176 214 273 339 394
#     4  12  23  38  65 103 131 164 220 274 324 398
#     4   9  22  44  63  85 135 177 213 266 332 391
#     4  12  23  38  69  95 129 167 222 278 326 390
#     4  10  22  41  66  91 121 177 225 265 321 391
#     4  11  19  41  63  92 130 171 212 269 336 386
#     4  10  20  38  63  88 127 165 207 264 333 379
#
# _framework density 20.436893999999999
#
# number of rings (size 3 to 8) (size 9 to 14) (size 15 to 20)
#    0.000    1.250    3.750    2.625    1.750    3.000 
#    0.000    2.500    0.000    7.500    0.000    0.000 
#    0.000    0.000    0.000    0.000    0.000    0.000 
#
# Total GULP energy -89212.215839 kJ/mol
# GULP energy per Si atom -5575.763490 kJ/mol
# Density = 2.039038 g / cm^3
# Si number density = 20.436894 Si / 1000 Ang^3
#
#
#
# Elastic Constant Matrix: (Units=GPa)
#
#
# Indices 1 2 3 4 5 6 
#
# 1 88.9230 25.3587 61.8215 -2.6206 16.7820 -28.2474
# 2 25.3587 69.3417 29.6540 -7.0645 10.3994 -16.0468
# 3 61.8215 29.6540 148.5621 -15.5380 8.2296 -25.6772
# 4 -2.6206 -7.0645 -15.5380 37.7791 1.3578 4.2336
# 5 16.7820 10.3994 8.2296 1.3578 27.7868 0.8606
# 6 -28.2474 -16.0468 -25.6772 4.2336 0.8606 30.5088
#
#
#
# Elastic Compliance Matrix: (Units=1/GPa)
#
#
# Indices 1 2 3 4 5 6 
#
# 1 0.023371 -0.000320 -0.006313 -0.002474 -0.012527 0.016853
# 2 -0.000320 0.018216 -0.001565 0.002093 -0.006506 0.007861
# 3 -0.006313 -0.001565 0.010193 0.003260 0.001177 0.001424
# 4 -0.002474 0.002093 0.003260 0.028348 -0.001568 -0.002335
# 5 -0.012527 -0.006506 0.001177 -0.001568 0.046185 -0.015115
# 6 0.016853 0.007861 0.001424 -0.002335 -0.015115 0.054465
#
#
# Mechanical properties :
#
#
# Convention : Reuss Voigt Hill
#
# Bulk Modulus (GPa) = 28.26241 60.05503 44.15872
# Shear Modulus (GPa) = 23.92692 31.88112 27.90402
#
# Velocity S-wave (km/s) = 3.42537 3.95394 3.69911
# Velocity P-wave (km/s) = 5.43169 7.09184 6.31655
#
# Compressibility (1/GPa) = 0.03538268
#
# Stress axis : x y z
#
# Youngs Moduli (GPa) = 42.78778 54.89762 98.10915
#
# Poissons Ratio (x) = 0.01758 0.61941
# Poissons Ratio (y) = 0.01370 0.15352
# Poissons Ratio (z) = 0.27014 0.08590
#
# Static dielectric constant tensor:
#      x y z
#    x 1.818960 0.014910 0.055410 
#    y 0.014910 1.764260 -0.020110 
#    z 0.055410 -0.020110 1.778280 
# 
# From -- ./inp_files/354124.got.cif
#   From: 2010.05.17/outbox.cif.g08.bks.cpg/sg2_178_cif.got.tgz:354124.got - 2010.06.03 11:33:40.
