data_PCOD9102419
_publ_section_title
;
Structure prediction by ZEFSAII (Michael W. Deem and Ramdas Pophale) SiO2 
 PCOD9102419
Probable space group: P -1
;
_chemical_formula_sum "Si O2"
_cell_formula_units_Z 13
_cell_length_a 22.604094
_cell_length_b 5.212290
_cell_length_c 11.809974
_cell_angle_alpha 131.210579
_cell_angle_beta 31.360704
_cell_angle_gamma 126.076887
_cell_volume 543.535263
_symmetry_space_group_name_H-M "P -1"
_symmetry_group_IT_number 2
_symmetry_cell_setting 'triclinic'
loop_
_space_group_symop_operation_xyz
x,y,z
-x,-y,-z
loop_
_atom_site_type_symbol
_atom_site_label
_atom_site_fract_x
_atom_site_fract_y
_atom_site_fract_z
Si Si1 0.739195 0.227852 0.156172
Si Si2 0.431806 0.319645 0.663320
Si Si3 0.500000 0.500000 0.000000
Si Si4 0.745798 0.192431 0.640891
Si Si5 0.423006 0.307303 0.309133
Si Si6 0.076639 0.298593 0.901255
Si Si7 0.288906 0.068858 0.132874
O O1 0.660671 0.518070 0.417834
O O2 0.862629 0.403206 0.033048
O O3 0.693915 0.875354 0.193554
O O4 0.722995 0.143398 0.025776
O O5 0.500000 0.500000 0.500000
O O6 0.454596 0.582306 0.806193
O O7 0.500000 0.000000 0.500000
O O8 0.585844 0.556853 0.762933
O O9 0.581307 0.784142 0.021505
O O10 0.776529 0.582572 0.672951
O O11 0.618174 0.094372 0.759300
O O12 0.826072 0.914487 0.379098
O O13 0.750929 0.134341 0.749481
O O14 0.000000 0.500000 0.000000
O O15 0.000000 0.000000 0.000000
#
# Coordination Sequence:
#
# PCOD9102419 Si02
#       7
#     2   2   1   2   2   2   2
#     4  10  23  44  67 100 137 180 235 284 339 407
#     4  10  21  36  59  93 130 174 219 265 319 395
#     4  10  20  38  62  96 140 186 224 256 332 400
#     4  10  24  43  66  98 141 174 222 285 348 401
#     4   9  20  39  62  94 134 182 223 267 325 408
#     4  11  25  48  77  98 127 177 236 295 357 412
#     4  11  23  41  65  99 143 183 220 278 335 412
#
# _framework density 23.917493
#
# number of rings (size 3 to 8) (size 9 to 14) (size 15 to 20)
#    0.000    1.846    1.538    0.923    0.000   16.000 
#    2.769    4.615    0.000    0.000    0.000    0.000 
#    0.000    0.000    0.000    0.000    0.000    0.000 
#
# Total GULP energy -72423.926743 kJ/mol
# GULP energy per Si atom -5571.071288 kJ/mol
# Density = 2.386306 g / cm^3
# Si number density = 23.917493 Si / 1000 Ang^3
#
#
#
# Elastic Constant Matrix: (Units=GPa)
#
#
# Indices 1 2 3 4 5 6 
#
# 1 156.1881 93.8128 56.5573 -10.9258 34.9995 26.4612
# 2 93.8128 186.7094 42.4121 0.6043 10.7347 2.8697
# 3 56.5573 42.4121 82.4438 14.3798 19.5770 12.8959
# 4 -10.9258 0.6043 14.3798 54.2953 -2.2868 2.4546
# 5 34.9995 10.7347 19.5770 -2.2868 45.6406 2.2288
# 6 26.4612 2.8697 12.8959 2.4546 2.2288 63.3742
#
#
#
# Elastic Compliance Matrix: (Units=1/GPa)
#
#
# Indices 1 2 3 4 5 6 
#
# 1 0.014252 -0.005494 -0.005343 0.004258 -0.006910 -0.004537
# 2 -0.005494 0.008224 -0.001284 -0.000840 0.002684 0.002121
# 3 -0.005343 -0.001284 0.018605 -0.006099 -0.003832 -0.001126
# 4 0.004258 -0.000840 -0.006099 0.020988 0.000665 -0.001335
# 5 -0.006910 0.002684 -0.003832 0.000665 0.028132 0.002528
# 6 -0.004537 0.002121 -0.001126 -0.001335 0.002528 0.017769
#
#
# Mechanical properties :
#
#
# Convention : Reuss Voigt Hill
#
# Bulk Modulus (GPa) = 59.38721 90.10063 74.74392
# Shear Modulus (GPa) = 36.27753 48.16596 42.22175
#
# Velocity S-wave (km/s) = 3.89881 4.49245 4.20612
# Velocity P-wave (km/s) = 6.71949 8.04131 7.40993
#
# Compressibility (1/GPa) = 0.01683864
#
# Stress axis : x y z
#
# Youngs Moduli (GPa) = 70.16394 121.59484 53.74818
#
# Poissons Ratio (x) = 0.66807 0.28717
# Poissons Ratio (y) = 0.38549 0.06903
# Poissons Ratio (z) = 0.37488 0.15617
#
# Static dielectric constant tensor:
#      x y z
#    x 1.860740 0.004030 -0.020580 
#    y 0.004030 2.011590 -0.013130 
#    z -0.020580 -0.013130 1.952340 
# 
# From -- ./inp_files/473219.got.cif
#   From: 2010.05.17/outbox.cif.g08.bks.cpg/sg2_237_cif.got.tgz:473219.got - 2010.06.03 11:33:40.
