data_PCOD9102913
_publ_section_title
;
Structure prediction by ZEFSAII (Michael W. Deem and Ramdas Pophale) SiO2 
 PCOD9102913
Probable space group: P -1
;
_chemical_formula_sum "Si O2"
_cell_formula_units_Z 16
_cell_length_a 9.788988
_cell_length_b 16.484898
_cell_length_c 7.917139
_cell_angle_alpha 121.823008
_cell_angle_beta 69.574471
_cell_angle_gamma 138.069709
_cell_volume 723.277823
_symmetry_space_group_name_H-M "P -1"
_symmetry_group_IT_number 2
_symmetry_cell_setting 'triclinic'
loop_
_space_group_symop_operation_xyz
x,y,z
-x,-y,-z
loop_
_atom_site_type_symbol
_atom_site_label
_atom_site_fract_x
_atom_site_fract_y
_atom_site_fract_z
Si Si1 0.301007 0.876900 0.345319
Si Si2 0.669790 0.000685 0.874593
Si Si3 0.012753 0.257345 0.135387
Si Si4 0.126465 0.644558 0.930035
Si Si5 0.617115 0.654886 0.101605
Si Si6 0.716069 0.463804 0.132825
Si Si7 0.791556 0.863976 0.537964
Si Si8 0.875762 0.710868 0.517508
O O1 0.266817 0.934428 0.269288
O O2 0.106886 0.787612 0.453421
O O3 0.500000 0.000000 0.500000
O O4 0.281395 0.768283 0.131319
O O5 0.663788 0.886045 0.717729
O O6 0.836121 0.097596 0.054289
O O7 0.500000 0.000000 0.000000
O O8 0.908582 0.305980 0.164793
O O9 0.147043 0.325174 0.317359
O O10 0.154181 0.276472 0.953130
O O11 0.219676 0.582801 0.803416
O O12 0.901294 0.537929 0.997320
O O13 0.641596 0.742355 0.335814
O O14 0.500000 0.500000 0.000000
O O15 0.498713 0.650074 0.992094
O O16 0.728485 0.575566 0.324038
O O17 0.852875 0.809588 0.583592
O O18 0.000000 0.000000 0.500000
#
# Coordination Sequence:
#
# PCOD9102913 Si02
#       8
#     2   2   2   2   2   2   2   2
#     4  10  20  38  64  92 130 177 231 279 344 415
#     4  11  24  45  67  99 142 178 233 295 348 413
#     4  11  23  43  65  99 143 178 233 294 344 408
#     4   9  20  39  62  91 133 178 224 287 341 411
#     4  12  22  44  73 100 139 186 236 292 347 416
#     4  10  21  40  65  95 131 181 233 277 346 412
#     4  12  23  46  74 101 136 191 235 283 357 422
#     4  11  23  41  66  99 139 183 231 290 346 417
#
# _framework density 22.121513
#
# number of rings (size 3 to 8) (size 9 to 14) (size 15 to 20)
#    0.000    1.250    5.000    1.500    1.750    1.500 
#    6.750    0.000    0.000    0.000    0.000    0.000 
#    0.000    0.000    0.000    0.000    0.000    0.000 
#
# Total GULP energy -89189.700629 kJ/mol
# GULP energy per Si atom -5574.356289 kJ/mol
# Density = 2.207116 g / cm^3
# Si number density = 22.121513 Si / 1000 Ang^3
#
#
#
# Elastic Constant Matrix: (Units=GPa)
#
#
# Indices 1 2 3 4 5 6 
#
# 1 116.8322 23.1307 45.5765 12.5811 -7.0468 -14.4964
# 2 23.1307 29.9358 21.7331 14.4828 -4.4564 -3.0254
# 3 45.5765 21.7331 89.4641 15.4259 -4.0772 -2.3496
# 4 12.5811 14.4828 15.4259 25.6451 -0.2784 7.8044
# 5 -7.0468 -4.4564 -4.0772 -0.2784 48.9115 8.6538
# 6 -14.4964 -3.0254 -2.3496 7.8044 8.6538 39.6242
#
#
#
# Elastic Compliance Matrix: (Units=1/GPa)
#
#
# Indices 1 2 3 4 5 6 
#
# 1 0.011955 -0.004666 -0.004544 -0.001726 0.000193 0.004046
# 2 -0.004666 0.056002 -0.006134 -0.027791 0.002499 0.007133
# 3 -0.004544 -0.006134 0.015581 -0.003509 0.000163 -0.000551
# 4 -0.001726 -0.027791 -0.003509 0.062278 -0.000026 -0.015222
# 5 0.000193 0.002499 0.000163 -0.000026 0.021496 -0.004419
# 6 0.004046 0.007133 -0.000551 -0.015222 -0.004419 0.031192
#
#
# Mechanical properties :
#
#
# Convention : Reuss Voigt Hill
#
# Bulk Modulus (GPa) = 18.92185 46.34585 32.63385
# Shear Modulus (GPa) = 20.25857 32.55560 26.40709
#
# Velocity S-wave (km/s) = 3.02948 3.84040 3.45879
# Velocity P-wave (km/s) = 4.56170 6.37659 5.54392
#
# Compressibility (1/GPa) = 0.05284895
#
# Stress axis : x y z
#
# Youngs Moduli (GPa) = 83.64473 17.85664 64.18134
#
# Poissons Ratio (x) = 0.08332 0.29167
# Poissons Ratio (y) = 0.39028 0.39369
# Poissons Ratio (z) = 0.38012 0.10953
#
# Static dielectric constant tensor:
#      x y z
#    x 1.850830 0.039430 0.046310 
#    y 0.039430 2.017950 0.048580 
#    z 0.046310 0.048580 1.928750 
# 
# From -- ./inp_files/218575.got.cif
#   From: 2010.05.17/outbox.cif.g08.bks.cpg/sg2_110_cif.got.tgz:218575.got - 2010.06.03 11:33:40.
