data_PCOD9102895
_publ_section_title
;
Structure prediction by ZEFSAII (Michael W. Deem and Ramdas Pophale) SiO2 
 PCOD9102895
Probable space group: P -1
;
_chemical_formula_sum "Si O2"
_cell_formula_units_Z 14
_cell_length_a 8.182077
_cell_length_b 7.507571
_cell_length_c 13.953272
_cell_angle_alpha 126.867445
_cell_angle_beta 90.717225
_cell_angle_gamma 121.482201
_cell_volume 513.777543
_symmetry_space_group_name_H-M "P -1"
_symmetry_group_IT_number 2
_symmetry_cell_setting 'triclinic'
loop_
_space_group_symop_operation_xyz
x,y,z
-x,-y,-z
loop_
_atom_site_type_symbol
_atom_site_label
_atom_site_fract_x
_atom_site_fract_y
_atom_site_fract_z
Si Si1 0.258572 0.390620 0.574547
Si Si2 0.117811 0.639333 0.754958
Si Si3 0.656544 0.021358 0.583561
Si Si4 0.979568 0.928812 0.119043
Si Si5 0.842622 0.881332 0.302080
Si Si6 0.592082 0.296606 0.841491
Si Si7 0.788734 0.249796 0.986563
O O1 0.276814 0.671228 0.686843
O O2 0.056761 0.209909 0.440490
O O3 0.388223 0.283284 0.507243
O O4 0.225058 0.286542 0.652052
O O5 0.899870 0.290107 0.635627
O O6 0.037332 0.820178 0.798281
O O7 0.200466 0.706445 0.886506
O O8 0.649524 0.144371 0.723327
O O9 0.500000 0.000000 0.500000
O O10 0.203807 0.011733 0.116143
O O11 0.929456 0.817341 0.192916
O O12 0.787551 0.657886 0.961628
O O13 0.628673 0.800880 0.231245
O O14 0.598628 0.220408 0.926932
O O15 0.000000 0.500000 0.000000
#
# Coordination Sequence:
#
# PCOD9102895 Si02
#       7
#     2   2   2   2   2   2   2
#     4  11  22  41  68  89 120 170 213 249 305 373
#     4  12  22  41  64  95 129 161 204 257 324 363
#     4  12  21  40  69  90 116 160 215 257 295 371
#     4  11  24  38  64  94 133 162 197 266 318 361
#     4  11  21  41  63  93 123 166 216 247 297 379
#     4  11  22  39  66  94 122 163 217 254 298 372
#     4  10  20  38  64  92 122 167 206 251 305 373
#
# _framework density 27.249148000000002
#
# number of rings (size 3 to 8) (size 9 to 14) (size 15 to 20)
#    0.000    0.857    7.143    3.429    0.000    0.571 
#    0.000    4.286    0.000    3.429    0.000    0.000 
#    0.000    0.000    0.000    0.000    0.000    0.000 
#
# Total GULP energy -78199.002167 kJ/mol
# GULP energy per Si atom -5585.643012 kJ/mol
# Density = 2.718713 g / cm^3
# Si number density = 27.249148 Si / 1000 Ang^3
#
#
#
# Elastic Constant Matrix: (Units=GPa)
#
#
# Indices 1 2 3 4 5 6 
#
# 1 138.7328 11.9082 62.7682 5.2946 -5.8993 -41.0761
# 2 11.9082 76.5558 22.7131 -1.9657 4.5598 -15.6954
# 3 62.7682 22.7131 168.1917 -27.6110 -16.4556 -12.9574
# 4 5.2946 -1.9657 -27.6110 33.7544 -11.6723 -1.2191
# 5 -5.8993 4.5598 -16.4556 -11.6723 82.5568 -7.6455
# 6 -41.0761 -15.6954 -12.9574 -1.2191 -7.6455 43.9780
#
#
#
# Elastic Compliance Matrix: (Units=1/GPa)
#
#
# Indices 1 2 3 4 5 6 
#
# 1 0.012815 0.001602 -0.005091 -0.005682 0.000017 0.010887
# 2 0.001602 0.014757 -0.002472 -0.001502 -0.000864 0.005843
# 3 -0.005091 -0.002472 0.009912 0.009710 0.002942 -0.001936
# 4 -0.005682 -0.001502 0.009710 0.040890 0.007341 -0.000573
# 5 0.000017 -0.000864 0.002942 0.007341 0.014085 0.003226
# 6 0.010887 0.005843 -0.001936 -0.000573 0.003226 0.034967
#
#
# Mechanical properties :
#
#
# Convention : Reuss Voigt Hill
#
# Bulk Modulus (GPa) = 39.11940 64.25104 51.68522
# Shear Modulus (GPa) = 33.81367 51.13054 42.47211
#
# Velocity S-wave (km/s) = 3.52647 4.33645 3.95227
# Velocity P-wave (km/s) = 5.56495 6.97878 6.31158
#
# Compressibility (1/GPa) = 0.02556276
#
# Stress axis : x y z
#
# Youngs Moduli (GPa) = 78.03355 67.76276 100.88612
#
# Poissons Ratio (x) = -0.10857 0.51364
# Poissons Ratio (y) = -0.12503 0.24937
# Poissons Ratio (z) = 0.39729 0.16749
#
# Static dielectric constant tensor:
#      x y z
#    x 2.269890 -0.039110 -0.039850 
#    y -0.039110 2.315060 0.150800 
#    z -0.039850 0.150800 2.113420 
# 
# From -- ./inp_files/218903.got.cif
#   From: 2010.05.17/outbox.cif.g08.bks.cpg/sg2_110_cif.got.tgz:218903.got - 2010.06.03 11:33:40.
