data_PCOD9102344
_publ_section_title
;
Structure prediction by ZEFSAII (Michael W. Deem and Ramdas Pophale) SiO2 
 PCOD9102344
Probable space group: P -1
;
_chemical_formula_sum "Si O2"
_cell_formula_units_Z 16
_cell_length_a 12.221595
_cell_length_b 5.066222
_cell_length_c 13.063339
_cell_angle_alpha 93.719444
_cell_angle_beta 51.262297
_cell_angle_gamma 94.447626
_cell_volume 628.876890
_symmetry_space_group_name_H-M "P -1"
_symmetry_group_IT_number 2
_symmetry_cell_setting 'triclinic'
loop_
_space_group_symop_operation_xyz
x,y,z
-x,-y,-z
loop_
_atom_site_type_symbol
_atom_site_label
_atom_site_fract_x
_atom_site_fract_y
_atom_site_fract_z
Si Si1 0.313926 0.591191 0.929144
Si Si2 0.911447 0.845866 0.900285
Si Si3 0.894771 0.247424 0.548115
Si Si4 0.802215 0.070479 0.802581
Si Si5 0.839582 0.163625 0.139031
Si Si6 0.660853 0.728186 0.356215
Si Si7 0.447613 0.260134 0.094295
Si Si8 0.657752 0.250971 0.503462
O O1 0.479004 0.661379 0.841258
O O2 0.272182 0.649559 0.839493
O O3 0.236542 0.315629 0.001296
O O4 0.260173 0.780139 0.058309
O O5 0.937187 0.953006 0.774358
O O6 0.911085 0.081212 0.987957
O O7 0.042484 0.689458 0.857370
O O8 0.810350 0.248400 0.704540
O O9 0.777044 0.258157 0.525128
O O10 0.000000 0.500000 0.500000
O O11 0.000000 0.000000 0.500000
O O12 0.714254 0.811734 0.809595
O O13 0.771942 0.899117 0.223672
O O14 0.694501 0.463317 0.394902
O O15 0.510244 0.698343 0.383375
O O16 0.649531 0.951664 0.457786
O O17 0.500000 0.500000 0.000000
O O18 0.500000 0.000000 0.000000
#
# Coordination Sequence:
#
# PCOD9102344 Si02
#       8
#     2   2   2   2   2   2   2   2
#     4  10  21  39  63  95 131 169 213 264 330 406
#     4  10  21  40  59  96 134 165 219 260 330 411
#     4  12  29  46  69 104 134 180 232 280 338 408
#     4  10  24  41  63  93 133 176 211 274 333 390
#     4  10  23  36  64  97 127 171 219 267 335 388
#     4  10  23  46  73  97 129 183 218 296 329 383
#     4  10  20  38  62  92 126 167 211 255 321 399
#     4  10  24  47  69  99 134 168 242 274 337 393
#
# _framework density 25.442181000000001
#
# number of rings (size 3 to 8) (size 9 to 14) (size 15 to 20)
#    0.000    1.750    1.250    1.125    8.750    0.000 
#    0.000    1.250    0.000    0.000    0.000    0.000 
#    0.000    0.000    0.000    0.000    0.000    0.000 
#
# Total GULP energy -89114.393558 kJ/mol
# GULP energy per Si atom -5569.649597 kJ/mol
# Density = 2.538427 g / cm^3
# Si number density = 25.442181 Si / 1000 Ang^3
#
#
#
# Elastic Constant Matrix: (Units=GPa)
#
#
# Indices 1 2 3 4 5 6 
#
# 1 191.6227 20.3463 44.4830 -5.1504 39.8932 10.2877
# 2 20.3463 119.6342 10.2982 -19.8865 5.2904 -2.0986
# 3 44.4830 10.2982 85.1914 -22.8347 15.8867 0.8703
# 4 -5.1504 -19.8865 -22.8347 37.1318 -8.4892 -0.9435
# 5 39.8932 5.2904 15.8867 -8.4892 42.0256 -4.2918
# 6 10.2877 -2.0986 0.8703 -0.9435 -4.2918 35.7183
#
#
#
# Elastic Compliance Matrix: (Units=1/GPa)
#
#
# Indices 1 2 3 4 5 6 
#
# 1 0.007649 -0.001323 -0.003446 -0.003399 -0.006795 -0.003103
# 2 -0.001323 0.009426 0.000869 0.005659 0.001005 0.001184
# 3 -0.003446 0.000869 0.016213 0.009770 -0.000912 0.000797
# 4 -0.003399 0.005659 0.009770 0.037080 0.006602 0.002846
# 5 -0.006795 0.001005 -0.000912 0.006602 0.032421 0.006108
# 6 -0.003103 0.001184 0.000797 0.002846 0.006108 0.029750
#
#
# Mechanical properties :
#
#
# Convention : Reuss Voigt Hill
#
# Bulk Modulus (GPa) = 39.23600 60.74481 49.99041
# Shear Modulus (GPa) = 33.59391 44.39653 38.99522
#
# Velocity S-wave (km/s) = 3.63768 4.18185 3.91922
# Velocity P-wave (km/s) = 5.75315 6.87347 6.33811
#
# Compressibility (1/GPa) = 0.02548679
#
# Stress axis : x y z
#
# Youngs Moduli (GPa) = 130.73639 106.08893 61.67766
#
# Poissons Ratio (x) = 0.14038 0.21256
# Poissons Ratio (y) = 0.17299 -0.05358
# Poissons Ratio (z) = 0.45056 -0.09216
#
# Static dielectric constant tensor:
#      x y z
#    x 2.323110 -0.206100 -0.173420 
#    y -0.206100 2.090290 0.165000 
#    z -0.173420 0.165000 2.236440 
# 
# From -- ./inp_files/410458.got.cif
#   From: 2010.05.17/outbox.cif.g08.bks.cpg/sg2_206_cif.got.tgz:410458.got - 2010.06.03 11:33:40.
