data_PCOD9102151
_publ_section_title
;
Structure prediction by ZEFSAII (Michael W. Deem and Ramdas Pophale) SiO2 
 PCOD9102151
Probable space group: P -1
;
_chemical_formula_sum "Si O2"
_cell_formula_units_Z 16
_cell_length_a 11.947540
_cell_length_b 12.855877
_cell_length_c 9.196224
_cell_angle_alpha 128.690145
_cell_angle_beta 55.276795
_cell_angle_gamma 131.844828
_cell_volume 792.535740
_symmetry_space_group_name_H-M "P -1"
_symmetry_group_IT_number 2
_symmetry_cell_setting 'triclinic'
loop_
_space_group_symop_operation_xyz
x,y,z
-x,-y,-z
loop_
_atom_site_type_symbol
_atom_site_label
_atom_site_fract_x
_atom_site_fract_y
_atom_site_fract_z
Si Si1 0.607261 0.356796 0.714243
Si Si2 0.347623 0.019545 0.522450
Si Si3 0.076172 0.170952 0.026708
Si Si4 0.876319 0.886703 0.378518
Si Si5 0.596641 0.648477 0.896060
Si Si6 0.409139 0.318114 0.400668
Si Si7 0.808007 0.234098 0.342021
Si Si8 0.548197 0.100761 0.195078
O O1 0.472281 0.189063 0.625781
O O2 0.586435 0.483401 0.752069
O O3 0.766838 0.358595 0.551758
O O4 0.560977 0.374441 0.928985
O O5 0.206281 0.024082 0.552265
O O6 0.440473 0.985051 0.299990
O O7 0.284139 0.907633 0.604810
O O8 0.253396 0.256215 0.028061
O O9 0.979983 0.254960 0.223456
O O10 0.067386 0.162660 0.850551
O O11 0.000000 0.000000 0.000000
O O12 0.746453 0.746850 0.444535
O O13 0.000000 0.000000 0.500000
O O14 0.624226 0.721266 0.780384
O O15 0.500000 0.500000 0.500000
O O16 0.500806 0.232566 0.318347
O O17 0.721576 0.182139 0.204141
O O18 0.500000 0.000000 0.000000
#
# Coordination Sequence:
#
# PCOD9102151 Si02
#       8
#     2   2   2   2   2   2   2   2
#     4  10  21  40  65  94 119 163 221 264 310 374
#     4  10  20  38  62  86 124 161 209 264 310 373
#     4  12  24  40  65  94 125 172 216 257 324 388
#     4  11  23  39  61  95 133 164 214 268 326 384
#     4  11  23  40  70  90 122 167 223 258 317 393
#     4  11  25  42  67  95 132 170 218 273 330 385
#     4  11  23  39  63  89 134 161 211 267 317 385
#     4  10  23  35  60  96 124 164 214 270 321 380
#
# _framework density 20.188364
#
# number of rings (size 3 to 8) (size 9 to 14) (size 15 to 20)
#    0.000    1.250    2.500    4.500   10.500    0.500 
#    0.000    0.000    0.000    1.500    0.000    0.000 
#    0.000    0.000    0.000    0.000    0.000    0.000 
#
# Total GULP energy -89277.673600 kJ/mol
# GULP energy per Si atom -5579.854600 kJ/mol
# Density = 2.014241 g / cm^3
# Si number density = 20.188364 Si / 1000 Ang^3
#
#
#
# Elastic Constant Matrix: (Units=GPa)
#
#
# Indices 1 2 3 4 5 6 
#
# 1 84.7511 19.5958 37.1162 -9.6697 -7.5093 -4.8951
# 2 19.5958 84.6940 24.7968 -7.7364 14.7532 -9.7624
# 3 37.1162 24.7968 111.1757 -21.4341 -1.7167 -1.1999
# 4 -9.6697 -7.7364 -21.4341 35.3062 -2.1285 6.3560
# 5 -7.5093 14.7532 -1.7167 -2.1285 33.6599 -7.4579
# 6 -4.8951 -9.7624 -1.1999 6.3560 -7.4579 25.8035
#
#
#
# Elastic Compliance Matrix: (Units=1/GPa)
#
#
# Indices 1 2 3 4 5 6 
#
# 1 0.014928 -0.002717 -0.004120 0.000778 0.004995 0.002865
# 2 -0.002717 0.014621 -0.002409 0.000064 -0.006464 0.003020
# 3 -0.004120 -0.002409 0.012077 0.006157 0.000593 -0.002477
# 4 0.000778 0.000064 0.006157 0.033708 0.000911 -0.007582
# 5 0.004995 -0.006464 0.000593 0.000911 0.035652 0.008609
# 6 0.002865 0.003020 -0.002477 -0.007582 0.008609 0.044681
#
#
# Mechanical properties :
#
#
# Convention : Reuss Voigt Hill
#
# Bulk Modulus (GPa) = 43.22416 49.29315 46.25865
# Shear Modulus (GPa) = 27.49195 32.22806 29.86001
#
# Velocity S-wave (km/s) = 3.69422 3.99979 3.85004
# Velocity P-wave (km/s) = 6.29709 6.76762 6.53659
#
# Compressibility (1/GPa) = 0.02313521
#
# Stress axis : x y z
#
# Youngs Moduli (GPa) = 66.98617 68.39446 82.80146
#
# Poissons Ratio (x) = 0.18580 0.34114
# Poissons Ratio (y) = 0.18198 0.19947
# Poissons Ratio (z) = 0.27598 0.16477
#
# Static dielectric constant tensor:
#      x y z
#    x 1.739710 0.002220 -0.013860 
#    y 0.002220 1.701880 -0.012390 
#    z -0.013860 -0.012390 1.824030 
# 
# From -- ./inp_files/263373.got.cif
#   From: 2010.05.17/outbox.cif.g08.bks.cpg/sg2_132_cif.got.tgz:263373.got - 2010.06.03 11:33:40.
