data_PCOD9102877
_publ_section_title
;
Structure prediction by ZEFSAII (Michael W. Deem and Ramdas Pophale) SiO2 
 PCOD9102877
Probable space group: P -1
;
_chemical_formula_sum "Si O2"
_cell_formula_units_Z 14
_cell_length_a 14.909900
_cell_length_b 14.922706
_cell_length_c 9.829943
_cell_angle_alpha 154.918205
_cell_angle_beta 39.585830
_cell_angle_gamma 140.856028
_cell_volume 565.931009
_symmetry_space_group_name_H-M "P -1"
_symmetry_group_IT_number 2
_symmetry_cell_setting 'triclinic'
loop_
_space_group_symop_operation_xyz
x,y,z
-x,-y,-z
loop_
_atom_site_type_symbol
_atom_site_label
_atom_site_fract_x
_atom_site_fract_y
_atom_site_fract_z
Si Si1 0.598304 0.334130 0.633709
Si Si2 0.443918 0.567330 0.469863
Si Si3 0.133219 0.789160 0.479096
Si Si4 0.031389 0.070414 0.360521
Si Si5 0.906998 0.659982 0.792817
Si Si6 0.672298 0.940614 0.161607
Si Si7 0.749708 0.594199 0.263835
O O1 0.585830 0.290772 0.426471
O O2 0.753173 0.503973 0.718846
O O3 0.595835 0.115362 0.423915
O O4 0.500000 0.500000 0.000000
O O5 0.611863 0.657933 0.447688
O O6 0.327522 0.534746 0.684760
O O7 0.421284 0.312540 0.096713
O O8 0.265189 0.988895 0.661921
O O9 0.063294 0.791143 0.415354
O O10 0.991987 0.775305 0.718587
O O11 0.197190 0.581965 0.127269
O O12 0.109214 0.204030 0.583688
O O13 0.177819 0.042794 0.075272
O O14 0.918057 0.830534 0.136187
O O15 0.000000 0.500000 0.500000
#
# Coordination Sequence:
#
# PCOD9102877 Si02
#       7
#     2   2   2   2   2   2   2
#     4  12  24  40  68 100 128 164 221 274 318 383
#     4  10  23  43  67  89 136 179 208 262 337 374
#     4  11  20  37  69  93 124 164 222 267 322 381
#     4  10  20  38  64  91 125 168 215 259 325 383
#     4  11  21  39  64  91 128 161 210 276 318 360
#     4  10  21  41  66  95 125 166 222 273 314 380
#     4  10  22  41  64  94 131 172 215 263 316 404
#
# _framework density 24.737997
#
# number of rings (size 3 to 8) (size 9 to 14) (size 15 to 20)
#    0.000    1.429    2.857    5.571    0.000    3.429 
#    0.000    7.143    6.286    0.000    0.000    0.000 
#    0.000    0.000    0.000    0.000    0.000    0.000 
#
# Total GULP energy -78184.158917 kJ/mol
# GULP energy per Si atom -5584.582780 kJ/mol
# Density = 2.468169 g / cm^3
# Si number density = 24.737997 Si / 1000 Ang^3
#
#
#
# Elastic Constant Matrix: (Units=GPa)
#
#
# Indices 1 2 3 4 5 6 
#
# 1 160.0098 37.6757 11.4569 -1.1130 1.5247 19.5144
# 2 37.6757 56.3542 2.9149 -0.5369 -12.3529 6.7062
# 3 11.4569 2.9149 54.9107 -7.5892 -4.5720 -7.6521
# 4 -1.1130 -0.5369 -7.5892 33.9297 6.9937 0.5062
# 5 1.5247 -12.3529 -4.5720 6.9937 54.0851 -0.9897
# 6 19.5144 6.7062 -7.6521 0.5062 -0.9897 36.8200
#
#
#
# Elastic Compliance Matrix: (Units=1/GPa)
#
#
# Indices 1 2 3 4 5 6 
#
# 1 0.008113 -0.005229 -0.002071 0.000124 -0.001684 -0.003825
# 2 -0.005229 0.022552 0.000057 -0.000897 0.005398 -0.001167
# 3 -0.002071 0.000057 0.020042 0.004062 0.001336 0.005233
# 4 0.000124 -0.000897 0.004062 0.031166 -0.003888 0.000409
# 5 -0.001684 0.005398 0.001336 -0.003888 0.020400 0.000789
# 6 -0.003825 -0.001167 0.005233 0.000409 0.000789 0.030502
#
#
# Mechanical properties :
#
#
# Convention : Reuss Voigt Hill
#
# Bulk Modulus (GPa) = 27.60968 41.70775 34.65872
# Shear Modulus (GPa) = 31.38045 39.58213 35.48129
#
# Velocity S-wave (km/s) = 3.56548 4.00441 3.79130
# Velocity P-wave (km/s) = 5.30427 6.18682 5.76247
#
# Compressibility (1/GPa) = 0.03621918
#
# Stress axis : x y z
#
# Youngs Moduli (GPa) = 123.26542 44.34285 49.89417
#
# Poissons Ratio (x) = 0.23189 0.10334
# Poissons Ratio (y) = 0.64461 -0.00284
# Poissons Ratio (z) = 0.25529 -0.00252
#
# Static dielectric constant tensor:
#      x y z
#    x 2.019890 -0.138000 0.037540 
#    y -0.138000 2.071650 -0.015520 
#    z 0.037540 -0.015520 1.925060 
# 
# From -- ./inp_files/186581.got.cif
#   From: 2010.05.17/outbox.cif.g08.bks.cpg/sg2_94_cif.got.tgz:186581.got - 2010.06.03 11:33:40.
