data_PCOD9102994
_publ_section_title
;
Structure prediction by ZEFSAII (Michael W. Deem and Ramdas Pophale) SiO2 
 PCOD9102994
Probable space group: P -1
;
_chemical_formula_sum "Si O2"
_cell_formula_units_Z 15
_cell_length_a 8.095808
_cell_length_b 7.717234
_cell_length_c 18.705360
_cell_angle_alpha 45.084882
_cell_angle_beta 135.234313
_cell_angle_gamma 123.886601
_cell_volume 579.076711
_symmetry_space_group_name_H-M "P -1"
_symmetry_group_IT_number 2
_symmetry_cell_setting 'triclinic'
loop_
_space_group_symop_operation_xyz
x,y,z
-x,-y,-z
loop_
_atom_site_type_symbol
_atom_site_label
_atom_site_fract_x
_atom_site_fract_y
_atom_site_fract_z
Si Si1 0.014868 0.920483 0.609439
Si Si2 0.789214 0.565109 0.966914
Si Si3 0.751084 0.083220 0.181482
Si Si4 0.892473 0.346152 0.754599
Si Si5 0.662852 0.298285 0.424125
Si Si6 0.639619 0.658293 0.187710
Si Si7 0.261018 0.896822 0.360171
Si Si8 0.000000 0.000000 0.000000
O O1 0.247601 0.939017 0.725860
O O2 0.898262 0.640571 0.665391
O O3 0.000000 0.000000 0.500000
O O4 0.865433 0.120975 0.537495
O O5 0.741931 0.360234 0.073981
O O6 0.563067 0.520040 0.859691
O O7 0.854291 0.827990 0.945179
O O8 0.000000 0.500000 0.000000
O O9 0.566759 0.910224 0.126387
O O10 0.001866 0.995025 0.258079
O O11 0.721905 0.204082 0.685268
O O12 0.155208 0.298583 0.820677
O O13 0.880769 0.244124 0.860381
O O14 0.722898 0.522283 0.324013
O O15 0.664711 0.329155 0.500983
O O16 0.438904 0.130222 0.372029
#
# Coordination Sequence:
#
# PCOD9102994 Si02
#       8
#     2   2   2   2   2   2   2   1
#     4  11  22  39  63  95 136 166 214 278 329 395
#     4  12  25  47  69  98 136 175 228 278 334 402
#     4  10  22  41  65  95 127 172 226 272 328 396
#     4  11  23  43  64  96 132 175 219 275 336 394
#     4  10  20  38  64  95 128 169 218 270 330 404
#     4  11  23  41  70  97 128 178 223 274 337 398
#     4   9  21  39  65  90 128 172 217 273 331 389
#     4  12  26  46  70  96 136 180 218 282 334 396
#
# _framework density 25.903307000000002
#
# number of rings (size 3 to 8) (size 9 to 14) (size 15 to 20)
#    0.000    1.333    2.667    3.600    1.867    2.667 
#    2.400    0.000    0.000    0.000    0.000    0.000 
#    0.000    0.000    0.000    0.000    0.000    0.000 
#
# Total GULP energy -83596.206875 kJ/mol
# GULP energy per Si atom -5573.080458 kJ/mol
# Density = 2.584435 g / cm^3
# Si number density = 25.903307 Si / 1000 Ang^3
#
#
#
# Elastic Constant Matrix: (Units=GPa)
#
#
# Indices 1 2 3 4 5 6 
#
# 1 28.4408 4.8741 8.6407 13.7780 -6.1190 -0.2867
# 2 4.8741 133.8345 41.5233 3.9647 -12.4109 -25.7304
# 3 8.6407 41.5233 123.1427 9.6340 -34.5040 -9.6060
# 4 13.7780 3.9647 9.6340 49.6942 -9.3150 -4.5786
# 5 -6.1190 -12.4109 -34.5040 -9.3150 22.7760 6.6067
# 6 -0.2867 -25.7304 -9.6060 -4.5786 6.6067 28.1276
#
#
#
# Elastic Compliance Matrix: (Units=1/GPa)
#
#
# Indices 1 2 3 4 5 6 
#
# 1 0.042073 -0.001385 0.000177 -0.010531 0.007761 -0.004315
# 2 -0.001385 0.009962 -0.003216 0.000619 -0.002052 0.008583
# 3 0.000177 -0.003216 0.015238 0.001248 0.022722 -0.002870
# 4 -0.010531 0.000619 0.001248 0.024636 0.008643 0.002865
# 5 0.007761 -0.002052 0.022722 0.008643 0.086593 -0.012970
# 6 -0.004315 0.008583 -0.002870 0.002865 -0.012970 0.045893
#
#
# Mechanical properties :
#
#
# Convention : Reuss Voigt Hill
#
# Bulk Modulus (GPa) = 17.11627 43.94381 30.53004
# Shear Modulus (GPa) = 19.78507 35.47821 27.63164
#
# Velocity S-wave (km/s) = 2.76670 3.70488 3.26961
# Velocity P-wave (km/s) = 4.10223 5.94162 5.10545
#
# Compressibility (1/GPa) = 0.05842395
#
# Stress axis : x y z
#
# Youngs Moduli (GPa) = 23.76845 100.38619 65.62645
#
# Poissons Ratio (x) = 0.13903 -0.01159
# Poissons Ratio (y) = 0.03292 0.21103
# Poissons Ratio (z) = -0.00420 0.32281
#
# Static dielectric constant tensor:
#      x y z
#    x 2.807500 0.066100 -0.375560 
#    y 0.066100 2.066640 -0.000570 
#    z -0.375560 -0.000570 2.195400 
# 
# From -- ./inp_files/587193.got.cif
#   From: 2010.05.17/outbox.cif.g08.bks.cpg/sg2_294_cif.got.tgz:587193.got - 2010.06.03 11:33:40.
